#------------------------------------------------------------------------------
#$Date: 2016-08-05 06:37:20 +0300 (Fri, 05 Aug 2016) $
#$Revision: 184959 $
#$URL: file:///home/coder/svn-repositories/cod/cif/1/54/32/1543237.cif $
#------------------------------------------------------------------------------
#
# This file is available in the Crystallography Open Database (COD),
# http://www.crystallography.net/
#
# All data on this site have been placed in the public domain by the
# contributors.
#
data_1543237
loop_
_publ_author_name
'Ge, Qingmei'
'Hu, Yang'
'Li, Bin'
'Wang, Baiquan'
_publ_section_title
;
 Synthesis of Conjugated Polycyclic Quinoliniums by Rhodium(III)-Catalyzed
 Multiple C-H Activation and Annulation of Arylpyridiniums with Alkynes.
;
_journal_issue                   10
_journal_name_full               'Organic letters'
_journal_page_first              2483
_journal_page_last               2486
_journal_paper_doi               10.1021/acs.orglett.6b01055
_journal_volume                  18
_journal_year                    2016
_chemical_formula_moiety         'C39 H26 N, C F3 O3 S'
_chemical_formula_sum            'C40 H26 F3 N O3 S'
_chemical_formula_weight         657.68
_chemical_name_systematic
;
 ? 
;
_space_group_crystal_system      monoclinic
_space_group_IT_number           15
_space_group_name_Hall           '-C 2yc'
_space_group_name_H-M_alt        'C 1 2/c 1'
_symmetry_space_group_name_Hall  '-C 2yc'
_symmetry_space_group_name_H-M   'C 1 2/c 1'
_atom_sites_solution_hydrogens   geom
_audit_creation_date             2016-04-05
_audit_creation_method
;
Olex2 1.2
(compiled 2015.09.30 svn.r3233 for OlexSys, GUI svn.r5155)
;
_cell_angle_alpha                90
_cell_angle_beta                 99.855(2)
_cell_angle_gamma                90
_cell_formula_units_Z            4
_cell_length_a                   26.374(3)
_cell_length_b                   7.9979(9)
_cell_length_c                   15.0584(18)
_cell_measurement_reflns_used    5446
_cell_measurement_temperature    113
_cell_measurement_theta_max      27.5
_cell_measurement_theta_min      3.1
_cell_volume                     3129.5(6)
_computing_cell_refinement
;
CrystalClear-SM Expert 2.1 b42 (Rigaku, 2015)
;
_computing_data_collection
;
CrystalClear-SM Expert 2.1 b42 (Rigaku, 2015)
;
_computing_data_reduction
;
CrystalClear-SM Expert 2.1 b42 (Rigaku, 2015)
;
_computing_molecular_graphics    'Olex2 (Dolomanov et al., 2009)'
_computing_publication_material  'Olex2 (Dolomanov et al., 2009)'
_computing_structure_refinement  'ShelXL (Sheldrick, 2015)'
_computing_structure_solution    'ShelXS (Sheldrick, 2008)'
_diffrn_ambient_temperature      113
_diffrn_detector                 PILT
_diffrn_detector_area_resol_mean 5.8140
_diffrn_measured_fraction_theta_full 0.995
_diffrn_measured_fraction_theta_max 0.995
_diffrn_measurement_details
;
scan:
    Number of images: 360
               Slice: -105.0000 - 75.0000
         Image width: 0.5000
            Exp time: 2.0000
       Rotation axis: Omega
               Omega: 0.0000
                 Chi: 45.0000
                 Phi: 0.0000
                 XTD: 44.9781
              2theta: -15.0987
scan:
    Number of images: 360
               Slice: -105.0000 - 75.0000
         Image width: 0.5000
            Exp time: 2.0000
       Rotation axis: Omega
               Omega: 0.0000
                 Chi: 45.0000
                 Phi: 90.0000
                 XTD: 44.9781
              2theta: -15.0987
scan:
    Number of images: 360
               Slice: -105.0000 - 75.0000
         Image width: 0.5000
            Exp time: 2.0000
       Rotation axis: Omega
               Omega: 0.0000
                 Chi: 45.0000
                 Phi: 180.0000
                 XTD: 44.9781
              2theta: -15.0987
;
_diffrn_measurement_device
;
AFC10: Fixed Chi 2 circle
;
_diffrn_measurement_device_type  'Rigaku Pilatus 200K'
_diffrn_measurement_method       '\w scans'
_diffrn_measurement_specimen_support Fiber
_diffrn_orient_matrix_type       d*Trek
_diffrn_orient_matrix_UB_11      -0.004288
_diffrn_orient_matrix_UB_12      0.020794
_diffrn_orient_matrix_UB_13      -0.032097
_diffrn_orient_matrix_UB_21      0.122259
_diffrn_orient_matrix_UB_22      -0.011276
_diffrn_orient_matrix_UB_23      -0.023637
_diffrn_orient_matrix_UB_31      -0.013064
_diffrn_orient_matrix_UB_32      -0.049324
_diffrn_orient_matrix_UB_33      -0.044041
_diffrn_radiation_monochromator  Confocal
_diffrn_radiation_type           MoK\a
_diffrn_radiation_wavelength     0.71073
_diffrn_reflns_av_R_equivalents  0.0194
_diffrn_reflns_av_unetI/netI     0.0106
_diffrn_reflns_Laue_measured_fraction_full 0.995
_diffrn_reflns_Laue_measured_fraction_max 0.995
_diffrn_reflns_limit_h_max       31
_diffrn_reflns_limit_h_min       -31
_diffrn_reflns_limit_k_max       9
_diffrn_reflns_limit_k_min       -9
_diffrn_reflns_limit_l_max       17
_diffrn_reflns_limit_l_min       -17
_diffrn_reflns_number            15132
_diffrn_reflns_point_group_measured_fraction_full 0.995
_diffrn_reflns_point_group_measured_fraction_max 0.995
_diffrn_reflns_theta_full        25.019
_diffrn_reflns_theta_max         25.019
_diffrn_reflns_theta_min         3.059
_diffrn_source                   'Rotating Anode'
_diffrn_source_current           24.0
_diffrn_source_power             1.2
_diffrn_source_voltage           50.0
_exptl_absorpt_coefficient_mu    0.164
_exptl_absorpt_correction_T_max  1.000
_exptl_absorpt_correction_T_min  0.919
_exptl_absorpt_correction_type   multi-scan
_exptl_absorpt_process_details   'REQAB (Rigaku, 1998)'
_exptl_crystal_colour            Colorless
_exptl_crystal_density_diffrn    1.396
_exptl_crystal_density_method    "'not measured'"
_exptl_crystal_description       Prism
_exptl_crystal_F_000             1360
_exptl_crystal_preparation       Fiber
_exptl_crystal_size_max          0.2
_exptl_crystal_size_mid          0.18
_exptl_crystal_size_min          0.12
_refine_diff_density_max         0.732
_refine_diff_density_min         -0.334
_refine_diff_density_rms         0.051
_refine_ls_extinction_coef       0.0037(5)
_refine_ls_extinction_expression Fc^*^=kFc[1+0.001xFc^2^\l^3^/sin(2\q)]^-1/4^
_refine_ls_extinction_method     'SHELXL-2014/8 (Sheldrick 2014'
_refine_ls_goodness_of_fit_ref   1.046
_refine_ls_hydrogen_treatment    constr
_refine_ls_matrix_type           full
_refine_ls_number_parameters     248
_refine_ls_number_reflns         2751
_refine_ls_number_restraints     66
_refine_ls_restrained_S_all      1.130
_refine_ls_R_factor_all          0.0531
_refine_ls_R_factor_gt           0.0510
_refine_ls_shift/su_max          0.000
_refine_ls_shift/su_mean         0.000
_refine_ls_structure_factor_coef Fsqd
_refine_ls_weighting_details
'w=1/[\s^2^(Fo^2^)+(0.0589P)^2^+6.2077P] where P=(Fo^2^+2Fc^2^)/3'
_refine_ls_weighting_scheme      calc
_refine_ls_wR_factor_gt          0.1303
_refine_ls_wR_factor_ref         0.1317
_reflns_Friedel_coverage         0.000
_reflns_number_gt                2577
_reflns_number_total             2751
_reflns_threshold_expression     'I > 2\s(I)'
_cod_data_source_file            ol6b01055_si_002.cif
_cod_data_source_block           shelx
_cod_depositor_comments
;
The following automatic conversions were performed:

'_exptl_absorpt_correction_type' value 'Multi-scan' changed to
'multi-scan' according to
/usr/data/users/saulius/crontab/automatic-downloads/rss-feeds/ACS/lib/dictionaries/cif_core.dic
dictionary named 'cif_core.dic' version 2.4.2 from 2011-04-26.

Automatic conversion script
Id: cif_fix_values 4268 2015-11-12 08:31:59Z antanas 

 Adding full bibliography for 1543237.cif.
;
_cod_database_code               1543237
_shelx_space_group_comment
;
The symmetry employed for this shelxl refinement is uniquely defined
by the following loop, which should always be used as a source of
symmetry information in preference to the above space-group names.
They are only intended as comments.
;
_shelx_estimated_absorpt_t_max   0.981
_shelx_estimated_absorpt_t_min   0.968
_olex2_refinement_description
;
1. Fixed Uiso
 At 1.2 times of:
  All C(H) groups
2. Shared sites
{C1, N1}
3. Restrained distances
 C21-F1 = C21-F2 = C21-F3
 1.35 with sigma of 0.01
 F1-F2 \\sim F1-F3 \\sim F2-F3
 with sigma of 0.01
 S1-O1 \\sim S1-O2 \\sim S1-O3
 with sigma of 0.01
 O1-O2 \\sim O1-O3 \\sim O2-O3
 with sigma of 0.01
 F1-S1 \\sim F2-S1 \\sim F3-S1
 with sigma of 0.01
 C21-O1 \\sim C21-O2 \\sim C21-O3
 with sigma of 0.01
4. Uiso/Uaniso restraints and constraints
Uanis(S1) \\sim Ueq, Uanis(C21) \\sim Ueq, Uanis(F1) \\sim Ueq, Uanis(F2) \\sim
Ueq, Uanis(F3) \\sim Ueq, Uanis(O1) \\sim Ueq, Uanis(O2) \\sim Ueq, Uanis(O3)
\\sim Ueq: with sigma of 0.01 and sigma for terminal atoms of 0.02
Uanis(S1) = Uanis(C21)
Uanis(C1) = Uanis(N1)
5. Others
 Fixed Sof: N1(0.5) C1(0.5) S1(0.5) O1(0.5) O2(0.5) O3(0.5) F1(0.5) F2(0.5)
 F3(0.5) C21(0.5)
6.a Aromatic/amide H refined with riding coordinates:
 C3(H3), C4(H4), C5(H5), C9(H9), C10(H10), C11(H11), C12(H12), C13(H13),
 C16(H16), C17(H17), C18(H18), C19(H19), C20(H20)
;
_shelx_res_file
;
    shelx.res created by SHELXL-2014/8

TITL shelx in C2/c
CELL 0.71073 26.3742 7.9979 15.0584 90 99.855 90
ZERR 4 0.0032 0.0009 0.0018 0 0.002 0
LATT 7
SYMM -X,+Y,0.5-Z
SFAC C H N O F S
UNIT 160 104 4 12 12 4
DFIX 1.35 0.01 C21 F1 C21 F2 C21 F3
SADI 0.01 F1 F2 F1 F3 F2 F3
SADI 0.01 S1 O1 S1 O2 S1 O3
SADI 0.01 O1 O2 O1 O3 O2 O3
SADI 0.01 F1 S1 F2 S1 F3 S1
SADI 0.01 C21 O1 C21 O2 C21 O3
ISOR 0.01 0.02 S1 C21 F1 F2 F3 O1 O2 O3
EADP S1 C21
EADP C1 N1
EXYZ C1 N1

L.S. 12
PLAN  20
SIZE 0.2 0.18 0.12
TEMP -160
BOND $H
HTAB
CONF
MORE -1
fmap 2
acta
OMIT -3 50.04
REM <olex2.extras>
REM <HklSrc "%.\\shelx.hkl">
REM </olex2.extras>

WGHT    0.058900    6.207700
EXTI    0.003718
FVAR       0.12191
N1    3    0.490250    0.796202    0.203935    10.50000    0.01848    0.01424 =
         0.01848   -0.00013    0.00412   -0.00053
C1    1    0.490250    0.796202    0.203935    10.50000    0.01848    0.01424 =
         0.01848   -0.00013    0.00412   -0.00053
C2    1    0.436603    0.802722    0.173820    11.00000    0.01839    0.01491 =
         0.02280    0.00083    0.00425   -0.00110
C3    1    0.418172    0.812173    0.081635    11.00000    0.01671    0.02202 =
         0.02372    0.00016    0.00181   -0.00150
AFIX  43
H3    2    0.382119    0.819030    0.061015    11.00000   -1.20000
AFIX   0
C4    1    0.450974    0.811816    0.019620    11.00000    0.02330    0.02354 =
         0.01907    0.00090    0.00246   -0.00154
AFIX  43
H4    2    0.437683    0.820143   -0.042969    11.00000   -1.20000
AFIX   0
C5    1    0.503399    0.799233    0.049277    11.00000    0.02249    0.02176 =
         0.01990    0.00015    0.00750   -0.00146
AFIX  43
H5    2    0.525964    0.796114    0.006432    11.00000   -1.20000
AFIX   0
C6    1    0.523730    0.791053    0.140715    11.00000    0.01868    0.01543 =
         0.02221    0.00030    0.00580   -0.00122
C7    1    0.578388    0.780981    0.172010    11.00000    0.01947    0.01635 =
         0.02328   -0.00012    0.00615   -0.00133
C8    1    0.612977    0.758509    0.104064    11.00000    0.01514    0.02518 =
         0.01876    0.00088    0.00219    0.00151
C9    1    0.611817    0.610105    0.055633    11.00000    0.02566    0.02729 =
         0.03098   -0.00339    0.01030   -0.00362
AFIX  43
H9    2    0.588824    0.523352    0.065553    11.00000   -1.20000
AFIX   0
C10   1    0.644182    0.588260   -0.007236    11.00000    0.03038    0.03307 =
         0.03054   -0.00867    0.00989    0.00204
AFIX  43
H10   2    0.643161    0.486740   -0.040247    11.00000   -1.20000
AFIX   0
C11   1    0.677886    0.713830   -0.021924    11.00000    0.02113    0.04316 =
         0.02311    0.00034    0.00869    0.00471
AFIX  43
H11   2    0.700096    0.698471   -0.064710    11.00000   -1.20000
AFIX   0
C12   1    0.679108    0.862036    0.026024    11.00000    0.01887    0.03766 =
         0.02333    0.00373    0.00441   -0.00439
AFIX  43
H12   2    0.702147    0.948528    0.015929    11.00000   -1.20000
AFIX   0
C13   1    0.646816    0.884627    0.088723    11.00000    0.01994    0.02556 =
         0.01988    0.00012    0.00240   -0.00069
AFIX  43
H13   2    0.647800    0.986598    0.121328    11.00000   -1.20000
AFIX   0
C14   1    0.597668    0.792551    0.261453    11.00000    0.01873    0.01637 =
         0.02319   -0.00041    0.00540   -0.00026
C15   1    0.654346    0.785581    0.295072    11.00000    0.01915    0.03020 =
         0.01638    0.00047    0.00600    0.00072
C16   1    0.680332    0.634097    0.296140    11.00000    0.02502    0.03336 =
         0.02399    0.00099    0.00403    0.00503
AFIX  43
H16   2    0.662045    0.534997    0.276036    11.00000   -1.20000
AFIX   0
C17   1    0.733165    0.627923    0.326705    11.00000    0.02697    0.05056 =
         0.02931    0.00195    0.00370    0.01553
AFIX  43
H17   2    0.750907    0.524429    0.327422    11.00000   -1.20000
AFIX   0
C18   1    0.759942    0.771867    0.356043    11.00000    0.01767    0.06756 =
         0.02782   -0.00213    0.00141    0.00463
AFIX  43
H18   2    0.795990    0.766969    0.377033    11.00000   -1.20000
AFIX   0
C19   1    0.734368    0.922666    0.354874    11.00000    0.02257    0.05302 =
         0.02768   -0.00723    0.00505   -0.00884
AFIX  43
H19   2    0.752841    1.021521    0.374809    11.00000   -1.20000
AFIX   0
C20   1    0.681465    0.929868    0.324455    11.00000    0.02255    0.03470 =
         0.02565   -0.00381    0.00650   -0.00182
AFIX  43
H20   2    0.663893    1.033667    0.323801    11.00000   -1.20000
AFIX   0

PART -1
S1    6    0.466474    0.276562    0.225514    10.50000    0.07331    0.02833 =
         0.03678   -0.00696    0.00083   -0.00087
O1    4    0.435126    0.194158    0.282690    10.50000    0.10293    0.07254 =
         0.06834   -0.01183    0.03915   -0.03479
O2    4    0.480679    0.167452    0.160564    10.50000    0.12907    0.03908 =
         0.03293   -0.00896    0.01206   -0.00299
O3    4    0.446663    0.434852    0.193139    10.50000    0.13704    0.03557 =
         0.07130   -0.00093   -0.03866    0.01268
F1    5    0.548741    0.183273    0.336930    10.50000    0.09100    0.03078 =
         0.07442    0.01118   -0.00877    0.01461
F2    5    0.519481    0.421931    0.367271    10.50000    0.14283    0.03759 =
         0.04445   -0.01015   -0.01866   -0.00005
F3    5    0.558465    0.399680    0.254662    10.50000    0.10176    0.07223 =
         0.10013    0.00690    0.02925   -0.04502
C21   1    0.520238    0.327430    0.300978    10.50000    0.07331    0.02833 =
         0.03678   -0.00696    0.00083   -0.00087
HKLF 4

REM  shelx in C2/c
REM R1 =  0.0510 for    2577 Fo > 4sig(Fo)  and  0.0531 for all    2751 data
REM    248 parameters refined using     66 restraints

END

WGHT      0.0589      6.2122

REM Instructions for potential hydrogen bonds
EQIV $1 -x+1, -y+1, -z
HTAB C5 O2_$1

REM Highest difference peak  0.732,  deepest hole -0.334,  1-sigma level  0.051
Q1    1   0.3896  0.2218  0.2995  11.00000  0.05    0.73
Q2    1   0.5038  0.3358  0.2970  11.00000  0.05    0.70
Q3    1   0.4318  0.2959  0.2721  11.00000  0.05    0.39
Q4    1   0.4370  0.1707  0.2242  11.00000  0.05    0.38
Q5    1   0.4781  0.4050  0.3611  11.00000  0.05    0.31
Q6    1   0.4483  0.1763  0.2931  11.00000  0.05    0.23
Q7    1   0.5279  0.4251  0.2392  11.00000  0.05    0.21
Q8    1   0.6196  0.8307  0.0797  11.00000  0.05    0.20
Q9    1   0.4130  0.1688  0.2475  11.00000  0.05    0.19
Q10   1   0.5921  0.7810  0.1296  11.00000  0.05    0.19
Q11   1   0.6244  0.7875  0.2789  11.00000  0.05    0.19
Q12   1   0.5880  0.8351  0.2178  11.00000  0.05    0.19
Q13   1   0.5105  0.7512  0.0966  11.00000  0.05    0.19
Q14   1   0.5862  0.7339  0.2223  11.00000  0.05    0.18
Q15   1   0.5510  0.7768  0.1567  11.00000  0.05    0.18
Q16   1   0.5134  0.8392  0.0956  11.00000  0.05    0.18
Q17   1   0.6607  0.8405  0.3375  11.00000  0.05    0.17
Q18   1   0.4212  0.7849  0.2083  11.00000  0.05    0.17
Q19   1   0.6651  0.7120  0.3198  11.00000  0.05    0.17
Q20   1   0.5681  0.4273  0.2530  11.00000  0.05    0.17
;
_shelx_res_checksum              77948
_shelx_hkl_file
;
   0   0   3    0.02    0.03
   0   0  -3    0.02    0.03
   0   0   3    0.01    0.03
   0   0  -3    0.01    0.03
   0   0   4   29.58    0.53
   0   0   4   29.00    0.51
   0   0  -4   29.46    0.52
   0   0   4   26.27    0.47
   0   0   5    0.05    0.04
   0   0   5    0.03    0.04
   0   0  -5    0.09    0.04
   0   0   5    0.03    0.03
   0   0   6  272.20    3.01
   0   0   6  272.07    2.95
   0   0  -6  283.54    3.13
   0   0   6  280.28    3.02
   0   0   7    0.04    0.05
   0   0  -7    0.01    0.04
   0   0   7    0.01    0.04
   0   0  -7    0.03    0.04
   0   0   7    0.08    0.05
   0   0   8   27.34    0.51
   0   0  -8   25.56    0.47
   0   0  -8   26.36    0.50
   0   0   8   27.44    0.50
   0   0  -8   26.52    0.49
   0   0   8   26.46    0.47
   0   0   9    0.00    0.05
   0   0  -9   -0.01    0.04
   0   0  -9    0.01    0.05
   0   0   9    0.02    0.04
   0   0   9    0.00    0.04
   0   0  10    0.16    0.05
   0   0 -10    0.10    0.05
   0   0 -10    0.09    0.05
   0   0  10    0.12    0.05
   0   0 -10    0.11    0.05
   0   0  10    0.12    0.05
   0   0 -11    0.04    0.06
   0   0 -11    0.00    0.06
   0   0  11    0.05    0.05
   0   0 -12    0.57    0.08
   0   0 -12    0.55    0.08
   0   0  12    0.60    0.07
   0   0 -13   -0.02    0.06
   0   0 -13    0.00    0.05
   0   0  14    1.94    0.13
   0   0 -14    1.91    0.13
   0   0 -14    2.02    0.13
   0   0  15    0.05    0.08
   0   0 -15    0.07    0.07
   0   0 -15    0.05    0.08
   0   0  16    9.49    0.26
   0   0 -16    9.53    0.25
   0   0 -16    9.37    0.25
   0   0  17    0.03    0.08
   0   0 -17    0.03    0.08
   0   0 -17   -0.03    0.07
   0   0  18    2.43    0.15
   0   0 -18    2.48    0.15
   0   0  19    0.02    0.09
   0   0 -19   -0.03    0.08
   0   0  20    0.04    0.10
   0   0 -20    0.07    0.09
   0   2   0 1673.74    3.43
   0  -2   1  358.86    3.83
   0   2  -1  368.11    3.85
   0   2   1  387.51    4.16
   0  -2  -1  392.02    4.16
   0  -2  -1  372.90    4.04
   0   2   1  390.86    4.17
   0   2   1  363.65    3.98
   0   2  -1  359.93    3.87
   0   2  -2  107.71    1.33
   0   2   2  105.02    1.34
   0  -2  -2  112.12    1.43
   0   2  -2  101.30    1.29
   0  -2  -2  108.64    1.40
   0   2   2  104.46    1.32
   0   2  -2  109.25    1.37
   0   2   2  110.36    1.36
   0   2  -2  111.70    1.42
   0  -2   2  107.62    1.35
   0   2   3   39.36    0.63
   0  -2  -3   38.17    0.63
   0   2  -3   39.12    0.64
   0  -2  -3   39.85    0.67
   0   2   3   38.76    0.61
   0   2  -3   38.67    0.64
   0  -2  -3   37.98    0.62
   0   2   3   39.25    0.62
   0   2  -3   40.15    0.65
   0  -2   3   38.30    0.63
   0   2  -4   29.16    0.51
   0   2   4   29.12    0.51
   0  -2  -4   28.71    0.51
   0   2  -4   27.41    0.50
   0  -2  -4   29.07    0.53
   0   2   4   28.83    0.49
   0   2  -4   28.42    0.54
   0  -2  -4   27.37    0.51
   0   2   4   29.08    0.50
   0  -2   4   27.54    0.51
   0   2  -5   27.63    0.49
   0   2   5   27.56    0.50
   0  -2  -5   28.61    0.50
   0  -2  -5   27.84    0.50
   0   2   5   27.35    0.48
   0   2  -5   26.42    0.49
   0  -2  -5   28.11    0.52
   0   2  -5   26.57    0.48
   0  -2   5   26.56    0.48
   0   2  -6    0.44    0.07
   0   2   6    0.64    0.08
   0  -2  -6    0.45    0.07
   0  -2  -6    0.42    0.07
   0   2   6    0.41    0.07
   0   2  -6    0.43    0.07
   0  -2   6    0.55    0.08
   0  -2  -6    0.52    0.08
   0   2  -6    0.47    0.07
   0  -2   6    0.44    0.07
   0  -2   7    0.27    0.06
   0   2  -7    0.21    0.05
   0   2   7    0.21    0.05
   0  -2  -7    0.29    0.06
   0  -2  -7    0.25    0.05
   0   2  -7    0.38    0.07
   0  -2   7    0.42    0.06
   0  -2  -7    0.22    0.06
   0   2   7    0.22    0.06
   0   2  -7    0.24    0.05
   0  -2   7    0.28    0.06
   0  -2   8    1.63    0.12
   0   2   8    1.68    0.11
   0   2  -8    1.72    0.12
   0  -2  -8    1.85    0.11
   0  -2  -8    1.77    0.12
   0   2  -8    1.67    0.12
   0  -2   8    1.75    0.12
   0  -2  -8    1.72    0.12
   0   2   8    1.79    0.11
   0   2  -8    1.60    0.11
   0  -2   8    1.67    0.11
   0  -2   9   21.49    0.38
   0   2   9   21.73    0.39
   0   2  -9   21.91    0.37
   0  -2  -9   21.28    0.36
   0  -2  -9   21.75    0.37
   0   2  -9   22.63    0.39
   0   2   9   20.48    0.36
   0  -2   9   21.95    0.38
   0  -2  -9   20.98    0.37
   0   2   9   21.29    0.35
   0   2  -9   21.76    0.37
   0  -2  10    0.64    0.09
   0   2  10    0.70    0.08
   0  -2 -10    0.73    0.08
   0  -2 -10    0.79    0.09
   0   2  10    0.65    0.08
   0  -2 -10    0.73    0.09
   0   2 -10    0.74    0.08
   0  -2  11   12.13    0.31
   0   2  11   12.26    0.31
   0  -2 -11   12.30    0.29
   0  -2 -11   12.43    0.31
   0   2  11   11.85    0.30
   0  -2 -11   12.41    0.32
   0   2 -11   12.07    0.30
   0  -2  12    2.82    0.15
   0   2  12    2.89    0.15
   0  -2 -12    2.69    0.14
   0  -2 -12    2.96    0.15
   0   2 -12    2.86    0.14
   0  -2  13   12.39    0.32
   0   2  13   12.76    0.33
   0  -2 -13   12.51    0.32
   0  -2 -13   12.49    0.32
   0   2 -13   12.44    0.31
   0  -2  14    0.38    0.09
   0   2  14    0.36    0.08
   0  -2 -14    0.40    0.08
   0   2 -14    0.38    0.09
   0  -2 -14    0.38    0.09
   0   2 -14    0.34    0.08
   0  -2  15   14.37    0.32
   0  -2 -15   14.43    0.31
   0   2 -15   14.51    0.31
   0  -2 -15   15.11    0.33
   0   2 -15   14.21    0.30
   0  -2  16   12.43    0.30
   0  -2 -16   12.41    0.29
   0   2 -16   11.85    0.28
   0  -2 -16   12.17    0.29
   0  -2  17    9.28    0.26
   0   2  17    9.75    0.26
   0  -2 -17    9.63    0.25
   0   2 -17    9.18    0.25
   0  -2 -17    9.29    0.26
   0  -2  18    0.29    0.10
   0   2  18    0.21    0.09
   0  -2 -18    0.23    0.09
   0   2 -18    0.20    0.09
   0  -2 -18    0.25    0.09
   0  -2  19    0.74    0.12
   0   2  19    0.80    0.11
   0  -2 -19    0.66    0.10
   0   2 -19    0.70    0.11
   0  -2 -19    0.76    0.11
   0   4   0    3.36    0.15
   0   4   0    3.58    0.17
   0   4   0    3.95    0.18
   0  -4   0    3.42    0.16
   0   4   0    3.34    0.15
   0   4   1   51.63    0.73
   0   4  -1   50.56    0.73
   0   4   1   48.62    0.75
   0  -4   1   52.17    0.76
   0   4  -1   50.30    0.73
   0   4   1   51.99    0.76
   0  -4   1   51.50    0.77
   0   4  -1   50.28    0.69
   0   4   1   51.03    0.69
   0   4   2   38.89    0.62
   0  -4   2   36.94    0.65
   0   4  -2   37.29    0.56
   0   4   2   38.56    0.63
   0  -4   2   37.64    0.61
   0   4  -2   37.19    0.60
   0  -4  -2   38.97    0.63
   0   4   2   37.86    0.61
   0  -4  -2   36.98    0.60
   0   4  -2   36.71    0.59
   0   4   2   37.35    0.61
   0   4  -2   38.33    0.66
   0  -4   3    3.51    0.16
   0   4  -3    3.25    0.14
   0   4   3    3.25    0.15
   0  -4  -3    3.07    0.16
   0  -4  -3    3.40    0.17
   0   4   3    3.27    0.16
   0   4  -3    3.27    0.16
   0   4   3    3.34    0.15
   0   4  -3    3.14    0.15
   0  -4   4    0.81    0.09
   0   4   4    0.85    0.08
   0  -4  -4    0.74    0.09
   0  -4  -4    0.77    0.09
   0   4   4    0.80    0.08
   0   4  -4    0.85    0.09
   0   4  -4    0.79    0.09
   0   4   4    0.88    0.09
   0   4  -4    0.83    0.09
   0  -4   5  114.68    1.60
   0   4  -5  112.90    1.55
   0   4   5  113.42    1.56
   0  -4  -5  112.84    1.59
   0   4  -5  116.12    1.59
   0  -4  -5  118.97    1.68
   0   4   5  111.76    1.52
   0   4  -5  110.69    1.56
   0   4  -5  106.37    1.49
   0   4   5  110.74    1.50
   0   4  -5  114.32    1.68
   0  -4   6    3.36    0.16
   0   4  -6    3.43    0.15
   0   4   6    3.46    0.15
   0  -4  -6    3.51    0.17
   0   4  -6    3.47    0.16
   0  -4  -6    3.47    0.17
   0   4   6    3.39    0.14
   0   4  -6    3.39    0.16
   0  -4  -6    3.31    0.16
   0   4   6    3.33    0.15
   0   4  -6    3.42    0.15
   0  -4   6    3.44    0.16
   0  -4   7    7.33    0.23
   0   4  -7    7.05    0.21
   0   4   7    7.32    0.22
   0  -4  -7    7.32    0.23
   0   4  -7    7.23    0.22
   0  -4  -7    6.90    0.24
   0   4   7    7.03    0.20
   0   4  -7    6.87    0.22
   0  -4  -7    6.99    0.22
   0   4  -7    6.94    0.21
   0  -4   7    7.42    0.23
   0  -4   8   11.54    0.30
   0   4   8   11.50    0.29
   0  -4  -8   11.99    0.30
   0  -4  -8   12.11    0.32
   0   4   8   11.57    0.27
   0   4  -8   11.74    0.30
   0  -4  -8   11.56    0.29
   0   4  -8   11.90    0.28
   0  -4   8   11.89    0.30
   0  -4   9    0.25    0.08
   0   4   9    0.26    0.07
   0  -4  -9    0.78    0.09
   0  -4  -9    0.30    0.07
   0   4   9    0.27    0.07
   0   4  -9    0.25    0.08
   0  -4  -9    0.27    0.08
   0   4  -9    0.35    0.07
   0  -4   9    0.28    0.07
   0  -4  10    0.39    0.08
   0   4  10    0.31    0.08
   0  -4 -10    0.39    0.07
   0  -4 -10    0.48    0.08
   0   4 -10    0.32    0.09
   0  -4 -10    0.36    0.08
   0   4 -10    0.38    0.07
   0  -4  10    0.44    0.08
   0  -4  11    8.19    0.24
   0   4  11    8.71    0.25
   0  -4 -11    8.37    0.24
   0  -4 -11    8.40    0.25
   0   4 -11    8.71    0.25
   0  -4 -11    8.24    0.24
   0   4 -11    8.72    0.23
   0  -4  11    7.77    0.23
   0   4  12    2.48    0.14
   0  -4 -12    2.31    0.14
   0  -4 -12    2.45    0.15
   0   4 -12    2.62    0.14
   0  -4  12    2.54    0.14
   0   4  13    0.09    0.07
   0  -4 -13    0.10    0.07
   0  -4 -13    0.04    0.09
   0   4  14    0.12    0.07
   0  -4 -14    0.05    0.08
   0  -4 -14    0.07    0.09
   0   4  15    1.41    0.11
   0  -4 -15    1.33    0.11
   0   4 -15    1.34    0.12
   0  -4 -15    1.52    0.13
   0  -4 -16    0.69    0.10
   0   4 -16    0.87    0.11
   0  -4 -16    0.75    0.10
   0  -4  17    0.60    0.11
   0  -4 -17    0.54    0.09
   0   4 -17    0.52    0.11
   0  -4 -17    0.58    0.11
   0  -4  18    1.39    0.14
   0  -4 -18    1.24    0.13
   0   6   0   12.05    0.30
   0   6   0   12.91    0.35
   0  -6   0   12.80    0.33
   0   6   0   12.38    0.33
   0  -6   0   12.56    0.33
   0   6   0   12.27    0.30
   0   6   1  213.72    1.29
   0   6  -1  213.23    2.40
   0   6  -1  213.24    2.51
   0  -6   1  205.10    2.53
   0  -6  -1  211.02    2.46
   0   6  -1  210.86    2.44
   0   6   1  216.17    1.41
   0  -6  -1  214.67    1.60
   0   6  -1  208.25    2.34
   0   6   1  218.22    1.22
   0   6  -1  215.23    1.45
   0   6   2    2.15    0.13
   0   6  -2    2.18    0.12
   0   6   2    2.18    0.14
   0   6  -2    2.36    0.15
   0   6   2    2.29    0.14
   0   6  -2    2.30    0.14
   0   6  -2    2.12    0.12
   0   6  -2    2.42    0.15
   0   6   3    8.07    0.25
   0   6   3    8.16    0.25
   0   6  -3    8.10    0.26
   0   6   3    7.71    0.25
   0   6  -3    8.33    0.26
   0   6  -3    7.98    0.24
   0   6  -3    7.79    0.25
   0  -6   4    1.81    0.14
   0   6   4    1.79    0.12
   0   6   4    1.79    0.12
   0  -6  -4    1.75    0.13
   0   6  -4    1.87    0.13
   0   6   4    1.73    0.12
   0   6  -4    1.71    0.12
   0  -6  -4    1.77    0.13
   0   6  -4    1.70    0.12
   0   6  -4    1.83    0.13
   0  -6   5    0.37    0.09
   0   6  -5    0.58    0.08
   0   6   5    0.33    0.07
   0  -6  -5    0.40    0.08
   0   6  -5    0.28    0.09
   0  -6  -5    0.31    0.10
   0   6  -5    0.22    0.07
   0   6  -5    0.37    0.09
   0  -6   6    1.14    0.12
   0   6   6    1.00    0.10
   0  -6  -6    1.12    0.11
   0  -6  -6    1.14    0.11
   0   6  -6    1.05    0.11
   0   6  -6    1.09    0.10
   0  -6  -6    0.99    0.11
   0   6  -6    1.21    0.11
   0  -6   7   35.01    0.66
   0   6   7   34.68    0.61
   0  -6  -7   33.07    0.63
   0  -6  -7   33.98    0.64
   0   6  -7   33.86    0.62
   0   6  -7   31.96    0.60
   0  -6   8   14.37    0.37
   0  -6  -8   14.20    0.37
   0  -6  -8   14.11    0.37
   0   6  -8   14.73    0.36
   0  -6   9    0.40    0.10
   0  -6  -9    0.47    0.09
   0   6  -9    0.49    0.09
   0  -6  -9    0.43    0.09
   0  -6  10    0.25    0.09
   0  -6 -10    0.24    0.09
   0   6 -10    0.24    0.09
   0  -6 -10    0.17    0.10
   0  -6  11    0.21    0.08
   0  -6 -11    0.20    0.08
   0   6 -11    0.20    0.08
   0  -6 -11    0.16    0.09
   0  -6  12    0.15    0.09
   0  -6 -12    0.12    0.07
   0   6 -12    0.13    0.08
   0  -6 -12    0.18    0.09
   0  -6  13    2.42    0.15
   0  -6 -13    2.38    0.16
   0  -6  14    0.14    0.09
   0  -6 -14    0.04    0.10
   0  -6  15    0.23    0.10
   0  -6 -15    0.17    0.10
   0  -6  16    0.36    0.10
   0   6 -16    0.46    0.12
   0  -6 -16    0.31    0.10
   0   8   0   29.92    0.48
   0   8   0   30.23    0.48
   0  -8  -1   92.60    0.86
   0   8  -1   91.38    0.89
   0   8  -1   96.37    0.90
   0  -8  -2    4.03    0.18
   0   8  -2    4.22    0.18
   0  -8  -2    4.01    0.20
   0   8  -2    4.17    0.19
   0   8  -3    4.46    0.20
   0  -8  -3    4.81    0.20
   0   8  -3    4.89    0.19
   0  -8  -3    4.82    0.20
   0   8  -3    4.69    0.19
   0  -8  -4    0.22    0.07
   0   8  -4    0.27    0.08
   0  -8  -4    0.26    0.10
   0   8  -4    0.23    0.09
   0  -8  -5    0.85    0.10
   0   8  -5    0.89    0.11
   0   8  -5    0.88    0.11
   0   8  -6   14.52    0.32
   0  -8   7    0.41    0.09
   0   8  -7    0.41    0.10
   0  -8   8    1.43    0.13
   0   8  -8    1.31    0.12
   0  -8   9    1.82    0.14
   0   8  -9    2.10    0.14
   0  -8  -9    1.90    0.14
   0  -8  10    0.59    0.11
   0   8 -10    0.61    0.10
   0  -8 -10    0.58    0.11
   0  -8  11    0.17    0.10
   0   8 -11    0.11    0.09
   0  -8  12    0.60    0.11
   0   8 -12    0.54    0.11
   0  -8  13    0.17    0.11
   0  -8 -13    0.11    0.10
   0  10   0   33.00    0.50
   0  10   1    3.04    0.17
   0  10   2    0.06    0.09
   0  10   3    0.86    0.12
   0 -10  -4    1.57    0.14
   0 -10  -5    0.44    0.10
   0 -10  -6    0.02    0.10
   0 -10  -7    2.14    0.16
  -1  -1  20    0.17    0.09
  -1   1  20    0.21    0.10
   1  -1 -20    0.23    0.09
   1   1 -20    0.21    0.10
  -1  -1  19    2.53    0.15
  -1   1  19    2.63    0.15
   1  -1 -19    2.54    0.14
   1   1 -19    2.64    0.14
   1  -1 -19    2.79    0.16
  -1  -1  18    0.58    0.09
  -1   1  18    0.65    0.11
   1  -1 -18    0.66    0.10
   1   1 -18    0.62    0.10
   1  -1 -18    0.66    0.10
  -1  -1  17    0.15    0.10
  -1   1  17    0.15    0.08
   1  -1 -17    0.06    0.08
   1   1 -17    0.11    0.08
   1  -1 -17    0.16    0.08
   1   1 -17    0.13    0.07
  -1  -1  16    1.29    0.12
   1  -1 -16    1.34    0.12
   1   1 -16    1.35    0.12
   1  -1 -16    1.28    0.12
   1   1 -16    1.28    0.11
  -1  -1  15    1.65    0.13
   1  -1 -15    1.77    0.13
   1   1 -15    1.79    0.13
   1  -1 -15    1.67    0.13
   1   1 -15    1.64    0.12
  -1  -1  14   -0.03    0.07
  -1   1  14    0.00    0.07
   1  -1 -14    0.07    0.08
   1   1 -14    0.04    0.07
   1  -1 -14    0.02    0.07
   1   1 -14    0.02    0.07
  -1   1  13    8.21    0.24
   1  -1 -13    7.90    0.23
   1   1 -13    7.85    0.23
   1  -1 -13    7.94    0.23
   1   1 -13    8.04    0.23
  -1   1  12   37.29    0.50
   1  -1 -12   37.34    0.49
   1   1 -12   37.08    0.50
   1  -1 -12   36.80    0.50
   1   1 -12   36.79    0.49
  -1  -1  12   38.05    0.47
  -1   1  11    0.87    0.10
   1  -1 -11    0.76    0.08
   1   1 -11    0.85    0.10
  -1   1  11    0.89    0.09
   1  -1 -11    0.83    0.09
   1   1 -11    0.91    0.09
  -1  -1  11    0.82    0.08
  -1   1  10    4.49    0.18
   1  -1 -10    4.60    0.17
   1  -1 -10    4.43    0.17
  -1   1  10    4.33    0.17
  -1  -1  10    4.43    0.17
   1  -1 -10    4.44    0.18
   1   1 -10    4.37    0.17
  -1   1  10    4.51    0.17
  -1  -1  10    4.22    0.15
  -1  -1   9   34.69    0.62
  -1   1   9   34.48    0.62
   1  -1  -9   32.10    0.57
   1  -1  -9   33.25    0.61
  -1   1   9   33.32    0.59
  -1  -1   9   33.44    0.60
   1  -1  -9   34.01    0.61
   1   1  -9   34.13    0.61
  -1   1   9   33.33    0.58
  -1  -1   9   33.42    0.58
  -1  -1   8   25.32    0.48
  -1   1   8   25.46    0.49
   1   1  -8   23.23    0.45
   1  -1  -8   24.89    0.46
   1  -1  -8   24.90    0.47
  -1   1   8   24.43    0.47
  -1  -1   8   25.01    0.47
   1  -1  -8   25.24    0.48
   1   1  -8   25.29    0.47
  -1   1   8   25.68    0.47
  -1  -1   8   25.85    0.46
  -1  -1   7    8.56    0.24
  -1   1   7    8.49    0.24
   1   1  -7    8.36    0.23
   1  -1  -7    9.01    0.24
   1  -1  -7    8.92    0.24
  -1   1   7    8.74    0.24
  -1  -1   7    8.83    0.24
   1  -1  -7    8.38    0.23
  -1   1   7    8.79    0.23
   1   1  -7    8.78    0.24
  -1  -1   7    8.47    0.22
  -1  -1   6   59.58    0.86
   1   1  -6   58.01    0.82
  -1   1   6   55.11    0.82
   1  -1  -6   59.08    0.83
   1  -1  -6   60.75    0.87
  -1   1   6   61.40    0.86
  -1  -1   6   58.80    0.84
   1  -1  -6   59.91    0.85
   1   1  -6   59.87    0.86
  -1  -1   6   61.22    0.84
   1   1  -5   71.56    0.96
  -1   1   5   71.60    0.99
   1  -1  -5   67.92    0.92
   1  -1  -5   70.53    0.96
  -1   1   5   68.35    0.94
   1   1  -5   65.58    1.21
  -1  -1   5   69.89    0.95
   1  -1  -5   69.44    0.95
   1   1  -5   70.90    0.94
  -1  -1   5   72.38    0.96
  -1  -1   4   13.48    0.30
   1   1  -4   13.02    0.29
  -1   1   4   13.50    0.30
   1  -1  -4   12.33    0.28
   1  -1  -4   13.21    0.29
   1   1  -4   13.23    0.30
  -1  -1   4   13.35    0.30
   1  -1  -4   12.96    0.29
   1   1  -4   12.75    0.27
  -1  -1   3   17.15    0.34
   1   1  -3   17.49    0.33
  -1   1   3   18.21    0.34
   1   1  -3   16.64    0.34
   1  -1  -3   17.44    0.32
  -1   1   3   17.48    0.33
   1   1  -3   17.92    0.35
   1  -1  -3   17.94    0.34
  -1   1   3   17.43    0.33
   1   1  -2    0.11    0.04
  -1   1   2    0.12    0.04
  -1  -1   2    0.14    0.05
   1   1  -2    0.12    0.05
  -1   1   2    0.11    0.05
   1  -1  -2    0.16    0.04
  -1   1   2    0.11    0.04
   1   1  -2    0.10    0.04
   1  -1   1  266.18    2.90
  -1   1  -1  275.77    2.97
   1   1   1  272.34    3.00
   1   1   1  268.27    2.92
  -1   1  -1  268.43    2.91
  -1   1  -1  272.31    2.95
  -1  -1  -1  285.79    3.08
   1   1   1  264.86    2.86
  -1   1  -1  282.61    3.09
   1  -1   2    8.41    0.24
  -1   1  -2    8.60    0.23
   1   1   2    8.67    0.24
  -1  -1  -2    7.34    0.21
   1   1   2    7.38    0.21
  -1   1  -2    8.26    0.23
   1  -1   2    7.48    0.22
  -1  -1  -2    8.40    0.23
   1   1   2    8.48    0.24
  -1   1  -2    9.04    0.24
   1  -1   2    7.56    0.22
   1  -1   3 1055.99   10.75
   1   1   3 1075.29   10.85
   1   1   3 1078.83   10.73
  -1   1  -3 1109.40    3.22
   1  -1   3 1091.80    3.01
  -1  -1  -3 1090.57    3.10
   1  -1   4   50.62    0.76
  -1   1  -4   51.07    0.75
   1   1   4   51.94    0.77
  -1  -1  -4   50.32    0.74
  -1  -1  -4   46.10    0.69
   1   1   4   48.59    0.72
  -1   1  -4   48.42    0.74
   1  -1   4   49.62    0.74
  -1  -1  -4   50.31    0.75
  -1   1  -4   49.72    0.73
   1  -1   4   49.70    0.71
   1  -1   5    5.10    0.18
  -1   1  -5    5.43    0.19
   1   1   5    5.00    0.18
  -1  -1  -5    5.65    0.19
  -1  -1  -5    5.63    0.19
   1   1   5    5.21    0.18
  -1   1  -5    4.96    0.18
   1  -1   5    5.10    0.18
  -1  -1  -5    5.24    0.19
   1   1   5    4.87    0.17
  -1   1  -5    5.86    0.19
   1  -1   5    4.90    0.17
   1  -1   6    4.93    0.19
   1   1   6    4.53    0.18
  -1   1  -6    4.73    0.18
  -1  -1  -6    4.86    0.18
  -1  -1  -6    4.58    0.17
   1  -1   6    4.70    0.18
  -1  -1  -6    4.62    0.18
   1   1   6    4.64    0.17
  -1   1  -6    4.95    0.18
   1  -1   6    4.55    0.16
   1  -1   7   70.52    0.90
   1   1   7   68.27    0.86
  -1  -1  -7   68.59    0.84
  -1  -1  -7   70.73    0.90
   1  -1   7   65.88    0.84
  -1  -1  -7   69.22    0.90
  -1   1  -7   71.02    0.90
   1   1   7   72.35    0.88
   1  -1   7   68.01    0.83
   1  -1   8    0.11    0.05
   1   1   8    0.13    0.05
  -1  -1  -8    0.12    0.05
  -1  -1  -8    0.13    0.05
   1   1   8    0.10    0.05
   1  -1   8    0.17    0.05
  -1  -1  -8    0.12    0.05
  -1   1  -8    0.15    0.05
   1   1   8    0.16    0.05
   1  -1   8    0.10    0.04
   1  -1   9    3.82    0.16
   1   1   9    3.99    0.17
  -1  -1  -9    3.99    0.16
   1   1   9    3.84    0.16
   1  -1   9    3.76    0.16
  -1  -1  -9    3.93    0.16
  -1   1  -9    3.98    0.16
   1   1   9    4.55    0.17
   1  -1   9    3.91    0.15
   1  -1  10    5.45    0.20
   1   1  10    5.21    0.19
  -1  -1 -10    5.07    0.18
  -1  -1 -10    5.31    0.19
   1   1  10    5.13    0.19
  -1  -1 -10    4.98    0.19
  -1   1 -10    5.56    0.19
   1   1  10    5.43    0.18
   1  -1  10    5.06    0.17
   1  -1  11    4.50    0.18
   1   1  11    4.69    0.18
  -1  -1 -11    4.80    0.19
  -1  -1 -11    4.67    0.18
  -1   1 -11    4.78    0.18
   1   1  11    4.87    0.18
   1  -1  11    4.58    0.16
   1  -1  12    1.49    0.11
  -1  -1 -12    1.46    0.11
  -1   1 -12    1.57    0.12
  -1  -1 -12    1.50    0.11
  -1   1 -12    1.61    0.11
   1  -1  12    1.52    0.10
   1  -1  13    1.57    0.12
  -1  -1 -13    1.49    0.11
  -1   1 -13    1.57    0.11
  -1  -1 -13    1.58    0.11
  -1   1 -13    1.70    0.11
   1  -1  13    1.52    0.10
   1  -1  14    6.81    0.22
  -1  -1 -14    6.91    0.21
  -1   1 -14    6.84    0.22
  -1  -1 -14    6.97    0.22
  -1   1 -14    6.96    0.22
   1  -1  15   18.27    0.35
   1   1  15   17.55    0.35
  -1  -1 -15   18.09    0.35
  -1   1 -15   17.37    0.33
  -1  -1 -15   17.82    0.34
  -1   1 -15   17.47    0.34
   1  -1  16    8.89    0.25
   1   1  16    9.02    0.25
  -1  -1 -16    8.91    0.25
  -1   1 -16    8.77    0.24
  -1  -1 -16    9.32    0.26
  -1   1 -16    9.24    0.24
   1  -1  17    2.00    0.14
   1   1  17    1.98    0.14
  -1  -1 -17    1.82    0.13
  -1   1 -17    1.92    0.14
  -1  -1 -17    1.95    0.13
   1  -1  18    0.40    0.10
   1   1  18    0.42    0.10
  -1  -1 -18    0.36    0.10
  -1   1 -18    0.47    0.10
  -1  -1 -18    0.40    0.10
   1  -1  19    2.09    0.14
   1   1  19    1.80    0.14
  -1  -1 -19    1.95    0.14
  -1   1 -19    1.97    0.14
  -1  -3  19    1.17    0.13
   1  -3 -19    0.93    0.11
   1   3 -19    1.05    0.13
   1  -3 -19    1.09    0.12
  -1  -3  18    1.37    0.14
   1  -3 -18    1.45    0.12
   1   3 -18    1.47    0.13
   1  -3 -18    1.52    0.13
  -1  -3  17    0.26    0.09
   1  -3 -17    0.11    0.09
   1   3 -17    0.19    0.10
   1  -3 -17    0.22    0.09
  -1  -3  16    1.19    0.13
   1  -3 -16    1.19    0.12
   1  -3 -16    1.17    0.12
  -1  -3  15    0.75    0.11
  -1   3  15    0.72    0.10
   1  -3 -15    0.76    0.09
   1  -3 -15    0.73    0.10
  -1  -3  14    0.44    0.09
  -1   3  14    0.48    0.09
   1  -3 -14    0.55    0.09
   1  -3 -14    0.45    0.09
   1   3 -14    0.45    0.08
  -1  -3  13    4.84    0.19
  -1   3  13    4.96    0.19
   1  -3 -13    4.62    0.18
   1  -3 -13    4.98    0.19
   1   3 -13    4.94    0.18
  -1  -3  13    4.86    0.17
  -1   3  12   29.21    0.56
   1  -3 -12   29.02    0.55
  -1   3  12   27.54    0.52
   1  -3 -12   31.15    0.59
   1   3 -12   29.27    0.55
  -1  -3  12   28.03    0.52
  -1   3  11    0.14    0.08
   1  -3 -11    0.27    0.06
   1  -3 -11    0.21    0.07
   1   3 -11    0.13    0.09
  -1   3  11    0.15    0.06
   1  -3 -11    0.21    0.08
   1   3 -11    0.23    0.07
  -1  -3  11    0.24    0.07
  -1   3  10    1.19    0.11
   1  -3 -10    0.91    0.09
   1  -3 -10    0.94    0.10
   1   3 -10    1.02    0.11
  -1   3  10    0.88    0.09
   1  -3 -10    0.98    0.11
   1   3 -10    0.86    0.09
  -1  -3  10    0.88    0.09
  -1   3   9   11.17    0.28
   1  -3  -9   11.30    0.28
   1  -3  -9   11.00    0.28
  -1   3   9   11.31    0.28
   1   3  -9   11.45    0.29
   1  -3  -9   12.00    0.31
   1   3  -9   11.81    0.28
  -1  -3   9   10.95    0.28
   1   3  -8    2.82    0.14
  -1   3   8    2.97    0.15
   1  -3  -8    3.02    0.14
   1   3  -8    2.94    0.14
   1  -3  -8    3.15    0.15
   1   3  -8    2.99    0.15
   1  -3  -8    3.29    0.16
   1   3  -8    3.04    0.14
  -1  -3   8    3.13    0.15
  -1  -3   7    2.82    0.15
   1   3  -7    3.06    0.14
  -1   3   7    2.96    0.14
   1  -3  -7    2.90    0.14
   1   3  -7    3.09    0.16
   1  -3  -7    3.07    0.15
  -1   3   7    2.95    0.14
   1   3  -7    3.16    0.16
   1  -3  -7    3.24    0.16
  -1   3   7    2.84    0.14
   1   3  -7    2.94    0.13
  -1  -3   7    3.44    0.16
  -1  -3   6   52.97    0.81
   1   3  -6   54.12    0.80
  -1   3   6   50.39    0.80
   1  -3  -6   53.02    0.80
   1   3  -6   55.24    0.84
   1  -3  -6   55.27    0.85
  -1   3   6   53.25    0.77
   1   3  -6   52.77    0.81
   1  -3  -6   54.03    0.81
  -1   3   6   53.76    0.78
   1   3  -6   52.76    0.79
  -1  -3   6   53.03    0.80
  -1  -3   5   33.78    0.55
   1   3  -5   34.85    0.54
  -1   3   5   33.63    0.53
   1  -3  -5   32.81    0.55
   1   3  -5   33.23    0.55
   1  -3  -5   34.26    0.57
  -1   3   5   33.73    0.53
   1   3  -5   33.78    0.56
   1  -3  -5   33.30    0.54
  -1   3   5   34.10    0.53
   1   3  -5   34.96    0.55
  -1  -3   5   30.79    0.52
  -1  -3   4   12.01    0.28
   1   3  -4   12.29    0.28
  -1   3   4   11.75    0.28
   1  -3  -4   12.26    0.31
   1   3  -4   11.96    0.29
   1  -3  -4   11.46    0.30
  -1   3   4   10.88    0.26
   1   3  -4   12.55    0.30
  -1   3   4   11.67    0.27
   1   3  -4   12.62    0.29
  -1  -3   4   11.70    0.29
  -1  -3   3   68.61    0.87
   1   3  -3   67.25    0.86
  -1   3   3   66.74    0.90
   1  -3  -3   71.05    0.93
  -1  -3   3   64.54    0.87
   1  -3  -3   69.54    0.94
  -1   3   3   67.10    0.85
  -1   3   3   69.17    0.85
   1   3  -3   70.10    0.91
  -1  -3   2    3.84    0.17
   1   3  -2    4.03    0.16
  -1   3   2    3.64    0.17
   1  -3  -2    3.88    0.18
  -1  -3   2    3.76    0.17
   1  -3  -2    3.83    0.18
  -1   3   2    3.72    0.17
   1   3  -2    3.63    0.16
  -1   3   2    3.74    0.16
   1   3  -2    3.45    0.16
  -1  -3   1  172.47    2.04
   1   3  -1  168.40    1.95
  -1   3   1  170.72    2.09
  -1  -3   1  162.39    1.94
   1   3  -1  166.84    1.99
  -1   3   1  160.52    1.90
   1   3  -1  168.46    1.95
   1  -3  -1  167.77    1.97
  -1   3   1  169.04    1.92
   1   3  -1  174.62    2.13
  -1   3   0  582.96    6.02
   1   3   0  602.41    6.19
  -1   3   0  613.80    6.41
   1  -3   0  610.45    6.61
  -1   3   0  585.94    6.01
   1   3   0  592.29    6.15
  -1  -3   0  570.86    6.30
   1   3   0  568.92    5.83
  -1   3   0  572.30    5.85
   1  -3   1   49.06    0.78
   1   3   1   47.96    0.74
  -1   3  -1   48.70    0.73
   1   3   1   49.18    0.79
   1  -3   1   49.27    0.76
  -1  -3  -1   47.76    0.77
   1   3   1   50.24    0.80
   1  -3   1   48.68    0.75
  -1   3  -1   50.63    0.75
   1   3   1   47.51    0.72
   1  -3   2    4.64    0.19
  -1   3  -2    4.61    0.17
   1   3   2    4.52    0.18
  -1  -3  -2    4.62    0.19
  -1   3  -2    4.60    0.18
  -1  -3  -2    4.46    0.19
   1   3   2    4.49    0.18
  -1   3  -2    4.64    0.18
  -1   3  -2    4.76    0.18
   1   3   2    4.48    0.17
  -1   3  -2    4.53    0.18
   1  -3   3   41.55    0.65
  -1   3  -3   41.44    0.62
   1   3   3   43.73    0.63
  -1  -3  -3   42.54    0.67
  -1   3  -3   43.85    0.65
  -1  -3  -3   43.41    0.69
   1   3   3   42.70    0.63
  -1   3  -3   41.55    0.65
  -1   3  -3   42.80    0.64
  -1  -3  -3   39.63    0.63
   1   3   3   45.88    0.66
  -1   3  -3   41.29    0.65
   1  -3   4    3.65    0.16
   1   3   4    3.73    0.15
  -1  -3  -4    3.56    0.16
  -1   3  -4    3.74    0.16
  -1  -3  -4    3.68    0.17
   1   3   4    3.53    0.15
  -1   3  -4    3.67    0.16
  -1  -3  -4    3.60    0.16
   1   3   4    3.65    0.15
  -1   3  -4    3.49    0.15
   1  -3   4    3.59    0.16
   1  -3   5   17.06    0.37
   1   3   5   18.16    0.37
  -1  -3  -5   18.59    0.39
  -1   3  -5   17.58    0.37
  -1  -3  -5   18.74    0.41
   1   3   5   17.82    0.35
  -1   3  -5   18.18    0.38
  -1  -3  -5   18.12    0.38
   1   3   5   17.49    0.35
   1  -3   5   18.16    0.39
  -1   3  -6    6.67    0.21
   1   3   6    6.48    0.21
  -1  -3  -6    6.46    0.21
  -1   3  -6    6.45    0.21
  -1  -3  -6    6.26    0.22
   1   3   6    6.58    0.20
  -1   3  -6    6.62    0.22
  -1  -3  -6    6.59    0.21
  -1   3  -6    6.57    0.20
   1  -3   6    6.67    0.21
  -1   3  -7   10.98    0.29
   1   3   7    9.64    0.29
  -1  -3  -7   10.50    0.28
  -1   3  -7   10.73    0.29
  -1  -3  -7   10.88    0.31
   1   3   7   10.24    0.27
  -1   3  -7   11.09    0.31
  -1  -3  -7   10.63    0.29
  -1   3  -7   10.85    0.28
   1  -3   7   10.78    0.30
  -1   3  -8   16.52    0.32
   1   3   8   16.79    0.33
  -1  -3  -8   17.25    0.33
  -1   3  -8   17.10    0.34
  -1  -3  -8   17.37    0.35
   1   3   8   17.14    0.32
  -1   3  -8   16.84    0.34
  -1  -3  -8   16.74    0.33
   1   3   8   16.39    0.31
  -1   3  -8   16.69    0.33
   1  -3   8   17.72    0.34
   1   3   9    3.98    0.20
  -1  -3  -9    3.85    0.16
  -1  -3  -9    4.08    0.18
   1   3   9    3.77    0.16
  -1   3  -9    3.69    0.16
  -1  -3  -9    3.60    0.16
  -1   3  -9    3.69    0.16
   1  -3   9    4.25    0.17
   1   3  10    5.08    0.20
  -1  -3 -10    5.11    0.19
  -1  -3 -10    4.87    0.20
  -1  -3 -10    4.70    0.19
  -1   3 -10    4.85    0.19
   1  -3  10    4.60    0.18
   1  -3  11    4.17    0.18
   1   3  11    4.33    0.18
  -1  -3 -11    4.46    0.17
  -1  -3 -11    4.60    0.18
   1   3  11    4.22    0.17
  -1  -3 -11    4.50    0.18
  -1   3 -11    4.52    0.17
   1  -3  11    4.37    0.17
   1  -3  12    0.35    0.10
   1   3  12    0.44    0.08
  -1  -3 -12    0.40    0.09
  -1  -3 -12    0.41    0.09
  -1   3 -12    0.36    0.07
   1  -3  12    0.40    0.08
   1  -3  13    0.20    0.09
   1   3  13    0.12    0.07
  -1  -3 -13    0.17    0.07
  -1   3 -13    0.21    0.08
  -1  -3 -13    0.17    0.08
  -1   3 -13    0.12    0.06
   1  -3  13    0.19    0.06
   1  -3  14    2.01    0.14
  -1  -3 -14    2.05    0.13
  -1   3 -14    1.99    0.13
  -1  -3 -14    1.98    0.13
   1  -3  15   14.10    0.32
  -1  -3 -15   13.47    0.30
  -1  -3 -15   13.26    0.30
   1  -3  16    1.72    0.15
   1   3  16    1.78    0.13
  -1  -3 -16    1.92    0.14
  -1  -3 -16    2.05    0.14
   1  -3  17    5.81    0.22
   1   3  17    5.94    0.21
  -1  -3 -17    5.70    0.21
  -1  -3 -17    5.57    0.20
   1  -3  18    1.21    0.14
  -1  -3 -18    1.24    0.12
  -1   3 -18    1.37    0.13
  -1  -3 -18    1.25    0.12
   1  -3  19    0.62    0.11
  -1  -3 -19    0.61    0.10
  -1   3 -19    0.67    0.12
  -1  -3 -19    0.59    0.11
  -1  -5  17    4.43    0.20
   1   5 -17    4.20    0.19
   1  -5 -17    4.17    0.19
  -1  -5  16    0.02    0.09
   1   5 -16    0.14    0.11
   1  -5 -16    0.11    0.10
  -1  -5  15    2.20    0.15
   1  -5 -15    2.06    0.14
   1  -5 -15    2.14    0.15
  -1  -5  14    0.71    0.12
   1  -5 -14    0.75    0.10
   1  -5 -14    0.72    0.11
  -1  -5  13    1.85    0.14
   1  -5 -13    1.63    0.13
   1   5 -13    1.76    0.14
   1  -5 -13    1.61    0.13
  -1  -5  12    1.01    0.12
  -1   5  12    0.98    0.10
   1  -5 -12    0.98    0.11
   1   5 -12    0.96    0.11
   1  -5 -12    1.02    0.11
  -1  -5  11    7.97    0.24
  -1   5  11    7.89    0.23
   1  -5 -11    7.39    0.23
   1  -5 -11    7.86    0.25
   1   5 -11    8.01    0.25
   1  -5 -11    7.73    0.24
   1   5 -11    7.90    0.22
  -1  -5  11    7.64    0.23
  -1  -5  10    2.10    0.14
  -1   5  10    2.25    0.13
   1  -5 -10    2.22    0.14
   1  -5 -10    2.23    0.14
   1   5 -10    2.28    0.14
   1  -5 -10    2.23    0.14
   1   5 -10    2.16    0.12
  -1  -5  10    2.15    0.13
  -1  -5   9    9.21    0.28
  -1   5   9    8.99    0.26
   1  -5  -9    9.16    0.28
   1  -5  -9    9.40    0.29
   1   5  -9    9.53    0.28
   1  -5  -9    9.58    0.28
   1   5  -9    9.42    0.26
  -1  -5   9    9.43    0.28
  -1  -5   8    0.48    0.08
  -1   5   8    0.71    0.08
   1  -5  -8    0.50    0.08
   1  -5  -8    0.48    0.09
   1   5  -8    0.53    0.09
   1  -5  -8    0.41    0.08
   1   5  -8    0.55    0.08
  -1  -5   8    0.42    0.08
  -1  -5   7    6.21    0.22
  -1   5   7    6.27    0.21
   1  -5  -7    6.34    0.23
   1  -5  -7    6.45    0.25
  -1   5   7    5.99    0.20
   1   5  -7    6.13    0.22
   1   5  -7    5.84    0.21
   1   5  -7    6.70    0.22
  -1  -5   6   10.39    0.29
   1   5  -6   10.82    0.27
  -1   5   6   10.63    0.27
   1  -5  -6   10.51    0.30
   1  -5  -6   10.39    0.30
  -1   5   6   10.31    0.26
   1   5  -6   10.68    0.29
   1   5  -6    9.88    0.27
   1   5  -6   10.07    0.27
  -1  -5   5   30.49    0.51
   1   5  -5   29.77    0.48
  -1   5   5   29.61    0.48
   1  -5  -5   31.54    0.54
   1  -5  -5   30.09    0.53
  -1   5   5   28.95    0.46
   1   5  -5   30.03    0.50
   1   5  -5   31.29    0.51
   1   5  -5   30.35    0.50
  -1  -5   4    1.31    0.11
   1   5  -4    1.24    0.10
  -1   5   4    1.30    0.10
   1  -5  -4    1.23    0.11
  -1   5   4    1.24    0.10
   1   5  -4    1.18    0.10
   1  -5  -4    1.30    0.11
  -1   5   4    1.21    0.10
   1   5  -4    1.24    0.11
  -1  -5   3    0.11    0.06
  -1   5   3    0.16    0.05
  -1  -5   3    0.14    0.06
   1   5  -3    0.11    0.05
  -1   5   3    0.11    0.05
   1   5  -3    0.08    0.05
   1  -5  -3    0.09    0.06
  -1   5   3    0.12    0.05
   1   5  -3    0.12    0.05
  -1  -5   2   19.65    0.45
  -1   5   2   18.49    0.41
   1   5  -2   18.60    0.40
  -1   5   2   19.61    0.45
  -1  -5   2   18.71    0.43
   1   5  -2   18.51    0.43
  -1   5   2   17.82    0.42
   1  -5  -2   19.72    0.44
   1   5  -2   17.90    0.40
  -1   5   2   19.15    0.41
   1   5  -2   19.83    0.44
  -1   5   1    0.87    0.09
   1   5  -1    0.85    0.09
  -1   5   1    0.84    0.10
  -1  -5   1    0.89    0.09
   1  -5  -1    0.83    0.09
   1   5  -1    0.87    0.10
  -1   5   1    0.92    0.10
   1   5  -1    0.88    0.09
  -1   5   1    1.00    0.09
   1   5  -1    0.94    0.10
  -1   5   0  400.38    1.97
   1   5   0  394.75    4.84
  -1   5   0  397.97    2.16
   1   5   0  385.11    4.87
   1  -5   0  403.40    2.38
  -1  -5   0  383.88    4.73
  -1   5   0  404.12    1.95
   1   5   0  394.61    4.84
  -1  -5   0  403.58    2.10
   1  -5   0  404.01    2.13
   1   5   0  399.91    1.81
  -1   5   0  385.72    4.66
   1   5   1    0.40    0.08
   1  -5   1    0.42    0.08
  -1   5  -1    0.33    0.08
   1   5   1    0.93    0.10
   1  -5   1    0.37    0.08
  -1  -5  -1    0.40    0.08
  -1   5  -1    0.35    0.08
   1   5   2    0.32    0.06
  -1   5  -2    0.27    0.06
   1   5   2    0.32    0.07
  -1  -5  -2    0.29    0.07
  -1   5  -2    0.30    0.06
   1   5   2    0.35    0.07
  -1   5  -2    0.29    0.07
  -1   5  -2    0.28    0.06
   1   5   2    0.27    0.07
  -1   5  -2    0.35    0.07
   1  -5   3    0.32    0.07
   1   5   3    0.30    0.06
  -1   5  -3    0.31    0.07
   1   5   3    0.33    0.06
  -1  -5  -3    0.24    0.07
   1   5   3    0.40    0.07
  -1   5  -3    0.24    0.06
  -1  -5  -3    0.24    0.08
  -1   5  -3    0.27    0.06
   1   5   3    0.24    0.07
  -1   5  -3    0.38    0.08
   1  -5   4    3.13    0.16
   1   5   4    3.20    0.15
  -1  -5  -4    3.22    0.17
   1   5   4    2.96    0.14
  -1   5  -4    3.05    0.15
  -1   5  -4    2.99    0.15
  -1   5  -4    3.07    0.15
   1  -5   5   15.93    0.36
   1   5   5   15.55    0.33
  -1  -5  -5   14.93    0.36
  -1  -5  -5   15.53    0.37
   1   5   5   15.65    0.33
  -1   5  -5   15.90    0.36
  -1   5  -5   16.50    0.35
   1  -5   6   32.74    0.59
  -1   5  -6   32.57    0.54
   1   5   6   32.46    0.55
  -1  -5  -6   32.87    0.60
  -1  -5  -6   33.20    0.61
   1   5   6   31.76    0.53
  -1   5  -6   33.10    0.58
  -1   5  -6   33.04    0.56
   1  -5   7    0.26    0.08
   1   5   7    0.20    0.06
  -1  -5  -7    0.24    0.07
  -1  -5  -7    0.18    0.07
   1   5   7    0.21    0.05
  -1   5  -7    0.20    0.08
  -1   5  -7    0.21    0.07
  -1  -5  -7    0.25    0.08
   1  -5   8   20.35    0.39
   1   5   8   19.11    0.35
  -1  -5  -8   20.29    0.39
  -1  -5  -8   19.96    0.40
   1   5   8   19.14    0.34
  -1   5  -8   20.01    0.38
  -1  -5  -8   20.00    0.38
  -1   5  -8   19.76    0.35
   1  -5   9    0.54    0.10
   1   5   9    0.45    0.08
  -1  -5  -9    0.41    0.08
  -1  -5  -9    0.49    0.09
  -1   5  -9    0.45    0.09
  -1  -5  -9    0.42    0.10
  -1   5  -9    0.39    0.07
   1  -5   9    0.40    0.08
   1  -5  10    6.42    0.22
   1   5  10    6.54    0.21
  -1  -5 -10    6.64    0.22
  -1  -5 -10    6.49    0.23
  -1   5 -10    6.66    0.22
  -1  -5 -10    6.43    0.22
  -1   5 -10    6.29    0.19
   1  -5  10    6.70    0.22
   1  -5  11    0.47    0.10
   1   5  11    0.41    0.08
  -1  -5 -11    0.50    0.09
  -1   5 -11    0.41    0.09
  -1  -5 -11    0.52    0.09
   1  -5  12    1.85    0.14
  -1  -5 -12    1.64    0.13
  -1  -5 -12    1.96    0.14
   1  -5  13    0.15    0.09
  -1  -5 -13    0.02    0.08
  -1  -5 -13    0.04    0.09
   1  -5  14    2.40    0.15
  -1  -5 -14    2.28    0.14
  -1   5 -14    2.43    0.16
  -1  -5 -14    2.41    0.15
   1  -5  15    2.63    0.16
  -1  -5 -15    2.80    0.16
  -1   5 -15    2.64    0.15
  -1  -5 -15    2.46    0.15
   1  -5  16    8.99    0.26
  -1   5 -16    9.28    0.26
  -1  -5 -16    9.20    0.26
  -1   5 -17   -0.04    0.10
  -1  -5 -17   -0.03    0.10
  -1  -7  15    0.19    0.09
   1  -7 -15    0.04    0.11
  -1  -7  14    0.57    0.10
   1  -7 -14    0.54    0.12
  -1  -7  13    0.85    0.12
   1   7 -13    0.86    0.12
   1  -7 -13    0.84    0.12
  -1  -7  12    0.00    0.09
   1   7 -12    0.02    0.08
   1  -7 -12   -0.01    0.08
  -1  -7  11    1.73    0.14
   1   7 -11    1.87    0.14
  -1  -7  10    0.15    0.09
   1   7 -10    0.19    0.08
  -1  -7   9    8.54    0.26
   1   7  -9    8.40    0.25
  -1  -7   8   11.39    0.30
   1  -7  -8   10.90    0.30
   1   7  -8   10.88    0.28
   1  -7  -8   11.43    0.29
  -1  -7   7    4.29    0.19
   1  -7  -7    4.10    0.18
   1   7  -7    4.02    0.19
   1  -7  -7    4.43    0.20
   1   7  -7    4.18    0.17
  -1  -7   6    0.31    0.10
   1   7  -6    0.33    0.09
   1  -7  -6    0.28    0.10
   1   7  -6    0.43    0.08
  -1  -7   5    2.26    0.15
   1   7  -5    2.17    0.15
   1  -7  -5    2.21    0.15
   1   7  -5    2.34    0.15
   1  -7  -4    1.16    0.10
   1   7  -4    1.31    0.12
   1   7  -4    1.24    0.11
  -1   7   3    0.85    0.10
   1  -7  -3    0.84    0.10
   1   7  -3    0.77    0.10
   1   7  -3    0.74    0.10
  -1   7   2   22.61    0.49
   1   7  -2   21.82    0.49
   1  -7  -2   22.94    0.48
   1   7  -2   21.75    0.46
   1  -7  -2   22.27    0.48
   1   7  -2   22.32    0.47
  -1   7   1    9.94    0.30
   1   7  -1   10.34    0.31
  -1  -7   1    9.44    0.29
   1  -7  -1    9.79    0.29
   1   7  -1    9.58    0.29
   1  -7  -1   10.37    0.31
   1   7  -1    9.99    0.30
   1   7   0   20.65    0.47
  -1   7   0   20.80    0.47
  -1  -7   0   21.05    0.45
   1  -7   0   20.09    0.44
   1   7   0   21.47    0.47
   1   7   1    7.00    0.24
  -1   7  -1    6.80    0.24
  -1  -7  -1    7.06    0.23
  -1   7  -1    6.56    0.22
  -1  -7  -1    6.74    0.23
  -1   7  -1    6.87    0.23
  -1   7  -2    1.96    0.14
  -1  -7  -2    1.93    0.13
  -1   7  -2    1.86    0.13
  -1   7  -2    2.10    0.14
  -1  -7  -2    2.07    0.15
  -1   7  -2    1.93    0.14
  -1   7  -3    9.92    0.27
  -1  -7  -3   10.22    0.28
  -1   7  -3   10.76    0.28
  -1   7  -4   18.12    0.42
  -1   7  -4   18.60    0.42
   1  -7   5   13.90    0.33
  -1  -7  -5   13.49    0.32
  -1   7  -5   13.19    0.30
  -1   7  -5   13.01    0.30
   1  -7   6   10.36    0.29
  -1  -7  -6    9.87    0.28
  -1   7  -6   10.04    0.27
  -1   7  -6    9.55    0.26
   1  -7   7    1.82    0.14
  -1  -7  -7    1.66    0.13
  -1   7  -7    1.74    0.13
  -1  -7  -7    1.81    0.14
   1  -7   8   10.49    0.29
  -1  -7  -8   10.17    0.29
  -1   7  -8   10.26    0.27
   1  -7   9    1.00    0.12
  -1  -7  -9    1.06    0.11
  -1   7  -9    1.02    0.11
   1  -7  10    1.27    0.13
  -1   7 -10    1.19    0.12
  -1  -7 -10    1.14    0.12
   1  -7  11    1.17    0.13
  -1   7 -11    1.13    0.11
   1  -7  12    0.03    0.09
  -1  -7 -12    0.10    0.10
   1  -7  13    0.04    0.09
  -1  -7 -13    0.07    0.10
   1  -7  14    0.92    0.12
  -1  -7 -14    0.72    0.12
   1  -7  15    3.34    0.18
  -1   7 -15    3.43    0.17
  -1  -7 -15    3.22    0.18
  -1  -9  11    1.93    0.15
   1   9 -11    1.92    0.14
  -1  -9  10    0.28    0.10
   1   9 -10    0.28    0.10
  -1  -9   9    0.06    0.10
   1   9  -9    0.04    0.09
   1   9  -8    0.10    0.08
   1   9  -7    1.45    0.12
   1   9  -6    0.42    0.09
   1  -9  -6    0.47    0.11
   1   9  -5   -0.03    0.07
   1  -9  -5    0.01    0.09
   1   9  -4    3.45    0.16
   1  -9  -4    3.77    0.18
   1  -9  -3    0.43    0.09
   1   9  -3    0.53    0.10
   1   9  -2    0.15    0.08
   1   9  -1    8.55    0.25
  -1   9   1    9.05    0.27
   1   9   0    1.10    0.12
  -1   9   0    0.84    0.11
  -1   9  -1    1.08    0.11
   1   9   1    1.06    0.12
  -1  -9  -2    6.95    0.23
  -1   9  -2    7.04    0.23
   1   9   2    7.05    0.24
  -1  -9  -3    0.11    0.09
  -1  -9  -4    3.57    0.18
  -1  -9  -5    3.60    0.19
  -1   9  -6    1.41    0.12
  -1  -9  -6    1.60    0.14
  -1   9  -7    4.42    0.19
  -1  -9  -7    4.07    0.20
  -1   9  -8    1.74    0.13
  -1  -9  -8    1.86    0.15
  -1   9  -9    0.02    0.08
   1  -9  10    3.61    0.18
  -1   9 -10    3.50    0.17
  -2   0  20   -0.02    0.09
   2   0 -20    0.03    0.08
  -2   0  19    0.04    0.10
   2   0 -19   -0.02    0.08
  -2   0  18    1.46    0.12
   2   0 -18    1.57    0.13
   2   0 -18    1.26    0.11
  -2   0  17    0.01    0.09
   2   0 -17   -0.07    0.07
   2   0 -17    0.01    0.07
   2   0 -16    6.74    0.21
   2   0 -16    6.74    0.22
   2   0 -15    0.07    0.08
   2   0 -15    0.04    0.08
   2   0 -14    1.20    0.11
   2   0 -14    1.11    0.10
  -2   0  13    0.00    0.07
   2   0 -13    0.03    0.07
   2   0 -13   -0.04    0.06
  -2   0  12    5.21    0.19
   2   0 -12    4.85    0.18
   2   0 -12    5.10    0.19
  -2   0  11    0.06    0.05
   2   0 -11    0.01    0.05
   2   0 -11    0.17    0.06
  -2   0  11    0.01    0.04
  -2   0  10   10.31    0.27
   2   0 -10   11.84    0.27
   2   0 -10   10.30    0.26
  -2   0  10    9.96    0.25
   2   0 -10   10.59    0.26
  -2   0  10   10.43    0.24
  -2   0   9    0.08    0.06
   2   0  -9    0.07    0.06
   2   0  -9    0.06    0.06
  -2   0   9    0.09    0.06
   2   0  -9    0.04    0.05
  -2   0   9    0.08    0.05
  -2   0   8    7.91    0.25
  -2   0   8    7.52    0.22
   2   0  -8    7.59    0.22
  -2   0   8    7.86    0.21
  -2   0   7    0.41    0.07
  -2   0   7    0.11    0.06
   2   0  -7    0.11    0.05
  -2   0   7    0.14    0.06
  -2   0   6  365.21    3.94
  -2   0   6  380.06    3.98
   2   0  -6  368.92    4.23
  -2   0   6  351.25    3.75
  -2   0   5    0.06    0.05
  -2   0   5    0.04    0.04
   2   0  -5    0.16    0.05
  -2   0   4  773.22    7.87
   2   0  -4  756.95    7.71
   2   0  -4  735.06    7.54
  -2   0   3    0.08    0.04
   2   0  -3    0.01    0.03
  -2   0   3    0.01    0.03
   2   0  -3    0.01    0.03
   2   0   2   80.97    1.06
  -2   0  -2   80.58    1.04
   2   0   2   82.94    1.06
  -2   0  -2   84.29    1.09
   2   0   3    0.05    0.03
  -2   0  -3    0.04    0.03
   2   0   3    0.07    0.04
  -2   0  -3    0.10    0.04
   2   0   3    0.02    0.03
   2   0   4  142.67    1.68
  -2   0  -4  134.47    1.62
  -2   0  -4  146.92    1.75
   2   0   4  143.18    1.66
  -2   0  -5    0.08    0.05
   2   0   5    0.14    0.05
  -2   0  -6   42.29    0.61
   2   0   6   42.40    0.62
  -2   0  -6   43.10    0.62
   2   0   6   44.56    0.63
  -2   0  -7    0.05    0.04
   2   0   7    0.00    0.04
  -2   0  -7    0.08    0.04
   2   0   7    0.04    0.04
  -2   0  -8    3.65    0.15
   2   0   8    3.58    0.16
  -2   0  -8    3.65    0.15
   2   0   8    3.72    0.15
  -2   0  -9    0.03    0.04
  -2   0  -9    0.00    0.04
   2   0   9    0.00    0.04
  -2   0  -9   -0.01    0.05
   2   0   9    0.01    0.04
   2   0  10    0.09    0.05
  -2   0 -10    0.08    0.05
  -2   0 -10    0.10    0.05
   2   0  10    0.08    0.05
  -2   0 -10    0.05    0.04
   2   0  10    0.06    0.05
   2   0  11    0.05    0.05
  -2   0 -11    0.01    0.05
  -2   0 -11    0.00    0.05
   2   0  11    0.00    0.05
   2   0  12    1.91    0.12
  -2   0 -12    2.17    0.13
  -2   0 -12    1.97    0.12
   2   0  12    2.03    0.11
   2   0  13   -0.04    0.06
  -2   0 -13    0.04    0.06
  -2   0 -13    0.00    0.05
   2   0  14    7.16    0.22
  -2   0 -14    7.19    0.22
  -2   0 -14    6.85    0.21
   2   0  15    0.06    0.08
  -2   0 -15    0.09    0.07
  -2   0 -15   -0.02    0.07
   2   0  16    7.78    0.23
  -2   0 -16    7.73    0.22
  -2   0 -16    8.12    0.23
   2   0  17    0.08    0.08
  -2   0 -17    0.02    0.09
   2   0  18   17.29    0.34
  -2   0 -18   17.38    0.34
   2   0  19    0.06    0.10
  -2   0 -19    0.10    0.10
  -2  -2  19    0.05    0.09
  -2   2  19   -0.07    0.09
   2  -2 -19    0.00    0.09
   2   2 -19   -0.06    0.09
   2  -2 -19    0.01    0.09
  -2  -2  18    0.31    0.10
   2  -2 -18    0.24    0.09
   2   2 -18    0.29    0.10
   2  -2 -18    0.28    0.10
  -2  -2  17   12.33    0.30
   2  -2 -17   11.64    0.27
   2   2 -17   12.20    0.29
   2  -2 -17   12.63    0.30
  -2  -2  16   10.71    0.28
  -2   2  16   10.10    0.26
   2  -2 -16   10.13    0.26
   2   2 -16   10.46    0.27
   2  -2 -16   10.49    0.27
   2   2 -16   10.62    0.26
  -2  -2  15    0.08    0.08
  -2   2  15    0.13    0.08
   2  -2 -15    0.08    0.07
   2   2 -15    0.14    0.09
   2  -2 -15    0.19    0.09
   2   2 -15    0.10    0.07
  -2  -2  14    1.64    0.13
  -2   2  14    1.52    0.12
   2  -2 -14    1.75    0.12
   2   2 -14    1.59    0.12
   2  -2 -14    1.55    0.12
   2   2 -14    1.60    0.12
  -2  -2  13    0.16    0.09
  -2   2  13    0.08    0.07
   2  -2 -13    0.17    0.08
   2  -2 -13    0.06    0.07
   2   2 -13    0.16    0.08
  -2  -2  12    6.71    0.22
  -2   2  12    6.84    0.22
   2  -2 -12    6.69    0.21
  -2   2  12    6.59    0.21
   2  -2 -12    6.81    0.22
   2   2 -12    6.79    0.21
  -2   2  11    1.13    0.10
   2  -2 -11    1.25    0.10
  -2   2  11    1.14    0.10
   2  -2 -11    1.22    0.11
   2   2 -11    1.27    0.11
  -2   2  10    8.01    0.24
   2  -2 -10    8.27    0.23
   2  -2 -10    8.05    0.23
  -2   2  10    8.44    0.24
   2  -2 -10    7.77    0.23
   2   2 -10    7.81    0.23
  -2   2   9   11.93    0.29
   2   2  -9   10.87    0.26
   2  -2  -9   10.51    0.25
   2  -2  -9   10.95    0.26
  -2   2   9   11.01    0.26
   2  -2  -9   10.95    0.27
  -2   2   9   11.35    0.26
   2   2  -9   10.95    0.26
  -2  -2   9   10.33    0.25
   2   2  -8    1.71    0.11
  -2   2   8    1.88    0.12
   2  -2  -8    1.77    0.11
   2   2  -8    1.72    0.12
   2  -2  -8    1.82    0.11
  -2   2   8    1.79    0.12
   2   2  -8    1.77    0.12
   2  -2  -8    1.68    0.11
   2   2  -8    1.62    0.11
  -2  -2   8    1.68    0.11
   2   2  -7    3.59    0.16
  -2   2   7    3.49    0.16
   2  -2  -7    3.68    0.16
   2   2  -7    3.47    0.16
   2  -2  -7    3.53    0.15
  -2   2   7    3.49    0.15
   2   2  -7    3.53    0.16
   2  -2  -7    3.53    0.16
   2   2  -7    3.50    0.15
  -2  -2   7    3.58    0.15
   2   2  -6   20.89    0.40
  -2   2   6   18.81    0.38
   2  -2  -6   19.61    0.38
   2   2  -6   19.28    0.39
   2  -2  -6   19.76    0.38
  -2   2   6   18.39    0.38
   2   2  -6   19.35    0.40
   2  -2  -6   19.58    0.39
  -2   2   6   17.47    0.35
   2   2  -6   19.76    0.37
  -2  -2   6   19.20    0.37
   2   2  -5   86.48    1.11
  -2   2   5   85.79    1.14
   2  -2  -5   89.00    1.16
   2   2  -5   88.50    1.16
   2  -2  -5   84.81    1.13
   2   2  -5   87.02    1.17
   2  -2  -5   84.21    1.13
  -2   2   5   86.82    1.10
  -2  -2   5   85.73    1.11
   2   2  -4    0.16    0.05
  -2   2   4    0.17    0.05
   2   2  -4    0.15    0.05
   2  -2  -4    0.18    0.05
  -2   2   4    0.17    0.05
   2   2  -4    0.15    0.05
   2  -2  -4    0.16    0.05
  -2   2   4    0.23    0.06
   2   2  -4    0.24    0.05
  -2  -2   4    0.20    0.05
   2   2  -3   13.24    0.29
  -2   2   3   13.16    0.30
   2  -2  -3   13.10    0.31
   2   2  -3   12.87    0.30
   2  -2  -3   13.11    0.31
  -2   2   3   12.89    0.27
   2  -2  -3   11.56    0.28
  -2   2   3   13.02    0.28
   2   2  -3   13.48    0.30
  -2  -2   3   13.70    0.31
  -2  -2   2   63.14    0.89
   2   2  -2   63.95    0.89
  -2   2   2   62.54    0.92
   2  -2  -2   62.36    0.92
   2  -2  -2   65.25    0.96
  -2   2   2   65.68    0.95
  -2   2   2   63.26    0.88
   2   2  -2   64.87    0.94
  -2  -2   1  362.92    3.85
   2   2  -1  347.68    3.68
  -2   2   1  376.59    4.07
   2  -2  -1  350.21    3.75
   2   2  -1  352.27    3.98
  -2   2   1  364.00    3.88
   2   2  -1  352.96    3.94
  -2   2   1  357.00    3.76
  -2   2   0  648.46    6.75
  -2   2   0  657.21    6.73
   2   2   0  675.35    6.89
  -2   2   0  690.05    7.48
   2  -2   0  646.03    6.59
  -2   2   0  658.59    6.65
   2   2   1   20.69    0.39
  -2   2  -1   20.77    0.38
   2   2   1   22.44    0.42
  -2   2  -1   21.06    0.38
  -2  -2  -1   19.81    0.40
   2   2   1   20.90    0.40
  -2   2  -1   21.20    0.38
   2  -2   1   21.80    0.39
   2   2   1   20.98    0.37
  -2   2  -1   21.26    0.37
  -2   2  -2   95.98    1.21
   2   2   2   99.03    1.26
  -2  -2  -2   90.97    1.24
  -2  -2  -2   97.04    1.29
   2   2   2   95.63    1.23
  -2   2  -2   98.00    1.26
   2  -2   2   90.02    1.16
  -2  -2  -2   97.58    1.25
   2   2   2   94.64    1.19
  -2   2  -2   98.51    1.28
  -2   2  -3  112.12    1.37
   2   2   3  116.05    1.42
  -2  -2  -3  111.25    1.37
  -2  -2  -3  110.99    1.43
   2   2   3  111.49    1.37
  -2   2  -3  112.30    1.43
  -2  -2  -3  112.61    1.40
   2   2   3  115.50    1.41
  -2   2  -3  112.09    1.38
   2  -2   3  106.85    1.35
  -2   2  -4   26.81    0.48
   2   2   4   26.86    0.49
  -2  -2  -4   26.72    0.48
  -2  -2  -4   27.90    0.52
   2   2   4   27.49    0.48
  -2   2  -4   25.54    0.48
  -2  -2  -4   26.47    0.49
  -2   2  -4   28.30    0.49
   2  -2   4   27.85    0.51
   2  -2   5    7.88    0.23
   2   2   5    8.29    0.23
  -2  -2  -5    8.15    0.23
  -2  -2  -5    8.13    0.24
   2   2   5    7.95    0.22
  -2   2  -5    7.84    0.23
  -2  -2  -5    8.26    0.24
  -2   2  -5    8.25    0.22
   2  -2   5    8.04    0.23
   2  -2   6  101.12    1.18
  -2   2  -6  105.67    1.17
   2   2   6   99.34    1.14
  -2  -2  -6  103.49    1.14
  -2  -2  -6  103.86    1.20
   2   2   6  104.08    1.16
  -2   2  -6   98.28    1.16
  -2  -2  -6  101.99    1.18
   2   2   6   98.13    1.10
  -2   2  -6  100.60    1.15
   2  -2   6   98.15    1.10
   2  -2   7    3.96    0.17
  -2   2  -7    4.25    0.17
   2   2   7    4.20    0.17
  -2  -2  -7    4.24    0.16
  -2  -2  -7    4.40    0.17
   2   2   7    4.10    0.16
   2  -2   7    3.91    0.16
  -2  -2  -7    4.13    0.17
   2   2   7    4.14    0.16
  -2   2  -7    4.17    0.16
   2  -2   7    4.01    0.16
   2  -2   8   27.33    0.53
   2   2   8   28.24    0.54
  -2   2  -8   28.21    0.53
  -2  -2  -8   27.06    0.51
  -2  -2  -8   28.33    0.53
   2   2   8   26.82    0.51
   2  -2   8   27.82    0.53
  -2  -2  -8   27.58    0.53
   2   2   8   27.54    0.51
  -2   2  -8   27.78    0.52
   2  -2   9   12.19    0.29
   2   2   9   12.69    0.29
  -2  -2  -9   12.37    0.27
  -2  -2  -9   12.15    0.28
  -2  -2  -9   12.57    0.29
   2   2   9   12.21    0.27
  -2   2  -9   12.13    0.28
   2  -2  10    1.28    0.11
   2   2  10    1.40    0.11
  -2  -2 -10    1.39    0.10
  -2  -2 -10    1.51    0.11
  -2   2 -10    1.39    0.12
   2   2  10    1.42    0.10
  -2  -2 -10    1.38    0.11
  -2   2 -10    1.47    0.11
   2  -2  11    9.02    0.25
  -2  -2 -11    8.98    0.23
  -2  -2 -11    8.92    0.24
  -2   2 -11    8.82    0.24
  -2  -2 -11    9.10    0.25
  -2   2 -11    9.00    0.24
   2  -2  12    0.64    0.09
  -2  -2 -12    0.52    0.08
  -2  -2 -12    0.53    0.08
  -2   2 -12    0.60    0.08
   2  -2  13    6.38    0.21
  -2  -2 -13    6.09    0.20
  -2  -2 -13    6.27    0.21
  -2   2 -13    6.44    0.20
   2  -2  14    2.47    0.15
   2   2  14    2.38    0.14
  -2  -2 -14    2.26    0.14
  -2  -2 -14    2.39    0.14
  -2   2 -14    2.31    0.13
   2  -2  15    9.19    0.26
   2   2  15    8.92    0.25
  -2  -2 -15    9.36    0.25
  -2   2 -15    8.09    0.23
  -2  -2 -15    9.01    0.25
   2  -2  16    0.73    0.11
   2   2  16    0.84    0.11
  -2  -2 -16    0.91    0.11
  -2   2 -16    0.91    0.11
  -2  -2 -16    0.88    0.11
   2  -2  17    3.54    0.17
   2   2  17    3.37    0.16
  -2  -2 -17    3.42    0.16
  -2   2 -17    3.34    0.16
  -2  -2 -17    3.46    0.16
   2  -2  18    6.46    0.22
   2   2  18    6.49    0.21
  -2  -2 -18    6.40    0.21
  -2   2 -18    6.40    0.21
  -2  -2 -18    6.22    0.21
   2  -2  19    0.20    0.10
   2   2  19    0.25    0.10
  -2  -2 -19    0.19    0.10
  -2   2 -19    0.13    0.10
   2  -4 -18    0.34    0.10
   2  -4 -17    2.46    0.15
   2  -4 -17    2.28    0.14
  -2   4  16    2.83    0.15
   2  -4 -16    2.59    0.15
   2  -4 -16    2.66    0.15
  -2   4  15    0.40    0.08
   2  -4 -15    0.40    0.08
   2  -4 -15    0.38    0.10
  -2   4  14    2.03    0.13
   2  -4 -14    2.22    0.14
   2  -4 -14    2.09    0.14
  -2  -4  13    0.16    0.10
  -2   4  13    0.17    0.07
   2  -4 -13    0.23    0.08
   2   4 -13    0.21    0.09
   2  -4 -13    0.18    0.08
   2   4 -13    0.19    0.07
  -2  -4  12    3.67    0.17
  -2   4  12    3.46    0.17
   2  -4 -12    3.81    0.17
   2   4 -12    3.76    0.18
   2  -4 -12    3.69    0.17
   2   4 -12    3.60    0.16
  -2  -4  12    3.85    0.16
  -2  -4  11    0.33    0.09
  -2   4  11    0.34    0.07
   2  -4 -11    0.40    0.08
   2  -4 -11    0.38    0.08
   2   4 -11    0.32    0.09
   2  -4 -11    0.32    0.08
   2   4 -11    0.31    0.07
  -2  -4  11    0.39    0.08
  -2  -4  10    0.19    0.08
  -2   4  10    0.34    0.07
   2  -4 -10    0.24    0.07
   2  -4 -10    0.26    0.07
  -2   4  10    0.21    0.05
   2   4 -10    0.28    0.08
   2  -4 -10    0.18    0.08
   2   4 -10    0.25    0.06
  -2  -4  10    0.27    0.07
  -2  -4   9    4.28    0.18
  -2   4   9    3.70    0.16
   2  -4  -9    3.83    0.17
   2  -4  -9    3.94    0.18
  -2   4   9    3.70    0.15
   2   4  -9    3.95    0.18
   2  -4  -9    3.79    0.17
   2   4  -9    3.78    0.15
  -2  -4   9    3.92    0.17
  -2  -4   8    2.33    0.13
  -2   4   8    2.20    0.13
   2  -4  -8    2.25    0.13
   2  -4  -8    2.22    0.14
   2   4  -8    2.29    0.14
   2  -4  -8    2.23    0.14
   2   4  -8    2.19    0.12
  -2  -4   8    2.05    0.12
  -2  -4   7   11.18    0.28
   2   4  -7   11.23    0.26
  -2   4   7   11.22    0.27
   2  -4  -7   11.12    0.29
   2   4  -7   10.58    0.27
   2  -4  -7   11.07    0.29
  -2   4   7   11.19    0.26
   2   4  -7   11.04    0.28
   2  -4  -7   11.00    0.27
  -2  -4   7   10.21    0.26
  -2  -4   6   23.06    0.48
   2   4  -6   22.86    0.46
  -2   4   6   22.81    0.46
   2  -4  -6   23.65    0.50
   2  -4  -6   22.21    0.49
  -2   4   6   22.63    0.45
   2   4  -6   23.69    0.49
  -2   4   6   22.70    0.45
   2   4  -6   22.23    0.45
  -2  -4   6   22.27    0.47
  -2  -4   5   14.33    0.35
   2   4  -5   14.58    0.35
  -2   4   5   14.10    0.34
   2  -4  -5   14.90    0.38
   2  -4  -5   14.92    0.39
  -2   4   5   13.86    0.32
   2   4  -5   14.25    0.36
  -2   4   5   14.34    0.33
   2   4  -5   14.40    0.35
  -2  -4   5   14.22    0.35
  -2  -4   4    7.38    0.23
   2   4  -4    7.81    0.22
  -2   4   4    7.85    0.23
   2  -4  -4    7.51    0.25
   2  -4  -4    7.81    0.25
  -2   4   4    7.54    0.22
   2   4  -4    7.25    0.22
  -2   4   4    7.75    0.22
   2   4  -4    7.58    0.23
  -2  -4   3    6.87    0.22
   2   4  -3    6.80    0.21
  -2   4   3    6.53    0.22
   2  -4  -3    7.07    0.24
  -2  -4   3    6.67    0.22
   2   4  -3    6.99    0.23
   2  -4  -3    7.07    0.23
  -2   4   3    6.83    0.22
   2   4  -3    6.86    0.22
   2  -4  -3    6.60    0.21
  -2   4   3    6.88    0.21
   2   4  -3    6.12    0.21
  -2  -4   2    3.88    0.17
  -2   4   2    3.80    0.18
  -2  -4   2    3.65    0.17
   2   4  -2    3.94    0.17
  -2   4   2    3.81    0.17
  -2   4   2    3.89    0.16
   2   4  -2    3.89    0.17
  -2  -4   1   43.53    0.67
  -2   4   1   45.28    0.67
   2   4  -1   44.04    0.63
  -2   4   1   44.96    0.70
   2  -4  -1   44.30    0.67
   2   4  -1   43.72    0.67
  -2   4   1   42.85    0.67
   2  -4  -1   45.28    0.68
   2   4  -1   45.12    0.65
  -2   4   1   45.83    0.65
   2   4  -1   43.15    0.66
  -2   4   0   57.48    0.77
   2   4   0   57.60    0.75
  -2   4   0   55.04    0.81
   2   4   0   54.95    0.80
   2  -4   0   57.75    0.79
  -2   4   0   57.44    0.80
   2   4   0   57.15    0.79
  -2  -4   0   58.09    0.81
   2   4   0   57.59    0.76
  -2   4   0   58.69    0.76
  -2   4  -1   33.61    0.54
   2   4   1   33.50    0.53
   2   4   1   33.50    0.59
  -2  -4  -1   32.38    0.61
   2   4   1   32.65    0.57
  -2   4  -1   35.65    0.57
   2  -4   1   33.14    0.56
  -2  -4  -1   32.87    0.55
   2   4   1   33.17    0.53
  -2   4  -1   33.29    0.52
   2  -4   2   19.06    0.43
   2   4   2   18.71    0.40
  -2   4  -2   19.12    0.40
   2   4   2   19.56    0.43
  -2  -4  -2   18.66    0.43
   2   4   2   18.95    0.42
  -2   4  -2   19.30    0.41
  -2   4  -2   18.54    0.39
   2   4   2   18.74    0.39
  -2   4  -2   18.72    0.42
   2  -4   3    5.63    0.21
  -2   4  -3    5.99    0.19
   2   4   3    5.76    0.19
  -2   4  -3    5.74    0.20
  -2  -4  -3    5.67    0.22
   2   4   3    5.64    0.20
  -2   4  -3    5.78    0.21
  -2   4  -3    5.48    0.19
   2   4   3    5.80    0.19
  -2   4  -3    5.75    0.21
   2  -4   4   60.69    0.91
  -2   4  -4   62.26    0.89
   2   4   4   62.23    0.89
  -2  -4  -4   63.52    0.96
  -2   4  -4   63.36    0.92
  -2  -4  -4   59.55    1.20
   2   4   4   60.25    0.88
  -2   4  -4   63.95    0.92
  -2  -4  -4   59.48    0.90
   2   4   4   64.04    0.90
  -2   4  -4   58.95    0.90
   2  -4   5    4.71    0.19
   2   4   5    4.48    0.17
  -2  -4  -5    4.70    0.19
  -2   4  -5    4.63    0.19
  -2  -4  -5    4.58    0.20
   2   4   5    4.45    0.17
  -2   4  -5    4.38    0.18
  -2   4  -5    4.48    0.18
  -2  -4  -5    4.56    0.18
   2   4   5    4.63    0.17
  -2   4  -5    4.61    0.17
   2  -4   6   31.14    0.48
   2   4   6   31.07    0.45
  -2  -4  -6   30.67    0.48
  -2   4  -6   31.88    0.47
  -2  -4  -6   30.49    0.49
   2   4   6   29.87    0.43
  -2   4  -6   31.66    0.48
  -2   4  -6   29.68    0.45
  -2  -4  -6   31.93    0.47
   2   4   6   31.05    0.43
   2  -4   7   85.85    0.81
   2   4   7   87.93    0.81
  -2  -4  -7   88.17    0.80
  -2   4  -7   82.68    0.94
  -2  -4  -7   83.13    1.04
   2   4   7   86.36    0.75
  -2   4  -7   86.89    0.83
  -2  -4  -7   85.76    0.99
  -2   4  -7   86.67    0.77
   2  -4   7   85.01    0.96
   2  -4   8    5.46    0.21
   2   4   8    5.28    0.20
  -2  -4  -8    5.41    0.20
  -2  -4  -8    5.20    0.21
   2   4   8    5.64    0.19
  -2   4  -8    5.52    0.21
  -2  -4  -8    5.53    0.21
  -2   4  -8    5.09    0.18
   2  -4   8    5.34    0.20
   2  -4   9   25.57    0.43
   2   4   9   28.22    0.43
  -2  -4  -9   26.08    0.41
  -2  -4  -9   26.42    0.45
   2   4   9   27.40    0.42
  -2   4  -9   27.34    0.44
  -2  -4  -9   26.81    0.44
  -2   4  -9   27.08    0.40
   2  -4   9   25.52    0.42
   2   4  10    5.66    0.20
  -2  -4 -10    5.40    0.19
  -2  -4 -10    5.58    0.21
   2   4  10    5.37    0.18
  -2  -4 -10    5.43    0.20
  -2   4 -10    5.30    0.18
   2  -4  10    5.05    0.19
   2   4  11    1.63    0.12
  -2  -4 -11    1.61    0.11
  -2  -4 -11    1.57    0.12
  -2  -4 -11    1.56    0.13
  -2   4 -11    1.53    0.11
   2  -4  11    1.46    0.11
   2   4  12    1.80    0.12
  -2  -4 -12    1.67    0.13
  -2  -4 -12    1.82    0.13
  -2  -4 -13    0.84    0.10
  -2   4 -13    0.92    0.11
  -2  -4 -13    0.84    0.11
  -2  -4 -14    0.25    0.08
  -2   4 -14    0.26    0.09
  -2  -4 -14    0.25    0.09
   2  -4  15    0.55    0.11
  -2  -4 -15    0.68    0.10
  -2   4 -15    0.62    0.11
  -2  -4 -15    0.76    0.11
   2  -4  16    0.11    0.10
  -2  -4 -16    0.17    0.08
  -2   4 -16    0.14    0.10
  -2  -4 -16    0.08    0.09
   2  -4  17    2.45    0.16
  -2  -4 -17    2.46    0.15
  -2   4 -17    2.40    0.15
  -2  -4 -17    2.26    0.15
   2  -4  18    1.19    0.13
  -2  -4 -18    1.18    0.12
  -2   4 -18    1.21    0.12
  -2  -4 -18    1.28    0.13
  -2  -6  16    0.07    0.10
   2  -6 -16    0.04    0.10
  -2  -6  15    0.14    0.10
   2  -6 -15    0.15    0.10
  -2  -6  14    0.15    0.09
   2   6 -14    0.11    0.10
   2  -6 -14    0.11    0.10
  -2  -6  13    0.08    0.09
   2   6 -13   -0.01    0.08
   2  -6 -13    0.11    0.09
  -2  -6  12    0.42    0.10
   2   6 -12    0.40    0.10
   2  -6 -12    0.39    0.10
  -2  -6  11    2.82    0.16
   2  -6 -11    2.76    0.16
   2   6 -11    2.87    0.16
   2  -6 -11    2.73    0.16
  -2  -6  10    4.04    0.18
   2  -6 -10    4.24    0.19
   2   6 -10    3.83    0.17
   2   6 -10    4.05    0.16
  -2  -6   9   15.89    0.34
  -2   6   9   15.50    0.31
   2  -6  -9   16.10    0.35
   2  -6  -9   15.30    0.35
   2   6  -9   15.28    0.33
   2   6  -9   16.27    0.34
  -2  -6   8    0.87    0.11
  -2   6   8    0.82    0.09
   2  -6  -8    0.88    0.10
   2  -6  -8    0.86    0.10
   2   6  -8    0.85    0.11
  -2  -6   7   12.99    0.35
  -2   6   7   12.57    0.32
   2  -6  -7   11.87    0.33
   2  -6  -7   13.07    0.35
   2   6  -7   13.12    0.34
   2  -6  -7   12.76    0.34
   2   6  -7   12.91    0.32
  -2  -6   6   25.21    0.52
  -2   6   6   25.36    0.49
   2  -6  -6   25.99    0.53
   2  -6  -6   25.72    0.53
   2   6  -6   25.08    0.51
   2  -6  -6   25.04    0.51
   2   6  -6   26.81    0.52
  -2  -6   5   56.45    0.66
   2   6  -5   56.21    0.61
  -2   6   5   55.81    0.62
   2   6  -5   56.02    0.67
   2  -6  -5   57.10    0.64
   2   6  -5   56.27    0.65
  -2   6   4   15.85    0.34
  -2  -6   4   16.41    0.36
   2   6  -4   15.73    0.31
  -2   6   4   16.23    0.34
  -2   6   4   15.55    0.32
   2   6  -4   15.26    0.33
   2   6  -4   15.40    0.32
   2  -6  -4   16.06    0.35
   2   6  -4   16.46    0.34
  -2  -6   3    1.15    0.11
  -2   6   3    1.08    0.10
   2   6  -3    1.11    0.09
  -2   6   3    0.99    0.10
  -2  -6   3    1.06    0.11
   2  -6  -3    1.00    0.10
   2   6  -3    1.02    0.11
  -2   6   3    1.07    0.10
   2  -6  -3    1.13    0.12
   2   6  -3    1.13    0.10
   2   6  -3    1.01    0.10
  -2   6   2    2.90    0.15
   2   6  -2    2.72    0.14
  -2   6   2    2.84    0.16
  -2  -6   2    2.93    0.15
   2  -6  -2    2.82    0.15
   2   6  -2    2.67    0.15
  -2   6   2    2.87    0.15
   2   6  -2    2.77    0.14
   2   6  -2    2.79    0.15
  -2   6   1   71.25    0.97
  -2   6   1   72.49    1.04
   2   6  -1   71.48    1.03
   2  -6  -1   71.40    1.00
  -2  -6   1   72.08    1.01
   2   6  -1   68.75    0.97
  -2   6   1   71.86    1.03
   2  -6  -1   75.54    1.04
   2   6  -1   70.65    0.97
  -2   6   1   73.48    0.99
   2   6  -1   73.82    1.05
  -2   6   0   12.87    0.31
   2   6   0   12.64    0.31
  -2   6   0   12.55    0.35
   2   6   0   12.74    0.34
  -2  -6   0   12.63    0.33
  -2   6   0   12.42    0.33
   2   6   0   12.58    0.33
  -2   6   0   12.38    0.32
   2  -6   0   12.49    0.32
  -2   6   0   13.68    0.33
   2   6   0   12.02    0.33
  -2   6  -1    3.13    0.15
   2   6   1    3.24    0.15
   2   6   1    3.19    0.16
  -2   6  -1    3.11    0.17
  -2   6  -1    3.33    0.16
   2   6   1    3.18    0.16
  -2   6  -1    3.16    0.15
  -2  -6  -1    3.08    0.16
  -2   6  -1    3.13    0.14
   2   6   2   17.44    0.37
  -2   6  -2   17.82    0.37
   2   6   2   19.06    0.42
  -2   6  -2   17.65    0.40
   2   6   2   18.06    0.40
  -2   6  -2   17.63    0.39
  -2  -6  -2   17.50    0.40
  -2   6  -2   17.38    0.37
  -2   6  -2   17.92    0.40
   2   6   3    2.47    0.13
  -2   6  -3    2.43    0.13
   2   6   3    2.37    0.13
  -2  -6  -3    2.41    0.15
  -2   6  -3    2.42    0.14
   2   6   3    2.27    0.13
  -2   6  -3    2.50    0.14
  -2   6  -3    2.38    0.13
  -2   6  -3    2.44    0.14
   2  -6   4    0.32    0.09
  -2   6  -4    0.35    0.07
   2   6   4    0.38    0.07
  -2  -6  -4    0.33    0.08
   2   6   4    0.34    0.07
  -2   6  -4    0.38    0.08
  -2   6  -4    0.31    0.07
  -2   6  -4    0.34    0.08
   2  -6   5    1.89    0.14
   2   6   5    1.81    0.12
  -2  -6  -5    1.93    0.14
   2   6   5    1.81    0.12
  -2   6  -5    1.78    0.12
  -2   6  -5    1.72    0.11
  -2   6  -5    1.92    0.13
   2  -6   6    8.37    0.26
  -2  -6  -6    8.27    0.26
  -2   6  -6    8.32    0.25
  -2   6  -6    8.44    0.24
   2  -6   7   25.98    0.53
  -2  -6  -7   26.20    0.54
  -2  -6  -7   25.61    0.53
  -2   6  -7   26.50    0.52
  -2   6  -7   25.92    0.49
   2  -6   8    8.42    0.26
  -2  -6  -8    8.57    0.27
  -2   6  -8    8.82    0.25
  -2  -6  -8    8.53    0.26
   2  -6   9    6.84    0.23
  -2  -6  -9    7.51    0.26
  -2   6  -9    7.04    0.23
  -2  -6  -9    7.20    0.24
   2  -6  10    5.10    0.21
  -2  -6 -10    5.23    0.21
  -2   6 -10    4.98    0.19
  -2  -6 -10    5.32    0.21
   2  -6  11    0.40    0.10
  -2  -6 -11    0.39    0.09
  -2  -6 -11    0.44    0.10
   2  -6  12    3.15    0.17
  -2  -6 -12    2.96    0.17
  -2  -6 -12    3.16    0.17
   2  -6  13    1.38    0.14
  -2  -6 -13    1.48    0.13
  -2  -6 -13    1.41    0.13
   2  -6  14    0.48    0.11
  -2   6 -14    0.62    0.11
  -2  -6 -14    0.64    0.11
   2  -6  15    1.16    0.13
  -2   6 -15    1.17    0.13
  -2  -6 -15    1.18    0.13
   2  -6  16    0.64    0.12
  -2   6 -16    0.70    0.12
  -2  -6 -16    0.61    0.11
  -2  -8  13    0.00    0.10
   2   8 -13    0.01    0.10
  -2  -8  12    6.35    0.23
   2   8 -12    6.45    0.22
  -2  -8  11    5.56    0.22
   2   8 -11    5.42    0.21
   2  -8 -11    5.51    0.22
  -2  -8  10    3.03    0.17
   2   8 -10    3.08    0.16
   2  -8 -10    3.13    0.18
  -2  -8   9    6.98    0.23
   2   8  -9    7.16    0.23
   2  -8  -9    7.41    0.25
  -2  -8   8    4.35    0.19
   2   8  -8    4.06    0.18
   2  -8  -8    3.96    0.19
  -2  -8   7    1.88    0.14
   2   8  -7    1.82    0.13
   2  -8  -7    1.95    0.15
  -2  -8   6    1.55    0.13
   2   8  -6    1.48    0.13
   2   8  -6    1.51    0.13
   2   8  -5   19.94    0.38
   2   8  -5   20.02    0.38
   2  -8  -4    2.12    0.13
   2   8  -4    2.36    0.14
   2   8  -4    2.12    0.14
   2   8  -3    0.53    0.09
   2  -8  -3    0.51    0.11
   2   8  -3    0.41    0.09
   2   8  -2   29.64    0.46
   2  -8  -2   30.00    0.48
   2   8  -2   28.46    0.47
  -2  -8   1   36.13    0.52
   2  -8  -1   36.95    0.52
   2   8  -1   37.77    0.54
  -2  -8   0   48.88    0.61
   2   8   0   48.92    0.63
  -2   8   0   48.24    0.61
  -2   8  -1    5.21    0.22
  -2  -8  -1    4.63    0.20
  -2   8  -1    4.35    0.18
  -2   8  -1    4.57    0.19
   2   8   1    4.95    0.21
  -2   8  -2   14.88    0.35
  -2  -8  -2   14.40    0.33
  -2   8  -2   15.55    0.33
  -2  -8  -2   15.15    0.34
  -2   8  -2   15.01    0.33
  -2   8  -3    5.05    0.21
  -2  -8  -3    5.13    0.20
  -2   8  -3    5.24    0.19
  -2  -8  -3    5.35    0.21
  -2   8  -3    5.06    0.20
  -2   8  -4    1.83    0.14
  -2   8  -4    1.91    0.14
  -2  -8  -4    2.07    0.16
  -2   8  -5   11.77    0.29
  -2  -8  -5   11.57    0.30
  -2   8  -6    8.93    0.25
  -2  -8  -6    9.09    0.27
  -2   8  -7    1.58    0.13
   2  -8   8    3.12    0.17
  -2   8  -8    3.21    0.16
   2  -8   9    0.30    0.10
  -2   8  -9    0.27    0.10
   2  -8  10    0.30    0.10
  -2   8 -10    0.30    0.09
   2  -8  11    0.51    0.11
   2  -8  12    0.65    0.11
   2  -8  13    0.88    0.13
  -2  -8 -13    0.97    0.14
   2 -10  -7    0.74    0.11
   2 -10  -6    0.12    0.10
   2 -10  -5    0.55    0.11
   2 -10  -4    0.05    0.10
  -2  10   3    0.80    0.12
  -2  10   2    1.55    0.14
   2  10  -1    0.01    0.10
   2  10   0   14.74    0.34
   2  10   1   18.36    0.38
   2  10   2    0.08    0.10
   2  10   3    7.06    0.24
   2  10   4    0.02    0.11
  -2 -10  -5    1.89    0.15
  -2 -10  -6    1.69    0.15
  -2 -10  -7    0.48    0.12
  -3  -1  20    0.77    0.12
  -3   1  20    0.64    0.11
   3  -1 -20    0.67    0.10
   3   1 -20    0.65    0.11
   3  -1 -20    0.61    0.11
  -3  -1  19    7.80    0.24
  -3   1  19    7.55    0.23
   3  -1 -19    7.65    0.23
   3   1 -19    7.51    0.23
   3  -1 -19    7.71    0.23
  -3  -1  18    0.20    0.10
   3  -1 -18    0.28    0.09
   3   1 -18    0.35    0.10
   3  -1 -18    0.20    0.09
  -3  -1  17    2.72    0.16
   3  -1 -17    2.64    0.14
   3   1 -17    2.87    0.15
   3  -1 -17    2.66    0.15
   3   1 -17    2.59    0.15
  -3  -1  16    4.35    0.19
  -3   1  16    4.28    0.18
   3  -1 -16    4.34    0.18
   3   1 -16    4.41    0.18
   3  -1 -16    4.25    0.18
   3   1 -16    4.34    0.18
  -3   1  15    0.00    0.07
   3  -1 -15    0.04    0.07
   3   1 -15    0.07    0.08
   3  -1 -15    0.05    0.07
   3   1 -15    0.03    0.08
  -3   1  14    2.49    0.15
   3  -1 -14    2.35    0.14
   3   1 -14    2.30    0.14
   3  -1 -14    2.20    0.14
   3   1 -14    2.51    0.14
  -3   1  13    0.90    0.11
   3  -1 -13    0.89    0.10
   3   1 -13    0.86    0.11
   3  -1 -13    0.86    0.10
   3   1 -13    0.84    0.10
  -3  -1  12    3.09    0.16
  -3   1  12    3.02    0.16
   3  -1 -12    2.95    0.14
   3  -1 -12    3.13    0.16
   3   1 -12    3.16    0.15
  -3  -1  12    2.96    0.13
  -3  -1  11    3.25    0.16
  -3   1  11    3.51    0.16
   3  -1 -11    3.37    0.15
  -3   1  11    3.31    0.15
   3  -1 -11    3.22    0.15
   3   1 -11    3.45    0.15
  -3  -1  11    3.56    0.14
  -3  -1  10    7.31    0.22
  -3   1  10    8.20    0.24
   3  -1 -10    7.94    0.22
   3  -1 -10    7.86    0.23
   3   1 -10    7.67    0.23
  -3   1  10    7.59    0.22
  -3  -1  10    7.37    0.22
   3  -1 -10    7.87    0.23
   3   1 -10    8.45    0.24
  -3   1  10    7.88    0.21
  -3  -1  10    8.05    0.21
  -3  -1   9   82.24    1.20
  -3   1   9   86.87    1.29
   3   1  -9   84.94    1.21
   3  -1  -9   86.64    1.22
   3  -1  -9   87.36    1.26
   3   1  -9   82.63    1.21
  -3   1   9   81.19    1.19
   3  -1  -9   82.51    1.21
   3   1  -9   85.20    1.25
  -3   1   9   86.36    1.24
  -3  -1   9   83.74    1.20
  -3  -1   8    4.58    0.18
  -3   1   8    4.81    0.18
   3   1  -8    4.46    0.17
   3  -1  -8    4.65    0.17
   3   1  -8    4.70    0.18
   3  -1  -8    4.47    0.17
  -3   1   8    4.52    0.17
   3  -1  -8    4.53    0.18
   3   1  -8    4.52    0.17
  -3   1   8    4.60    0.17
  -3  -1   8    4.64    0.17
  -3  -1   7    9.22    0.25
  -3   1   7    8.72    0.24
   3   1  -7    8.49    0.23
   3  -1  -7    8.47    0.23
   3  -1  -7    8.84    0.24
  -3   1   7    8.44    0.24
   3  -1  -7    8.63    0.24
   3   1  -7    8.86    0.23
  -3  -1   7    9.04    0.23
  -3  -1   6    6.50    0.21
   3   1  -6    6.52    0.20
  -3   1   6    6.65    0.21
   3  -1  -6    6.85    0.21
   3  -1  -6    6.71    0.21
  -3   1   6    6.46    0.21
   3  -1  -6    6.95    0.21
   3   1  -6    6.76    0.20
  -3  -1   6    7.13    0.20
  -3  -1   5    7.41    0.23
   3   1  -5    7.45    0.22
  -3   1   5    7.38    0.22
  -3   1   5    7.27    0.22
   3  -1  -5    7.43    0.22
  -3   1   5    6.95    0.20
   3   1  -5    6.94    0.20
   3   1  -4    3.17    0.14
  -3   1   4    3.17    0.14
   3   1  -4    2.83    0.15
  -3   1   4    2.86    0.14
   3   1  -4    3.21    0.15
   3  -1  -4    3.18    0.14
  -3   1   4    3.17    0.14
   3   1  -4    3.12    0.14
   3   1  -3  756.56    7.57
  -3   1   3  771.18    7.78
  -3  -1   3  717.63    7.47
   3   1  -3  744.20    7.51
   3  -1  -3  725.13    7.33
  -3   1   3  758.14    7.61
   3  -1  -3  706.57    7.22
  -3   1   3  726.10    7.28
   3   1  -2   55.98    0.80
  -3   1   2   55.83    0.82
   3  -1  -2   51.23    0.78
   3  -1  -2   53.20    0.79
  -3   1   2   54.86    0.78
   3   1  -2   56.54    0.82
   3   1   0    2.92    0.15
  -3   1   0    3.14    0.16
  -3  -1   0    3.09    0.16
   3   1   0    3.17    0.16
  -3   1   0    3.26    0.15
   3   1   0    2.95    0.15
  -3   1   0    3.03    0.14
   3   1   0    3.22    0.16
   3  -1   1   95.72    1.25
  -3   1  -1   94.50    1.22
  -3  -1  -1   90.25    1.16
   3   1   1   91.08    1.19
  -3   1  -1   97.35    1.22
  -3  -1  -1   94.31    1.22
   3   1   1   92.82    1.19
   3  -1   1   93.87    1.28
  -3   1  -1   87.23    1.11
   3  -1   2   20.08    0.38
  -3   1  -2   19.69    0.36
   3   1   2   21.02    0.37
  -3  -1  -2   20.21    0.36
   3   1   2   20.66    0.36
  -3   1  -2   20.54    0.36
  -3  -1  -2   20.77    0.38
   3  -1   3   82.41    1.10
  -3   1  -3   81.05    1.06
   3   1   3   85.59    1.11
  -3  -1  -3   80.27    1.06
   3   1   3   77.74    1.01
  -3   1  -3   82.73    1.08
  -3  -1  -3   81.01    1.08
  -3   1  -3   82.68    1.08
   3  -1   3   80.40    1.02
   3  -1   4  116.46    1.44
  -3   1  -4  118.69    1.44
  -3  -1  -4  119.87    1.45
   3   1   4  122.56    1.45
  -3   1  -4  123.36    1.50
   3  -1   4  118.83    1.44
  -3  -1  -4  122.39    1.49
   3   1   4  119.86    1.44
  -3   1  -4  123.43    1.48
   3  -1   4  121.26    1.45
   3  -1   5    7.75    0.23
  -3  -1  -5    7.19    0.22
   3   1   5    7.94    0.22
  -3   1  -5    7.32    0.22
   3  -1   5    7.39    0.22
  -3  -1  -5    7.51    0.22
   3   1   5    7.29    0.21
  -3   1  -5    7.50    0.22
   3  -1   5    7.60    0.21
   3  -1   6   60.23    0.81
  -3  -1  -6   60.24    0.78
  -3  -1  -6   57.24    0.77
   3   1   6   61.48    0.77
  -3   1  -6   58.06    0.77
   3  -1   6   61.89    0.79
  -3  -1  -6   62.17    0.81
  -3   1  -6   60.65    0.78
   3   1   6   60.71    0.77
   3  -1   6   59.92    0.83
   3  -1   7  140.88    1.73
  -3  -1  -7  141.14    1.69
  -3  -1  -7  137.96    1.73
  -3   1  -7  131.84    1.69
   3   1   7  135.73    1.66
   3  -1   7  138.34    1.67
  -3  -1  -7  140.06    1.72
  -3   1  -7  136.24    1.69
   3   1   7  136.60    1.65
   3  -1   7  136.35    1.66
   3  -1   8    0.03    0.04
  -3  -1  -8    0.02    0.04
  -3  -1  -8    0.02    0.05
  -3   1  -8    0.03    0.05
   3  -1   8    0.02    0.04
  -3  -1  -8    0.05    0.05
  -3   1  -8    0.02    0.04
   3   1   8    0.02    0.04
   3  -1   8    0.04    0.04
   3  -1   9    4.82    0.18
  -3   1  -9    4.61    0.17
  -3  -1  -9    4.65    0.17
  -3  -1  -9    4.61    0.17
   3   1   9    4.50    0.17
   3  -1   9    4.60    0.17
  -3  -1  -9    4.80    0.18
  -3   1  -9    4.70    0.17
   3   1   9    4.47    0.17
   3  -1   9    4.70    0.16
   3  -1  10    6.88    0.22
   3   1  10    7.30    0.23
  -3  -1 -10    7.31    0.22
  -3  -1 -10    7.30    0.22
   3   1  10    6.86    0.21
  -3  -1 -10    7.43    0.23
  -3   1 -10    6.76    0.21
   3   1  10    7.14    0.21
   3  -1  10    6.93    0.20
   3  -1  11    2.12    0.13
   3   1  11    2.08    0.13
  -3  -1 -11    2.08    0.13
  -3  -1 -11    2.17    0.14
  -3   1 -11    2.12    0.12
   3   1  11    2.09    0.12
   3  -1  11    2.01    0.11
   3  -1  12    0.07    0.06
   3   1  12    0.07    0.06
  -3  -1 -12    0.14    0.06
  -3  -1 -12    0.08    0.06
  -3   1 -12    0.13    0.06
   3  -1  12    0.10    0.05
   3  -1  13    0.78    0.09
   3   1  13    0.74    0.10
  -3  -1 -13    1.31    0.11
  -3   1 -13    0.83    0.10
  -3  -1 -13    0.76    0.10
  -3   1 -13    0.82    0.09
   3  -1  13    0.72    0.08
   3  -1  14    3.63    0.17
   3   1  14    3.84    0.17
  -3  -1 -14    3.88    0.17
  -3   1 -14    3.69    0.16
  -3  -1 -14    3.78    0.17
  -3   1 -14    3.69    0.16
   3  -1  15    0.86    0.11
   3   1  15    0.89    0.10
  -3  -1 -15    0.82    0.10
  -3   1 -15    1.04    0.11
  -3  -1 -15    0.93    0.11
  -3   1 -15    0.94    0.10
   3  -1  16    0.29    0.09
   3   1  16    0.21    0.09
  -3  -1 -16    0.22    0.08
  -3   1 -16    0.32    0.09
  -3  -1 -16    0.27    0.08
   3  -1  17    7.47    0.24
   3   1  17    7.21    0.23
  -3  -1 -17    7.15    0.22
  -3   1 -17    7.05    0.22
  -3  -1 -17    7.22    0.22
   3  -1  18    5.31    0.20
   3   1  18    5.42    0.20
  -3  -1 -18    5.35    0.20
  -3   1 -18    5.20    0.19
   3  -1  19    6.89    0.23
   3   1  19    6.44    0.22
  -3  -1 -19    6.51    0.21
  -3   1 -19    6.63    0.22
  -3  -3  19    5.79    0.22
   3  -3 -19    5.58    0.20
   3   3 -19    5.84    0.21
   3  -3 -19    5.72    0.21
  -3  -3  18    1.53    0.14
   3  -3 -18    1.49    0.12
   3   3 -18    1.43    0.13
   3  -3 -18    1.59    0.14
  -3  -3  17    4.06    0.18
  -3   3  17    4.23    0.18
   3  -3 -17    3.95    0.17
   3   3 -17    3.99    0.18
   3  -3 -17    4.26    0.18
  -3  -3  16    0.44    0.10
  -3   3  16    0.30    0.09
   3  -3 -16    0.48    0.09
   3   3 -16    0.39    0.10
   3  -3 -16    0.47    0.11
  -3  -3  15    1.26    0.12
  -3   3  15    1.33    0.11
   3  -3 -15    1.43    0.11
   3  -3 -15    1.36    0.13
   3   3 -15    1.42    0.12
  -3   3  14    2.41    0.15
   3  -3 -14    2.53    0.14
   3  -3 -14    2.51    0.15
   3   3 -14    2.41    0.14
  -3   3  13    0.88    0.11
   3  -3 -13    0.78    0.09
   3  -3 -13    0.82    0.11
   3   3 -13    0.88    0.10
  -3   3  12    4.15    0.17
   3  -3 -12    4.13    0.17
   3  -3 -12    4.34    0.18
   3   3 -12    4.35    0.17
  -3  -3  12    4.32    0.17
  -3   3  11    1.01    0.10
   3  -3 -11    1.10    0.09
   3   3 -11    1.02    0.10
  -3   3  11    1.03    0.09
   3  -3 -11    1.06    0.10
   3   3 -11    0.96    0.09
  -3  -3  11    1.15    0.10
  -3   3  10    0.08    0.06
   3  -3 -10    0.00    0.05
   3  -3 -10    0.06    0.06
   3   3 -10    0.03    0.06
  -3   3  10    0.04    0.05
   3  -3 -10    0.01    0.06
   3   3 -10    0.06    0.05
  -3  -3  10    0.06    0.06
  -3  -3   9    0.04    0.06
  -3   3   9    0.05    0.05
   3  -3  -9    0.07    0.05
   3  -3  -9    0.06    0.05
  -3   3   9    0.07    0.05
   3   3  -9    0.09    0.06
   3  -3  -9    0.06    0.06
   3   3  -9    0.05    0.05
  -3  -3   9    0.08    0.05
  -3  -3   8   27.29    0.43
   3   3  -8   28.35    0.43
  -3   3   8   27.52    0.43
   3  -3  -8   28.33    0.44
   3   3  -8   28.95    0.44
   3  -3  -8   29.11    0.44
  -3   3   8   28.75    0.43
   3   3  -8   28.65    0.45
   3  -3  -8   29.07    0.44
  -3   3   8   27.64    0.41
   3   3  -8   29.20    0.43
  -3  -3   8   29.51    0.44
  -3  -3   7   18.95    0.42
   3   3  -7   20.63    0.43
  -3   3   7   19.67    0.42
   3  -3  -7   18.60    0.41
   3   3  -7   19.12    0.42
   3  -3  -7   20.43    0.44
  -3   3   7   19.49    0.41
   3   3  -7   20.61    0.45
   3  -3  -7   19.72    0.43
  -3   3   7   20.17    0.42
   3   3  -7   19.36    0.41
  -3  -3   7   20.05    0.43
  -3  -3   6   30.26    0.55
   3   3  -6   29.72    0.53
  -3   3   6   31.01    0.55
   3  -3  -6   31.72    0.57
   3   3  -6   31.10    0.56
   3  -3  -6   31.70    0.57
   3   3  -6   30.80    0.57
   3  -3  -6   29.71    0.54
  -3   3   6   28.94    0.51
  -3  -3   6   28.44    0.52
  -3  -3   5    9.56    0.25
   3   3  -5   10.14    0.25
  -3   3   5    9.37    0.25
   3  -3  -5   10.14    0.28
   3  -3  -5    9.69    0.27
  -3   3   5    9.77    0.25
   3   3  -5    9.76    0.27
  -3   3   5    9.14    0.24
   3   3  -5    9.57    0.25
  -3  -3   5    9.73    0.26
  -3  -3   4    8.56    0.25
   3   3  -4    9.90    0.25
  -3   3   4    9.81    0.26
   3  -3  -4    9.64    0.27
   3  -3  -4   10.28    0.29
  -3   3   4    9.84    0.25
  -3   3   4    9.89    0.24
   3   3  -4    9.64    0.26
  -3  -3   4   10.25    0.27
  -3  -3   3   80.08    0.98
   3   3  -3   79.61    0.94
  -3   3   3   79.27    1.00
   3  -3  -3   76.70    0.98
   3   3  -3   79.21    0.98
  -3   3   3   80.19    0.94
   3   3  -3   73.52    1.11
  -3  -3   3   76.36    0.95
  -3  -3   2   42.06    0.67
   3   3  -2   41.70    0.65
  -3   3   2   40.76    0.70
   3  -3  -2   43.09    0.71
   3  -3  -2   41.94    0.68
   3   3  -2   43.82    0.71
  -3   3   2   39.16    0.66
   3   3  -2   42.47    0.67
   3  -3  -2   41.04    0.67
  -3   3   2   41.64    0.64
   3   3  -2   43.67    0.71
  -3  -3   1  263.57    2.94
   3   3  -1  258.85    2.81
  -3   3   1  268.35    3.01
   3  -3  -1  257.57    2.84
  -3   3   1  260.91    3.15
   3   3  -1  251.44    2.80
   3  -3  -1  251.45    2.78
  -3   3   1  259.06    2.80
   3   3  -1  249.30    2.91
  -3  -3   0  174.96    2.07
  -3   3   0  171.83    1.99
   3   3   0  166.12    1.90
  -3   3   0  173.03    2.10
  -3  -3   0  167.97    2.02
   3   3   0  166.57    1.97
  -3   3   0  173.58    2.04
   3   3   0  173.81    2.00
   3  -3   0  178.34    2.09
  -3   3   0  174.25    1.98
  -3   3  -1   20.36    0.37
   3   3   1   19.65    0.47
   3   3   1   20.70    0.41
  -3   3  -1   19.56    0.37
  -3  -3  -1   19.11    0.39
   3   3   1   20.03    0.39
  -3   3  -1   20.46    0.37
   3   3   1   19.89    0.36
  -3   3  -1   19.54    0.35
   3   3   2   39.36    1.03
   3  -3   2   43.22    0.71
  -3   3  -2   41.12    0.61
   3   3   2   43.14    0.62
  -3   3  -2   43.60    0.64
  -3  -3  -2   42.94    0.69
   3   3   2   42.00    0.64
  -3   3  -2   40.39    0.61
  -3   3  -2   41.13    0.60
   3   3   2   43.24    0.62
  -3   3  -2   41.27    0.64
   3  -3   3   60.29    0.84
  -3   3  -3   61.31    0.78
   3   3   3   61.79    0.79
  -3  -3  -3   61.42    0.85
  -3   3  -3   59.21    0.78
  -3  -3  -3   61.02    0.85
   3   3   3   59.83    0.80
  -3   3  -3   60.95    0.82
  -3   3  -3   61.90    0.87
  -3  -3  -3   63.18    0.85
   3   3   3   61.66    0.79
  -3   3  -3   63.20    0.86
  -3   3  -4    7.88    0.22
   3   3   4    7.73    0.22
  -3  -3  -4    7.10    0.22
  -3  -3  -4    7.58    0.25
   3   3   4    7.48    0.22
  -3   3  -4    7.53    0.23
   3  -3   4    7.55    0.23
  -3   3  -4    7.70    0.23
  -3  -3  -4    7.91    0.24
   3   3   4    7.98    0.23
  -3   3  -4    7.26    0.21
  -3   3  -5   62.23    0.89
   3   3   5   63.17    0.90
  -3  -3  -5   58.80    0.87
  -3  -3  -5   64.68    0.97
   3   3   5   62.48    0.91
  -3   3  -5   61.86    0.91
   3  -3   5   64.28    0.91
  -3  -3  -5   62.86    0.92
  -3   3  -5   63.39    0.90
   3  -3   5   64.29    0.93
   3   3   6  153.98    1.90
  -3  -3  -6  150.94    1.82
  -3  -3  -6  151.46    1.91
   3   3   6  152.45    1.81
  -3   3  -6  152.76    1.93
   3  -3   6  150.93    1.85
  -3  -3  -6  152.13    1.86
  -3   3  -6  152.37    1.83
   3  -3   6  146.01    1.80
  -3   3  -7  107.15    1.46
   3   3   7  107.20    1.52
  -3  -3  -7  103.77    1.44
  -3  -3  -7  108.69    1.56
   3   3   7  106.24    1.44
  -3   3  -7  102.59    1.45
   3  -3   7  108.21    1.51
  -3  -3  -7  105.06    1.51
   3   3   7  103.79    1.43
  -3   3  -7  107.46    1.48
   3  -3   7  102.82    1.44
   3   3   8    0.03    0.05
  -3  -3  -8    0.02    0.05
  -3  -3  -8    0.04    0.07
   3   3   8    0.02    0.06
  -3  -3  -8    0.06    0.07
   3   3   8    0.08    0.05
  -3   3  -8    0.03    0.05
   3  -3   8    0.03    0.05
   3  -3   9   12.82    0.32
   3   3   9   12.42    0.30
  -3  -3  -9   13.25    0.30
  -3  -3  -9   12.64    0.31
   3   3   9   13.26    0.30
  -3  -3  -9   12.43    0.31
  -3   3  -9   12.95    0.30
   3  -3   9   11.60    0.29
   3  -3  10   22.51    0.41
   3   3  10   23.39    0.40
  -3  -3 -10   22.57    0.37
  -3  -3 -10   22.94    0.41
   3   3  10   22.82    0.38
  -3   3 -10   23.27    0.40
  -3  -3 -10   22.18    0.39
  -3   3 -10   22.56    0.38
   3  -3  10   21.94    0.38
   3  -3  11    2.29    0.15
  -3  -3 -11    2.36    0.13
  -3  -3 -11    2.30    0.14
  -3   3 -11    2.39    0.14
  -3  -3 -11    2.60    0.14
  -3   3 -11    2.41    0.13
   3  -3  11    2.30    0.13
   3  -3  12    1.11    0.12
  -3  -3 -12    1.13    0.11
  -3   3 -12    1.09    0.11
  -3  -3 -12    1.22    0.11
  -3   3 -12    1.14    0.09
   3  -3  12    1.18    0.10
   3  -3  13    0.08    0.08
   3   3  13    0.07    0.07
  -3  -3 -13    0.07    0.08
  -3   3 -13    0.03    0.07
  -3  -3 -13    0.07    0.08
   3  -3  14    4.29    0.19
   3   3  14    4.49    0.18
  -3  -3 -14    4.24    0.18
  -3   3 -14    4.27    0.18
  -3  -3 -14    4.28    0.18
   3  -3  15    2.99    0.17
   3   3  15    2.90    0.16
  -3  -3 -15    2.86    0.16
  -3   3 -15    2.98    0.15
  -3  -3 -15    2.78    0.16
   3  -3  16    0.40    0.10
   3   3  16    0.51    0.10
  -3  -3 -16    0.48    0.09
  -3  -3 -16    0.42    0.10
   3  -3  17    2.09    0.15
  -3  -3 -17    1.94    0.14
  -3  -3 -17    1.94    0.13
   3  -3  18    3.70    0.19
  -3  -3 -18    3.51    0.17
  -3  -3 -18    3.34    0.16
  -3  -5  17    1.25    0.14
   3   5 -17    1.15    0.12
   3  -5 -17    1.21    0.13
  -3  -5  16    9.99    0.27
   3  -5 -16    9.66    0.27
  -3  -5  15    3.72    0.18
   3  -5 -15    3.82    0.18
  -3  -5  14   15.45    0.33
   3  -5 -14   15.55    0.34
   3   5 -14   15.96    0.34
   3  -5 -14   15.32    0.33
  -3  -5  13    0.69    0.10
  -3   5  13    0.64    0.09
   3  -5 -13    0.60    0.09
   3   5 -13    0.65    0.11
   3  -5 -13    0.64    0.11
  -3  -5  12    1.88    0.13
  -3   5  12    1.99    0.13
   3  -5 -12    1.82    0.13
   3   5 -12    1.91    0.14
   3  -5 -12    1.83    0.13
   3   5 -12    1.69    0.11
  -3  -5  11    1.42    0.12
  -3   5  11    1.36    0.11
   3  -5 -11    1.53    0.12
   3   5 -11    1.36    0.12
   3  -5 -11    1.34    0.12
   3   5 -11    1.46    0.11
  -3  -5  11    1.59    0.11
  -3  -5  10    6.57    0.22
  -3   5  10    6.74    0.21
   3  -5 -10    6.75    0.23
   3  -5 -10    6.62    0.23
   3   5 -10    6.54    0.22
   3  -5 -10    6.64    0.22
   3   5 -10    6.79    0.20
  -3  -5  10    6.67    0.22
  -3  -5   9    2.74    0.15
  -3   5   9    2.56    0.13
   3  -5  -9    2.66    0.15
   3  -5  -9    2.65    0.15
   3   5  -9    2.51    0.15
   3  -5  -9    2.34    0.14
   3   5  -9    2.86    0.14
  -3  -5   9    2.77    0.15
  -3  -5   8    0.14    0.07
  -3   5   8    0.14    0.06
   3  -5  -8    0.12    0.07
   3  -5  -8    0.10    0.06
   3   5  -8    0.08    0.07
  -3  -5   8    0.32    0.07
  -3  -5   7    5.13    0.20
  -3   5   7    5.46    0.20
   3  -5  -7    5.78    0.22
   3  -5  -7    5.57    0.22
  -3   5   7    5.42    0.19
   3   5  -7    5.45    0.21
   3   5  -7    5.58    0.20
  -3  -5   7    5.61    0.21
  -3  -5   6   12.98    0.33
   3   5  -6   13.70    0.32
  -3   5   6   13.14    0.32
   3  -5  -6   13.76    0.35
   3  -5  -6   13.38    0.35
  -3   5   6   12.94    0.30
   3   5  -6   14.00    0.34
   3   5  -6   13.50    0.33
   3  -5  -6   13.04    0.33
   3   5  -6   13.11    0.32
  -3  -5   5    0.79    0.09
   3   5  -5    0.82    0.09
  -3   5   5    0.81    0.09
   3  -5  -5    0.73    0.09
   3   5  -5    0.83    0.09
   3  -5  -5    0.81    0.09
  -3   5   5    0.77    0.08
   3   5  -5    0.85    0.09
   3   5  -5    0.76    0.09
   3  -5  -5    0.72    0.09
   3   5  -5    0.83    0.10
  -3  -5   4   26.08    0.44
   3   5  -4   25.46    0.40
  -3   5   4   25.20    0.43
   3  -5  -4   25.00    0.44
  -3  -5   4   25.06    0.43
   3   5  -4   25.25    0.43
  -3   5   4   24.44    0.40
   3   5  -4   25.46    0.42
   3  -5  -4   25.34    0.42
  -3   5   4   25.45    0.40
   3   5  -4   26.03    0.44
  -3  -5   3   18.86    0.37
   3   5  -3   18.99    0.35
  -3   5   3   19.19    0.39
  -3  -5   3   20.19    0.39
   3  -5  -3   19.38    0.37
   3   5  -3   20.30    0.39
  -3   5   3   17.29    0.36
   3  -5  -3   19.12    0.37
  -3   5   3   18.87    0.34
   3   5  -3   19.64    0.38
  -3   5   2    1.77    0.12
  -3  -5   2    1.78    0.12
   3   5  -2    1.80    0.11
  -3   5   2    1.91    0.13
   3  -5  -2    1.90    0.12
  -3  -5   2    1.87    0.12
   3   5  -2    1.77    0.12
  -3   5   2    1.81    0.12
   3   5  -2    1.81    0.12
   3  -5  -2    1.81    0.13
  -3   5   2    1.76    0.11
   3   5  -2    1.66    0.12
  -3   5   1   17.81    0.40
   3   5  -1   16.69    0.39
  -3   5   1   17.60    0.43
   3   5  -1   17.34    0.41
  -3   5   1   16.41    0.40
   3  -5  -1   17.74    0.41
   3   5  -1   18.23    0.40
  -3   5   1   17.38    0.38
   3   5  -1   17.67    0.41
  -3   5   0   77.55    1.14
  -3   5   0   77.16    1.19
   3   5   0   75.76    1.16
  -3   5   0   78.02    1.17
   3   5   0   77.18    1.16
  -3   5   0   79.83    1.20
   3   5   0   76.03    1.12
  -3   5   0   79.45    1.18
  -3   5  -1   12.78    0.32
   3   5   1   13.25    0.33
   3   5   1   12.85    0.35
  -3   5  -1   12.58    0.35
  -3  -5  -1   12.63    0.35
  -3   5  -1   13.19    0.35
   3   5   1   12.95    0.35
  -3   5  -1   13.01    0.34
   3  -5   1   12.92    0.34
  -3  -5  -1   12.86    0.34
   3   5   1   12.82    0.32
  -3   5  -1   13.38    0.33
  -3   5  -2   25.89    0.41
   3   5   2   25.98    0.41
   3   5   2   26.22    0.43
  -3  -5  -2   27.28    0.47
   3   5   2   26.29    0.44
  -3   5  -2   25.71    0.42
  -3  -5  -2   25.43    0.43
   3   5   2   24.82    0.39
  -3   5  -2   25.34    0.39
  -3   5  -2   26.81    0.45
   3  -5   3    0.13    0.07
   3   5   3    0.08    0.05
  -3   5  -3    0.10    0.06
   3   5   3    0.08    0.04
  -3  -5  -3    0.10    0.06
   3   5   3    0.13    0.05
  -3   5  -3    0.06    0.06
  -3   5  -3    0.08    0.05
   3   5   3    0.07    0.06
  -3   5  -3    0.09    0.06
   3   5   4   15.69    0.37
   3  -5   4   16.09    0.37
  -3   5  -4   15.66    0.33
   3   5   4   15.66    0.33
  -3   5  -4   15.11    0.34
  -3  -5  -4   15.35    0.37
   3   5   4   15.33    0.34
  -3   5  -4   15.39    0.35
  -3   5  -4   14.85    0.32
  -3   5  -4   15.78    0.36
   3  -5   5    0.55    0.09
  -3   5  -5    0.49    0.08
   3   5   5    0.48    0.07
  -3  -5  -5    0.61    0.08
  -3   5  -5    0.44    0.07
  -3  -5  -5    0.60    0.09
   3   5   5    0.59    0.08
  -3   5  -5    0.52    0.08
  -3   5  -5    0.54    0.07
  -3   5  -5    0.60    0.08
   3  -5   6   15.52    0.37
   3   5   6   15.07    0.34
  -3  -5  -6   13.70    0.36
  -3  -5  -6   15.99    0.41
   3   5   6   15.00    0.33
  -3   5  -6   15.13    0.35
  -3   5  -6   15.10    0.35
  -3  -5  -6   15.40    0.37
  -3   5  -6   14.58    0.33
   3  -5   7   20.82    0.40
   3   5   7   20.63    0.37
  -3  -5  -7   20.30    0.40
  -3  -5  -7   20.32    0.41
   3   5   7   20.44    0.35
  -3   5  -7   20.91    0.38
  -3  -5  -7   21.32    0.39
  -3   5  -7   21.41    0.36
   3  -5   8    0.17    0.08
   3   5   8    0.21    0.06
  -3  -5  -8    0.20    0.07
  -3  -5  -8    0.18    0.08
   3   5   8    0.24    0.06
  -3   5  -8    0.24    0.08
  -3  -5  -8    0.21    0.09
  -3   5  -8    0.23    0.06
   3  -5   9    1.53    0.13
   3   5   9    1.42    0.11
  -3  -5  -9    1.51    0.12
  -3  -5  -9    1.42    0.13
  -3   5  -9    1.61    0.13
  -3  -5  -9    1.45    0.13
   3  -5  10   12.21    0.30
  -3  -5 -10   11.66    0.29
  -3  -5 -10   12.13    0.31
  -3  -5 -10   12.22    0.30
   3  -5  11    0.17    0.09
  -3  -5 -11    0.19    0.08
  -3  -5 -11    0.12    0.09
   3  -5  12    3.03    0.17
  -3  -5 -12    2.74    0.16
  -3   5 -12    2.89    0.16
  -3  -5 -12    2.88    0.16
   3  -5  13    1.25    0.13
  -3  -5 -13    1.11    0.12
  -3   5 -13    1.24    0.12
  -3  -5 -13    1.28    0.13
   3  -5  14    2.08    0.15
  -3  -5 -14    2.08    0.14
  -3   5 -14    2.11    0.14
  -3  -5 -14    2.03    0.14
  -3  -5 -15    0.30    0.09
  -3   5 -15    0.25    0.08
  -3  -5 -15    0.28    0.09
  -3  -5 -16    0.31    0.09
  -3   5 -16    0.25    0.11
  -3  -5 -16    0.26    0.10
  -3   5 -17    0.21    0.10
  -3  -5 -17    0.21    0.10
  -3  -7  15    1.26    0.13
   3   7 -15    1.38    0.13
   3  -7 -15    1.18    0.13
  -3  -7  14    0.04    0.09
   3   7 -14    0.15    0.09
   3  -7 -14    0.10    0.10
  -3  -7  13    0.88    0.12
   3   7 -13    0.80    0.12
   3  -7 -13    0.77    0.12
  -3  -7  12    0.90    0.12
   3   7 -12    0.90    0.12
  -3  -7  11    2.25    0.15
   3   7 -11    2.45    0.14
  -3  -7  10    0.18    0.09
   3   7 -10    0.27    0.10
   3  -7 -10    0.28    0.10
  -3  -7   9    0.28    0.09
   3   7  -9    0.35    0.10
   3  -7  -9    0.27    0.09
  -3  -7   8    6.39    0.23
   3   7  -8    6.37    0.22
   3  -7  -8    6.30    0.22
   3   7  -8    6.02    0.20
  -3  -7   7    5.38    0.21
   3   7  -7    5.44    0.21
   3  -7  -7    5.42    0.21
   3   7  -7    5.76    0.20
  -3  -7   6    1.55    0.13
   3  -7  -6    1.63    0.12
   3   7  -6    1.63    0.13
   3  -7  -6    1.66    0.14
   3   7  -6    1.61    0.13
  -3  -7   5    5.67    0.22
  -3   7   5    5.28    0.19
   3  -7  -5    5.55    0.20
   3   7  -5    5.45    0.20
   3  -7  -5    5.59    0.21
   3   7  -5    5.71    0.21
  -3  -7   4    6.53    0.23
  -3   7   4    6.54    0.22
   3  -7  -4    6.45    0.22
   3   7  -4    6.70    0.23
   3  -7  -4    6.77    0.23
   3   7  -4    6.98    0.23
  -3   7   3    3.82    0.18
  -3  -7   3    3.72    0.18
   3   7  -3    4.22    0.18
  -3   7   2  108.58    1.55
   3   7  -2  113.33    1.60
  -3  -7   2  107.37    1.50
  -3   7   2  105.63    1.47
   3   7  -2  102.00    1.46
  -3   7   1   45.72    0.80
   3   7  -1   45.31    0.79
  -3  -7   1   46.97    0.81
  -3   7   1   46.10    0.77
   3  -7  -1   47.19    0.79
   3   7  -1   47.12    0.81
   3   7   0    0.07    0.07
  -3   7   0    0.11    0.08
  -3  -7   0    0.11    0.06
   3   7   0    0.10    0.06
  -3   7   0    0.07    0.07
   3  -7   0    0.12    0.08
   3   7   0    0.12    0.08
  -3   7  -1    7.94    0.26
  -3  -7  -1    8.19    0.25
   3   7   1    7.58    0.24
  -3   7  -1    8.47    0.24
  -3   7  -1    8.17    0.25
   3   7   1    8.14    0.26
  -3   7  -2   11.74    0.34
  -3   7  -2   11.78    0.31
  -3  -7  -2   12.11    0.33
  -3   7  -2   12.16    0.33
  -3   7  -3    5.37    0.22
  -3   7  -3    4.77    0.19
  -3  -7  -3    4.86    0.20
  -3   7  -3    4.88    0.20
  -3  -7  -4   13.21    0.33
  -3   7  -4   13.18    0.30
  -3  -7  -4   13.21    0.32
  -3   7  -4   12.27    0.30
  -3  -7  -5    8.80    0.27
  -3   7  -5    8.52    0.24
  -3  -7  -5    8.44    0.26
  -3   7  -5    8.83    0.25
   3  -7   6    6.88    0.24
  -3  -7  -6    6.70    0.24
  -3   7  -6    6.68    0.22
   3  -7   7    0.71    0.11
  -3  -7  -7    0.61    0.09
  -3   7  -7    0.70    0.10
   3  -7   8    0.69    0.10
  -3  -7  -8    0.67    0.09
  -3   7  -8    0.67    0.10
   3  -7   9    0.82    0.12
  -3  -7  -9    0.83    0.10
  -3   7  -9    0.76    0.10
  -3  -7  -9    0.70    0.11
   3  -7  10    0.93    0.12
  -3  -7 -10    0.86    0.11
  -3  -7 -10    0.79    0.11
   3  -7  11    0.04    0.09
  -3  -7 -11   -0.02    0.10
   3  -7  12    0.48    0.10
  -3  -7 -12    0.44    0.12
   3  -7  13    0.71    0.11
  -3   7 -13    0.79    0.11
  -3  -7 -13    0.70    0.12
   3  -7  14    0.01    0.10
  -3   7 -14   -0.07    0.10
  -3  -7 -14    0.11    0.10
  -3  -9  11   11.56    0.31
   3   9 -11   11.45    0.29
   3  -9 -11   11.60    0.31
  -3  -9  10    0.38    0.10
   3   9 -10    0.42    0.10
   3  -9 -10    0.39    0.12
  -3  -9   9    1.49    0.13
   3   9  -9    1.62    0.13
  -3  -9   8    1.63    0.13
   3   9  -8    1.76    0.13
   3   9  -7    0.03    0.08
   3   9  -6    1.85    0.14
   3   9  -5    3.76    0.18
   3  -9  -5    3.70    0.18
   3   9  -4    0.50    0.09
   3  -9  -4    0.54    0.11
   3   9  -4    0.70    0.10
   3   9  -3    0.76    0.10
   3  -9  -3    0.64    0.10
   3   9  -3    0.59    0.10
   3  -9  -2    5.66    0.21
   3   9  -2    5.36    0.21
   3   9  -1    7.14    0.24
  -3   9   1    7.48    0.24
  -3  -9   0    0.25    0.08
   3   9   0    0.16    0.10
  -3   9   0    0.27    0.08
  -3  -9  -1   -0.02    0.07
   3   9   1    0.03    0.08
  -3  -9  -2    0.09    0.08
   3   9   2    0.09    0.09
  -3  -9  -3    2.27    0.14
   3   9   3    2.05    0.15
  -3  -9  -4    0.16    0.10
  -3  -9  -5    2.57    0.17
  -3  -9  -6   14.77    0.34
  -3  -9  -7   12.39    0.32
  -3  -9  -8    1.48    0.15
  -3  -9  -9    0.06    0.10
  -3  -9 -10    0.56    0.12
  -4   0  20    6.59    0.22
   4   0 -20    6.64    0.21
  -4   0  19    0.12    0.10
   4   0 -19    0.10    0.09
   4   0 -19   -0.02    0.09
   4   0 -18    9.03    0.25
   4   0 -18    9.32    0.25
   4   0 -17    0.00    0.08
   4   0 -17   -0.02    0.08
  -4   0  16    0.53    0.11
   4   0 -16    0.58    0.10
   4   0 -16    0.55    0.09
  -4   0  15    0.02    0.09
   4   0 -15    0.02    0.08
   4   0 -15    0.07    0.09
  -4   0  14    1.50    0.13
   4   0 -14    1.66    0.13
   4   0 -14    1.48    0.12
  -4   0  13    0.06    0.07
   4   0 -13    0.03    0.07
   4   0 -13    0.05    0.07
  -4   0  12   13.63    0.31
   4   0 -12   12.40    0.29
   4   0 -12   12.15    0.28
  -4   0  11    0.02    0.06
  -4   0  11    0.04    0.06
   4   0 -11    0.06    0.06
  -4   0  11    0.05    0.05
  -4   0  10  112.49    0.92
   4   0 -10  109.01    0.92
  -4   0  10  112.97    0.93
   4   0 -10  115.34    0.92
  -4   0  10  110.26    0.83
  -4   0   9    0.14    0.07
   4   0  -9    0.10    0.07
  -4   0   9    0.11    0.06
   4   0  -9    0.08    0.06
  -4   0   9    0.10    0.05
  -4   0   8    9.99    0.28
   4   0  -8    9.94    0.28
  -4   0   8    9.97    0.27
   4   0  -8    9.65    0.27
  -4   0   8    9.92    0.25
  -4   0   7    0.04    0.05
   4   0  -7    0.06    0.04
  -4   0   7    0.01    0.04
   4   0  -7    0.02    0.04
  -4   0   7    0.01    0.04
  -4   0   6  342.62    3.68
   4   0  -6  329.11    3.48
   4   0  -6  339.39    3.61
   4   0  -6  329.27    3.67
   4   0  -6  349.72    3.82
  -4   0   5    0.03    0.03
   4   0  -5    0.01    0.03
   4   0  -5   -0.01    0.03
   4   0  -5    0.00    0.03
   4   0  -5    0.01    0.03
  -4   0   4  333.46    3.54
   4   0  -4  315.50    3.39
   4   0  -4  338.46    3.56
  -4   0   3    0.01    0.03
   4   0  -3    0.01    0.03
  -4   0   3    0.07    0.04
   4   0  -3    0.03    0.03
  -4   0   3    0.01    0.03
  -4   0   2  306.43    3.27
   4   0  -2  292.83    3.14
   4   0  -2  292.66    3.12
  -4   0   1    0.00    0.03
   4   0  -1    0.00    0.03
  -4   0   1    0.03    0.04
  -4   0   1    0.11    0.04
   4   0   0   91.39    1.23
  -4   0   0   92.59    1.22
  -4   0   0   92.93    1.19
  -4   0  -1    0.03    0.03
   4   0   1    0.02    0.03
   4   0   2  242.37    2.70
  -4   0  -2  241.77    2.63
   4   0   2  247.20    2.66
   4   0   3    0.20    0.06
  -4   0  -3    0.21    0.07
   4   0   3    0.23    0.07
  -4   0  -3    0.22    0.06
   4   0   3    0.18    0.06
   4   0   4   23.18    0.46
  -4   0  -4   23.12    0.44
   4   0   4   22.83    0.37
  -4   0  -4   22.79    0.39
   4   0   4   22.40    0.37
   4   0   5    0.15    0.06
  -4   0  -5    0.12    0.05
  -4   0  -5    0.12    0.05
   4   0   5    0.08    0.05
  -4   0  -5    0.11    0.06
   4   0   5    0.09    0.05
   4   0   6  186.86    1.88
  -4   0  -6  186.64    1.85
  -4   0  -6  198.36    1.99
   4   0   6  185.26    1.81
   4   0   7    0.06    0.04
  -4   0  -7    0.04    0.05
  -4   0  -7    0.02    0.04
   4   0   7    0.01    0.04
   4   0   8    0.42    0.06
  -4   0  -8    0.43    0.07
   4   0   8    0.43    0.07
  -4   0  -8    0.47    0.06
   4   0   8    0.46    0.06
   4   0   9    0.04    0.04
  -4   0  -9    0.02    0.05
   4   0   9    0.02    0.04
  -4   0  -9    0.04    0.04
   4   0   9   -0.01    0.03
   4   0  10   33.54    0.52
  -4   0 -10   32.82    0.50
  -4   0 -10   31.68    0.51
  -4   0 -10   34.54    0.54
   4   0  10   33.24    0.51
   4   0  11    0.03    0.06
  -4   0 -11    0.03    0.06
  -4   0 -11    0.02    0.06
   4   0  11    0.02    0.05
   4   0  12   32.41    0.59
  -4   0 -12   32.73    0.58
  -4   0 -12   34.11    0.62
   4   0  12   32.39    0.56
   4   0  13   -0.05    0.07
  -4   0 -13   -0.01    0.07
  -4   0 -13   -0.03    0.06
   4   0  14   65.11    0.69
  -4   0 -14   63.33    0.78
  -4   0 -14   64.82    0.66
   4   0  15    0.00    0.07
  -4   0 -15    0.01    0.07
  -4   0 -15   -0.01    0.07
   4   0  16    0.29    0.09
  -4   0 -16    0.69    0.10
   4   0  17    0.09    0.10
  -4   0 -17    0.00    0.08
   4   0  18    0.62    0.11
  -4   0 -18    0.68    0.12
   4   0  19    0.13    0.11
  -4   0 -19    0.04    0.10
  -4  -2  19    9.24    0.27
   4  -2 -19    9.29    0.25
   4   2 -19    9.42    0.26
   4  -2 -19    9.58    0.27
  -4  -2  18    3.78    0.18
  -4   2  18    3.79    0.18
   4  -2 -18    4.13    0.17
   4   2 -18    3.94    0.18
   4  -2 -18    4.03    0.18
  -4  -2  17    2.01    0.14
  -4   2  17    2.19    0.15
   4  -2 -17    2.13    0.14
   4   2 -17    2.31    0.15
   4  -2 -17    2.06    0.14
   4   2 -17    1.99    0.13
  -4  -2  16    1.90    0.14
  -4   2  16    1.68    0.13
   4  -2 -16    1.89    0.13
   4   2 -16    1.72    0.13
   4  -2 -16    1.78    0.13
   4   2 -16    1.91    0.13
  -4  -2  15    1.94    0.14
  -4   2  15    2.04    0.14
   4  -2 -15    2.00    0.13
   4  -2 -15    2.01    0.14
   4   2 -15    2.15    0.13
  -4   2  14    0.18    0.08
   4  -2 -14    0.13    0.07
   4  -2 -14    0.12    0.08
   4   2 -14    0.10    0.08
  -4   2  13   76.35    1.13
   4  -2 -13   75.46    1.14
   4   2 -13   75.26    1.11
   4  -2 -13   74.92    1.12
   4   2 -13   72.74    1.10
  -4   2  12    0.31    0.08
   4  -2 -12    0.27    0.08
   4   2 -12    0.33    0.08
  -4   2  12    0.29    0.07
   4  -2 -12    0.30    0.08
   4   2 -12    0.30    0.07
  -4  -2  11    1.25    0.11
  -4   2  11    1.24    0.11
   4  -2 -11    1.23    0.10
  -4   2  11    1.24    0.10
   4  -2 -11    1.26    0.11
   4   2 -11    1.28    0.11
  -4  -2  11    1.25    0.10
  -4  -2  10    1.95    0.12
  -4   2  10    2.35    0.14
   4  -2 -10    2.33    0.13
   4  -2 -10    2.80    0.14
  -4   2  10    2.23    0.12
   4  -2 -10    2.51    0.14
   4   2 -10    2.37    0.13
  -4  -2  10    2.38    0.12
  -4   2   9   58.70    0.65
   4   2  -9   55.06    0.59
   4  -2  -9   57.86    0.61
   4  -2  -9   57.09    0.63
  -4   2   9   55.48    0.62
   4  -2  -9   57.01    0.63
   4   2  -9   57.99    0.61
  -4  -2   9   57.25    0.59
   4   2  -8    2.32    0.13
  -4   2   8    2.27    0.13
   4  -2  -8    2.36    0.13
   4  -2  -8    2.32    0.13
  -4   2   8    2.32    0.13
   4  -2  -8    2.24    0.13
   4   2  -8    2.76    0.14
  -4  -2   8    2.30    0.13
   4   2  -7   65.91    0.92
  -4   2   7   65.24    0.93
   4  -2  -7   65.94    0.92
   4  -2  -7   65.81    0.93
  -4   2   7   64.13    0.91
   4   2  -7   64.00    0.94
   4  -2  -7   62.87    0.91
  -4   2   7   60.50    0.87
   4   2  -7   64.56    0.90
  -4  -2   7   66.28    0.93
   4   2  -6   14.76    0.30
  -4   2   6   15.04    0.33
   4  -2  -6   14.51    0.31
   4   2  -6   14.41    0.32
   4  -2  -6   14.49    0.30
  -4   2   6   14.30    0.31
   4   2  -6   14.68    0.33
   4  -2  -6   14.81    0.33
  -4   2   6   14.58    0.30
   4   2  -6   14.72    0.30
  -4  -2   6   14.72    0.30
   4   2  -5   29.05    0.48
  -4   2   5   30.40    0.51
   4  -2  -5   31.38    0.53
  -4  -2   5   30.86    0.54
   4   2  -5   31.25    0.53
   4  -2  -5   30.48    0.50
  -4   2   5   29.19    0.49
   4  -2  -5   31.11    0.51
  -4   2   5   30.64    0.49
  -4  -2   5   29.24    0.49
  -4  -2   4   23.84    0.46
   4   2  -4   23.54    0.44
  -4   2   4   23.42    0.46
   4  -2  -4   23.69    0.48
  -4  -2   4   24.44    0.49
   4  -2  -4   23.60    0.44
  -4   2   4   23.05    0.45
  -4   2   4   22.40    0.37
   4   2  -4   24.06    0.45
  -4  -2   4   22.97    0.45
  -4  -2   3    2.62    0.13
   4   2  -3    2.48    0.13
  -4   2   3    2.58    0.14
   4  -2  -3    2.67    0.15
  -4  -2   3    2.61    0.14
   4   2  -3    2.47    0.14
   4  -2  -3    2.70    0.14
  -4   2   3    2.37    0.13
  -4   2   3    2.57    0.13
   4   2  -3    2.34    0.13
  -4  -2   3    2.36    0.13
  -4  -2   2    1.10    0.09
   4   2  -2    1.01    0.08
  -4   2   2    1.06    0.10
   4  -2  -2    0.99    0.10
   4   2  -2    1.15    0.10
  -4   2   2    1.03    0.08
   4   2  -2    1.09    0.09
  -4  -2   1  118.33    1.45
   4   2  -1  112.73    1.38
  -4   2   1  119.29    1.53
  -4   2   1  115.40    1.43
   4   2  -1  115.35    1.45
   4  -2  -1  114.74    1.40
  -4   2   1  116.08    1.39
   4   2  -1  118.37    1.48
  -4  -2   0   52.83    0.78
   4   2   0   49.22    0.72
  -4   2   0   50.25    0.80
   4   2   0   52.45    0.83
   4  -2   0   48.04    0.73
   4   2   0   50.88    0.76
   4  -2   0   51.36    0.76
  -4   2   0   49.29    0.73
   4   2   0   52.15    0.79
  -4   2  -1   45.44    0.71
   4   2   1   45.75    0.73
   4  -2   1   44.09    0.68
  -4  -2  -1   45.90    0.73
   4   2   1   45.97    0.71
   4  -2   1   46.09    0.71
  -4   2  -1   42.78    0.66
   4   2   2   22.98    0.46
  -4   2  -2   22.01    0.38
   4   2   2   21.23    0.38
   4  -2   2   20.47    0.37
   4   2   2   20.67    0.37
  -4   2  -2   21.72    0.39
  -4   2  -2   22.96    0.47
   4  -2   3    0.23    0.06
  -4   2  -3    0.25    0.06
   4   2   3    0.19    0.05
  -4  -2  -3    0.13    0.05
   4   2   3    0.15    0.06
   4  -2   3    0.11    0.06
  -4   2  -3    0.12    0.06
  -4  -2  -3    0.18    0.06
   4  -2   4    2.77    0.15
  -4   2  -4    2.69    0.13
   4   2   4    2.72    0.14
  -4  -2  -4    2.55    0.13
  -4  -2  -4    2.82    0.15
   4   2   4    2.84    0.14
   4  -2   4    2.48    0.13
  -4  -2  -4    2.66    0.14
  -4   2  -4    2.59    0.13
   4  -2   4    2.55    0.14
   4  -2   5    8.09    0.24
  -4   2  -5    8.29    0.23
  -4  -2  -5    8.69    0.23
  -4  -2  -5    8.60    0.25
   4   2   5    8.40    0.22
  -4   2  -5    8.64    0.24
  -4  -2  -5    8.47    0.24
   4   2   5    8.28    0.23
  -4   2  -5    8.61    0.23
   4  -2   5    7.93    0.23
   4  -2   6   33.23    0.59
  -4  -2  -6   31.83    0.55
  -4  -2  -6   32.14    0.57
   4   2   6   32.31    0.54
  -4   2  -6   32.43    0.56
  -4  -2  -6   31.59    0.57
   4   2   6   30.89    0.53
  -4   2  -6   32.44    0.55
   4  -2   6   28.97    0.51
   4  -2   7   88.63    1.21
  -4   2  -7   88.53    1.16
  -4  -2  -7   87.28    1.14
  -4  -2  -7   87.20    1.18
   4   2   7   88.86    1.17
  -4   2  -7   85.98    1.18
  -4  -2  -7   87.05    1.19
   4   2   7   87.55    1.17
  -4   2  -7   86.87    1.15
   4  -2   8    2.39    0.14
  -4   2  -8    2.17    0.12
  -4  -2  -8    2.39    0.13
  -4  -2  -8    2.38    0.13
   4   2   8    2.27    0.12
  -4   2  -8    2.23    0.13
  -4  -2  -8    2.31    0.13
  -4   2  -8    2.29    0.12
   4   2   8    2.33    0.12
   4  -2   9    0.08    0.07
   4   2   9    0.06    0.07
  -4  -2  -9    0.08    0.06
  -4  -2  -9    0.07    0.06
  -4   2  -9    0.09    0.07
   4   2   9    0.10    0.06
  -4  -2  -9    0.05    0.06
  -4   2  -9    0.12    0.05
   4   2   9    0.10    0.07
   4  -2  10   14.63    0.35
   4   2  10   13.74    0.33
  -4  -2 -10   14.73    0.33
  -4  -2 -10   13.89    0.33
  -4   2 -10   14.64    0.34
  -4  -2 -10   13.45    0.33
  -4   2 -10   13.84    0.32
   4  -2  11    3.33    0.16
   4   2  11    3.33    0.15
  -4  -2 -11    3.20    0.15
  -4  -2 -11    3.15    0.15
  -4   2 -11    3.24    0.16
  -4  -2 -11    3.16    0.15
  -4   2 -11    3.16    0.15
   4  -2  12   18.19    0.41
   4   2  12   18.29    0.40
  -4  -2 -12   17.30    0.39
  -4   2 -12   17.33    0.39
  -4  -2 -12   17.35    0.39
  -4   2 -12   17.57    0.38
   4  -2  13   35.45    0.50
   4   2  13   36.59    0.49
  -4  -2 -13   36.79    0.50
  -4  -2 -13   36.14    0.50
  -4   2 -13   35.39    0.49
   4  -2  14   36.10    0.52
   4   2  14   35.96    0.49
  -4  -2 -14   37.00    0.50
  -4  -2 -14   35.86    0.49
   4  -2  15    0.47    0.10
   4   2  15    0.49    0.09
  -4  -2 -15    0.54    0.09
  -4  -2 -15    0.44    0.09
   4  -2  16    1.92    0.15
   4   2  16    1.95    0.13
  -4  -2 -16    1.81    0.13
  -4  -2 -16    2.03    0.13
   4  -2  17    3.78    0.18
   4   2  17    3.36    0.16
  -4  -2 -17    3.72    0.18
  -4   2 -17    3.47    0.17
  -4  -2 -17    3.44    0.16
   4  -2  18    4.04    0.19
   4   2  18    4.08    0.18
  -4  -2 -18    3.93    0.18
  -4   2 -18    3.91    0.17
  -4  -2 -18    3.81    0.17
   4  -2  19    0.04    0.10
  -4  -2 -19    0.09    0.10
  -4   2 -19    0.02    0.10
   4   4 -18    1.62    0.14
   4  -4 -18    1.91    0.14
  -4   4  17    1.09    0.12
   4  -4 -17    1.20    0.12
  -4   4  16    0.39    0.09
   4  -4 -16    0.44    0.09
   4  -4 -16    0.48    0.11
  -4  -4  15    0.75    0.11
  -4   4  15    0.83    0.10
   4  -4 -15    0.80    0.10
   4  -4 -15    0.92    0.12
  -4  -4  14   20.50    0.37
  -4   4  14   21.60    0.38
   4  -4 -14   20.81    0.38
   4   4 -14   20.41    0.40
   4  -4 -14   21.64    0.41
   4   4 -14   20.70    0.36
  -4  -4  13    0.36    0.10
  -4   4  13    0.42    0.09
   4  -4 -13    0.32    0.08
   4   4 -13    0.37    0.10
   4  -4 -13    0.46    0.10
   4   4 -13    0.40    0.07
  -4  -4  12    3.05    0.16
  -4   4  12    3.05    0.15
   4  -4 -12    3.14    0.15
   4   4 -12    3.01    0.16
   4  -4 -12    3.23    0.17
   4   4 -12    2.91    0.14
  -4  -4  11   23.84    0.48
  -4   4  11   23.64    0.50
   4  -4 -11   24.08    0.49
   4   4 -11   25.31    0.52
   4  -4 -11   25.85    0.53
   4   4 -11   24.28    0.47
  -4  -4  11   24.90    0.49
  -4  -4  10    2.94    0.15
  -4   4  10    3.05    0.15
   4  -4 -10    3.28    0.16
   4  -4 -10    3.16    0.15
   4   4 -10    3.23    0.16
   4  -4 -10    3.40    0.16
   4   4 -10    3.30    0.15
  -4  -4  10    3.15    0.15
  -4  -4   9    1.79    0.12
  -4   4   9    1.84    0.12
   4  -4  -9    1.91    0.13
   4  -4  -9    1.75    0.12
  -4   4   9    1.87    0.11
   4   4  -9    1.87    0.13
   4  -4  -9    2.20    0.14
   4   4  -9    1.81    0.11
  -4  -4   9    1.84    0.12
  -4  -4   8    8.11    0.25
  -4   4   8    8.96    0.25
   4  -4  -8    8.71    0.26
   4  -4  -8    8.56    0.26
  -4   4   8    8.30    0.24
   4   4  -8    9.07    0.26
   4  -4  -8    8.79    0.26
   4   4  -8    9.81    0.26
  -4  -4   8    8.80    0.25
  -4  -4   7    1.78    0.12
   4   4  -7    1.86    0.11
  -4   4   7    1.88    0.12
   4  -4  -7    1.77    0.12
   4  -4  -7    1.79    0.12
  -4   4   7    1.78    0.11
   4   4  -7    1.91    0.13
  -4  -4   7    1.91    0.12
  -4  -4   6   10.70    0.27
   4   4  -6   11.02    0.26
  -4   4   6   10.83    0.26
   4  -4  -6   10.67    0.29
   4  -4  -6   11.38    0.30
   4   4  -6   10.99    0.28
  -4   4   6   10.76    0.25
   4   4  -6   10.87    0.26
  -4  -4   6   10.42    0.27
  -4  -4   5   35.17    0.64
   4   4  -5   33.95    0.60
  -4   4   5   34.34    0.62
   4  -4  -5   34.92    0.66
  -4  -4   5   31.22    0.59
   4  -4  -5   36.34    0.67
  -4   4   5   32.28    0.58
   4  -4  -5   32.04    0.60
  -4   4   5   34.38    0.60
   4   4  -5   37.21    0.66
  -4  -4   5   36.20    0.64
  -4  -4   4   52.46    0.80
   4   4  -4   53.56    0.80
  -4   4   4   52.78    0.84
   4  -4  -4   50.84    0.81
  -4  -4   4   55.45    0.86
   4   4  -4   55.29    0.85
  -4   4   4   50.93    0.77
   4  -4  -4   52.72    0.80
  -4   4   4   51.93    0.76
   4   4  -4   52.86    0.82
  -4  -4   4   51.44    0.80
  -4  -4   3    0.13    0.05
   4   4  -3    0.08    0.04
  -4   4   3    0.15    0.06
   4  -4  -3    0.14    0.06
   4  -4  -3    0.14    0.05
  -4  -4   3    0.09    0.05
   4   4  -3    0.40    0.07
  -4   4   3    0.13    0.04
   4   4  -3    0.16    0.06
   4  -4  -3    0.17    0.06
  -4   4   3    0.05    0.04
   4   4  -3    0.17    0.06
  -4  -4   2   43.78    0.71
   4   4  -2   43.47    0.69
  -4   4   2   43.26    0.76
   4   4  -2   43.84    0.72
  -4   4   2   42.58    0.72
   4   4  -2   41.46    0.67
   4  -4  -2   43.47    0.70
  -4   4   2   43.72    0.68
   4   4  -2   46.53    0.75
  -4   4   1    0.71    0.09
  -4  -4   1    0.70    0.08
   4   4  -1    0.72    0.08
  -4   4   1    0.75    0.09
  -4   4   1    0.66    0.08
   4   4  -1    0.71    0.09
  -4   4   1    0.70    0.08
   4  -4  -1    0.80    0.09
  -4   4   1    0.72    0.08
   4   4  -1    0.70    0.08
  -4   4   0    5.77    0.20
   4   4   0    5.35    0.19
  -4   4   0    5.73    0.22
  -4  -4   0    5.77    0.21
   4   4   0    6.04    0.22
  -4   4   0    5.48    0.20
   4  -4   0    5.95    0.21
   4   4   0    5.61    0.20
  -4   4   0    5.65    0.19
   4   4   0    6.13    0.21
  -4   4  -1   12.40    0.31
   4   4   1   11.82    0.30
   4   4   1   12.71    0.34
  -4   4  -1   13.46    0.36
  -4  -4  -1   12.27    0.34
   4   4   1   12.41    0.33
  -4   4  -1   12.77    0.32
   4  -4   1   12.49    0.32
   4   4   1   12.32    0.31
  -4   4  -1   12.61    0.31
  -4   4  -2    8.05    0.24
   4   4   2    7.57    0.22
   4   4   2    8.05    0.24
  -4   4  -2    7.77    0.23
  -4  -4  -2    7.95    0.27
   4   4   2    7.96    0.26
  -4   4  -2    7.85    0.23
   4   4   2    7.86    0.23
  -4   4  -2    7.84    0.22
  -4   4  -2    7.92    0.25
   4  -4   3    6.42    0.23
   4   4   3    6.53    0.21
  -4   4  -3    6.29    0.20
   4   4   3    6.44    0.21
  -4   4  -3    6.22    0.21
  -4  -4  -3    6.78    0.24
   4   4   3    6.43    0.21
  -4   4  -3    6.40    0.21
  -4   4  -3    6.29    0.20
   4   4   3    6.23    0.20
  -4   4  -3    6.63    0.22
   4  -4   4    0.84    0.09
  -4   4  -4    0.93    0.09
   4   4   4    0.74    0.08
  -4   4  -4    0.70    0.08
  -4  -4  -4    0.79    0.10
   4   4   4    0.74    0.08
  -4   4  -4    0.66    0.08
  -4  -4  -4    0.73    0.09
  -4   4  -4    0.73    0.08
   4   4   4    0.75    0.08
  -4   4  -4    0.75    0.08
   4  -4   5    0.08    0.06
  -4   4  -5    0.12    0.05
   4   4   5    0.11    0.05
  -4  -4  -5    0.10    0.05
  -4   4  -5    0.06    0.06
  -4  -4  -5    0.12    0.07
   4   4   5    0.09    0.05
  -4   4  -5    0.09    0.06
  -4  -4  -5    0.09    0.06
  -4   4  -5    0.10    0.04
   4   4   5    0.12    0.06
  -4   4  -5    0.11    0.05
   4  -4   6    0.79    0.10
  -4   4  -6    0.80    0.09
   4   4   6    0.74    0.09
  -4  -4  -6    0.87    0.09
  -4   4  -6    0.75    0.09
  -4  -4  -6    0.80    0.10
   4   4   6    0.71    0.08
  -4   4  -6    0.73    0.09
  -4  -4  -6    0.80    0.09
  -4   4  -6    0.77    0.08
   4  -4   7   26.13    0.47
   4   4   7   27.42    0.46
  -4  -4  -7   27.50    0.47
  -4  -4  -7   27.35    0.51
   4   4   7   27.00    0.44
  -4   4  -7   27.16    0.47
  -4   4  -7   25.36    0.45
  -4  -4  -7   26.90    0.48
  -4   4  -7   26.82    0.43
  -4  -4  -8    7.94    0.24
  -4  -4  -8    8.09    0.26
   4   4   8    7.90    0.23
  -4  -4  -8    8.10    0.26
  -4   4  -8    7.86    0.23
   4  -4   8    8.10    0.25
  -4  -4  -9    8.78    0.24
  -4  -4  -9    8.68    0.27
   4   4   9    8.44    0.22
  -4  -4  -9    8.48    0.25
  -4   4  -9    8.63    0.23
   4  -4   9    8.14    0.24
  -4  -4 -10    1.67    0.11
  -4  -4 -10    1.70    0.13
  -4   4 -10    1.66    0.12
  -4  -4 -10    1.73    0.14
   4  -4  10    1.57    0.11
   4   4  11    3.57    0.16
  -4  -4 -11    3.30    0.15
  -4  -4 -11    3.36    0.17
  -4   4 -11    3.33    0.17
  -4  -4 -11    3.53    0.17
   4  -4  11    3.37    0.16
   4   4  12   15.10    0.31
  -4  -4 -12   14.98    0.34
  -4   4 -12   15.01    0.32
  -4  -4 -12   14.90    0.32
   4  -4  13   10.53    0.28
  -4  -4 -13   10.24    0.27
  -4   4 -13   10.76    0.27
  -4  -4 -13   10.38    0.27
   4  -4  14    3.90    0.19
  -4  -4 -14    3.96    0.18
  -4   4 -14    4.04    0.18
  -4  -4 -14    3.87    0.17
  -4  -4 -15    2.03    0.14
  -4   4 -15    1.99    0.14
  -4  -4 -15    1.98    0.14
   4  -4  16    1.98    0.15
  -4  -4 -16    1.82    0.13
  -4   4 -16    1.88    0.14
  -4  -4 -16    1.97    0.14
   4  -4  17    1.37    0.13
  -4  -4 -17    1.24    0.12
  -4   4 -17    1.40    0.13
  -4  -4 -17    1.39    0.13
   4  -4  18    0.16    0.11
  -4  -4 -18    0.04    0.09
  -4   4 -18    0.18    0.10
  -4  -4 -18    0.10    0.09
  -4  -6  16    0.01    0.10
   4  -6 -16   -0.01    0.10
  -4  -6  15    1.89    0.15
   4   6 -15    1.84    0.15
   4  -6 -15    1.76    0.15
  -4  -6  14    9.51    0.27
   4   6 -14   10.20    0.27
   4  -6 -14    9.55    0.26
  -4  -6  13    0.83    0.11
   4   6 -13    0.66    0.12
   4  -6 -13    0.70    0.11
  -4  -6  12    3.52    0.17
   4   6 -12    3.45    0.17
   4  -6 -12    3.59    0.18
  -4  -6  11    0.03    0.08
   4   6 -11    0.15    0.09
   4   6 -11    0.05    0.07
  -4  -6  10   27.33    0.44
  -4   6  10   26.42    0.41
   4  -6 -10   25.78    0.47
   4   6 -10   27.16    0.44
   4   6 -10   26.87    0.41
  -4  -6   9   10.16    0.27
  -4   6   9    9.66    0.25
   4  -6  -9    9.30    0.27
   4  -6  -9    9.85    0.28
   4   6  -9    9.96    0.27
  -4  -6   8   35.11    0.64
  -4   6   8   34.26    0.61
   4  -6  -8   34.70    0.65
   4  -6  -8   34.32    0.65
   4   6  -8   34.54    0.64
   4  -6  -8   34.43    0.62
   4   6  -8   35.59    0.62
  -4  -6   7    0.40    0.09
  -4   6   7    0.44    0.08
   4  -6  -7    0.47    0.09
   4  -6  -7    0.44    0.08
   4   6  -7    0.46    0.09
   4  -6  -7    0.47    0.09
   4   6  -7    0.39    0.09
  -4  -6   6    0.96    0.11
   4   6  -6    1.00    0.10
  -4   6   6    0.88    0.09
   4  -6  -6    0.89    0.10
   4   6  -6    0.91    0.10
   4   6  -6    1.01    0.10
   4  -6  -6    1.00    0.11
   4   6  -6    0.96    0.10
  -4  -6   5    1.43    0.12
   4   6  -5    1.82    0.12
  -4   6   5    1.48    0.11
   4  -6  -5    1.44    0.11
   4  -6  -5    1.45    0.12
   4   6  -5    1.45    0.12
  -4  -6   4    2.19    0.14
   4   6  -4    2.13    0.12
  -4   6   4    2.13    0.13
  -4  -6   4    2.17    0.14
   4  -6  -4    1.92    0.12
   4  -6  -4    2.06    0.14
   4   6  -4    2.01    0.13
  -4   6   3    1.52    0.12
  -4  -6   3    1.54    0.12
   4   6  -3    1.49    0.11
  -4   6   3    1.63    0.13
  -4  -6   3    1.55    0.13
  -4   6   3    1.48    0.11
   4   6  -3    1.44    0.11
   4  -6  -3    1.52    0.12
   4   6  -3    1.40    0.12
  -4   6   2    2.25    0.13
   4   6  -2    2.24    0.12
  -4   6   2    2.19    0.14
  -4  -6   2    2.14    0.13
   4   6  -2    2.15    0.14
  -4   6   2    2.15    0.13
  -4   6   2    2.29    0.13
   4  -6  -2    2.27    0.14
  -4   6   2    2.22    0.13
   4   6  -2    2.19    0.14
  -4   6   1    1.68    0.11
   4   6  -1    1.67    0.11
  -4   6   1    1.66    0.13
   4   6  -1    2.03    0.14
  -4  -6   1    1.65    0.13
  -4   6   1    1.63    0.12
   4   6  -1    1.54    0.12
  -4   6   1    1.57    0.11
  -4   6   1    1.59    0.11
   4   6  -1    1.69    0.13
  -4   6   0    7.07    0.23
   4   6   0    6.98    0.23
   4   6   0    7.03    0.25
  -4   6   0    7.10    0.26
  -4   6   0    6.67    0.24
   4   6   0    7.33    0.26
  -4   6   0    7.28    0.24
   4  -6   0    7.01    0.24
  -4   6   0    7.19    0.22
   4   6   0    7.07    0.25
  -4   6  -1   34.81    0.58
   4   6   1   33.96    0.59
   4   6   1   34.22    0.61
  -4   6  -1   35.09    0.64
  -4   6  -1   34.57    0.61
   4   6   1   33.48    0.59
  -4   6  -1   34.53    0.59
  -4  -6  -1   33.98    0.60
   4  -6   1   34.37    0.60
  -4   6  -1   34.36    0.57
  -4   6  -2   31.70    0.54
   4   6   2   30.79    0.53
   4   6   2   31.26    0.56
  -4   6  -2   30.98    0.58
  -4  -6  -2   31.15    0.58
  -4   6  -2   30.85    0.56
   4   6   2   30.91    0.55
  -4   6  -2   30.90    0.55
  -4  -6  -2   31.43    0.57
  -4   6  -2   31.95    0.55
  -4   6  -2   30.52    0.56
  -4   6  -3    0.01    0.05
   4   6   3    0.01    0.06
  -4  -6  -3    0.15    0.07
   4   6   3    0.05    0.05
  -4   6  -3    0.00    0.05
  -4  -6  -3    0.06    0.08
  -4   6  -3    0.05    0.05
  -4   6  -3    0.12    0.06
  -4  -6  -4    1.38    0.12
   4   6   4    1.30    0.10
  -4   6  -4    1.44    0.11
  -4   6  -4    1.35    0.10
  -4   6  -4    1.35    0.11
   4  -6   5    0.90    0.11
  -4  -6  -5    0.85    0.10
   4   6   5    0.86    0.09
  -4   6  -5    0.87    0.09
  -4   6  -5    0.82    0.09
   4  -6   6    2.47    0.15
  -4  -6  -6    2.28    0.15
  -4   6  -6    2.28    0.13
  -4   6  -6    2.41    0.13
   4  -6   7   15.81    0.39
  -4  -6  -7   16.25    0.40
  -4   6  -7   16.00    0.37
  -4  -6  -7   16.30    0.39
   4  -6   8    2.28    0.15
  -4  -6  -8    2.34    0.15
  -4   6  -8    2.10    0.13
  -4  -6  -8    2.42    0.16
   4  -6   9    2.55    0.16
  -4  -6  -9    2.52    0.16
  -4  -6  -9    2.65    0.16
   4  -6  10    0.33    0.09
  -4  -6 -10    0.48    0.10
  -4  -6 -10    0.37    0.10
   4  -6  11    2.23    0.16
  -4  -6 -11    2.23    0.15
  -4  -6 -11    2.23    0.15
   4  -6  12    9.28    0.27
  -4  -6 -12    8.89    0.27
  -4   6 -12    9.18    0.25
  -4  -6 -12    8.84    0.26
   4  -6  13   10.17    0.28
  -4  -6 -13   10.57    0.30
  -4   6 -13   10.45    0.27
  -4  -6 -13   10.27    0.28
   4  -6  14    0.02    0.10
  -4  -6 -14    0.08    0.08
  -4   6 -14    0.00    0.09
  -4  -6 -14    0.04    0.10
   4  -6  15    4.48    0.20
  -4   6 -15    4.96    0.20
  -4  -6 -15    4.70    0.20
   4  -6  16    0.09    0.10
  -4   6 -16    0.11    0.10
  -4  -6 -16    0.06    0.10
  -4  -8  13    3.06    0.17
   4   8 -13    3.20    0.18
  -4  -8  12   10.81    0.29
   4   8 -12   10.65    0.28
   4  -8 -12   10.47    0.28
  -4  -8  11    5.96    0.22
   4   8 -11    5.54    0.21
   4  -8 -11    5.70    0.22
  -4  -8  10    2.25    0.15
   4   8 -10    2.38    0.15
   4  -8 -10    2.40    0.16
  -4  -8   9    7.43    0.25
   4   8  -9    7.68    0.24
   4  -8  -9    7.74    0.25
  -4  -8   8    0.40    0.10
   4   8  -8    0.39    0.09
   4  -8  -8    0.46    0.10
  -4  -8   7    2.00    0.14
   4   8  -7    2.14    0.14
   4  -8  -7    2.00    0.15
   4   8  -7    2.12    0.14
  -4  -8   6    1.28    0.12
   4   8  -6    1.41    0.12
   4  -8  -6    1.42    0.13
   4   8  -6    1.43    0.12
   4   8  -5    3.63    0.17
   4   8  -5    3.38    0.17
   4   8  -4    0.12    0.08
   4   8  -4    0.05    0.08
  -4  -8   3    0.15    0.07
   4  -8  -3    0.05    0.08
   4   8  -3    0.00    0.08
  -4  -8   2    0.99    0.11
   4  -8  -2    0.97    0.11
   4   8  -2    1.15    0.12
  -4   8   1    0.06    0.07
  -4  -8   1    0.05    0.07
   4  -8  -1    0.03    0.07
   4   8  -1    0.05    0.09
  -4   8   0   17.45    0.38
  -4  -8   0   18.61    0.37
   4   8   0   19.22    0.37
  -4   8   0   18.42    0.37
  -4   8  -1   13.33    0.33
  -4  -8  -1   13.25    0.31
   4   8   1   12.87    0.31
  -4   8  -1   13.24    0.31
  -4   8  -2   11.67    0.31
  -4   8  -2   12.40    0.30
   4   8   2   12.07    0.31
  -4   8  -3    2.06    0.14
  -4   8  -3    1.98    0.13
  -4  -8  -3    2.16    0.15
  -4   8  -4    8.73    0.27
  -4   8  -4    8.80    0.25
  -4  -8  -4    8.82    0.26
  -4  -8  -5    0.03    0.07
  -4   8  -5    0.12    0.07
  -4  -8  -5    0.14    0.09
  -4  -8  -6    1.94    0.14
  -4   8  -6    1.88    0.13
  -4  -8  -6    1.85    0.15
  -4  -8  -7    8.04    0.25
  -4   8  -7    7.91    0.23
  -4  -8  -7    7.89    0.25
  -4   8  -8    1.33    0.12
   4  -8   9    0.82    0.12
   4  -8  10    0.86    0.13
   4  -8  11    0.12    0.09
   4  -8  12    1.69    0.15
  -4   8 -12    1.80    0.14
   4 -10  -7    0.37    0.10
   4 -10  -6    0.23    0.11
   4 -10  -5    1.28    0.13
   4 -10  -4    0.28    0.10
   4 -10  -3    0.60    0.11
   4  10  -2    0.48    0.10
   4  10  -1    0.48    0.10
   4  10   0    0.13    0.10
   4  10   1    0.09    0.10
   4  10   2    0.83    0.11
   4  10   3    0.09    0.12
   4  10   4    2.37    0.16
   4  10   5   -0.05    0.10
  -5  -1  20    0.64    0.12
   5  -1 -20    0.53    0.09
   5   1 -20    0.62    0.11
   5  -1 -20    0.71    0.11
  -5  -1  19   19.83    0.37
   5  -1 -19   18.86    0.35
   5   1 -19   19.64    0.36
   5  -1 -19   19.64    0.37
  -5   1  18    1.80    0.14
   5  -1 -18    1.83    0.13
   5   1 -18    1.92    0.14
   5  -1 -18    1.86    0.14
   5   1 -18    1.81    0.13
  -5   1  17    0.18    0.10
   5  -1 -17    0.18    0.08
   5   1 -17    0.10    0.08
   5  -1 -17    0.24    0.09
   5   1 -17    0.07    0.08
  -5   1  16    8.12    0.24
   5  -1 -16    8.08    0.23
   5   1 -16    8.35    0.24
   5  -1 -16    8.20    0.24
   5   1 -16    8.38    0.24
  -5  -1  15    2.31    0.15
  -5   1  15    2.51    0.15
   5  -1 -15    2.31    0.13
   5   1 -15    2.24    0.14
   5  -1 -15    2.33    0.15
   5   1 -15    2.19    0.13
  -5  -1  14   11.67    0.29
  -5   1  14   12.65    0.30
   5  -1 -14   11.77    0.28
   5  -1 -14   12.30    0.29
   5   1 -14   12.24    0.28
  -5  -1  13   25.17    0.51
  -5   1  13   23.93    0.49
   5  -1 -13   24.84    0.48
   5  -1 -13   24.59    0.49
   5   1 -13   24.89    0.48
  -5  -1  12    1.53    0.12
  -5   1  12    1.42    0.12
   5  -1 -12    1.44    0.12
   5   1 -12    1.52    0.12
  -5   1  12    1.59    0.11
   5  -1 -12    1.44    0.12
   5   1 -12    1.50    0.11
  -5  -1  11   74.52    1.05
  -5   1  11   69.28    0.96
   5  -1 -11   74.29    1.04
   5   1 -11   72.78    1.01
  -5   1  11   75.65    1.02
   5  -1 -11   74.39    1.01
   5   1 -11   74.69    1.01
  -5  -1  11   75.89    1.00
  -5  -1  10   29.76    0.46
  -5   1  10   29.34    0.44
   5  -1 -10   30.15    0.43
   5   1 -10   29.74    0.45
   5  -1 -10   29.89    0.45
   5   1 -10   28.85    0.46
  -5   1  10   29.74    0.45
   5  -1 -10   29.37    0.44
   5   1 -10   29.71    0.44
  -5   1  10   29.31    0.41
  -5   1   9    0.74    0.09
   5  -1  -9    0.80    0.08
   5   1  -9    0.84    0.09
   5   1  -9    0.73    0.08
  -5   1   9    0.96    0.09
   5  -1  -9    0.70    0.09
   5   1  -9    0.78    0.08
  -5   1   9    0.70    0.08
  -5  -1   9    0.89    0.08
  -5  -1   8   12.81    0.32
  -5   1   8   12.66    0.32
   5   1  -8   12.75    0.31
   5  -1  -8   12.54    0.31
   5   1  -8   13.62    0.34
   5   1  -8   12.49    0.32
  -5   1   8   13.46    0.33
   5  -1  -8   12.64    0.32
   5   1  -8   12.77    0.31
  -5  -1   8   12.99    0.30
  -5  -1   7  170.45    1.82
  -5   1   7  167.35    1.85
   5   1  -7  165.23    1.66
   5  -1  -7  160.71    1.63
   5   1  -7  168.97    1.71
   5  -1  -7  169.53    1.85
  -5   1   7  163.26    1.75
   5  -1  -7  168.89    1.74
   5   1  -7  164.99    1.73
   5   1  -6   40.60    0.59
  -5   1   6   42.72    0.63
   5  -1  -6   40.37    0.61
   5  -1  -6   41.11    0.62
   5  -1  -6   39.76    0.61
  -5   1   6   39.74    0.57
   5   1  -6   41.58    0.59
   5   1  -5   28.70    0.50
  -5   1   5   28.77    0.51
  -5  -1   5   29.20    0.54
   5  -1  -5   29.33    0.53
   5  -1  -5   28.92    0.52
   5  -1  -5   30.05    0.53
  -5   1   5   29.67    0.50
   5   1  -5   28.64    0.67
   5   1  -4   46.20    0.69
  -5   1   4   47.18    0.72
  -5  -1   4   48.64    0.77
   5  -1  -4   48.33    0.75
   5  -1  -4   46.73    0.73
   5  -1  -4   49.11    0.75
  -5   1   4   46.64    0.68
   5   1  -4   48.61    0.72
   5   1  -3   58.85    0.82
  -5   1   3   58.39    0.85
  -5   1   3   59.24    0.86
   5  -1  -3   55.52    0.84
  -5   1   3   58.18    0.80
   5   1  -2   12.03    0.28
  -5   1   2   13.21    0.32
   5  -1  -2   12.27    0.31
  -5  -1   2   12.39    0.31
  -5   1   2   12.80    0.32
   5   1  -2   12.48    0.31
   5  -1  -2   12.90    0.33
  -5   1   2   12.66    0.27
   5   1  -2   13.60    0.30
  -5  -1   2   12.62    0.29
  -5  -1   1   84.56    1.10
   5   1  -1   89.43    1.17
  -5   1   1   93.84    1.25
   5  -1  -1   87.64    1.18
  -5  -1   1   88.84    1.19
   5   1  -1   89.53    1.19
  -5   1   1   88.83    1.19
   5  -1  -1   86.43    1.13
  -5   1   1   89.01    1.11
   5   1  -1   92.75    1.22
  -5  -1   1   88.60    1.15
  -5  -1   0   22.62    0.41
   5   1   0   20.43    0.40
  -5   1   0   22.37    0.43
   5  -1   0   20.51    0.40
  -5  -1   0   23.68    0.50
   5   1   0   20.92    0.40
  -5   1   0   22.75    0.38
   5  -1   0   21.12    0.35
   5  -1   0   22.31    0.36
  -5   1   0   21.71    0.35
   5   1   0   21.36    0.39
  -5  -1   0   21.73    0.39
  -5  -1  -1  379.49    4.03
  -5   1  -1  385.82    4.08
  -5  -1  -1  399.13    4.25
   5   1   1  387.93    4.07
  -5   1  -1  404.74    4.25
   5  -1   1  414.05    4.32
  -5   1  -1  403.12    4.18
   5  -1   2   91.37    1.21
   5   1   2   90.71    1.20
  -5   1  -2   90.24    1.18
  -5  -1  -2   90.93    1.16
  -5  -1  -2   87.32    1.16
   5   1   2   91.49    1.17
  -5   1  -2   92.59    1.16
  -5  -1  -2   93.03    1.22
   5  -1   2   93.71    1.21
   5  -1   4   87.44    1.18
   5   1   4   92.27    1.20
  -5  -1  -4   89.23    1.15
   5   1   4   94.35    1.17
  -5   1  -4   91.99    1.27
  -5  -1  -4   91.53    1.19
  -5   1  -4   92.02    1.17
   5   1   4   93.18    1.18
   5  -1   4   91.96    1.15
   5  -1   5   10.97    0.28
   5   1   5   11.06    0.27
  -5  -1  -5   10.87    0.27
   5   1   5   11.79    0.26
  -5   1  -5   10.69    0.26
  -5  -1  -5   10.81    0.27
  -5   1  -5   11.05    0.27
   5   1   5   11.07    0.26
   5  -1   5   10.76    0.25
   5  -1   6    0.71    0.09
   5   1   6    0.63    0.08
  -5  -1  -6    0.60    0.07
  -5   1  -6    0.66    0.08
   5   1   6    0.72    0.08
   5  -1   6    0.64    0.08
  -5  -1  -6    0.75    0.08
  -5   1  -6    0.76    0.08
   5   1   6    0.58    0.08
   5  -1   6    0.59    0.07
   5  -1   7    1.47    0.11
   5   1   7    1.56    0.11
  -5   1  -7    1.47    0.10
  -5  -1  -7    1.50    0.10
  -5  -1  -7    1.56    0.11
  -5   1  -7    1.51    0.10
   5   1   7    1.60    0.11
   5  -1   7    1.72    0.11
  -5  -1  -7    1.52    0.11
  -5   1  -7    1.70    0.11
   5   1   7    1.67    0.11
   5  -1   7    1.59    0.10
   5  -1   8    0.10    0.05
   5   1   8    0.11    0.05
  -5   1  -8    0.18    0.05
  -5  -1  -8    0.08    0.04
  -5  -1  -8    0.12    0.05
  -5   1  -8    0.11    0.05
   5   1   8    0.09    0.05
   5  -1   8    0.08    0.05
  -5  -1  -8    0.11    0.05
  -5   1  -8    0.09    0.05
   5   1   8    0.12    0.05
   5  -1   8    0.11    0.04
   5  -1   9    0.08    0.06
   5   1   9    0.02    0.04
  -5   1  -9    0.03    0.04
  -5  -1  -9    0.02    0.05
  -5  -1  -9    0.05    0.06
  -5   1  -9    0.05    0.05
  -5  -1  -9    0.05    0.05
  -5   1  -9    0.03    0.05
   5   1   9    0.03    0.05
   5  -1   9    0.07    0.04
   5  -1  10    0.14    0.07
   5   1  10    0.16    0.06
  -5  -1 -10    0.20    0.06
  -5  -1 -10    0.16    0.06
  -5  -1 -10    0.17    0.07
  -5   1 -10    0.16    0.05
   5   1  10    0.19    0.06
   5  -1  10    0.17    0.05
   5  -1  11    0.22    0.07
   5   1  11    0.19    0.06
  -5  -1 -11    0.21    0.06
  -5  -1 -11    0.26    0.07
  -5   1 -11    0.21    0.06
   5   1  11    0.20    0.05
   5  -1  11    0.23    0.05
   5  -1  12    0.46    0.08
   5   1  12    0.41    0.08
  -5  -1 -12    0.51    0.08
  -5  -1 -12    0.43    0.07
  -5   1 -12    0.47    0.08
   5  -1  12    0.49    0.07
   5  -1  13   17.52    0.35
   5   1  13   17.33    0.34
  -5  -1 -13   17.27    0.33
  -5  -1 -13   17.34    0.34
  -5   1 -13   18.65    0.36
   5  -1  13   16.82    0.33
   5  -1  14    5.25    0.20
   5   1  14    5.41    0.20
  -5  -1 -14    5.41    0.19
  -5   1 -14    5.23    0.19
  -5  -1 -14    5.46    0.19
  -5   1 -14    5.33    0.19
   5  -1  15    1.68    0.13
   5   1  15    1.75    0.13
  -5  -1 -15    1.74    0.13
  -5   1 -15    1.65    0.13
  -5  -1 -15    1.65    0.12
   5  -1  16    6.44    0.22
   5   1  16    6.19    0.21
  -5  -1 -16    6.51    0.21
  -5   1 -16    6.30    0.21
  -5  -1 -16    6.34    0.21
   5  -1  17    2.61    0.16
   5   1  17    2.60    0.15
  -5  -1 -17    2.51    0.15
  -5   1 -17    2.38    0.14
   5  -1  18    0.05    0.11
   5   1  18    0.00    0.09
  -5  -1 -18   -0.03    0.09
  -5   1 -18   -0.05    0.10
   5  -1  19    0.30    0.09
   5   1  19    0.20    0.10
  -5  -1 -19    0.15    0.10
  -5   1 -19    0.29    0.11
  -5  -3  19    7.13    0.23
  -5   3  19    7.46    0.23
   5   3 -19    7.23    0.23
   5  -3 -19    7.40    0.24
  -5  -3  18    0.46    0.11
  -5   3  18    0.51    0.11
   5  -3 -18    0.48    0.09
   5   3 -18    0.45    0.11
   5  -3 -18    0.50    0.11
  -5  -3  17    0.43    0.11
  -5   3  17    0.35    0.09
   5  -3 -17    0.33    0.08
   5   3 -17    0.28    0.10
   5  -3 -17    0.26    0.09
  -5   3  16    4.64    0.19
   5  -3 -16    4.16    0.17
   5  -3 -16    4.34    0.19
   5   3 -16    4.31    0.18
  -5   3  15    1.02    0.11
   5  -3 -15    0.94    0.10
   5  -3 -15    0.95    0.11
   5   3 -15    0.98    0.10
  -5   3  14    7.81    0.24
   5  -3 -14    7.69    0.23
   5   3 -14    6.79    0.23
   5  -3 -14    7.60    0.23
   5   3 -14    7.68    0.23
  -5   3  13   99.70    0.89
   5  -3 -13  100.82    0.88
   5  -3 -13  101.86    0.95
   5   3 -13  100.71    0.89
  -5   3  12   60.43    0.94
   5  -3 -12   59.02    0.91
   5  -3 -12   60.08    0.96
   5   3 -12   59.31    0.91
  -5   3  11    0.59    0.09
   5  -3 -11    0.65    0.08
  -5   3  11    0.64    0.08
   5  -3 -11    0.66    0.10
   5   3 -11    0.67    0.08
  -5  -3  11    0.59    0.08
  -5   3  10    2.79    0.14
   5  -3 -10    2.77    0.14
   5  -3 -10    2.74    0.14
   5   3 -10    2.61    0.15
  -5   3  10    2.63    0.13
   5  -3 -10    2.78    0.14
   5   3 -10    2.86    0.14
  -5  -3  10    2.81    0.14
  -5   3   9    1.71    0.12
   5  -3  -9    1.59    0.11
   5  -3  -9    1.47    0.10
   5   3  -9    1.52    0.12
  -5   3   9    1.62    0.11
   5  -3  -9    1.60    0.12
   5   3  -9    1.66    0.11
  -5  -3   9    1.85    0.12
   5   3  -8   12.87    0.28
  -5   3   8   12.44    0.28
   5  -3  -8   13.03    0.30
   5   3  -8   12.07    0.29
   5  -3  -8   12.93    0.29
  -5   3   8   12.70    0.29
   5   3  -8   12.91    0.30
   5  -3  -8   12.52    0.29
  -5   3   8   12.27    0.27
   5   3  -8   12.79    0.27
  -5  -3   8   12.93    0.29
  -5  -3   7    0.64    0.09
   5   3  -7    0.62    0.08
  -5   3   7    0.64    0.08
   5  -3  -7    0.77    0.09
   5  -3  -7    0.68    0.08
  -5   3   7    0.61    0.07
   5   3  -7    0.61    0.09
   5  -3  -7    0.60    0.08
  -5   3   7    0.77    0.08
   5   3  -7    0.64    0.08
  -5  -3   7    0.65    0.08
  -5  -3   6    5.36    0.19
   5   3  -6    5.10    0.18
  -5   3   6    5.28    0.19
   5  -3  -6    5.19    0.20
   5  -3  -6    5.09    0.19
  -5   3   6    5.10    0.19
  -5   3   6    5.32    0.18
  -5  -3   6    5.10    0.19
  -5  -3   5    0.05    0.05
   5   3  -5    0.09    0.04
  -5   3   5    0.08    0.04
   5  -3  -5    0.14    0.06
  -5  -3   5    0.03    0.04
   5  -3  -5    0.21    0.05
  -5   3   5    0.07    0.04
  -5   3   5    0.09    0.05
   5   3  -5    0.16    0.05
  -5  -3   5    0.11    0.05
   5   3  -4   11.45    0.27
  -5   3   4   11.04    0.28
   5  -3  -4   11.12    0.29
   5   3  -4   11.67    0.30
   5  -3  -4   12.60    0.31
  -5   3   4   10.38    0.28
   5  -3  -4    9.99    0.26
  -5   3   4   11.43    0.26
   5   3  -4   11.42    0.28
  -5  -3   4   11.54    0.28
   5   3  -3    6.56    0.20
  -5   3   3    6.61    0.23
   5  -3  -3    6.61    0.23
   5   3  -3    6.83    0.23
   5  -3  -3    6.52    0.21
  -5   3   3    6.59    0.20
   5   3  -3    6.72    0.22
  -5  -3   3    6.82    0.22
  -5  -3   2    4.02    0.16
   5   3  -2    3.87    0.16
  -5   3   2    3.97    0.18
   5  -3  -2    4.07    0.18
   5   3  -2    3.96    0.18
  -5   3   2    4.19    0.20
  -5   3   2    4.12    0.17
   5  -3  -2    4.17    0.17
  -5   3   2    4.09    0.16
   5   3  -2    3.83    0.17
  -5  -3   1  153.05    1.62
   5   3  -1  144.70    1.88
  -5   3   1  147.06    2.18
   5   3  -1  153.37    1.62
  -5   3   1  148.76    1.56
   5   3  -1  151.13    1.56
   5  -3  -1  149.97    1.69
  -5   3   1  150.70    1.54
   5   3  -1  149.48    1.59
  -5   3   0   28.16    0.50
  -5  -3   0   28.22    0.50
   5   3   0   26.64    0.47
  -5   3   0   24.93    0.49
  -5   3   0   26.97    0.48
  -5  -3   0   26.07    0.55
   5   3   0   28.08    0.53
  -5   3   0   26.45    0.46
   5  -3   0   27.59    0.48
  -5   3   0   27.08    0.46
   5   3   0   26.66    0.49
  -5   3  -1   29.14    0.50
  -5  -3  -1   26.37    0.78
   5   3   1   28.10    0.51
  -5   3  -1   28.57    0.50
   5  -3   1   29.08    0.50
  -5  -3  -1   29.43    0.52
   5   3   1   29.14    0.49
   5  -3   1   29.37    0.51
  -5   3  -1   28.73    0.48
  -5   3  -2  114.79    1.26
  -5  -3  -2  117.42    1.40
   5   3   2  111.52    1.25
  -5   3  -2  113.02    1.26
   5  -3   2  115.10    1.26
   5  -3   2  113.31    1.28
  -5  -3  -2  111.84    1.31
   5   3   2  110.73    1.22
  -5   3  -2  112.33    1.22
   5   3   3   15.02    0.35
  -5   3  -3   15.20    0.34
  -5  -3  -3   13.51    0.33
  -5  -3  -3   15.07    0.37
   5   3   3   14.66    0.32
   5  -3   3   14.46    0.31
   5   3   3   14.52    0.31
  -5   3  -3   15.71    0.35
  -5   3  -3   14.99    0.34
  -5   3  -4    3.04    0.15
   5   3   4    3.10    0.15
  -5  -3  -4    2.92    0.14
  -5  -3  -4    3.09    0.16
   5   3   4    3.12    0.15
   5  -3   4    2.78    0.14
  -5   3  -4    3.15    0.15
  -5   3  -5    6.37    0.20
   5   3   5    6.51    0.21
  -5  -3  -5    6.45    0.20
  -5  -3  -5    6.22    0.22
   5   3   5    6.41    0.20
   5  -3   5    6.54    0.21
  -5  -3  -5    6.08    0.21
  -5   3  -5    6.34    0.19
   5   3   6    6.03    0.21
  -5   3  -6    6.00    0.21
  -5  -3  -6    5.84    0.20
  -5  -3  -6    6.13    0.23
   5   3   6    5.44    0.18
  -5   3  -6    6.05    0.21
   5  -3   6    6.00    0.21
  -5  -3  -6    6.15    0.23
   5   3   6    6.03    0.21
  -5   3  -6    6.08    0.20
   5  -3   7    0.38    0.08
   5   3   7    0.60    0.08
  -5  -3  -7    0.31    0.06
  -5  -3  -7    0.32    0.08
   5   3   7    0.30    0.06
  -5   3  -7    0.28    0.07
   5  -3   7    0.21    0.06
  -5  -3  -7    0.34    0.07
   5   3   7    0.32    0.07
  -5   3  -7    0.26    0.05
   5  -3   7    0.34    0.07
   5  -3   8   22.70    0.43
   5   3   8   22.39    0.41
  -5  -3  -8   21.77    0.39
  -5  -3  -8   21.37    0.42
   5   3   8   22.58    0.39
  -5   3  -8   20.89    0.40
  -5  -3  -8   21.87    0.43
  -5   3  -8   22.37    0.40
   5  -3   8   21.14    0.41
   5  -3   9    0.97    0.11
   5   3   9    0.91    0.10
  -5  -3  -9    0.93    0.09
  -5  -3  -9    0.93    0.11
   5   3   9    0.88    0.09
  -5   3  -9    0.84    0.10
  -5  -3  -9    0.91    0.10
  -5   3  -9    0.86    0.09
   5  -3   9    0.90    0.09
   5  -3  10   17.09    0.35
   5   3  10   17.22    0.33
  -5  -3 -10   16.79    0.32
  -5  -3 -10   17.49    0.35
  -5   3 -10   17.33    0.34
  -5  -3 -10   16.85    0.34
  -5   3 -10   16.79    0.32
   5  -3  10   15.96    0.36
   5  -3  11    0.99    0.11
   5   3  11    0.95    0.09
  -5  -3 -11    0.96    0.09
  -5  -3 -11    0.86    0.10
  -5   3 -11    0.94    0.10
  -5  -3 -11    0.94    0.10
  -5   3 -11    0.91    0.09
   5  -3  11    0.90    0.09
   5  -3  12    0.08    0.08
   5   3  12    0.06    0.06
  -5  -3 -12    0.09    0.07
  -5   3 -12    0.00    0.06
  -5  -3 -12    0.08    0.07
   5  -3  13    8.46    0.25
   5   3  13    8.70    0.24
  -5  -3 -13    8.75    0.25
  -5   3 -13    8.39    0.24
  -5  -3 -13    8.53    0.25
   5  -3  14   14.59    0.33
   5   3  14   14.22    0.31
  -5  -3 -14   14.76    0.32
  -5   3 -14   14.44    0.31
  -5  -3 -14   14.32    0.32
   5  -3  15    0.76    0.12
   5   3  15    0.79    0.10
  -5  -3 -15    0.93    0.12
  -5   3 -15    0.80    0.11
  -5  -3 -15    0.82    0.11
   5  -3  16    2.35    0.16
  -5  -3 -16    2.34    0.15
  -5   3 -16    2.26    0.14
  -5  -3 -16    2.29    0.15
   5  -3  17    0.37    0.12
  -5  -3 -17    0.45    0.10
  -5  -3 -17    0.32    0.09
   5  -3  18    1.02    0.13
  -5  -3 -18    1.07    0.12
  -5  -3 -18    1.05    0.12
  -5  -5  18    7.12    0.23
   5  -5 -18    6.86    0.23
  -5  -5  17   -0.03    0.09
   5  -5 -17    0.03    0.10
  -5  -5  16    2.52    0.16
   5   5 -16    2.60    0.16
   5  -5 -16    2.61    0.16
  -5  -5  15    2.51    0.15
   5   5 -15    2.61    0.16
   5  -5 -15    2.44    0.15
  -5  -5  14    1.95    0.15
  -5   5  14    1.91    0.13
   5   5 -14    1.98    0.15
   5  -5 -14    1.80    0.14
  -5  -5  13    1.70    0.14
  -5   5  13    1.70    0.12
   5  -5 -13    1.80    0.13
   5   5 -13    1.73    0.14
   5  -5 -13    1.72    0.14
   5   5 -13    1.89    0.12
  -5  -5  12   40.84    0.54
  -5   5  12   41.24    0.52
   5  -5 -12   41.55    0.56
   5   5 -12   42.53    0.56
   5  -5 -12   41.60    0.54
   5   5 -12   41.45    0.51
  -5  -5  11    7.66    0.24
  -5   5  11    7.87    0.23
   5  -5 -11    7.39    0.24
   5   5 -11    7.46    0.24
   5  -5 -11    7.86    0.24
   5   5 -11    7.45    0.22
  -5  -5  10   11.37    0.28
  -5   5  10   11.37    0.27
   5  -5 -10   10.83    0.32
   5   5 -10   11.47    0.29
   5   5 -10   11.53    0.29
  -5  -5   9    3.33    0.16
  -5   5   9    3.23    0.15
   5  -5  -9    3.59    0.17
   5  -5  -9    3.24    0.17
   5   5  -9    3.42    0.17
   5   5  -9    3.51    0.16
  -5  -5   9    3.33    0.16
  -5  -5   8   30.94    0.46
  -5   5   8   29.54    0.45
   5  -5  -8   30.09    0.48
   5  -5  -8   30.27    0.50
   5   5  -8   30.22    0.47
  -5  -5   8   30.95    0.46
  -5  -5   7   25.39    0.42
   5   5  -7   24.25    0.39
  -5   5   7   25.63    0.41
   5  -5  -7   24.12    0.43
   5  -5  -7   24.40    0.46
  -5   5   7   24.01    0.39
   5   5  -7   25.11    0.42
   5  -5  -7   25.09    0.42
   5   5  -7   24.88    0.41
  -5  -5   7   26.30    0.42
  -5  -5   6    9.72    0.28
   5   5  -6    9.60    0.26
  -5   5   6    9.37    0.27
   5  -5  -6    9.29    0.28
   5  -5  -6    9.48    0.27
   5   5  -6    9.43    0.27
  -5  -5   6    8.72    0.26
  -5  -5   5   17.52    0.38
   5   5  -5   17.50    0.35
  -5   5   5   17.80    0.37
   5  -5  -5   18.51    0.40
  -5  -5   5   17.38    0.37
   5  -5  -5   18.20    0.38
  -5   5   5   17.85    0.34
   5   5  -5   17.46    0.36
   5  -5  -5   17.14    0.37
   5   5  -5   17.95    0.38
  -5  -5   4   16.03    0.35
   5   5  -4   16.42    0.34
  -5   5   4   15.57    0.36
   5  -5  -4   17.00    0.38
  -5  -5   4   17.30    0.39
   5   5  -4   15.78    0.36
  -5   5   4   15.41    0.32
   5   5  -4   15.60    0.34
   5  -5  -4   15.84    0.35
  -5   5   4   16.48    0.33
   5   5  -4   16.64    0.37
  -5  -5   3    0.77    0.09
   5   5  -3    0.62    0.08
  -5   5   3    0.77    0.10
  -5  -5   3    0.69    0.09
   5   5  -3    0.77    0.10
  -5   5   3    0.73    0.08
  -5   5   3    0.73    0.08
   5  -5  -3    0.67    0.09
  -5   5   3    0.63    0.07
   5   5  -3    0.79    0.10
  -5   5   2    0.50    0.08
  -5  -5   2    0.51    0.08
   5   5  -2    0.52    0.07
  -5   5   2    0.54    0.09
   5   5  -2    0.45    0.08
  -5   5   2    0.53    0.08
  -5   5   2    0.45    0.07
   5  -5  -2    0.47    0.08
  -5   5   2    0.46    0.07
   5   5  -2    0.51    0.09
  -5  -5   1   16.87    0.36
  -5   5   1   16.56    0.35
   5   5  -1   15.91    0.32
  -5   5   1   16.28    0.37
  -5   5   1   16.11    0.35
   5   5  -1   16.23    0.35
  -5   5   1   16.33    0.33
   5   5  -1   16.04    0.33
   5  -5  -1   16.46    0.34
  -5   5   1   15.91    0.31
   5   5  -1   16.39    0.35
  -5   5   0   29.28    0.44
   5   5   0   29.23    0.49
  -5   5   0   29.71    0.50
   5   5   0   29.10    0.48
  -5  -5   0   29.90    0.50
  -5   5   0   29.46    0.51
   5   5   0   31.01    0.49
  -5   5   0   29.12    0.44
   5   5   0   29.47    0.44
  -5   5   0   30.20    0.43
   5   5   0   30.28    0.47
  -5   5  -1    0.17    0.06
   5   5   1    0.18    0.08
   5   5   1    0.27    0.09
  -5   5  -1    0.14    0.06
  -5  -5  -1    0.17    0.06
   5   5   1    0.15    0.06
  -5   5  -1    0.10    0.05
  -5  -5  -1    0.18    0.07
   5  -5   1    0.16    0.07
   5   5   1    0.14    0.07
  -5   5  -1    0.09    0.05
  -5   5  -2    4.80    0.18
  -5  -5  -2    4.28    0.19
   5   5   2    4.31    0.18
  -5   5  -2    4.37    0.17
   5   5   2    4.23    0.16
  -5   5  -2    4.32    0.16
  -5   5  -2    4.24    0.18
  -5   5  -3    0.12    0.05
  -5   5  -3    0.12    0.05
  -5  -5  -3    0.11    0.06
   5   5   3    0.08    0.05
  -5   5  -3    0.04    0.05
  -5   5  -3    0.09    0.04
  -5   5  -3    0.12    0.05
   5  -5   4    5.61    0.22
  -5   5  -4    5.52    0.19
  -5   5  -4    5.77    0.21
  -5  -5  -4    5.45    0.22
   5   5   4    5.46    0.20
  -5   5  -4    5.59    0.20
  -5   5  -4    5.56    0.19
  -5   5  -4    5.69    0.21
   5  -5   5    0.66    0.10
   5   5   5    0.62    0.07
  -5   5  -5    0.79    0.09
  -5  -5  -5    0.69    0.09
   5   5   5    0.71    0.08
  -5   5  -5    0.90    0.09
  -5   5  -5    0.70    0.08
  -5   5  -5    0.75    0.08
   5  -5   6    1.65    0.13
   5   5   6    1.65    0.11
  -5  -5  -6    1.78    0.14
   5   5   6    1.58    0.11
  -5   5  -6    1.61    0.12
  -5   5  -6    1.70    0.11
   5  -5   7    2.09    0.14
   5   5   7    2.16    0.12
  -5  -5  -7    1.95    0.14
  -5  -5  -7    2.16    0.14
   5   5   7    2.02    0.12
  -5  -5  -7    2.18    0.14
  -5   5  -7    2.09    0.11
   5  -5   8   19.09    0.44
  -5  -5  -8   19.19    0.43
  -5  -5  -8   19.42    0.45
   5   5   8   18.59    0.39
  -5  -5  -8   19.29    0.43
   5  -5   9    1.69    0.13
  -5  -5  -9    1.79    0.12
  -5  -5  -9    1.81    0.13
  -5  -5  -9    1.68    0.14
   5  -5  10    3.16    0.17
  -5  -5 -10    3.09    0.17
  -5   5 -10    3.13    0.16
  -5  -5 -10    3.26    0.17
   5  -5  11    3.57    0.18
  -5  -5 -11    3.88    0.19
  -5   5 -11    3.92    0.18
  -5  -5 -11    3.97    0.18
   5  -5  12    4.12    0.19
  -5  -5 -12    4.26    0.19
  -5   5 -12    4.59    0.19
  -5  -5 -12    4.29    0.19
  -5  -5 -13    1.08    0.12
  -5   5 -13    1.30    0.12
  -5  -5 -13    1.14    0.12
  -5  -5 -14    6.81    0.24
  -5   5 -14    6.60    0.21
  -5  -5 -14    6.66    0.22
  -5  -5 -15    2.91    0.16
  -5   5 -15    3.04    0.16
  -5  -5 -15    2.91    0.17
  -5  -5 -16    0.96    0.12
  -5   5 -16    0.99    0.12
  -5  -5 -16    1.11    0.12
  -5   5 -17    1.61    0.13
  -5  -5 -17    1.55    0.14
  -5  -7  15    3.34    0.18
   5   7 -15    3.41    0.18
   5  -7 -15    3.51    0.18
  -5  -7  14    2.47    0.16
   5   7 -14    2.52    0.17
   5  -7 -14    2.28    0.16
  -5  -7  13    2.39    0.15
   5   7 -13    2.41    0.15
  -5  -7  12   15.05    0.33
   5   7 -12   15.54    0.34
  -5  -7  11    0.17    0.08
   5   7 -11    0.09    0.10
   5  -7 -11    0.08    0.10
  -5  -7  10    5.82    0.21
   5   7 -10    5.58    0.21
   5  -7 -10    5.68    0.22
  -5  -7   9    2.89    0.16
   5   7  -9    3.01    0.17
   5  -7  -9    3.15    0.17
  -5  -7   8   32.71    0.49
   5   7  -8   32.04    0.49
   5  -7  -8   32.42    0.49
   5   7  -8   32.37    0.47
  -5  -7   7    2.88    0.17
   5   7  -7    2.80    0.16
   5  -7  -7    2.91    0.16
   5   7  -7    2.87    0.16
  -5  -7   6   16.10    0.35
  -5   7   6   15.32    0.32
   5   7  -6   16.80    0.35
   5  -7  -6   16.33    0.35
   5   7  -6   16.18    0.34
  -5  -7   5    8.41    0.26
  -5   7   5    8.07    0.24
   5  -7  -5    9.03    0.26
   5   7  -5    8.83    0.26
  -5  -7   4   15.23    0.34
  -5   7   4   16.00    0.34
  -5  -7   4   15.60    0.34
   5  -7  -4   15.61    0.34
   5   7  -4   15.89    0.34
  -5   7   3    6.98    0.24
  -5  -7   3    6.78    0.23
   5  -7  -3    7.02    0.23
   5   7  -3    6.60    0.22
  -5   7   2    2.40    0.15
  -5  -7   2    2.45    0.15
   5   7  -2    2.32    0.15
  -5   7   1    2.46    0.16
  -5  -7   1    2.49    0.15
  -5   7   1    2.51    0.14
   5  -7  -1    2.49    0.15
   5   7  -1    2.54    0.16
  -5   7   0    2.13    0.13
  -5   7   0    2.08    0.14
  -5   7   0    2.19    0.13
   5  -7   0    2.21    0.14
   5   7   0    2.21    0.15
  -5   7  -1    2.62    0.15
  -5   7  -1    2.77    0.14
   5   7   1    2.64    0.15
  -5   7  -1    2.74    0.15
  -5   7  -2    3.89    0.19
  -5   7  -2    3.92    0.17
  -5   7  -2    3.81    0.17
  -5   7  -3    0.42    0.09
  -5  -7  -3    0.42    0.08
  -5   7  -3    0.37    0.08
  -5  -7  -3    0.42    0.09
  -5   7  -3    0.47    0.08
  -5  -7  -4    1.38    0.12
  -5   7  -4    1.42    0.12
  -5  -7  -4    1.32    0.12
  -5   7  -4    1.37    0.12
  -5  -7  -5    0.47    0.09
  -5   7  -5    0.43    0.08
  -5  -7  -6    0.33    0.08
  -5   7  -6    0.37    0.09
   5  -7   7    0.34    0.09
  -5  -7  -7    0.30    0.09
  -5   7  -7    0.43    0.09
   5  -7   8    0.00    0.08
  -5  -7  -8    0.01    0.07
   5  -7   9    0.00    0.09
  -5  -7  -9    0.09    0.08
   5  -7  10    0.02    0.10
  -5  -7 -10    0.04    0.08
   5  -7  11    2.24    0.16
  -5  -7 -11    2.11    0.15
  -5   7 -11    2.14    0.14
   5  -7  12    1.89    0.15
  -5   7 -12    1.99    0.14
   5  -7  13    2.27    0.17
  -5   7 -13    2.29    0.15
   5  -7  14    6.89    0.25
  -5   7 -14    6.74    0.22
  -5  -9  11    3.23    0.18
   5   9 -11    3.26    0.17
   5  -9 -11    3.54    0.19
  -5  -9  10    0.31    0.10
   5   9 -10    0.34    0.10
   5  -9 -10    0.38    0.12
  -5  -9   9    0.41    0.10
   5   9  -9    0.40    0.10
   5  -9  -9    0.52    0.12
   5   9  -8    0.53    0.10
   5  -9  -8    0.56    0.11
   5   9  -7    0.02    0.09
   5   9  -6   -0.02    0.08
   5   9  -5    0.63    0.10
   5   9  -5    0.66    0.10
   5   9  -4    4.15    0.19
   5  -9  -4    3.96    0.19
   5   9  -4    4.12    0.19
   5   9  -3    5.19    0.20
   5  -9  -3    5.21    0.20
   5   9  -3    5.30    0.21
  -5  -9   2    6.02    0.22
   5  -9  -2    6.29    0.22
   5   9  -2    6.32    0.23
  -5  -9   1    0.69    0.10
   5   9  -1    0.72    0.11
  -5  -9   0    1.61    0.13
   5   9   0    1.57    0.13
  -5  -9  -1    0.37    0.09
   5   9   1    0.22    0.10
  -5  -9  -2    1.90    0.13
   5   9   2    1.85    0.15
  -5  -9  -3    1.14    0.12
   5   9   3    1.15    0.13
   5   9   4    1.62    0.15
  -5  -9  -5    5.43    0.22
  -5   9  -6    2.09    0.16
  -5  -9  -6    2.08    0.16
  -5   9  -7    0.10    0.10
  -5  -9  -7    0.11    0.11
  -5  -9  -8    1.88    0.16
   6   0 -20    1.08    0.12
   6   0 -20    1.10    0.11
   6   0 -19    0.02    0.08
   6   0 -19   -0.02    0.08
   6   0 -18    5.77    0.20
   6   0 -18    5.70    0.20
  -6   0  17    0.06    0.09
   6   0 -17    0.09    0.08
   6   0 -17   -0.02    0.07
  -6   0  16    0.68    0.10
   6   0 -16    0.66    0.10
   6   0 -16    0.69    0.10
  -6   0  15   -0.03    0.08
   6   0 -15    0.02    0.09
   6   0 -15    0.04    0.08
  -6   0  14    0.08    0.08
   6   0 -14    0.02    0.08
   6   0 -14    0.04    0.08
  -6   0  13    0.02    0.08
   6   0 -13    0.00    0.08
  -6   0  12  119.80    1.02
   6   0 -12  120.92    1.02
  -6   0  11   -0.09    0.07
   6   0 -11    0.00    0.06
   6   0 -11    0.07    0.08
   6   0 -11    0.01    0.06
  -6   0  10  127.00    1.29
   6   0 -10  129.08    0.96
   6   0 -10  125.20    1.00
   6   0 -10  127.42    0.97
  -6   0  10  127.14    0.96
  -6   0   9    0.06    0.06
   6   0  -9    0.03    0.06
   6   0  -9   -0.02    0.05
   6   0  -9   -0.03    0.05
  -6   0   9    0.04    0.05
  -6   0   8    0.08    0.05
   6   0  -8    0.15    0.06
   6   0  -8    0.08    0.05
   6   0  -8    0.12    0.05
  -6   0   8    0.16    0.05
  -6   0   7    0.02    0.05
   6   0  -7    0.02    0.04
   6   0  -7    0.04    0.05
   6   0  -7    0.02    0.04
   6   0  -7    0.04    0.05
  -6   0   6    0.15    0.05
   6   0  -6    0.20    0.06
   6   0  -6    0.28    0.06
   6   0  -6    0.18    0.05
   6   0  -6    0.20    0.05
  -6   0   5    0.02    0.03
   6   0  -5    0.02    0.03
   6   0  -5    0.01    0.03
  -6   0   5    0.02    0.03
  -6   0   4  446.55    4.66
   6   0  -4  425.84    4.42
  -6   0   4  428.35    4.62
   6   0  -4  430.83    4.48
  -6   0   4  428.04    4.40
  -6   0   3    0.01    0.03
   6   0  -3    0.02    0.04
   6   0  -3    0.03    0.04
   6   0  -3    0.00    0.03
  -6   0   3    0.02    0.04
   6   0  -2  148.39    1.97
  -6   0   2  141.11    1.72
   6   0  -1    0.01    0.04
  -6   0   1    0.01    0.03
  -6   0   1    0.00    0.03
   6   0   0   40.74    0.69
  -6   0   0   42.35    0.70
  -6   0   0   42.18    0.67
  -6   0  -1    0.01    0.03
   6   0   1    0.01    0.04
  -6   0  -1    0.03    0.04
   6   0   2  804.37    8.22
  -6   0  -2  777.05    7.88
   6   0   2  758.10    7.60
   6   0   3    0.37    0.09
  -6   0  -3    0.35    0.09
  -6   0  -3    0.31    0.07
   6   0   3    0.31    0.07
  -6   0  -3    0.35    0.08
   6   0   3    0.35    0.08
   6   0   4   17.22    0.35
  -6   0  -4   16.07    0.32
  -6   0  -4   16.95    0.33
   6   0   4   16.39    0.31
  -6   0  -4   16.68    0.34
   6   0   4   15.96    0.32
   6   0   5    0.17    0.06
  -6   0  -5    0.21    0.07
  -6   0  -5    0.20    0.06
   6   0   5    0.15    0.06
  -6   0  -5    0.24    0.07
   6   0   5    0.13    0.06
   6   0   6  101.78    1.17
  -6   0  -6   96.06    1.09
  -6   0  -6  100.59    1.16
   6   0   6  105.48    1.15
  -6   0  -6   97.25    1.12
   6   0   6   97.42    1.09
   6   0   7    0.05    0.05
  -6   0  -7    0.04    0.04
  -6   0  -7    0.03    0.04
   6   0   7    0.03    0.05
  -6   0  -7    0.02    0.04
   6   0   7    0.03    0.04
   6   0   8    6.30    0.22
  -6   0  -8    6.66    0.22
  -6   0  -8    6.63    0.22
   6   0   8    6.40    0.21
   6   0   9    0.04    0.05
  -6   0  -9    0.09    0.06
  -6   0  -9    0.05    0.05
   6   0   9    0.01    0.05
   6   0  10   20.74    0.43
  -6   0 -10   20.89    0.42
   6   0  10   20.95    0.40
   6   0  11    0.03    0.06
  -6   0 -11   -0.02    0.06
  -6   0 -11    0.04    0.06
   6   0  11    0.00    0.05
   6   0  12   31.19    0.58
  -6   0 -12   30.68    0.56
  -6   0 -12   29.50    0.55
   6   0  12   29.12    0.52
   6   0  13   -0.03    0.06
  -6   0 -13    0.07    0.07
  -6   0 -13    0.03    0.05
   6   0  14   19.20    0.37
  -6   0 -14   19.28    0.35
  -6   0 -14   18.95    0.36
   6   0  15    0.00    0.08
  -6   0 -15    0.00    0.08
   6   0  16    7.77    0.24
  -6   0 -16    7.89    0.23
   6   0  17   -0.02    0.09
  -6   0 -17    0.02    0.08
   6   0  18    2.51    0.16
  -6   0 -18    2.44    0.15
   6   0  19   -0.06    0.11
  -6   0 -19    0.02    0.11
   6  -2 -20    0.71    0.10
   6   2 -20    0.71    0.12
  -6  -2  19    2.08    0.15
  -6   2  19    2.01    0.15
   6  -2 -19    1.93    0.13
   6   2 -19    2.12    0.15
   6  -2 -19    2.01    0.14
  -6  -2  18    4.22    0.18
  -6   2  18    4.31    0.19
   6  -2 -18    4.55    0.18
   6   2 -18    4.16    0.18
   6  -2 -18    4.22    0.18
  -6   2  17    1.51    0.13
   6  -2 -17    1.47    0.12
   6   2 -17    1.56    0.13
   6  -2 -17    1.65    0.13
   6   2 -17    1.65    0.13
  -6   2  16    0.11    0.08
   6  -2 -16    0.14    0.08
   6  -2 -16    0.11    0.08
   6   2 -16    0.10    0.08
  -6   2  15    2.12    0.14
   6  -2 -15    1.97    0.13
   6  -2 -15    2.04    0.14
   6   2 -15    2.19    0.14
  -6  -2  14    0.07    0.08
  -6   2  14    0.01    0.07
   6  -2 -14    0.05    0.07
   6   2 -14    0.03    0.08
   6  -2 -14   -0.02    0.08
   6   2 -14    0.06    0.07
  -6  -2  13    0.35    0.10
  -6   2  13    0.75    0.12
   6  -2 -13    0.27    0.07
   6  -2 -13    0.25    0.08
   6   2 -13    0.28    0.10
   6  -2 -13    0.28    0.10
   6   2 -13    0.27    0.09
  -6  -2  12  113.23    1.61
  -6   2  12  118.48    1.61
   6  -2 -12  122.56    1.68
   6   2 -12  118.45    1.65
  -6   2  12  120.99    1.66
   6  -2 -12  121.50    1.64
   6   2 -12  120.44    1.71
  -6   2  11   29.00    0.52
   6  -2 -11   29.30    0.52
   6   2 -11   30.68    0.55
  -6   2  11   29.93    0.53
   6  -2 -11   29.79    0.54
   6   2 -11   28.60    0.51
  -6  -2  11   27.04    0.47
  -6   2  10    0.30    0.07
   6  -2 -10    0.26    0.06
   6  -2 -10    0.29    0.06
   6   2 -10    0.24    0.07
  -6   2  10    0.28    0.06
   6  -2 -10    0.27    0.07
   6   2 -10    0.28    0.07
  -6  -2  10    0.30    0.07
  -6   2   9   13.02    0.30
   6   2  -9   12.83    0.28
   6  -2  -9   12.71    0.29
   6   2  -9   12.28    0.29
   6  -2  -9   12.56    0.28
  -6   2   9   13.25    0.30
   6  -2  -9   12.61    0.29
   6   2  -9   12.67    0.28
  -6  -2   9   11.79    0.27
   6   2  -8    0.20    0.06
  -6   2   8    0.21    0.07
   6  -2  -8    0.26    0.07
   6  -2  -8    0.20    0.06
  -6   2   8    0.20    0.06
   6  -2  -8    0.27    0.07
  -6   2   8    0.20    0.06
   6   2  -8    0.21    0.07
  -6  -2   8    0.20    0.07
   6   2  -7   12.36    0.30
  -6   2   7   12.11    0.30
   6  -2  -7   12.32    0.31
   6  -2  -7   12.10    0.31
   6  -2  -7   12.11    0.30
   6  -2  -7   12.28    0.31
  -6   2   7   12.37    0.29
   6   2  -7   11.60    0.29
  -6  -2   7   12.24    0.30
  -6  -2   6   19.30    0.39
   6   2  -6   19.56    0.37
  -6   2   6   19.82    0.39
   6  -2  -6   20.16    0.40
  -6  -2   6   19.56    0.41
   6  -2  -6   19.82    0.40
   6  -2  -6   19.96    0.39
   6  -2  -6   19.01    0.39
  -6   2   6   19.77    0.37
   6   2  -6   20.49    0.39
  -6  -2   6   20.52    0.39
  -6  -2   5    5.64    0.20
   6   2  -5    6.18    0.19
  -6   2   5    5.87    0.20
   6  -2  -5    5.84    0.21
  -6  -2   5    6.20    0.22
   6  -2  -5    5.53    0.20
   6  -2  -5    5.95    0.19
  -6   2   5    5.96    0.19
  -6  -2   5    6.08    0.20
  -6  -2   4   26.31    0.49
   6   2  -4   25.26    0.46
  -6   2   4   26.15    0.50
   6  -2  -4   23.87    0.48
  -6  -2   4   25.18    0.49
   6   2  -4   26.61    0.51
  -6   2   4   26.10    0.46
   6   2  -4   24.56    0.46
  -6  -2   3    9.43    0.25
   6   2  -3    9.75    0.24
  -6   2   3    9.00    0.26
   6  -2  -3    8.31    0.25
   6   2  -3   10.03    0.28
  -6   2   3    9.43    0.24
   6   2  -3    9.31    0.25
  -6  -2   2   11.99    0.28
   6   2  -2   11.37    0.26
  -6   2   2   11.96    0.31
  -6  -2   2   12.16    0.31
   6   2  -2   11.19    0.29
  -6   2   2   12.07    0.31
   6  -2  -2   11.78    0.27
  -6   2   2   12.46    0.27
   6   2  -2   11.86    0.29
  -6  -2   1    0.06    0.03
   6   2  -1    0.10    0.04
  -6   2   1    0.12    0.04
  -6  -2   1    0.09    0.05
   6   2  -1    0.11    0.05
  -6   2   1    0.12    0.04
   6  -2  -1    0.09    0.04
   6  -2  -1    0.08    0.04
  -6   2   1    0.10    0.04
   6   2  -1    0.12    0.04
  -6  -2   1    0.12    0.05
  -6  -2   0    7.71    0.22
   6   2   0    7.28    0.24
  -6   2   0    8.10    0.26
   6   2   0    7.53    0.24
  -6   2   0    7.79    0.22
   6  -2   0    7.41    0.22
   6   2   0    7.56    0.23
   6  -2   0    7.55    0.22
  -6   2   0    7.52    0.21
   6   2   0    7.38    0.23
   6   2   1   11.80    0.30
   6   2   1   11.71    0.30
  -6   2  -2    8.27    0.24
  -6  -2  -2    8.27    0.24
  -6  -2  -2    8.37    0.27
   6   2   2    8.78    0.25
  -6   2  -2    8.41    0.23
   6  -2   2    8.19    0.23
  -6  -2  -2    8.11    0.25
  -6   2  -2    8.05    0.21
   6  -2   3   78.62    1.09
   6   2   3   80.17    1.09
  -6   2  -3   80.49    1.06
  -6  -2  -3   79.04    1.05
   6   2   3   80.18    1.06
  -6   2  -3   82.98    1.11
   6  -2   3   79.19    1.04
   6  -2   4   58.45    0.81
   6   2   4   58.45    0.79
  -6   2  -4   58.78    0.77
  -6  -2  -4   56.78    0.75
  -6  -2  -4   55.94    0.79
   6   2   4   59.03    0.76
  -6   2  -4   59.11    0.78
   6  -2   4   57.72    0.77
  -6  -2  -4   60.50    0.82
   6   2   4   57.10    0.74
   6  -2   5   24.92    0.47
   6   2   5   26.13    0.47
  -6   2  -5   25.95    0.45
  -6  -2  -5   24.91    0.44
  -6  -2  -5   24.33    0.47
   6   2   5   24.13    0.42
  -6   2  -5   24.04    0.43
   6  -2   5   23.72    0.43
  -6  -2  -5   25.68    0.47
  -6   2  -5   24.99    0.47
   6   2   5   26.14    0.46
   6  -2   6   18.19    0.41
   6   2   6   17.51    0.39
  -6   2  -6   16.76    0.37
  -6  -2  -6   18.15    0.38
  -6  -2  -6   17.92    0.40
   6   2   6   18.35    0.37
  -6   2  -6   17.65    0.38
   6  -2   6   16.38    0.36
  -6  -2  -6   18.08    0.40
  -6   2  -6   17.83    0.39
   6   2   6   17.76    0.37
   6  -2   6   16.53    0.36
   6  -2   7   55.86    0.90
   6   2   7   56.93    0.89
  -6  -2  -7   54.97    0.86
  -6  -2  -7   56.04    0.89
   6   2   7   57.54    0.87
  -6   2  -7   57.64    0.90
  -6  -2  -7   55.78    0.89
  -6   2  -7   59.16    0.92
   6   2   7   56.10    0.87
   6  -2   8   16.21    0.35
   6   2   8   16.91    0.33
  -6  -2  -8   16.43    0.32
  -6  -2  -8   16.35    0.34
  -6   2  -8   17.05    0.33
   6   2   8   17.43    0.32
  -6  -2  -8   17.05    0.35
  -6   2  -8   17.27    0.33
   6   2   8   16.94    0.32
   6  -2   9    6.92    0.23
   6   2   9    6.76    0.22
  -6  -2  -9    6.82    0.21
  -6  -2  -9    7.04    0.23
  -6   2  -9    6.95    0.22
  -6  -2  -9    7.07    0.23
  -6   2  -9    6.88    0.22
   6   2   9    6.89    0.21
   6  -2   9    6.70    0.20
   6  -2  10    9.80    0.27
   6   2  10    9.68    0.25
  -6  -2 -10    9.81    0.24
  -6  -2 -10    9.41    0.26
  -6   2 -10    9.80    0.25
  -6  -2 -10    9.32    0.26
  -6   2 -10    9.85    0.25
   6  -2  10    9.82    0.26
   6  -2  11    6.12    0.21
   6   2  11    6.17    0.21
  -6  -2 -11    6.17    0.20
  -6  -2 -11    6.17    0.21
  -6   2 -11    6.03    0.20
  -6  -2 -11    6.19    0.21
  -6   2 -11    6.51    0.21
   6  -2  11    6.22    0.20
   6  -2  12   15.40    0.37
   6   2  12   15.04    0.36
  -6  -2 -12   14.73    0.36
  -6   2 -12   14.65    0.35
  -6  -2 -12   14.92    0.36
  -6   2 -12   15.27    0.36
   6  -2  12   14.55    0.33
   6  -2  13    0.28    0.09
   6   2  13    0.45    0.09
  -6  -2 -13    0.30    0.08
  -6   2 -13    0.20    0.08
  -6  -2 -13    0.38    0.09
   6  -2  14   31.36    0.48
   6   2  14   31.72    0.47
  -6  -2 -14   31.00    0.46
  -6  -2 -14   31.08    0.46
   6  -2  15    0.15    0.10
   6   2  15    0.05    0.08
  -6  -2 -15    0.07    0.08
  -6  -2 -15    0.15    0.08
   6  -2  16    5.18    0.21
   6   2  16    5.00    0.20
  -6  -2 -16    4.83    0.20
  -6  -2 -16    4.70    0.19
   6  -2  17    0.65    0.11
   6   2  17    0.70    0.10
  -6  -2 -17    0.67    0.11
  -6  -2 -17    0.67    0.11
   6  -2  18    0.44    0.12
  -6  -2 -18    0.53    0.11
  -6   2 -18    0.42    0.10
  -6  -4  18    0.18    0.10
   6  -4 -18    0.10    0.09
  -6  -4  17    0.40    0.10
  -6   4  17    0.49    0.10
   6  -4 -17    0.34    0.11
  -6  -4  16    3.88    0.18
  -6   4  16    3.86    0.18
  -6  -4  15    0.66    0.10
  -6   4  15    0.67    0.10
   6  -4 -15    0.71    0.09
   6  -4 -15    0.72    0.11
   6   4 -15    0.57    0.09
  -6  -4  14    0.90    0.11
  -6   4  14    1.00    0.11
   6  -4 -14    1.06    0.11
   6  -4 -14    1.02    0.12
   6   4 -14    0.93    0.10
  -6  -4  13   45.45    0.58
  -6   4  13   43.89    0.58
   6  -4 -13   45.32    0.55
   6   4 -13   42.56    0.59
   6  -4 -13   45.77    0.57
   6   4 -13   44.36    0.53
  -6  -4  12   19.20    0.37
  -6   4  12   19.48    0.36
   6  -4 -12   19.19    0.36
   6   4 -12   19.31    0.40
   6  -4 -12   19.14    0.37
   6   4 -12   19.15    0.34
  -6  -4  11   55.00    0.88
  -6   4  11   55.81    0.88
   6  -4 -11   57.62    0.91
   6   4 -11   55.76    0.88
   6  -4 -11   54.38    0.87
   6   4 -11   55.72    0.87
  -6  -4  10   29.71    0.56
  -6   4  10   29.18    0.54
   6  -4 -10   29.11    0.55
   6   4 -10   30.04    0.58
   6  -4 -10   29.71    0.56
   6   4 -10   26.76    0.50
  -6  -4   9   25.45    0.42
  -6   4   9   25.09    0.40
   6  -4  -9   24.22    0.42
   6  -4  -9   26.08    0.44
   6   4  -9   25.54    0.42
  -6   4   9   23.39    0.39
   6   4  -9   25.79    0.40
  -6  -4   9   24.70    0.41
  -6  -4   8    1.67    0.12
   6   4  -8    1.61    0.11
  -6   4   8    1.64    0.11
   6  -4  -8    1.69    0.12
   6  -4  -8    1.56    0.11
  -6   4   8    1.65    0.11
   6   4  -8    1.61    0.12
  -6  -4   8    1.73    0.12
  -6  -4   7    1.98    0.12
   6   4  -7    2.06    0.12
  -6   4   7    1.94    0.12
   6  -4  -7    2.01    0.13
   6  -4  -7    2.00    0.13
  -6   4   7    1.94    0.12
   6   4  -7    1.99    0.13
  -6  -4   7    1.86    0.12
  -6  -4   6    1.86    0.12
   6   4  -6    1.84    0.11
  -6   4   6    1.86    0.12
   6  -4  -6    1.96    0.13
   6   4  -6    2.07    0.13
   6  -4  -6    2.02    0.14
   6  -4  -6    1.84    0.12
  -6   4   6    1.83    0.12
   6   4  -6    1.85    0.12
  -6  -4   6    1.96    0.12
  -6  -4   5   64.63    0.98
   6   4  -5   62.41    0.97
  -6   4   5   63.66    0.99
   6  -4  -5   65.13    1.03
   6   4  -5   63.12    0.99
   6  -4  -5   66.41    1.02
  -6   4   5   65.43    0.98
   6   4  -5   65.43    1.02
  -6  -4   5   62.58    0.97
  -6  -4   4    1.44    0.11
   6   4  -4    1.37    0.10
  -6   4   4    1.50    0.12
   6  -4  -4    1.61    0.12
   6   4  -4    1.46    0.11
   6  -4  -4    1.52    0.11
  -6   4   4    1.44    0.10
   6   4  -4    1.48    0.11
  -6  -4   4    1.61    0.12
  -6  -4   3   34.33    0.59
   6   4  -3   33.58    0.56
  -6   4   3   33.83    0.61
   6  -4  -3   35.76    0.64
   6   4  -3   33.69    0.61
   6   4  -3   32.98    0.57
   6  -4  -3   33.11    0.58
  -6   4   3   33.89    0.57
   6   4  -3   33.06    0.60
  -6  -4   2   12.32    0.31
   6   4  -2   11.74    0.29
  -6   4   2   12.64    0.34
   6   4  -2   11.97    0.32
  -6   4   2   11.40    0.32
   6   4  -2   11.93    0.31
   6  -4  -2   11.87    0.31
  -6   4   2   11.51    0.29
   6   4  -2   11.18    0.31
  -6  -4   1    0.84    0.09
   6   4  -1    0.83    0.08
  -6   4   1    0.83    0.10
  -6  -4   1    0.82    0.09
  -6   4   1    0.81    0.09
   6   4  -1    0.81    0.10
  -6   4   1    0.78    0.08
   6  -4  -1    0.82    0.08
  -6   4   1    0.77    0.08
   6   4  -1    0.97    0.10
  -6   4   0   14.15    0.35
   6   4   0   13.59    0.32
  -6   4   0   14.16    0.37
  -6   4   0   14.90    0.36
  -6  -4   0   14.26    0.37
   6   4   0   14.51    0.36
  -6   4   0   13.84    0.33
   6   4   0   13.94    0.34
   6  -4   0   14.14    0.34
  -6   4   0   13.87    0.32
   6   4   0   14.20    0.35
  -6   4  -1    0.24    0.08
  -6   4  -1    0.16    0.06
  -6  -4  -1    0.16    0.08
   6   4   1    0.24    0.07
  -6   4  -1    0.13    0.06
   6   4   1    0.16    0.07
  -6   4  -1    0.14    0.05
  -6   4  -2   25.90    0.49
  -6   4  -2   25.59    0.49
  -6  -4  -2   26.41    0.53
   6   4   2   26.50    0.51
   6  -4   2   25.65    0.49
  -6  -4  -2   26.23    0.51
   6   4   2   26.65    0.49
  -6   4  -2   25.08    0.47
  -6   4  -3  147.47    1.96
  -6  -4  -3  149.19    2.06
   6   4   3  146.40    2.03
  -6  -4  -3  155.38    2.08
   6   4   3  155.05    2.04
  -6   4  -3  148.44    2.10
  -6   4  -3  149.36    2.02
   6  -4   4   18.57    0.44
  -6   4  -4   18.25    0.40
  -6  -4  -4   19.88    0.47
   6   4   4   18.65    0.41
   6  -4   4   18.64    0.41
   6   4   4   17.53    0.38
  -6   4  -4   18.22    0.39
  -6   4  -4   19.04    0.41
   6  -4   5    0.49    0.08
   6   4   5    0.57    0.08
  -6   4  -5    0.52    0.08
  -6  -4  -5    0.52    0.08
   6   4   5    0.49    0.07
   6  -4   5    0.47    0.07
  -6   4  -5    0.43    0.06
  -6   4  -5    0.49    0.07
   6   4   6    0.33    0.06
  -6  -4  -6    0.32    0.06
  -6  -4  -6    0.36    0.07
   6   4   6    0.31    0.06
  -6   4  -6    0.25    0.06
   6  -4   6    0.24    0.06
  -6  -4  -6    0.33    0.07
  -6   4  -6    0.28    0.05
  -6   4  -6    0.26    0.05
   6   4   7   28.66    0.52
  -6  -4  -7   28.78    0.51
  -6  -4  -7   29.22    0.56
   6   4   7   28.57    0.49
  -6   4  -7   28.23    0.58
  -6  -4  -7   28.97    0.53
  -6   4  -7   29.21    0.51
  -6   4  -7   28.12    0.48
   6   4   8   11.04    0.27
  -6  -4  -8   10.63    0.26
  -6  -4  -8   10.95    0.30
   6   4   8   10.41    0.24
  -6   4  -8   11.11    0.28
  -6  -4  -8   11.08    0.29
  -6   4  -8   10.65    0.71
   6   4   9    8.48    0.24
  -6  -4  -9    8.19    0.23
  -6  -4  -9    8.75    0.28
  -6   4  -9    8.21    0.24
  -6  -4  -9    8.42    0.25
   6   4  10    3.52    0.16
  -6  -4 -10    3.66    0.16
  -6  -4 -10    3.42    0.18
  -6   4 -10    3.73    0.17
  -6  -4 -10    3.54    0.17
   6  -4  10    3.45    0.16
   6  -4  11   12.18    0.30
   6   4  11   12.83    0.29
  -6  -4 -11   13.30    0.28
  -6  -4 -11   13.06    0.32
  -6   4 -11   12.71    0.29
  -6  -4 -11   12.77    0.31
   6  -4  12    0.23    0.08
  -6  -4 -12    0.27    0.08
  -6   4 -12    0.28    0.09
  -6  -4 -12    0.26    0.08
   6  -4  13   20.76    0.40
  -6  -4 -13   20.19    0.39
  -6   4 -13   20.15    0.36
  -6  -4 -13   20.28    0.39
   6  -4  14    7.97    0.26
  -6  -4 -14    7.65    0.25
  -6   4 -14    7.68    0.23
  -6  -4 -14    8.06    0.25
   6  -4  15    2.44    0.16
  -6  -4 -15    2.33    0.15
  -6   4 -15    2.39    0.15
  -6  -4 -15    2.44    0.15
   6  -4  16    0.14    0.10
  -6  -4 -16    0.15    0.10
  -6   4 -16    0.04    0.09
  -6  -4 -16    0.08    0.09
   6  -4  17    2.07    0.15
  -6  -4 -17    1.93    0.14
  -6   4 -17    2.06    0.15
  -6  -4 -17    1.85    0.14
  -6  -6  16    4.75    0.20
   6   6 -16    4.90    0.20
   6  -6 -16    4.63    0.19
  -6  -6  15    0.62    0.11
   6   6 -15    0.57    0.12
   6  -6 -15    0.58    0.11
  -6  -6  14    0.16    0.10
   6   6 -14    0.07    0.10
   6  -6 -14    0.05    0.10
  -6  -6  13   52.35    0.61
   6   6 -13   53.30    0.61
   6  -6 -13   49.49    0.60
  -6  -6  12   12.21    0.30
   6   6 -12   12.42    0.30
   6   6 -12   11.40    0.26
  -6  -6  11   26.26    0.44
  -6   6  11   26.43    0.42
   6   6 -11   26.71    0.43
   6   6 -11   26.94    0.40
  -6  -6  10    0.31    0.09
  -6   6  10    0.34    0.08
   6   6 -10    0.34    0.10
   6  -6 -10    0.37    0.10
   6   6 -10    0.45    0.09
  -6  -6   9    0.00    0.07
  -6   6   9    0.03    0.06
   6   6  -9    0.10    0.09
   6  -6  -9    0.05    0.09
  -6  -6   8    9.82    0.27
  -6   6   8    9.40    0.25
   6  -6  -8    9.72    0.27
   6   6  -8    9.88    0.27
   6  -6  -8    9.48    0.27
   6   6  -8    9.85    0.25
  -6  -6   7    1.52    0.12
  -6   6   7    1.52    0.12
   6  -6  -7    1.44    0.12
   6   6  -7    1.54    0.13
   6  -6  -7    1.53    0.13
   6   6  -7    1.44    0.12
  -6  -6   6    0.04    0.07
   6   6  -6    0.07    0.05
  -6   6   6    0.15    0.07
   6  -6  -6    0.14    0.07
  -6  -6   6    0.11    0.08
   6  -6  -6    0.07    0.08
   6   6  -6    0.18    0.08
  -6  -6   5   43.50    0.74
   6   6  -5   43.41    0.70
  -6   6   5   44.31    0.74
  -6  -6   5   43.36    0.74
   6  -6  -5   44.26    0.74
   6   6  -5   43.23    0.73
  -6  -6   4    0.44    0.08
   6   6  -4    0.46    0.07
  -6   6   4    0.43    0.09
  -6  -6   4    0.49    0.09
  -6   6   4    0.37    0.07
   6  -6  -4    0.50    0.09
   6   6  -4    0.42    0.10
  -6   6   3    9.95    0.27
  -6  -6   3   10.14    0.27
   6   6  -3    9.59    0.24
  -6   6   3    9.86    0.28
  -6  -6   3   10.01    0.28
  -6   6   3    9.99    0.26
   6  -6  -3    9.82    0.27
   6   6  -3    9.47    0.26
  -6  -6   2    0.16    0.07
  -6   6   2    0.20    0.07
   6   6  -2    0.14    0.06
  -6   6   2    0.25    0.08
  -6  -6   2    0.16    0.08
  -6   6   2    0.19    0.06
  -6   6   2    0.12    0.06
   6  -6  -2    0.15    0.08
  -6   6   2    0.13    0.06
   6   6  -2    0.23    0.08
  -6   6   1   13.49    0.33
   6   6  -1   13.18    0.31
  -6   6   1   13.92    0.37
  -6   6   1   13.07    0.34
  -6   6   1   12.98    0.32
   6  -6  -1   13.21    0.34
  -6   6   1   13.19    0.31
   6   6  -1   13.39    0.34
  -6   6   0    0.15    0.07
   6   6   0    0.11    0.05
   6   6   0    0.15    0.06
  -6   6   0    0.15    0.08
  -6   6   0    0.15    0.06
   6   6   0    0.10    0.07
  -6   6   0    0.11    0.06
  -6   6   0    0.06    0.06
   6   6   0    0.23    0.09
  -6   6  -1    3.86    0.16
  -6   6  -1    4.11    0.19
  -6  -6  -1    3.95    0.18
  -6   6  -1    4.13    0.18
   6   6   1    3.95    0.18
  -6   6  -1    3.86    0.16
   6  -6   1    3.93    0.17
  -6   6  -1    3.75    0.15
   6   6   1    4.13    0.19
  -6   6  -2    8.91    0.27
  -6  -6  -2    9.00    0.27
   6   6   2    8.46    0.25
  -6   6  -2    9.08    0.25
  -6  -6  -2    8.70    0.26
  -6   6  -2    8.17    0.23
  -6   6  -2    9.14    0.26
  -6  -6  -3   11.33    0.30
   6   6   3   11.51    0.28
  -6   6  -3   11.42    0.27
  -6   6  -3   11.14    0.26
  -6   6  -3   11.62    0.29
  -6   6  -4    4.37    0.18
  -6  -6  -4    4.36    0.20
   6   6   4    4.43    0.18
  -6   6  -4    4.50    0.18
  -6   6  -4    4.35    0.18
  -6  -6  -5   13.95    0.37
   6   6   5   13.75    0.33
  -6  -6  -5   13.26    0.35
  -6   6  -5   14.01    0.34
   6  -6   6    1.22    0.12
  -6  -6  -6    1.15    0.11
   6  -6   7    9.99    0.28
  -6  -6  -7    9.90    0.29
   6  -6   8    4.25    0.19
  -6  -6  -8    4.54    0.20
   6  -6   9    1.17    0.12
  -6  -6  -9    1.24    0.12
  -6   6  -9    1.17    0.11
   6  -6  10    4.71    0.20
  -6  -6 -10    4.32    0.20
  -6   6 -10    4.40    0.18
   6  -6  11   13.97    0.33
  -6  -6 -11   14.26    0.34
  -6   6 -11   13.98    0.31
  -6  -6 -11   14.19    0.33
   6  -6  12    0.53    0.11
  -6  -6 -12    0.58    0.11
  -6   6 -12    0.64    0.11
  -6  -6 -12    0.59    0.12
   6  -6  13   18.07    0.38
  -6  -6 -13   17.69    0.38
  -6   6 -13   17.31    0.34
  -6  -6 -13   17.69    0.37
   6  -6  14   -0.02    0.10
  -6  -6 -14    0.02    0.08
  -6   6 -14    0.02    0.10
  -6  -6 -14    0.05    0.09
   6  -6  15    2.09    0.16
  -6   6 -15    2.14    0.14
  -6  -6 -15    2.34    0.16
  -6  -8  13    5.42    0.21
   6   8 -13    5.38    0.21
   6  -8 -13    5.40    0.22
  -6  -8  12   12.68    0.31
   6   8 -12   12.69    0.31
   6  -8 -12   12.51    0.30
  -6  -8  11    6.05    0.23
   6   8 -11    5.97    0.22
   6  -8 -11    6.19    0.23
  -6  -8  10    0.06    0.09
   6   8 -10    0.04    0.09
   6  -8 -10   -0.01    0.09
  -6  -8   9    0.34    0.09
   6   8  -9    0.38    0.10
   6  -8  -9    0.38    0.11
  -6  -8   8   11.96    0.31
   6   8  -8   12.68    0.30
   6  -8  -8   12.03    0.30
   6   8  -8   11.75    0.27
  -6  -8   7    0.10    0.08
   6   8  -7    0.15    0.09
   6  -8  -7    0.18    0.10
   6   8  -7    0.18    0.08
  -6  -8   6    0.91    0.11
   6   8  -6    0.96    0.12
   6  -8  -6    0.97    0.12
   6   8  -6    0.95    0.11
  -6  -8   5    3.84    0.18
   6   8  -5    3.99    0.19
   6  -8  -5    3.86    0.18
   6   8  -5    3.84    0.18
  -6  -8   4    2.62    0.15
   6   8  -4    2.65    0.15
  -6  -8   3    0.33    0.08
   6   8  -3    0.35    0.10
  -6   8   2    0.27    0.08
  -6  -8   2    0.27    0.09
   6  -8  -2    0.27    0.08
   6   8  -2    0.19    0.09
  -6   8   1    0.77    0.11
  -6  -8   1    0.66    0.09
   6  -8  -1    0.70    0.10
   6   8  -1    0.66    0.10
  -6   8   0    0.04    0.07
  -6  -8   0   -0.01    0.07
   6  -8   0   -0.01    0.08
   6   8   0    0.00    0.08
  -6   8  -1    0.41    0.09
   6   8   1    0.38    0.10
  -6   8  -1    0.45    0.09
  -6   8  -2    0.07    0.08
   6   8   2    0.29    0.10
  -6   8  -3    4.40    0.20
   6   8   3    4.44    0.20
  -6   8  -4    8.16    0.26
  -6  -8  -4    7.75    0.26
  -6  -8  -4    8.22    0.26
  -6   8  -5    1.06    0.12
  -6  -8  -5    1.00    0.12
  -6  -8  -5    1.04    0.13
  -6  -8  -6    6.17    0.23
  -6  -8  -6    6.24    0.23
  -6  -8  -7    3.59    0.18
  -6  -8  -8    6.49    0.23
  -6   8  -9    3.00    0.16
  -6  -8  -9    3.02    0.17
  -6   8 -10    1.11    0.11
  -6  -8 -10    1.11    0.13
   6  -8  11    3.63    0.20
  -6   8 -11    3.61    0.17
  -6  -8 -11    4.03    0.20
   6  -8  12    0.35    0.12
  -6   8 -12    0.46    0.10
   6  10  -7    0.55    0.11
   6 -10  -6    1.27    0.13
   6 -10  -5    0.21    0.09
   6 -10  -4    0.95    0.12
   6 -10  -3    4.50    0.20
   6  10  -3    4.39    0.19
   6  10  -2    1.41    0.20
  -6 -10   1    0.45    0.10
   6  10  -1    0.47    0.11
  -6 -10   0    0.04    0.08
   6  10   0   -0.05    0.10
   6  10   1    0.24    0.11
   6  10   2    0.84    0.13
   6  10   3    0.32    0.12
   6  10   4    0.21    0.11
   6  10   5    5.59    0.23
   6  10   6    1.33    0.15
  -7  -1  20   -0.06    0.09
   7  -1 -20   -0.05    0.08
   7   1 -20   -0.04    0.08
   7  -1 -20    0.00    0.09
  -7   1  19    0.05    0.09
   7  -1 -19    0.06    0.07
   7   1 -19    0.12    0.09
   7  -1 -19    0.00    0.08
   7   1 -19    0.10    0.09
  -7   1  18    2.10    0.14
   7  -1 -18    2.17    0.14
   7   1 -18    2.08    0.14
   7  -1 -18    1.95    0.14
   7   1 -18    2.08    0.13
  -7  -1  17    0.14    0.09
  -7   1  17    0.01    0.09
   7  -1 -17    0.03    0.08
   7   1 -17   -0.01    0.09
   7  -1 -17    0.07    0.09
   7   1 -17    0.03    0.08
  -7  -1  16    2.78    0.16
  -7   1  16    2.64    0.16
   7  -1 -16    2.68    0.14
   7   1 -16    2.73    0.16
   7  -1 -16    2.66    0.16
   7   1 -16    2.61    0.15
  -7  -1  15    4.84    0.20
  -7   1  15    4.52    0.20
   7  -1 -15    5.01    0.19
   7  -1 -15    4.88    0.19
   7   1 -15    4.97    0.19
  -7  -1  14    7.24    0.23
  -7   1  14    6.55    0.22
   7  -1 -14    6.73    0.21
   7  -1 -14    6.69    0.23
   7   1 -14    6.73    0.22
  -7  -1  13  200.39    2.60
  -7   1  13  196.54    2.53
   7  -1 -13  197.91    2.61
   7   1 -13  189.55    2.47
   7  -1 -13  193.88    2.51
   7   1 -13  190.51    2.50
  -7  -1  12   14.68    0.32
  -7   1  12   15.15    0.32
   7  -1 -12   14.76    0.32
   7  -1 -12   14.87    0.32
   7   1 -12   14.54    0.32
   7  -1 -12   14.93    0.32
   7   1 -12   14.86    0.32
  -7  -1  11  113.77    1.42
  -7   1  11  112.50    1.43
   7  -1 -11  113.73    1.44
   7   1 -11  112.55    1.42
   7  -1 -11  113.31    1.47
   7   1 -11  110.23    1.37
  -7  -1  10   36.73    0.64
  -7   1  10   36.79    0.57
   7  -1 -10   38.50    0.58
   7   1 -10   38.15    0.58
   7   1 -10   37.32    0.57
   7  -1 -10   37.42    0.58
   7   1 -10   38.43    0.57
  -7  -1   9    1.52    0.11
  -7   1   9    1.56    0.11
   7   1  -9    1.49    0.10
   7  -1  -9    1.68    0.11
   7  -1  -9    1.60    0.12
   7   1  -9    1.53    0.11
   7  -1  -9    1.45    0.11
   7   1  -9    1.57    0.12
   7  -1  -9    1.58    0.11
   7   1  -9    1.68    0.11
  -7  -1   8   26.04    0.51
  -7   1   8   28.45    0.52
   7   1  -8   27.87    0.50
   7  -1  -8   25.29    0.47
   7  -1  -8   29.13    0.54
   7   1  -8   28.52    0.53
   7  -1  -8   28.31    0.53
   7   1  -8   27.90    0.52
   7  -1  -8   28.12    0.51
   7   1  -8   28.22    0.51
  -7   1   7  133.61    1.43
   7   1  -7  138.49    1.42
   7  -1  -7  134.05    1.44
   7  -1  -7  129.96    1.50
   7   1  -7  126.61    1.42
   7  -1  -7  127.28    1.40
  -7   1   7  130.19    1.33
   7   1  -7  131.06    1.42
  -7   1   6   10.40    0.26
   7   1  -6   10.51    0.25
  -7  -1   6   10.29    0.27
   7  -1  -6   10.36    0.27
   7  -1  -6   10.19    0.26
   7  -1  -6   10.72    0.26
  -7   1   6   10.20    0.24
   7   1  -6   10.04    0.24
   7   1  -5   27.75    0.49
  -7   1   5   27.37    0.50
  -7  -1   5   28.05    0.53
   7  -1  -5   27.18    0.51
   7  -1  -5   27.48    0.50
  -7   1   5   28.47    0.48
   7   1  -5   27.92    0.49
   7   1  -4   21.93    0.37
  -7   1   4   21.41    0.38
   7  -1  -4   19.77    0.38
  -7   1   4   22.73    0.41
   7  -1  -4   21.10    0.40
  -7   1   4   21.89    0.35
  -7  -1   4   21.68    0.36
  -7  -1   3   13.14    0.29
   7   1  -3   14.95    0.31
  -7   1   3   14.97    0.33
   7  -1  -3   14.77    0.33
  -7  -1   3   14.81    0.34
   7  -1  -3   14.83    0.34
  -7   1   3   15.29    0.29
   7   1  -3   14.66    0.30
  -7  -1   3   14.30    0.30
  -7  -1   2    0.13    0.04
   7   1  -2    0.18    0.05
  -7   1   2    0.17    0.05
   7  -1  -2    0.22    0.06
  -7  -1   2    0.24    0.06
  -7   1   2    0.20    0.05
   7  -1  -2    0.23    0.05
  -7   1   2    0.13    0.04
   7   1  -2    0.21    0.05
  -7  -1   2    0.21    0.05
  -7  -1   1   23.63    0.46
   7   1  -1   23.13    0.47
  -7   1   1   23.04    0.48
   7  -1  -1   23.53    0.48
  -7  -1   1   22.78    0.43
   7   1  -1   21.61    0.41
  -7   1   1   22.77    0.42
   7  -1  -1   23.30    0.45
   7  -1  -1   23.65    0.43
  -7  -1   1   23.60    0.46
  -7  -1   0    2.68    0.15
   7   1   0    2.70    0.15
  -7   1   0    2.70    0.15
   7  -1   0    2.74    0.15
  -7  -1   0    2.63    0.15
   7   1   0    2.58    0.14
  -7   1   0    2.82    0.14
   7  -1   0    2.56    0.13
   7  -1   0    2.61    0.12
  -7  -1   0    2.71    0.14
  -7   1  -1  133.23    1.62
  -7  -1  -1  138.04    1.70
  -7   1  -1  138.61    1.77
  -7  -1  -1  138.49    1.71
   7   1   1  140.72    1.67
  -7   1  -1  139.39    1.66
   7  -1   1  139.25    1.61
   7  -1   1  140.46    1.62
  -7   1  -1  135.38    1.61
  -7  -1  -2  117.34    1.44
  -7  -1  -2  121.34    1.51
   7   1   2  119.44    1.45
  -7   1  -2  121.33    1.48
   7  -1   2  116.14    1.39
   7  -1   2  125.26    1.52
   7   1   2  113.79    1.46
   7   1   3   22.12    0.41
  -7  -1  -3   21.67    0.37
  -7  -1  -3   20.86    0.39
   7   1   3   21.18    0.36
  -7   1  -3   21.21    0.37
  -7  -1  -3   21.27    0.39
   7   1   3   21.55    0.38
   7  -1   3   21.34    0.37
   7  -1   3   21.44    0.40
   7  -1   4   50.67    0.73
   7   1   4   49.80    0.73
  -7  -1  -4   49.81    0.68
   7   1   4   48.30    0.66
  -7   1  -4   50.07    0.68
  -7   1  -4   48.64    0.70
   7   1   4   50.02    0.68
   7  -1   4   49.30    0.67
   7  -1   5   75.04    0.95
   7   1   5   73.05    0.92
   7   1   5   75.85    0.89
  -7   1  -5   72.29    0.89
  -7   1  -5   77.25    0.96
  -7  -1  -5   73.35    0.94
   7   1   5   77.34    0.93
   7  -1   5   74.07    0.89
   7  -1   6   43.67    0.72
   7   1   6   43.80    0.70
  -7   1  -6   42.83    0.67
  -7  -1  -6   43.99    0.69
  -7   1  -6   44.93    0.72
   7   1   6   44.83    0.69
  -7  -1  -6   44.34    0.72
  -7   1  -6   44.28    0.71
   7   1   6   43.01    0.67
   7  -1   6   43.76    0.67
   7  -1   7    8.33    0.26
   7   1   7    8.28    0.26
  -7  -1  -7    8.50    0.25
  -7   1  -7    8.40    0.25
   7   1   7    8.21    0.24
  -7  -1  -7    8.57    0.26
  -7   1  -7    8.20    0.25
   7   1   7    8.44    0.24
   7  -1   7    8.05    0.24
   7  -1   8    3.57    0.16
   7   1   8    3.73    0.17
  -7   1  -8    3.58    0.15
  -7  -1  -8    3.59    0.16
  -7  -1  -8    3.07    0.15
  -7   1  -8    3.69    0.16
   7   1   8    3.68    0.15
   7  -1   8    3.66    0.16
  -7  -1  -8    3.60    0.16
  -7   1  -8    3.58    0.15
   7   1   8    3.58    0.15
   7  -1   8    3.52    0.14
   7  -1   9    1.97    0.12
   7   1   9    1.89    0.12
  -7  -1  -9    1.80    0.11
  -7  -1  -9    1.96    0.12
  -7   1  -9    1.96    0.12
  -7  -1  -9    1.94    0.12
  -7   1  -9    1.91    0.12
   7   1   9    1.85    0.11
   7  -1   9    1.96    0.11
   7  -1  10   16.05    0.37
   7   1  10   16.08    0.36
  -7  -1 -10   16.69    0.36
  -7  -1 -10   16.32    0.36
  -7   1 -10   16.37    0.36
  -7  -1 -10   16.26    0.37
  -7   1 -10   15.97    0.35
   7   1  10   15.96    0.34
   7  -1  10   16.18    0.34
   7  -1  11    7.01    0.23
   7   1  11    6.65    0.22
  -7  -1 -11    6.88    0.21
  -7   1 -11    6.25    0.20
  -7  -1 -11    6.71    0.22
  -7   1 -11    6.62    0.21
   7   1  11    6.95    0.21
   7  -1  11    6.61    0.19
   7  -1  12    3.77    0.17
   7   1  12    3.96    0.17
  -7  -1 -12    3.84    0.16
  -7  -1 -12    3.89    0.17
  -7   1 -12    3.86    0.16
   7  -1  12    3.78    0.15
   7  -1  13    0.21    0.09
   7   1  13    0.08    0.07
  -7  -1 -13    0.01    0.07
  -7  -1 -13    0.01    0.06
  -7   1 -13    0.04    0.05
   7  -1  14    0.03    0.08
   7   1  14    0.02    0.07
  -7  -1 -14    0.04    0.07
  -7  -1 -14   -0.01    0.07
   7  -1  15    1.85    0.14
   7   1  15    1.65    0.13
  -7  -1 -15    1.65    0.13
  -7   1 -15    1.71    0.12
  -7  -1 -15    1.73    0.13
   7  -1  16   10.29    0.27
   7   1  16   10.75    0.28
  -7  -1 -16   10.33    0.27
  -7   1 -16   10.00    0.26
   7  -1  17    4.14    0.19
   7   1  17    4.00    0.18
  -7  -1 -17    4.05    0.18
  -7   1 -17    3.94    0.18
   7  -1  18    0.44    0.12
   7   1  18    0.48    0.11
  -7  -1 -18    0.50    0.12
  -7   1 -18    0.31    0.11
  -7  -3  19    0.06    0.10
  -7   3  19    0.02    0.09
   7   3 -19    0.06    0.10
   7  -3 -19    0.05    0.10
  -7   3  18    0.06    0.08
   7  -3 -18    0.04    0.09
  -7   3  17    0.99    0.11
   7  -3 -17    0.94    0.10
   7  -3 -17    0.93    0.12
   7   3 -17    0.97    0.10
  -7   3  16    0.68    0.10
   7  -3 -16    0.49    0.08
   7   3 -16    0.42    0.11
   7  -3 -16    0.49    0.11
   7   3 -16    0.46    0.08
  -7   3  15    0.48    0.09
   7  -3 -15    0.43    0.08
   7   3 -15    0.49    0.09
   7  -3 -15    0.47    0.10
   7   3 -15    0.54    0.09
  -7   3  14    2.22    0.14
   7  -3 -14    2.18    0.13
   7   3 -14    2.21    0.15
   7  -3 -14    2.11    0.14
   7   3 -14    2.15    0.13
  -7   3  13   66.53    0.67
   7  -3 -13   65.45    0.68
   7  -3 -13   65.42    0.69
   7   3 -13   65.29    0.72
   7  -3 -13   65.33    0.69
   7   3 -13   65.12    0.65
  -7   3  12   29.51    0.55
   7  -3 -12   29.87    0.56
   7  -3 -12   30.30    0.55
   7  -3 -12   29.50    0.56
   7   3 -12   30.13    0.55
  -7  -3  11   63.15    0.97
  -7   3  11   65.23    1.00
   7  -3 -11   62.78    0.95
   7  -3 -11   63.27    0.95
   7  -3 -11   63.09    0.97
   7   3 -11   64.17    0.99
  -7  -3  10   11.02    0.30
  -7   3  10   11.83    0.30
   7  -3 -10   11.49    0.30
   7  -3 -10   11.05    0.28
   7  -3 -10   11.52    0.30
   7   3 -10   11.36    0.28
  -7  -3  10   10.93    0.28
  -7  -3   9   11.45    0.29
  -7   3   9   11.93    0.29
   7  -3  -9   11.80    0.30
   7  -3  -9   11.79    0.29
   7  -3  -9   11.65    0.28
   7  -3  -9   12.22    0.30
   7   3  -9   11.64    0.27
  -7  -3   9   11.05    0.28
  -7  -3   8    8.66    0.24
   7   3  -8    9.38    0.24
  -7   3   8    9.01    0.24
   7  -3  -8    8.88    0.25
   7  -3  -8    8.89    0.25
   7  -3  -8    8.85    0.24
   7   3  -8    9.32    0.26
   7  -3  -8    8.26    0.24
   7   3  -8    9.04    0.24
  -7  -3   8    8.81    0.24
  -7  -3   7   31.29    0.58
   7   3  -7   30.85    0.55
  -7   3   7   31.45    0.57
   7  -3  -7   31.75    0.60
  -7  -3   7   31.37    0.59
   7  -3  -7   30.71    0.67
   7  -3  -7   31.22    0.57
  -7   3   7   31.03    0.55
  -7  -3   7   33.81    0.60
  -7  -3   6   12.59    0.32
   7   3  -6   12.59    0.30
  -7   3   6   12.57    0.32
   7  -3  -6   12.48    0.33
  -7  -3   6   12.64    0.33
   7   3  -6   12.16    0.32
   7  -3  -6   12.50    0.31
  -7   3   6   12.69    0.30
   7   3  -6   12.55    0.31
  -7  -3   6   12.25    0.31
  -7  -3   5   52.50    0.80
   7   3  -5   54.37    0.80
  -7   3   5   53.10    0.82
   7  -3  -5   53.35    0.83
  -7  -3   5   53.76    0.83
   7   3  -5   56.94    0.86
   7  -3  -5   51.26    0.80
  -7   3   5   54.82    0.79
   7   3  -5   57.01    0.84
  -7  -3   5   53.89    0.80
  -7  -3   4   12.53    0.29
   7   3  -4   12.55    0.28
  -7   3   4   12.53    0.31
   7  -3  -4   12.64    0.31
  -7  -3   4   11.82    0.30
   7   3  -4   12.83    0.31
   7  -3  -4   12.72    0.29
  -7   3   4   12.82    0.28
   7   3  -4   12.58    0.29
  -7  -3   4   12.16    0.29
  -7  -3   3    1.09    0.09
   7   3  -3    1.08    0.09
  -7   3   3    1.11    0.10
   7  -3  -3    1.06    0.10
   7   3  -3    1.07    0.10
   7  -3  -3    1.01    0.09
  -7   3   3    1.06    0.09
   7   3  -3    1.15    0.11
  -7  -3   3    0.95    0.09
  -7  -3   2    3.47    0.15
   7   3  -2    3.27    0.14
  -7   3   2    3.33    0.17
   7  -3  -2    3.58    0.17
   7   3  -2    3.37    0.16
  -7   3   2    3.42    0.16
   7  -3  -2    3.31    0.15
  -7   3   2    3.43    0.14
   7   3  -2    3.44    0.16
  -7  -3   1    2.29    0.13
   7   3  -1    2.33    0.12
  -7   3   1    2.30    0.14
   7   3  -1    2.47    0.15
  -7   3   1    2.40    0.12
   7   3  -1    2.43    0.16
   7  -3  -1    2.37    0.13
  -7   3   1    2.28    0.12
   7   3  -1    2.38    0.14
  -7   3   0    0.07    0.05
  -7  -3   0    0.15    0.07
  -7   3   0    0.10    0.06
   7   3   0    0.08    0.06
  -7   3   0    0.09    0.05
   7  -3   0    0.10    0.05
   7   3   0    0.18    0.06
   7  -3   0    0.07    0.05
  -7   3   0    0.08    0.05
   7   3   0    0.09    0.06
  -7   3  -1   12.12    0.29
  -7   3  -1   12.27    0.32
  -7  -3  -1   11.08    0.30
   7   3   1   11.98    0.30
  -7   3  -1   12.23    0.28
   7  -3   1   11.89    0.28
   7  -3   1   11.69    0.28
  -7   3  -1   11.51    0.27
   7   3   1   11.92    0.30
  -7   3  -2    3.38    0.16
  -7  -3  -2    3.30    0.18
   7   3   2    3.21    0.16
  -7   3  -2    3.35    0.15
   7  -3   2    3.24    0.15
  -7  -3  -2    3.16    0.16
   7   3   2    2.99    0.15
  -7   3  -2    3.23    0.14
  -7   3  -3    3.80    0.16
  -7  -3  -3    3.11    0.15
  -7  -3  -3    3.97    0.18
  -7  -3  -3    3.69    0.18
   7   3   3    3.91    0.17
  -7   3  -3    3.80    0.16
   7  -3   3    3.70    0.16
  -7  -3  -3    3.88    0.18
  -7   3  -3    3.67    0.15
  -7   3  -3    4.04    0.17
   7   3   4   21.37    0.45
  -7   3  -4   21.08    0.42
  -7  -3  -4   20.46    0.41
  -7  -3  -4   20.20    0.45
   7   3   4   21.27    0.42
  -7   3  -4   20.95    0.43
   7  -3   4   20.80    0.42
   7  -3   5    0.69    0.09
   7   3   5    0.22    0.06
  -7   3  -5    0.32    0.06
  -7  -3  -5    0.14    0.05
  -7  -3  -5    0.21    0.07
   7   3   5    0.19    0.05
  -7   3  -5    0.17    0.05
   7  -3   5    0.14    0.05
   7   3   5    0.13    0.05
   7  -3   6   26.79    0.45
   7   3   6   27.50    0.44
  -7   3  -6   26.93    0.41
  -7  -3  -6   27.18    0.41
  -7  -3  -6   26.40    0.45
   7   3   6   28.00    0.41
  -7   3  -6   27.74    0.42
   7  -3   6   27.19    0.42
  -7  -3  -6   27.60    0.45
   7   3   6   28.04    0.43
   7  -3   7    1.04    0.10
   7   3   7    1.08    0.10
  -7  -3  -7    1.05    0.09
   7   3   7    0.95    0.08
  -7   3  -7    1.10    0.10
   7  -3   7    1.04    0.09
  -7  -3  -7    1.07    0.11
   7   3   7    1.04    0.09
   7  -3   8    5.43    0.22
   7   3   8    5.51    0.20
  -7  -3  -8    5.27    0.19
  -7  -3  -8    5.24    0.21
   7   3   8    5.33    0.19
  -7   3  -8    5.78    0.21
  -7  -3  -8    5.28    0.21
  -7   3  -8    5.32    0.20
   7  -3   9    5.54    0.21
   7   3   9    5.38    0.20
  -7  -3  -9    5.32    0.18
  -7  -3  -9    5.43    0.21
  -7   3  -9    5.29    0.19
  -7  -3  -9    5.31    0.20
  -7   3  -9    5.33    0.18
   7  -3  10   18.55    0.42
   7   3  10   18.80    0.41
  -7  -3 -10   18.91    0.40
  -7  -3 -10   18.48    0.42
  -7   3 -10   18.09    0.40
  -7  -3 -10   18.69    0.42
   7  -3  10   17.47    0.39
   7  -3  11    2.43    0.15
   7   3  11    2.41    0.14
  -7  -3 -11    2.31    0.12
  -7  -3 -11    2.14    0.14
  -7   3 -11    2.39    0.14
  -7  -3 -11    2.31    0.14
   7  -3  11    2.23    0.13
   7  -3  12    1.11    0.12
   7   3  12    1.08    0.10
  -7  -3 -12    1.12    0.11
  -7   3 -12    1.18    0.10
  -7  -3 -12    1.02    0.10
   7  -3  13    1.43    0.14
   7   3  13    1.47    0.12
  -7  -3 -13    1.48    0.12
  -7   3 -13    1.47    0.13
  -7  -3 -13    1.41    0.12
   7  -3  14    2.32    0.16
   7   3  14    2.30    0.14
  -7  -3 -14    2.43    0.15
  -7   3 -14    2.24    0.14
  -7  -3 -14    2.35    0.15
   7  -3  15    0.50    0.11
  -7  -3 -15    0.37    0.10
  -7   3 -15    0.46    0.10
  -7  -3 -15    0.43    0.10
   7  -3  16    2.27    0.15
  -7  -3 -16    2.25    0.15
  -7   3 -16    2.09    0.14
  -7  -3 -16    1.96    0.14
   7  -3  17    1.93    0.16
  -7  -3 -17    2.14    0.15
  -7   3 -17    2.07    0.14
  -7  -3 -17    2.24    0.15
   7  -3  18    0.08    0.11
  -7  -3 -18    0.19    0.11
  -7   3 -18    0.05    0.10
  -7  -5  18    2.67    0.17
   7  -5 -18    2.64    0.16
  -7  -5  17    1.18    0.13
   7  -5 -17    1.03    0.13
  -7  -5  16    0.03    0.10
   7  -5 -16    0.06    0.10
  -7  -5  15    3.20    0.17
  -7   5  15    3.14    0.16
   7   5 -15    3.26    0.17
   7  -5 -15    3.47    0.18
  -7  -5  14   37.86    0.52
  -7   5  14   36.85    0.50
   7   5 -14   37.65    0.53
   7  -5 -14   38.13    0.53
   7   5 -14   36.77    0.50
  -7  -5  13    6.64    0.22
  -7   5  13    6.75    0.22
   7   5 -13    6.98    0.23
   7  -5 -13    7.01    0.24
   7   5 -13    6.71    0.21
  -7  -5  12   78.73    0.75
  -7   5  12   82.28    0.75
   7  -5 -12   78.90    0.81
   7   5 -12   79.56    0.77
   7   5 -12   79.74    0.73
  -7  -5  11   41.18    0.54
  -7   5  11   39.31    0.51
   7  -5 -11   40.45    0.57
   7   5 -11   40.90    0.57
   7   5 -11   41.37    0.51
  -7  -5  10    1.45    0.12
  -7   5  10    1.47    0.12
   7  -5 -10    1.42    0.10
   7  -5 -10    1.49    0.12
   7   5 -10    1.45    0.13
   7   5 -10    1.49    0.11
  -7  -5   8    0.36    0.08
  -7   5   8    0.01    0.07
   7  -5  -8    0.06    0.06
   7   5  -8    0.08    0.07
   7  -5  -8    0.03    0.08
  -7  -5   7    2.87    0.15
   7   5  -7    2.77    0.13
  -7   5   7    2.72    0.14
   7  -5  -7    2.87    0.16
  -7  -5   7    2.45    0.14
   7  -5  -7    2.89    0.15
   7   5  -7    2.91    0.15
  -7  -5   6    1.85    0.12
   7   5  -6    1.80    0.11
  -7   5   6    1.81    0.12
   7  -5  -6    1.74    0.13
  -7  -5   6    1.87    0.13
   7  -5  -6    1.68    0.12
   7   5  -6    1.88    0.13
  -7  -5   6    1.75    0.12
  -7  -5   5    4.15    0.17
   7   5  -5    4.07    0.16
  -7   5   5    4.16    0.18
   7  -5  -5    4.12    0.19
  -7  -5   5    4.46    0.19
   7   5  -5    4.05    0.17
   7  -5  -5    4.05    0.17
   7   5  -5    4.12    0.17
  -7  -5   4    0.09    0.06
   7   5  -4    0.09    0.06
  -7   5   4    0.09    0.07
   7  -5  -4    0.04    0.07
  -7  -5   4    0.12    0.08
   7   5  -4    0.12    0.07
   7  -5  -4    0.19    0.07
  -7   5   4    0.11    0.06
   7   5  -4    0.07    0.07
  -7  -5   3    0.76    0.09
   7   5  -3    0.71    0.08
  -7   5   3    0.92    0.11
   7   5  -3    0.82    0.10
  -7   5   3    0.84    0.09
  -7   5   3    0.79    0.08
   7   5  -3    0.74    0.09
   7  -5  -3    0.83    0.09
  -7   5   3    0.75    0.08
   7   5  -3    0.87    0.10
  -7  -5   2    4.17    0.18
   7   5  -2    4.17    0.16
  -7   5   2    4.49    0.20
   7   5  -2    3.94    0.18
  -7   5   2    4.09    0.18
  -7   5   2    4.31    0.17
   7  -5  -2    4.26    0.18
  -7   5   2    4.44    0.17
   7   5  -2    4.27    0.19
  -7   5   1    4.50    0.19
  -7  -5   1    4.48    0.19
   7   5  -1    4.32    0.16
  -7   5   1    4.68    0.20
  -7   5   1    4.41    0.19
   7   5  -1    4.59    0.19
   7   5  -1    4.57    0.18
   7  -5  -1    4.51    0.18
  -7   5   1    4.39    0.16
   7   5  -1    4.36    0.19
  -7   5   0    2.88    0.14
   7   5   0    2.98    0.15
  -7   5   0    3.19    0.17
   7   5   0    3.07    0.17
  -7  -5   0    2.97    0.16
   7   5   0    3.01    0.16
   7  -5   0    3.12    0.15
   7   5   0    2.93    0.15
  -7   5   0    2.98    0.14
   7   5   0    3.14    0.16
  -7   5  -1    0.10    0.06
  -7   5  -1    0.09    0.06
  -7   5  -1    0.07    0.05
  -7  -5  -1    0.10    0.06
   7   5   1    0.08    0.05
  -7   5  -1    0.07    0.05
   7   5   1    0.07    0.06
  -7   5  -2   19.69    0.38
  -7   5  -2   19.99    0.43
  -7   5  -2   19.14    0.39
  -7  -5  -2   20.18    0.43
   7   5   2   20.99    0.41
   7  -5   2   18.65    0.38
  -7   5  -2   19.66    0.37
  -7   5  -3    0.53    0.07
  -7   5  -3    0.56    0.08
  -7  -5  -3    0.57    0.09
   7   5   3    0.54    0.08
  -7  -5  -3    0.51    0.09
  -7   5  -3    0.49    0.07
  -7   5  -3    0.52    0.08
  -7   5  -4    0.49    0.07
  -7  -5  -4    0.51    0.09
   7   5   4    0.52    0.08
  -7  -5  -4    0.54    0.09
  -7   5  -4    0.51    0.07
  -7   5  -4    0.50    0.07
   7  -5   5    3.97    0.19
  -7   5  -5    3.87    0.17
  -7  -5  -5    3.88    0.19
   7   5   5    3.70    0.16
  -7   5  -5    3.94    0.17
  -7  -5  -5    3.79    0.18
  -7   5  -5    3.51    0.15
  -7   5  -5    3.68    0.15
   7  -5   6    3.90    0.18
  -7  -5  -6    3.90    0.19
   7   5   6    3.53    0.15
  -7   5  -6    3.79    0.16
  -7   5  -6    3.50    0.14
   7  -5   7    0.06    0.08
  -7  -5  -7    0.08    0.05
  -7  -5  -7    0.06    0.08
  -7   5  -7    0.00    0.07
   7  -5   8   13.73    0.36
  -7  -5  -8   13.55    0.35
  -7  -5  -8   12.91    0.36
  -7   5  -8   13.62    0.34
   7  -5   9    1.04    0.12
  -7  -5  -9    1.04    0.11
  -7   5  -9    1.26    0.12
  -7  -5  -9    1.10    0.11
   7  -5  10    3.63    0.18
  -7  -5 -10    3.97    0.19
  -7   5 -10    3.90    0.17
  -7  -5 -10    4.00    0.18
  -7  -5 -11    8.97    0.27
  -7   5 -11    9.00    0.24
  -7  -5 -11    9.16    0.26
  -7  -5 -12   11.10    0.30
  -7   5 -12   11.51    0.28
  -7  -5 -12   12.15    0.31
  -7  -5 -13    1.63    0.14
  -7   5 -13    1.75    0.13
  -7  -5 -13    1.68    0.14
  -7  -5 -14    1.15    0.13
  -7   5 -14    1.22    0.13
  -7  -5 -14    1.22    0.12
   7  -5  15    3.83    0.20
  -7  -5 -15    4.17    0.19
  -7   5 -15    4.38    0.19
  -7  -5 -15    4.20    0.19
   7  -5  16    4.12    0.20
  -7  -5 -16    4.16    0.19
  -7   5 -16    3.85    0.18
  -7  -5 -16    4.06    0.19
  -7  -7  15    2.16    0.15
   7   7 -15    2.27    0.16
  -7  -7  14   11.76    0.29
   7   7 -14   11.80    0.30
  -7  -7  13    2.18    0.15
   7   7 -13    2.20    0.16
  -7  -7  12   95.30    0.86
   7   7 -12   95.66    0.86
   7  -7 -12   95.82    0.88
  -7  -7  11    0.22    0.10
   7   7 -11    0.25    0.11
   7  -7 -11    0.30    0.11
  -7  -7  10   11.35    0.29
   7   7 -10   11.73    0.30
   7  -7 -10   11.09    0.29
  -7  -7   9    7.55    0.24
   7   7  -9    7.76    0.24
   7  -7  -9    7.51    0.23
  -7  -7   8    1.12    0.12
  -7   7   8    1.15    0.10
   7   7  -8    1.30    0.13
   7  -7  -8    1.14    0.11
   7   7  -8    1.09    0.12
  -7  -7   7    8.10    0.25
  -7   7   7    8.01    0.23
   7   7  -7    8.05    0.25
   7  -7  -7    7.92    0.24
   7   7  -7    8.13    0.24
  -7  -7   6   16.09    0.34
  -7   7   6   15.40    0.34
  -7  -7   6   16.28    0.35
   7  -7  -6   15.88    0.34
   7   7  -6   15.83    0.33
  -7  -7   5    1.20    0.11
  -7   7   5    1.21    0.11
  -7  -7   5    1.17    0.13
   7  -7  -5    1.26    0.12
   7   7  -5    1.24    0.12
  -7  -7   4    1.22    0.11
  -7   7   4    1.35    0.12
  -7  -7   4    1.35    0.13
   7  -7  -4    1.25    0.13
   7   7  -4    1.45    0.13
  -7  -7   3    0.31    0.08
  -7   7   3    0.29    0.09
  -7  -7   3    0.26    0.09
   7  -7  -3    0.32    0.10
   7   7  -3    0.33    0.09
  -7   7   2    0.58    0.10
  -7  -7   2    0.60    0.11
   7   7  -2    0.61    0.10
  -7   7   1    5.18    0.22
   7   7  -1    4.98    0.20
  -7   7   0    3.86    0.19
   7  -7   0    4.01    0.17
   7   7   0    3.90    0.19
  -7   7  -1    0.37    0.09
  -7   7  -1    0.30    0.07
   7  -7   1    0.34    0.08
   7   7   1    0.34    0.09
  -7   7  -2    1.81    0.14
  -7  -7  -2    1.88    0.14
  -7   7  -2    1.75    0.12
   7   7   2    1.82    0.14
  -7   7  -3    8.82    0.28
  -7  -7  -3    8.54    0.27
  -7   7  -4    2.16    0.15
  -7  -7  -4    2.15    0.14
  -7  -7  -5    6.37    0.23
  -7  -7  -6    0.03    0.08
  -7  -7  -7    0.02    0.08
  -7   7  -7    0.06    0.07
  -7  -7  -7    0.09    0.10
  -7  -7  -8    1.89    0.14
  -7   7  -8    1.79    0.12
  -7  -7  -8    1.95    0.15
   7  -7   9    0.13    0.10
  -7  -7  -9    0.14    0.08
  -7   7  -9    0.15    0.09
  -7  -7  -9    0.14    0.10
   7  -7  10    2.82    0.18
  -7  -7 -10    2.68    0.16
  -7   7 -10    2.87    0.15
   7  -7  11    1.73    0.15
  -7  -7 -11    1.63    0.14
  -7   7 -11    1.64    0.13
   7  -7  12    0.11    0.10
  -7  -7 -12    0.09    0.09
  -7   7 -12    0.02    0.08
   7  -7  13    5.15    0.22
  -7   7 -13    5.23    0.19
   7  -7  14   -0.06    0.10
  -7   7 -14    0.08    0.10
   7   9 -11    3.84    0.19
   7  -9 -11    3.94    0.19
   7   9 -10   11.77    0.30
   7  -9 -10   11.67    0.30
   7   9  -9    2.42    0.16
   7  -9  -9    2.62    0.17
   7   9  -8    0.31    0.10
   7  -9  -8    0.30    0.10
   7   9  -7    0.95    0.11
   7  -9  -7    0.99    0.13
   7   9  -6    0.11    0.09
   7   9  -6    0.14    0.10
   7   9  -5    8.11    0.25
   7   9  -5    8.24    0.25
  -7  -9   4   -0.03    0.07
   7   9  -4    0.06    0.09
  -7  -9   3    0.05    0.08
   7  -9  -3    0.00    0.08
   7   9  -3   -0.05    0.09
  -7  -9   2    1.91    0.14
   7  -9  -2    1.87    0.13
   7   9  -2    1.87    0.14
  -7  -9   1    0.12    0.09
   7  -9  -1    0.15    0.09
   7   9  -1    0.18    0.10
  -7  -9   0    4.61    0.20
   7   9   0    4.77    0.20
  -7  -9  -1    0.34    0.10
   7   9   1    0.34    0.11
   7   9   2    1.46    0.14
  -7   9  -3    7.52    0.26
   7   9   3    8.00    0.26
  -7   9  -4    0.59    0.11
   7   9   4    0.61    0.12
  -7   9  -5    1.38    0.13
   7   9   5    1.31    0.14
  -7   9  -6    4.78    0.22
  -7   9  -7    0.26    0.11
  -7  -9  -7    0.31    0.11
  -7   9  -8    1.55    0.14
   8   0 -20    3.62    0.16
   8   0 -20    3.59    0.17
  -8   0  19    0.00    0.08
   8   0 -19   -0.01    0.08
   8   0 -19    0.04    0.08
  -8   0  18    2.78    0.16
   8   0 -18    2.83    0.15
   8   0 -18    2.78    0.15
  -8   0  17   -0.02    0.08
   8   0 -17    0.00    0.08
   8   0 -17    0.03    0.08
  -8   0  16    1.89    0.15
   8   0 -16    1.72    0.13
   8   0 -16    1.87    0.13
  -8   0  15    0.02    0.08
   8   0 -15   -0.04    0.07
   8   0 -15   -0.01    0.08
  -8   0  14   34.37    0.50
   8   0 -14   35.74    0.50
  -8   0  13   -0.02    0.09
   8   0 -13   -0.04    0.09
  -8   0  12   46.63    0.59
   8   0 -12   46.27    0.58
   8   0 -12   48.55    0.58
  -8   0  11   -0.02    0.06
   8   0 -11    0.01    0.05
   8   0 -11    0.02    0.06
   8   0 -11    0.00    0.07
  -8   0  10   66.53    0.86
   8   0 -10   68.06    0.84
   8   0 -10   65.54    0.83
   8   0 -10   69.84    0.88
  -8   0  10   65.55    0.78
  -8   0   9    0.04    0.05
   8   0  -9    0.02    0.05
   8   0  -9   -0.02    0.05
   8   0  -9    0.00    0.06
   8   0  -9    0.03    0.05
  -8   0   9   -0.01    0.05
  -8   0   8    8.60    0.26
   8   0  -8    8.89    0.25
   8   0  -8    8.88    0.27
   8   0  -8    8.49    0.26
   8   0  -8    9.02    0.25
  -8   0   7   -0.02    0.04
   8   0  -7   -0.03    0.04
   8   0  -7    0.00    0.03
   8   0  -7   -0.01    0.04
  -8   0   6  379.74    3.55
   8   0  -6  393.81    3.50
  -8   0   6  369.32    3.41
   8   0  -6  384.35    3.52
  -8   0   6  399.17    3.49
  -8   0   5    0.01    0.04
   8   0  -5    0.02    0.04
  -8   0   5    0.02    0.04
   8   0  -5    0.01    0.04
   8   0  -5    0.00    0.03
  -8   0   5    0.03    0.04
  -8   0   4    4.06    0.17
   8   0  -4    4.86    0.18
   8   0  -4    5.01    0.20
   8   0  -4    4.80    0.17
   8   0  -3    0.01    0.04
  -8   0   3    0.01    0.04
   8   0  -3    0.02    0.04
   8   0  -2    2.16    0.13
  -8   0   2    2.15    0.13
   8   0  -2    2.36    0.14
  -8   0   2    2.14    0.12
   8   0  -1    0.00    0.03
  -8   0   1    0.02    0.04
   8   0  -1    0.02    0.04
  -8   0   1    0.03    0.04
   8   0   0   12.39    0.31
  -8   0   0   14.13    0.33
   8   0   0   12.19    0.29
  -8   0   0   12.32    0.29
  -8   0  -1    0.08    0.06
  -8   0  -1    0.11    0.06
   8   0   1    0.11    0.06
  -8   0  -1    0.13    0.06
  -8   0  -2  166.11    1.93
  -8   0  -2  166.57    1.94
   8   0   2  161.54    1.88
   8   0   2  173.05    2.04
   8   0   3    0.18    0.07
  -8   0  -3    0.13    0.07
  -8   0  -3    0.12    0.06
   8   0   3    0.15    0.07
   8   0   3    0.14    0.07
  -8   0  -4  596.79    5.10
  -8   0  -4  604.23    2.40
   8   0   4  605.61    2.00
  -8   0  -4  607.45    2.99
   8   0   4  586.45    5.08
   8   0   5    0.30    0.08
  -8   0  -5    0.20    0.08
  -8   0  -5    0.26    0.09
   8   0   5    0.16    0.07
   8   0   5    0.14    0.06
   8   0   6   23.05    0.47
  -8   0  -6   22.80    0.44
  -8   0  -6   23.06    0.45
   8   0   6   22.99    0.43
  -8   0  -6   22.97    0.46
   8   0   6   21.67    0.42
  -8   0  -7    0.02    0.04
   8   0   7   -0.03    0.05
  -8   0  -7    0.02    0.04
   8   0   7    0.02    0.04
   8   0   8    6.92    0.22
  -8   0  -8    6.86    0.21
  -8   0  -8    6.44    0.21
   8   0   8    7.04    0.21
  -8   0  -8    6.85    0.22
   8   0   8    6.76    0.20
   8   0   9    0.01    0.05
  -8   0  -9    0.14    0.05
  -8   0  -9    0.01    0.04
   8   0   9    0.02    0.04
   8   0  10    1.41    0.12
  -8   0 -10    1.38    0.11
   8   0  10    1.24    0.09
   8   0  11   -0.01    0.07
  -8   0 -11    0.01    0.06
   8   0  11   -0.01    0.05
   8   0  12    1.90    0.13
  -8   0 -12    1.92    0.12
   8   0  12    2.02    0.11
   8   0  13    0.00    0.08
  -8   0 -13    0.04    0.08
  -8   0 -13    0.01    0.06
   8   0  13   -0.01    0.04
   8   0  14    4.39    0.19
  -8   0 -14    4.72    0.19
   8   0  15    0.08    0.08
  -8   0 -15    0.05    0.08
   8   0  16    1.72    0.14
  -8   0 -16    1.73    0.13
   8   0  17    0.07    0.09
  -8   0 -17   -0.04    0.10
   8   0  18    0.14    0.10
  -8   0 -18    0.04    0.10
  -8  -2  19    8.50    0.25
  -8   2  19    8.56    0.25
   8  -2 -19    8.14    0.23
   8   2 -19    8.53    0.25
   8  -2 -19    8.86    0.25
  -8   2  18    3.76    0.18
   8  -2 -18    3.46    0.16
   8   2 -18    3.52    0.17
   8  -2 -18    3.60    0.18
   8   2 -18    3.75    0.17
  -8   2  17    2.33    0.15
   8  -2 -17    2.24    0.13
   8  -2 -17    2.55    0.15
   8   2 -17    2.51    0.15
  -8  -2  16    0.15    0.10
  -8   2  16    0.25    0.09
   8  -2 -16    0.16    0.07
   8  -2 -16    0.21    0.10
   8   2 -16    0.15    0.08
  -8  -2  15    5.31    0.20
  -8   2  15    5.39    0.20
   8  -2 -15    5.36    0.19
   8   2 -15    5.22    0.20
   8  -2 -15    5.35    0.20
   8   2 -15    5.25    0.19
  -8  -2  14    0.34    0.09
  -8   2  14    0.32    0.10
   8  -2 -14    0.41    0.08
   8   2 -14    0.65    0.11
   8  -2 -14    0.40    0.09
   8   2 -14    0.48    0.08
  -8   2  13   81.62    1.19
   8  -2 -13   84.48    1.21
   8  -2 -13   82.76    1.22
   8   2 -13   83.09    1.22
   8  -2 -13   82.80    1.21
   8   2 -13   85.33    1.23
  -8   2  12   29.85    0.56
   8  -2 -12   30.19    0.57
   8  -2 -12   30.19    0.56
   8   2 -12   29.35    0.57
   8  -2 -12   28.91    0.54
   8   2 -12   28.83    0.54
  -8   2  11   21.86    0.38
   8  -2 -11   22.83    0.41
   8  -2 -11   22.20    0.38
   8   2 -11   22.18    0.40
   8  -2 -11   22.24    0.39
   8   2 -11   21.72    0.38
  -8   2  10    7.78    0.24
   8  -2 -10    7.58    0.24
   8  -2 -10    7.72    0.23
   8   2 -10    7.51    0.24
   8   2 -10    7.77    0.23
  -8  -2  10    7.00    0.21
  -8   2   9    1.24    0.10
   8   2  -9    1.12    0.10
   8  -2  -9    1.04    0.10
   8  -2  -9    1.11    0.10
   8  -2  -9    1.09    0.09
   8   2  -9    1.12    0.10
   8  -2  -9    1.10    0.10
   8   2  -9    1.12    0.10
  -8  -2   9    1.24    0.10
  -8  -2   8    0.62    0.08
   8   2  -8    0.70    0.08
  -8   2   8    0.75    0.08
   8  -2  -8    0.64    0.08
   8  -2  -8    0.64    0.08
   8  -2  -8    0.73    0.08
   8  -2  -8    0.74    0.09
  -8   2   8    0.71    0.08
   8   2  -8    0.73    0.08
  -8  -2   8    0.70    0.08
  -8  -2   7   13.20    0.33
   8   2  -7   12.99    0.31
  -8   2   7   13.43    0.33
   8  -2  -7   13.36    0.33
  -8  -2   7   13.04    0.33
   8  -2  -7   12.32    0.31
  -8   2   7   12.82    0.30
   8   2  -7   13.39    0.31
  -8  -2   7   12.78    0.31
  -8  -2   6   88.44    1.19
   8   2  -6   83.13    1.09
  -8   2   6   86.43    1.17
   8  -2  -6   83.56    1.15
  -8  -2   6   87.40    1.24
   8  -2  -6   87.09    1.17
  -8   2   6   85.19    1.10
   8   2  -6   87.28    1.17
  -8  -2   6   83.21    1.11
  -8  -2   5   57.57    0.79
   8   2  -5   58.71    0.75
  -8   2   5   55.86    0.78
   8  -2  -5   58.56    0.80
  -8  -2   5   54.87    0.77
   8  -2  -5   55.21    0.78
   8  -2  -5   57.17    0.78
  -8   2   5   57.67    0.73
  -8  -2   4   29.89    0.51
   8   2  -4   30.31    0.49
  -8   2   4   31.30    0.53
   8   2  -4   27.83    0.51
   8  -2  -4   29.17    0.52
   8  -2  -4   30.12    0.51
   8  -2  -4   28.74    0.49
  -8   2   4   30.73    0.48
   8   2  -4   29.46    0.49
  -8  -2   3    2.47    0.13
   8   2  -3    2.52    0.13
  -8   2   3    2.67    0.15
  -8   2   3    2.53    0.15
  -8  -2   3    2.44    0.15
   8   2  -3    2.60    0.15
   8  -2  -3    2.74    0.15
   8  -2  -3    2.46    0.13
  -8   2   3    2.60    0.13
   8   2  -3    2.55    0.14
  -8  -2   3    2.42    0.14
  -8  -2   2  110.61    1.39
   8   2  -2  112.73    1.41
  -8   2   2  114.05    1.46
  -8  -2   2  115.90    1.48
   8   2  -2  111.34    1.41
  -8   2   2  112.65    1.43
   8  -2  -2  109.83    1.33
   8  -2  -2  113.31    1.41
  -8   2   2  113.68    1.37
   8   2  -2  115.44    1.49
  -8  -2   2  109.56    1.38
  -8  -2   1   12.30    0.28
   8   2  -1   11.56    0.29
  -8   2   1   11.26    0.31
  -8  -2   1   11.69    0.31
   8   2  -1   12.75    0.31
  -8   2   1   12.37    0.29
   8  -2  -1   12.23    0.27
   8  -2  -1   12.21    0.28
  -8   2   1   12.08    0.26
   8   2  -1   12.31    0.30
  -8  -2   1   12.09    0.29
  -8  -2   0    2.94    0.14
   8   2   0    2.94    0.16
  -8   2   0    3.19    0.17
  -8  -2   0    3.01    0.16
   8   2   0    3.01    0.16
  -8   2   0    3.12    0.14
   8  -2   0    3.10    0.14
   8  -2   0    3.14    0.14
  -8   2   0    3.08    0.13
   8   2   0    2.81    0.15
  -8   2  -1    7.99    0.25
  -8  -2  -1    8.00    0.25
  -8   2  -1    8.00    0.26
   8   2   1    7.68    0.24
  -8   2  -1    8.03    0.23
   8  -2   1    7.91    0.23
   8  -2   1    7.96    0.23
  -8   2  -1    8.22    0.22
  -8   2  -2    0.40    0.07
  -8  -2  -2    0.34    0.06
  -8  -2  -2    0.46    0.08
   8   2   2    0.44    0.08
  -8   2  -2    0.31    0.06
   8  -2   2    0.29    0.07
  -8   2  -2    0.45    0.08
   8  -2   3    0.68    0.09
  -8   2  -3    0.89    0.10
  -8  -2  -3    0.69    0.08
   8   2   3    0.66    0.09
  -8   2  -3    0.75    0.09
  -8  -2  -3    0.66    0.09
   8   2   3    0.73    0.09
   8  -2   4  104.67    1.25
   8   2   4  105.31    1.22
  -8   2  -4  104.70    1.17
  -8  -2  -4  104.32    1.18
   8   2   4  104.23    1.17
  -8   2  -4  102.02    1.16
   8  -2   4  102.05    1.15
  -8  -2  -4  103.05    1.21
   8   2   4  101.82    1.14
   8  -2   5  116.21    1.51
   8   2   5  114.71    1.48
  -8  -2  -5  117.25    1.47
   8   2   5  116.09    1.43
  -8   2  -5  111.42    1.43
   8  -2   5  115.52    1.46
   8   2   5  112.97    1.41
   8  -2   6    0.05    0.06
   8   2   6    0.04    0.05
  -8  -2  -6    0.07    0.05
  -8  -2  -6    0.09    0.06
   8   2   6    0.04    0.04
  -8   2  -6    0.09    0.06
   8  -2   6    0.05    0.06
  -8  -2  -6    0.10    0.05
   8   2   6    0.05    0.05
   8  -2   6    0.18    0.05
   8  -2   7   51.59    0.63
   8   2   7   51.32    0.60
  -8  -2  -7   50.81    0.57
  -8  -2  -7   50.34    0.61
   8   2   7   53.42    0.56
  -8   2  -7   52.04    0.58
   8  -2   7   51.01    0.58
  -8  -2  -7   52.50    0.63
   8   2   7   51.33    0.57
   8  -2   8    8.90    0.26
   8   2   8    8.65    0.25
  -8  -2  -8    9.04    0.25
  -8  -2  -8    8.43    0.26
  -8   2  -8    8.98    0.25
  -8  -2  -8    8.92    0.26
  -8   2  -8    8.76    0.25
   8   2   8    8.32    0.23
   8  -2   8    8.39    0.24
   8  -2   9   16.07    0.38
   8   2   9   16.54    0.37
  -8  -2  -9   15.98    0.35
  -8  -2  -9   15.91    0.37
  -8   2  -9   15.92    0.35
  -8  -2  -9   15.91    0.37
  -8   2  -9   15.95    0.36
   8   2   9   16.09    0.35
   8  -2   9   14.98    0.40
   8  -2  10    8.63    0.26
   8   2  10    8.62    0.25
  -8  -2 -10    8.53    0.23
  -8  -2 -10    8.35    0.25
  -8   2 -10    8.87    0.24
  -8  -2 -10    8.40    0.25
  -8   2 -10    8.31    0.23
   8  -2  10    8.38    0.22
   8  -2  11    0.16    0.08
   8   2  11    0.17    0.07
  -8  -2 -11    0.17    0.06
  -8  -2 -11    0.17    0.08
  -8   2 -11    0.16    0.07
  -8  -2 -11    0.14    0.07
   8  -2  11    0.19    0.05
   8  -2  12    3.00    0.16
   8   2  12    2.83    0.15
  -8  -2 -12    2.87    0.16
  -8   2 -12    2.87    0.14
  -8  -2 -12    2.79    0.15
   8  -2  13   13.55    0.32
   8   2  13   14.31    0.31
  -8  -2 -13   13.18    0.30
  -8   2 -13   13.47    0.29
  -8  -2 -13   13.40    0.30
   8  -2  14    1.57    0.13
   8   2  14    1.45    0.13
  -8  -2 -14    1.47    0.13
  -8   2 -14    1.44    0.12
  -8  -2 -14    1.47    0.12
   8  -2  15    0.36    0.10
   8   2  15    0.40    0.10
  -8  -2 -15    0.35    0.10
  -8   2 -15    0.39    0.09
  -8  -2 -15    0.43    0.09
   8  -2  16    0.78    0.12
   8   2  16    0.74    0.11
  -8  -2 -16    0.76    0.11
  -8  -2 -16    0.61    0.10
   8  -2  17    2.72    0.17
  -8  -2 -17    2.73    0.16
   8  -2  18    2.24    0.16
  -8  -2 -18    2.16    0.16
  -8  -4  18    0.69    0.12
  -8   4  18    0.56    0.10
   8  -4 -18    0.58    0.11
  -8  -4  17   10.05    0.27
  -8   4  17    9.51    0.26
   8   4 -17    9.88    0.27
   8  -4 -17   10.08    0.27
  -8  -4  16    0.27    0.09
  -8   4  16    0.32    0.09
   8   4 -16    0.24    0.10
   8  -4 -16    0.31    0.11
   8   4 -16    0.26    0.08
  -8  -4  15    6.51    0.22
  -8   4  15    6.57    0.22
   8  -4 -15    6.80    0.23
   8   4 -15    6.65    0.21
  -8  -4  14    5.11    0.20
  -8   4  14    5.11    0.19
   8  -4 -14    4.91    0.19
   8  -4 -14    5.20    0.21
   8   4 -14    5.17    0.19
  -8  -4  13   59.14    0.71
  -8   4  13   61.16    0.66
   8  -4 -13   61.09    0.67
   8  -4 -13   59.22    0.64
   8   4 -13   57.85    0.62
  -8   4  12   25.16    0.41
   8  -4 -12   25.15    0.41
   8  -4 -12   25.81    0.42
   8   4 -12   24.65    0.39
  -8   4  11    0.08    0.07
   8  -4 -11    0.12    0.06
   8  -4 -11    0.10    0.06
   8   4 -11    0.02    0.08
   8  -4 -11    0.13    0.08
   8   4 -11    0.12    0.08
  -8   4  10    1.26    0.11
   8  -4 -10    1.11    0.10
   8  -4 -10    1.32    0.11
   8   4 -10    1.37    0.12
   8   4 -10    1.19    0.11
  -8   4   9    1.12    0.10
   8  -4  -9    1.01    0.09
   8  -4  -9    1.15    0.10
   8   4  -9    1.08    0.10
   8   4  -9    1.08    0.10
   8   4  -8   23.55    0.44
  -8   4   8   23.53    0.46
   8  -4  -8   24.57    0.49
   8  -4  -8   24.45    0.49
   8   4  -8   23.88    0.47
  -8  -4   8   22.06    0.44
   8   4  -7   15.75    0.33
  -8   4   7   15.81    0.34
   8  -4  -7   16.29    0.37
  -8  -4   7   15.11    0.35
   8  -4  -7   15.82    0.36
   8   4  -7   14.91    0.32
  -8  -4   7   16.85    0.35
   8   4  -6   18.52    0.33
  -8   4   6   18.78    0.36
   8  -4  -6   18.51    0.38
   8  -4  -6   18.39    0.35
  -8   4   6   18.69    0.34
   8   4  -6   18.01    0.35
  -8  -4   6   17.61    0.35
   8   4  -5   44.61    0.52
  -8   4   5   43.04    0.56
   8  -4  -5   43.82    0.59
   8   4  -5   45.05    0.58
   8  -4  -5   44.74    0.56
  -8   4   5   45.35    0.52
   8   4  -5   41.74    0.53
  -8  -4   5   43.45    0.55
   8   4  -4   10.17    0.27
  -8   4   4    9.67    0.29
   8  -4  -4   10.34    0.31
   8   4  -4   10.50    0.31
   8  -4  -4   10.03    0.28
  -8   4   4   10.05    0.27
   8   4  -4   10.49    0.30
  -8  -4   4   10.22    0.29
   8   4  -3   29.58    0.54
  -8   4   3   30.16    0.60
   8  -4  -3   29.68    0.58
   8   4  -3   29.55    0.58
   8  -4  -3   31.33    0.58
  -8   4   3   29.20    0.53
   8   4  -3   28.78    0.56
  -8  -4   2   60.13    0.93
   8   4  -2   58.74    0.92
  -8   4   2   60.19    0.98
  -8  -4   2   58.92    0.95
  -8   4   2   59.72    1.38
   8   4  -2   60.12    0.96
  -8   4   2   60.12    0.91
   8   4  -2   58.63    0.92
   8  -4  -2   60.34    0.96
  -8   4   2   60.43    0.92
   8   4  -2   59.05    0.95
  -8  -4   1   15.91    0.36
   8   4  -1   15.04    0.34
  -8   4   1   15.76    0.40
  -8   4   1   15.32    0.36
  -8  -4   1   15.44    0.39
   8   4  -1   16.62    0.40
  -8   4   1   15.50    0.34
   8   4  -1   14.72    0.35
   8  -4  -1   15.43    0.35
  -8   4   1   15.54    0.34
   8   4  -1   16.10    0.38
  -8   4   0    5.02    0.19
  -8  -4   0    4.90    0.19
   8   4   0    4.57    0.19
  -8   4   0    4.88    0.20
  -8   4   0    4.59    0.18
  -8  -4   0    4.76    0.20
   8   4   0    4.57    0.19
  -8   4   0    4.83    0.17
   8  -4   0    4.84    0.18
  -8   4   0    4.76    0.17
   8   4   0    4.74    0.19
  -8   4  -1   40.90    0.70
  -8   4  -1   39.76    0.73
  -8  -4  -1   40.50    0.74
   8   4   1   40.54    0.71
  -8   4  -1   41.03    0.70
   8   4   1   40.87    0.70
   8  -4   1   42.48    0.72
  -8   4  -1   38.40    0.66
   8   4   1   42.41    0.75
  -8   4  -2    3.67    0.16
  -8   4  -2    3.79    0.18
  -8  -4  -2    3.43    0.18
   8   4   2    3.42    0.16
  -8   4  -2    3.41    0.15
   8  -4   2    3.60    0.16
  -8  -4  -2    3.43    0.17
   8  -4   2    3.48    0.16
   8   4   2    3.46    0.15
  -8   4  -2    3.43    0.15
  -8   4  -3   14.26    0.34
  -8  -4  -3   13.81    0.38
   8   4   3   13.53    0.34
  -8   4  -3   13.95    0.34
   8  -4   3   13.25    0.33
  -8  -4  -3   13.79    0.35
   8   4   3   12.39    0.31
  -8   4  -3   13.02    0.31
  -8   4  -3   14.41    0.36
  -8   4  -4    1.41    0.10
  -8  -4  -4    1.40    0.12
   8   4   4    1.31    0.10
  -8   4  -4    1.44    0.11
   8  -4   4    1.37    0.11
  -8  -4  -4    1.41    0.12
  -8   4  -4    1.37    0.10
  -8   4  -4    1.37    0.10
  -8  -4  -5    4.72    0.19
  -8  -4  -5    5.37    0.21
  -8  -4  -5    5.07    0.21
   8   4   5    4.97    0.18
  -8   4  -5    5.13    0.19
   8  -4   5    5.04    0.19
  -8  -4  -5    5.25    0.22
   8   4   6    0.09    0.05
  -8  -4  -6    0.18    0.05
  -8  -4  -6    0.08    0.06
   8   4   6    0.10    0.05
  -8   4  -6    0.09    0.06
   8  -4   6    0.10    0.05
   8   4   7   13.06    0.33
  -8  -4  -7   11.86    0.34
  -8  -4  -7   12.73    0.34
  -8   4  -7   12.75    0.31
   8   4   8    2.00    0.13
  -8  -4  -8    2.02    0.12
  -8  -4  -8    2.15    0.15
  -8   4  -8    2.13    0.13
   8  -4   9   20.70    0.46
   8   4   9   21.69    0.46
  -8  -4  -9   21.56    0.44
  -8  -4  -9   22.13    0.49
  -8   4  -9   22.73    0.45
  -8  -4  -9   22.60    0.48
   8  -4  10    2.44    0.16
  -8  -4 -10    2.26    0.12
  -8  -4 -10    2.30    0.15
  -8   4 -10    2.27    0.14
  -8  -4 -10    2.29    0.15
   8  -4  11    0.64    0.10
  -8  -4 -11    0.67    0.10
  -8   4 -11    0.71    0.10
  -8  -4 -11    0.58    0.10
   8  -4  12    2.33    0.16
  -8  -4 -12    2.31    0.15
  -8   4 -12    2.24    0.14
  -8  -4 -12    2.21    0.15
   8  -4  13    5.05    0.21
  -8  -4 -13    5.13    0.21
  -8   4 -13    5.10    0.19
  -8  -4 -13    5.21    0.21
   8  -4  14    7.17    0.25
  -8  -4 -14    6.83    0.24
  -8   4 -14    6.76    0.22
  -8  -4 -14    7.12    0.24
   8  -4  15    6.02    0.23
  -8  -4 -15    5.92    0.22
  -8   4 -15    5.93    0.21
  -8  -4 -15    6.09    0.22
   8  -4  16    1.66    0.15
  -8  -4 -16    1.55    0.14
  -8   4 -16    1.62    0.14
  -8  -4 -16    1.66    0.13
   8  -4  17   -0.08    0.10
  -8  -4 -17    0.00    0.09
  -8   4 -17    0.04    0.09
  -8  -4 -17   -0.06    0.08
  -8  -6  16    0.27    0.10
   8   6 -16    0.34    0.11
   8  -6 -16    0.30    0.11
  -8  -6  15    1.32    0.13
   8   6 -15    1.37    0.13
   8  -6 -15    1.32    0.13
  -8  -6  14    0.53    0.12
   8   6 -14    0.54    0.11
  -8  -6  13   35.55    0.50
   8   6 -13   36.53    0.51
  -8  -6  12    0.20    0.10
  -8   6  12    0.11    0.09
   8   6 -12    0.03    0.10
   8   6 -12    0.08    0.08
  -8  -6  11    0.21    0.08
  -8   6  11    0.27    0.07
   8   6 -11    0.36    0.10
   8  -6 -11    0.24    0.09
   8   6 -11    0.22    0.09
  -8  -6  10    0.08    0.08
  -8   6  10    0.02    0.07
   8   6 -10    0.01    0.08
   8  -6 -10    0.02    0.08
   8   6 -10    0.06    0.08
  -8  -6   9   21.83    0.39
  -8   6   9   21.17    0.37
   8   6  -9   21.95    0.41
   8  -6  -9   20.98    0.37
  -8  -6   8   17.52    0.36
  -8   6   8   18.24    0.35
   8   6  -8   18.26    0.37
   8  -6  -8   17.10    0.35
   8   6  -8   17.24    0.33
  -8  -6   7   22.16    0.46
  -8   6   7   20.74    0.49
  -8  -6   7   22.18    0.47
   8  -6  -7   22.24    0.46
   8   6  -7   21.39    0.45
  -8  -6   6    0.39    0.08
  -8   6   6    0.45    0.09
  -8  -6   6    0.42    0.09
   8  -6  -6    0.37    0.09
   8   6  -6    0.33    0.09
  -8  -6   5   38.11    0.67
  -8   6   5   35.46    0.65
   8  -6  -5   34.59    0.65
  -8  -6   5   37.99    0.69
   8  -6  -5   35.91    0.64
   8   6  -5   38.08    0.67
  -8  -6   4    6.65    0.22
  -8   6   4    6.25    0.23
  -8  -6   4    6.34    0.23
   8  -6  -4    6.47    0.22
   8   6  -4    6.83    0.23
  -8  -6   3    0.39    0.08
  -8   6   3    0.22    0.08
  -8  -6   3    0.09    0.08
   8  -6  -3    0.17    0.09
   8   6  -3    0.25    0.09
  -8   6   2    4.47    0.19
  -8  -6   2    4.59    0.19
  -8   6   2    4.59    0.20
  -8   6   2    4.52    0.17
   8  -6  -2    4.50    0.18
  -8   6   2    4.65    0.17
   8   6  -2    4.34    0.20
  -8   6   1    8.53    0.25
  -8   6   1    8.99    0.28
  -8   6   1    8.63    0.23
   8  -6  -1    9.05    0.26
  -8   6   1    8.39    0.22
   8   6  -1    8.61    0.26
  -8   6   0   11.48    0.31
  -8  -6   0   11.61    0.31
  -8   6   0   11.38    0.27
  -8   6   0   11.59    0.27
   8   6   0   10.74    0.29
  -8   6  -1    2.02    0.14
  -8  -6  -1    1.93    0.13
  -8   6  -1    2.04    0.12
   8  -6   1    1.91    0.13
  -8   6  -1    1.89    0.11
   8   6   1    1.92    0.13
  -8   6  -2   22.13    0.43
  -8  -6  -2   22.52    0.43
  -8   6  -2   22.89    0.39
   8   6   2   22.84    0.42
  -8   6  -2   22.42    0.40
  -8   6  -3    0.97    0.11
  -8   6  -3    0.89    0.09
  -8  -6  -3    0.95    0.11
  -8   6  -3    0.95    0.10
  -8   6  -3    0.93    0.10
  -8   6  -4    0.11    0.06
  -8  -6  -4    0.10    0.07
  -8   6  -4    0.10    0.07
  -8  -6  -4    0.07    0.07
  -8  -6  -5    4.33    0.20
  -8   6  -5    4.20    0.17
  -8  -6  -5    4.69    0.19
  -8  -6  -6    0.19    0.08
  -8   6  -6    0.14    0.06
  -8  -6  -6    0.13    0.08
   8  -6   7    7.00    0.25
  -8  -6  -7    7.14    0.25
  -8   6  -7    6.86    0.21
  -8  -6  -7    7.10    0.24
   8  -6   8    0.16    0.09
  -8  -6  -8    0.20    0.10
  -8   6  -8    0.11    0.07
   8  -6   9    0.00    0.09
  -8  -6  -9    0.08    0.09
  -8   6  -9   -0.01    0.08
   8  -6  10    2.25    0.16
  -8  -6 -10    2.13    0.15
  -8   6 -10    2.06    0.13
   8  -6  11    1.54    0.14
  -8  -6 -11    1.58    0.13
  -8   6 -11    1.63    0.13
   8  -6  12    0.05    0.10
  -8  -6 -12    0.11    0.10
  -8   6 -12    0.17    0.09
   8  -6  13    4.00    0.20
  -8  -6 -13    3.74    0.19
  -8   6 -13    4.18    0.18
   8  -6  14    1.87    0.15
  -8  -6 -14    2.05    0.15
  -8   6 -14    2.10    0.14
   8  -6  15    0.59    0.13
  -8  -6 -15    0.60    0.11
  -8   6 -15    0.60    0.11
  -8  -8  13    2.12    0.15
   8   8 -13    2.50    0.17
   8  -8 -13    2.06    0.16
  -8  -8  12   29.83    0.47
   8   8 -12   31.20    0.48
   8  -8 -12   30.16    0.47
  -8  -8  11    4.05    0.19
   8   8 -11    4.23    0.19
   8  -8 -11    4.17    0.19
  -8  -8  10    0.01    0.08
   8   8 -10    0.06    0.08
   8  -8 -10    0.02    0.10
  -8  -8   9    6.73    0.23
   8   8  -9    7.12    0.23
   8  -8  -9    6.80    0.23
   8   8  -9    6.33    0.20
  -8  -8   8    0.12    0.08
   8   8  -8    0.11    0.09
   8  -8  -8    0.09    0.09
   8   8  -8    0.16    0.09
  -8  -8   7    3.89    0.18
   8   8  -7    4.26    0.19
   8  -8  -7    4.01    0.18
   8   8  -7    3.89    0.17
  -8  -8   6    2.93    0.16
   8  -8  -6    3.19    0.17
   8   8  -6    2.91    0.15
  -8  -8   5   11.28    0.29
  -8  -8   5   11.46    0.30
   8  -8  -5   11.59    0.30
   8   8  -5   11.09    0.28
  -8   8   4   11.85    0.30
  -8  -8   4   12.43    0.30
   8  -8  -4   12.28    0.31
   8   8  -4   12.08    0.30
  -8   8   3    0.11    0.07
  -8  -8   3    0.05    0.08
   8   8  -3    0.09    0.09
  -8   8   2    0.20    0.09
  -8  -8   2    0.21    0.09
   8   8  -2    0.20    0.09
  -8   8   1    1.24    0.12
  -8  -8   1    1.21    0.11
   8  -8  -1    1.28    0.12
   8   8  -1    1.20    0.12
  -8   8   0    5.55    0.23
   8  -8   0    5.53    0.20
   8   8   0    5.55    0.22
  -8   8  -1    1.63    0.14
   8   8   1    1.48    0.14
  -8   8  -2    0.08    0.09
   8   8   2    0.03    0.10
  -8   8  -3    6.17    0.23
  -8  -8  -3    6.32    0.22
   8   8   3    6.25    0.23
  -8   8  -4    0.16    0.09
  -8  -8  -4    0.14    0.08
   8   8   4    0.15    0.10
  -8   8  -5   11.48    0.31
  -8  -8  -5   11.94    0.31
  -8   8  -6    0.05    0.09
  -8  -8  -6    0.14    0.08
  -8  -8  -7    0.54    0.09
  -8   8  -7    0.58    0.09
  -8  -8  -8    3.95    0.19
  -8   8  -8    4.03    0.17
  -8  -8  -8    3.74    0.19
  -8  -8  -9    0.12    0.09
  -8   8  -9    0.07    0.08
  -8  -8  -9    0.11    0.11
  -8   8 -10    1.39    0.13
  -8  -8 -10    1.38    0.13
  -8   8 -11   -0.04    0.08
  -8  -8 -11    0.10    0.11
   8  10  -6    6.75    0.23
   8 -10  -5    0.37    0.10
   8 -10  -4    2.60    0.16
   8  10  -4    2.78    0.16
  -8 -10   3    2.97    0.16
   8 -10  -3    3.17    0.16
   8  10  -3    3.09    0.17
  -8 -10   2    1.72    0.13
   8 -10  -2    1.80    0.13
   8  10  -2    1.77    0.14
  -8 -10   1    0.05    0.07
   8  10  -1    0.07    0.10
  -8 -10   0    0.39    0.10
   8  10   0    0.43    0.11
  -8 -10  -1    0.63    0.10
   8  10   1    0.70    0.12
   8  10   2    0.66    0.13
   8  10   3    2.98    0.17
   8  10   4    0.54    0.13
   8  10   5    0.45    0.12
  -9   1  20    0.66    0.11
   9  -1 -20    0.79    0.10
   9   1 -20    0.79    0.11
   9  -1 -20    0.71    0.11
   9   1 -20    0.74    0.11
  -9   1  19    0.02    0.09
   9  -1 -19    0.00    0.08
   9   1 -19   -0.02    0.08
   9  -1 -19   -0.03    0.08
   9   1 -19    0.01    0.08
  -9  -1  18    0.49    0.11
  -9   1  18    0.67    0.11
   9  -1 -18    0.65    0.09
   9   1 -18    0.67    0.10
   9  -1 -18    0.66    0.11
   9   1 -18    0.65    0.10
  -9  -1  17   13.06    0.30
  -9   1  17   13.07    0.31
   9  -1 -17   12.51    0.28
   9   1 -17   12.47    0.29
   9  -1 -17   12.47    0.29
   9   1 -17   12.70    0.29
  -9  -1  16    1.35    0.13
  -9   1  16    1.15    0.12
   9  -1 -16    1.18    0.11
   9  -1 -16    1.21    0.12
   9   1 -16    1.29    0.13
  -9  -1  15    2.77    0.16
  -9   1  15    2.79    0.16
   9  -1 -15    2.74    0.15
   9   1 -15    2.98    0.16
   9  -1 -15    2.86    0.16
   9   1 -15    2.91    0.15
  -9  -1  14   11.91    0.29
  -9   1  14   11.99    0.29
   9  -1 -14   11.84    0.28
   9   1 -14   12.18    0.29
   9  -1 -14   11.81    0.28
   9   1 -14   12.19    0.28
  -9  -1  13   41.71    0.71
  -9   1  13   42.83    0.72
   9  -1 -13   42.74    0.73
   9   1 -13   40.81    0.70
   9  -1 -13   43.84    0.74
   9   1 -13   43.50    0.73
  -9  -1  12    0.64    0.09
  -9   1  12    0.49    0.09
   9  -1 -12    0.61    0.08
   9   1 -12    0.61    0.10
   9  -1 -12    0.67    0.10
  -9  -1  11    0.10    0.08
  -9   1  11    0.10    0.08
   9  -1 -11    0.14    0.06
   9  -1 -11    0.24    0.07
   9   1 -11    0.16    0.07
   9  -1 -11    0.17    0.07
   9   1 -11    0.10    0.07
  -9  -1  10    6.05    0.21
  -9   1  10    7.31    0.23
   9  -1 -10    6.78    0.22
   9  -1 -10    6.93    0.22
   9   1 -10    6.82    0.23
   9  -1 -10    7.11    0.23
   9   1 -10    6.97    0.22
  -9   1   9    3.22    0.15
   9   1  -9    3.26    0.15
   9  -1  -9    3.15    0.15
   9   1  -9    3.22    0.16
   9  -1  -9    3.23    0.15
   9   1  -9    3.20    0.15
  -9   1   8    5.40    0.19
   9   1  -8    5.61    0.20
   9  -1  -8    5.48    0.20
   9   1  -8    5.55    0.21
   9  -1  -8    5.41    0.19
   9   1  -8    5.40    0.18
  -9   1   8    5.56    0.19
  -9   1   7    1.10    0.10
   9   1  -7    1.04    0.09
  -9  -1   7    0.97    0.09
   9  -1  -7    1.07    0.09
   9  -1  -7    1.05    0.09
   9   1  -7    1.09    0.09
  -9   1   7    1.17    0.09
  -9   1   6   22.66    0.42
   9   1  -6   21.36    0.41
  -9  -1   6   21.45    0.43
   9   1  -6   21.55    0.43
   9  -1  -6   21.20    0.43
   9  -1  -6   20.16    0.41
   9  -1  -6   20.62    0.40
  -9   1   6   21.78    0.38
   9   1  -6   20.94    0.39
  -9   1   5  168.36    1.74
   9   1  -5  161.36    1.64
   9  -1  -5  168.50    1.73
  -9   1   5  169.87    1.77
  -9  -1   5  162.00    1.76
   9   1  -5  169.11    1.75
   9  -1  -5  160.23    1.72
  -9   1   5  162.88    1.61
   9   1  -5  164.95    1.71
  -9  -1   5  162.01    1.62
  -9  -1   4   31.56    0.70
   9   1  -4   32.98    0.56
  -9   1   4   33.24    0.54
   9  -1  -4   34.62    0.57
   9   1  -4   32.90    0.59
   9  -1  -4   32.35    0.56
  -9   1   4   33.95    0.50
  -9  -1   4   34.10    0.56
  -9  -1   3   33.70    0.57
   9   1  -3   33.57    0.58
  -9   1   3   32.96    0.60
   9  -1  -3   31.90    0.58
  -9  -1   3   33.44    0.61
  -9   1   3   33.89    0.61
   9  -1  -3   32.42    0.58
   9  -1  -3   31.05    0.53
  -9   1   3   34.40    0.55
   9   1  -3   32.40    0.55
  -9  -1   3   32.07    0.56
  -9  -1   2    0.53    0.07
   9   1  -2    0.56    0.07
  -9   1   2    0.55    0.08
   9  -1  -2    0.61    0.08
  -9  -1   2    0.52    0.07
  -9   1   2    0.57    0.08
   9  -1  -2    0.58    0.07
   9  -1  -2    0.49    0.06
  -9   1   2    0.56    0.07
  -9  -1   2    0.62    0.08
  -9  -1   1   11.72    0.29
  -9   1   1   10.41    0.29
   9   1  -1   11.30    0.30
   9  -1  -1   11.64    0.30
  -9  -1   1   10.60    0.31
  -9   1   1   11.48    0.30
   9  -1  -1   11.82    0.28
   9  -1  -1   10.84    0.25
  -9  -1   1   11.12    0.28
  -9  -1   0    8.78    0.26
   9   1   0    8.41    0.26
   9  -1   0    8.98    0.26
  -9  -1   0    8.46    0.26
  -9   1   0    9.00    0.26
   9  -1   0    8.33    0.23
   9  -1   0    8.20    0.22
  -9   1   0    8.66    0.23
  -9  -1   0    8.45    0.25
  -9  -1  -1  118.17    1.52
  -9  -1  -1  116.13    1.48
   9   1   1  116.08    1.42
  -9   1  -1  117.11    1.45
   9  -1   1  116.09    1.39
   9   1   1  112.15    1.40
   9  -1   1  113.64    1.41
  -9   1  -1  119.11    1.46
   9   1   1  113.18    1.48
  -9  -1  -2   87.60    1.16
  -9  -1  -2   86.20    1.19
  -9  -1  -2   81.67    1.15
   9   1   2   86.39    1.11
  -9   1  -2   84.53    1.29
   9  -1   2   81.95    1.05
   9  -1   2   86.94    1.12
   9   1   2   79.37    1.09
  -9   1  -2   85.20    1.12
  -9  -1  -3   15.33    0.34
  -9  -1  -3   14.88    0.36
   9   1   3   14.24    0.30
  -9   1  -3   15.08    0.33
   9  -1   3   15.11    0.32
   9   1   3   15.24    0.34
   9  -1   3   15.21    0.34
   9  -1   3   16.19    0.35
   9   1   3   15.49    0.37
   9   1   4    5.94    0.22
   9  -1   4    6.00    0.22
  -9   1  -4    5.62    0.20
  -9  -1  -4    5.93    0.20
  -9  -1  -4    5.92    0.21
  -9   1  -4    6.01    0.20
   9   1   4    5.81    0.20
   9  -1   4    5.77    0.20
  -9  -1  -4    5.25    0.21
   9   1   4    5.80    0.20
   9  -1   4    6.08    0.21
   9  -1   4    5.87    0.21
   9  -1   5   12.70    0.34
   9   1   5   12.08    0.35
  -9   1  -5   12.12    0.30
  -9  -1  -5   12.59    0.31
  -9  -1  -5   12.58    0.33
  -9   1  -5   13.18    0.32
   9   1   5   12.88    0.31
  -9  -1  -5   12.27    0.32
   9   1   5   12.21    0.30
   9  -1   5   12.29    0.30
   9  -1   5   11.96    0.32
   9  -1   6    1.81    0.12
   9   1   6    1.78    0.12
  -9   1  -6    1.95    0.12
  -9   1  -6    1.77    0.11
   9   1   6    1.95    0.11
  -9   1  -6    1.80    0.12
   9   1   6    1.89    0.11
   9  -1   6    1.83    0.11
   9  -1   7   59.91    0.68
   9   1   7   62.46    0.68
  -9   1  -7   62.08    0.62
  -9  -1  -7   62.01    0.64
  -9   1  -7   64.34    0.66
   9   1   7   62.32    0.61
  -9  -1  -7   61.65    0.68
   9   1   7   61.96    0.63
   9  -1   8   21.32    0.42
   9   1   8   21.95    0.43
  -9  -1  -8   21.81    0.40
  -9   1  -8   21.74    0.40
  -9   1  -8   21.95    0.42
  -9  -1  -8   22.78    0.43
   9   1   8   21.44    0.39
   9  -1   8   21.75    0.39
   9  -1   9   27.20    0.51
   9   1   9   27.61    0.51
  -9  -1  -9   25.78    0.47
  -9   1  -9   27.03    0.49
  -9   1  -9   27.42    0.51
  -9  -1  -9   26.78    0.51
   9   1   9   26.71    0.47
   9  -1   9   26.78    0.47
   9  -1  10    7.28    0.23
   9   1  10    7.59    0.24
  -9  -1 -10    7.35    0.21
  -9  -1 -10    7.27    0.23
  -9   1 -10    7.28    0.22
  -9  -1 -10    7.42    0.23
  -9   1 -10    7.20    0.22
   9   1  10    7.18    0.21
   9  -1  10    7.14    0.20
   9  -1  11    5.83    0.21
   9   1  11    5.67    0.20
  -9  -1 -11    6.09    0.21
  -9   1 -11    5.73    0.19
  -9  -1 -11    5.98    0.20
  -9   1 -11    5.83    0.20
   9   1  11    5.93    0.19
   9  -1  11    5.74    0.18
   9  -1  12    3.41    0.17
   9   1  12    3.37    0.17
  -9  -1 -12    3.26    0.16
  -9   1 -12    3.24    0.15
  -9  -1 -12    3.24    0.16
   9  -1  12    3.29    0.14
   9  -1  13    6.62    0.23
   9   1  13    6.23    0.22
  -9  -1 -13    6.41    0.21
  -9  -1 -13    6.18    0.21
   9  -1  14    0.89    0.12
   9   1  14    0.84    0.10
  -9  -1 -14    1.01    0.11
  -9  -1 -14    0.99    0.10
   9  -1  15    5.81    0.21
   9   1  15    5.87    0.21
  -9  -1 -15    6.01    0.21
   9  -1  16    0.66    0.11
   9   1  16    0.65    0.11
  -9  -1 -16    0.69    0.11
  -9   1 -16    0.58    0.10
   9  -1  17    1.02    0.12
   9   1  17    1.15    0.12
  -9  -1 -17    1.35    0.13
  -9   1 -17    1.26    0.12
   9  -1  18    3.52    0.19
   9   1  18    3.47    0.18
  -9  -1 -18    3.68    0.18
  -9   1 -18    3.44    0.17
  -9   3  19    0.18    0.10
   9  -3 -19    0.24    0.10
  -9   3  18    1.28    0.12
   9  -3 -18    1.16    0.12
  -9   3  17    3.93    0.18
   9   3 -17    3.88    0.17
   9  -3 -17    4.15    0.18
   9   3 -17    4.02    0.17
  -9   3  16    0.03    0.08
   9  -3 -16    0.06    0.06
   9   3 -16    0.00    0.08
   9  -3 -16    0.13    0.09
   9   3 -16   -0.01    0.08
  -9   3  15    4.00    0.18
   9  -3 -15    4.12    0.16
   9   3 -15    4.17    0.18
   9  -3 -15    4.01    0.18
   9   3 -15    4.25    0.17
  -9  -3  14    4.20    0.18
  -9   3  14    4.23    0.18
   9  -3 -14    4.43    0.17
   9   3 -14    4.42    0.19
   9  -3 -14    4.21    0.18
   9   3 -14    4.54    0.18
  -9  -3  13    0.61    0.10
  -9   3  13    0.63    0.10
   9  -3 -13    0.64    0.09
   9  -3 -13    0.59    0.09
   9   3 -13    0.66    0.11
   9  -3 -13    0.65    0.10
   9   3 -13    0.53    0.09
  -9  -3  12   22.02    0.46
  -9   3  12   22.12    0.45
   9  -3 -12   22.08    0.46
   9  -3 -12   22.26    0.45
   9   3 -12   21.99    0.47
   9  -3 -12   22.20    0.46
   9   3 -12   22.40    0.45
  -9  -3  11   85.81    1.31
  -9   3  11   87.33    1.27
   9  -3 -11   86.45    1.24
   9  -3 -11   84.22    1.21
   9  -3 -11   86.70    1.25
   9   3 -11   85.20    1.22
  -9  -3  10    3.56    0.16
  -9   3  10    3.98    0.17
   9  -3 -10    3.62    0.16
   9  -3 -10    3.76    0.15
   9  -3 -10    3.86    0.17
   9   3 -10    3.79    0.16
  -9  -3   9    2.13    0.14
  -9   3   9    2.14    0.12
   9  -3  -9    2.12    0.12
   9   3  -9    2.13    0.12
  -9  -3   8    6.29    0.22
   9   3  -8    6.22    0.20
  -9   3   8    6.38    0.21
   9  -3  -8    6.28    0.22
  -9  -3   8    6.22    0.23
   9  -3  -8    6.27    0.20
   9   3  -8    6.88    0.22
  -9  -3   8    6.29    0.21
  -9  -3   7    1.48    0.11
   9   3  -7    1.45    0.11
  -9   3   7    1.61    0.12
   9  -3  -7    1.71    0.13
  -9  -3   7    1.55    0.12
   9  -3  -7    1.59    0.12
   9  -3  -7    1.53    0.10
  -9   3   7    1.47    0.10
  -9  -3   7    1.76    0.12
  -9  -3   6   86.98    1.27
   9   3  -6   81.77    1.17
  -9   3   6   85.17    1.25
   9  -3  -6   84.90    1.25
  -9  -3   6   84.95    1.29
   9   3  -6   86.85    1.27
   9  -3  -6   83.45    1.25
   9  -3  -6   89.80    1.31
   9  -3  -6   85.41    1.23
  -9   3   6   88.16    1.22
   9   3  -6   88.97    1.29
  -9  -3   6   89.79    1.29
  -9  -3   5   45.74    0.72
   9   3  -5   43.75    0.67
  -9   3   5   45.13    0.73
   9  -3  -5   45.55    0.75
  -9  -3   5   45.68    0.74
   9   3  -5   46.46    0.75
   9  -3  -5   44.97    0.71
  -9   3   5   44.65    0.68
   9   3  -5   44.54    0.72
  -9  -3   5   45.61    0.71
  -9  -3   4   26.29    0.49
   9   3  -4   26.70    0.48
  -9   3   4   27.44    0.53
   9  -3  -4   27.28    0.54
   9   3  -4   26.43    0.52
   9  -3  -4   26.92    0.50
  -9   3   4   26.82    0.48
   9   3  -4   26.44    0.50
  -9  -3   3    2.26    0.13
   9   3  -3    2.09    0.12
  -9   3   3    2.18    0.14
   9  -3  -3    2.28    0.14
  -9  -3   3    2.19    0.14
   9   3  -3    2.18    0.14
   9  -3  -3    2.15    0.13
  -9   3   3    2.16    0.12
   9   3  -3    2.20    0.13
  -9  -3   2    3.33    0.15
   9   3  -2    3.38    0.15
  -9   3   2    3.51    0.17
   9  -3  -2    3.42    0.17
   9   3  -2    3.44    0.17
  -9   3   2    3.42    0.16
   9  -3  -2    3.04    0.14
   9  -3  -2    3.33    0.15
  -9   3   2    3.24    0.14
   9   3  -2    3.46    0.17
  -9  -3   1   20.02    0.40
   9   3  -1   19.06    0.40
  -9   3   1   19.05    0.43
   9   3  -1   19.49    0.42
  -9   3   1   20.69    0.41
   9  -3  -1   20.06    0.39
   9   3  -1   19.59    0.39
   9  -3  -1   19.48    0.39
  -9   3   1   19.50    0.37
   9   3  -1   19.54    0.41
  -9  -3   0   20.69    0.40
   9   3   0   19.69    0.42
  -9   3   0   21.33    0.45
   9   3   0   20.11    0.42
  -9   3   0   20.10    0.39
   9  -3   0   20.36    0.40
   9   3   0   20.12    0.40
   9  -3   0   20.03    0.39
  -9   3   0   19.73    0.37
   9   3   0   20.30    0.42
  -9   3  -1   15.73    0.37
  -9  -3  -1   15.42    0.35
  -9   3  -1   14.98    0.38
   9   3   1   14.81    0.36
  -9   3  -1   14.96    0.34
   9  -3   1   15.29    0.35
   9  -3   1   15.34    0.35
  -9   3  -1   15.47    0.33
   9   3   1   14.65    0.36
  -9   3  -2    3.01    0.15
  -9  -3  -2    3.34    0.15
  -9   3  -2    2.99    0.16
  -9  -3  -2    3.03    0.17
   9   3   2    3.32    0.16
  -9   3  -2    3.37    0.15
   9  -3   2    3.20    0.15
   9  -3   2    3.30    0.15
  -9   3  -2    3.20    0.13
  -9   3  -3    4.44    0.17
  -9  -3  -3    4.30    0.19
  -9  -3  -3    3.98    0.18
   9   3   3    4.33    0.17
  -9   3  -3    4.27    0.16
   9  -3   3    4.32    0.17
  -9  -3  -3    4.21    0.18
   9   3   3    4.09    0.17
   9  -3   4    2.58    0.15
  -9   3  -4    2.81    0.14
  -9  -3  -4    2.53    0.13
  -9  -3  -4    2.73    0.15
  -9  -3  -4    2.58    0.15
   9   3   4    2.91    0.14
  -9   3  -4    2.67    0.13
   9  -3   4    2.55    0.13
  -9  -3  -4    2.67    0.14
   9   3   4    2.66    0.13
   9   3   5    1.02    0.09
   9  -3   5    1.03    0.10
  -9   3  -5    1.11    0.09
  -9  -3  -5    1.05    0.09
  -9  -3  -5    1.04    0.10
   9   3   5    1.08    0.09
  -9   3  -5    1.03    0.09
   9  -3   5    1.13    0.09
  -9  -3  -5    1.06    0.11
   9   3   5    1.05    0.09
   9  -3   6    4.83    0.20
   9   3   6    4.84    0.19
  -9  -3  -6    4.71    0.17
  -9  -3  -6    4.83    0.20
   9   3   6    4.87    0.17
  -9   3  -6    4.75    0.17
   9  -3   6    4.64    0.17
   9   3   6    5.05    0.18
   9  -3   7   30.70    0.53
   9   3   7   30.54    0.51
  -9  -3  -7   29.77    0.47
  -9  -3  -7   30.00    0.53
  -9   3  -7   30.04    0.49
   9  -3   8   30.44    0.56
   9   3   8   30.17    0.54
  -9  -3  -8   29.83    0.51
  -9  -3  -8   30.41    0.57
  -9   3  -8   29.70    0.52
   9  -3   9    0.87    0.11
   9   3   9    0.76    0.09
  -9  -3  -9    0.86    0.08
  -9  -3  -9    0.86    0.10
  -9   3  -9    0.87    0.09
  -9  -3  -9    0.97    0.11
   9  -3  10    0.80    0.10
   9   3  10    0.86    0.09
  -9  -3 -10    0.79    0.08
  -9  -3 -10    0.84    0.11
  -9   3 -10    0.81    0.10
  -9  -3 -10    0.88    0.10
   9  -3  10    0.73    0.09
   9  -3  11    2.95    0.16
   9   3  11    2.88    0.15
  -9  -3 -11    2.79    0.14
  -9  -3 -11    2.88    0.16
  -9   3 -11    2.75    0.14
  -9  -3 -11    2.82    0.15
   9  -3  12    0.12    0.09
   9   3  12    0.11    0.07
  -9  -3 -12    0.08    0.08
  -9   3 -12    0.11    0.08
  -9  -3 -12    0.10    0.08
   9  -3  13    8.70    0.26
  -9  -3 -13    8.69    0.26
  -9   3 -13    8.78    0.24
  -9  -3 -13    8.75    0.25
   9  -3  14    0.31    0.12
  -9  -3 -14    0.19    0.09
  -9   3 -14    0.22    0.09
  -9  -3 -14    0.12    0.09
   9  -3  15    2.85    0.17
  -9  -3 -15    2.88    0.17
  -9   3 -15    2.80    0.16
  -9  -3 -15    2.79    0.16
   9  -3  16    2.08    0.16
  -9  -3 -16    2.04    0.15
  -9   3 -16    2.09    0.14
  -9  -3 -16    1.99    0.14
   9  -3  17    0.15    0.11
  -9  -3 -17    0.10    0.10
  -9   3 -17    0.09    0.09
  -9  -5  17    4.87    0.20
   9  -5 -17    5.28    0.21
  -9  -5  16    0.26    0.10
  -9   5  16    0.24    0.09
   9  -5 -16    0.27    0.11
  -9  -5  15    8.69    0.25
  -9   5  15    9.31    0.25
   9  -5 -15    9.92    0.28
   9   5 -15    8.90    0.24
  -9  -5  14    2.53    0.15
  -9   5  14    2.44    0.15
   9   5 -14    2.34    0.15
   9  -5 -14    2.61    0.16
   9   5 -14    2.59    0.14
  -9  -5  13    0.81    0.12
  -9   5  13    0.83    0.10
   9   5 -13    0.85    0.12
   9  -5 -13    0.74    0.11
   9   5 -13    0.78    0.10
  -9  -5  12   35.96    0.50
  -9   5  12   36.23    0.50
   9   5 -12   37.66    0.52
   9   5 -12   35.84    0.48
  -9  -5  11   20.16    0.37
  -9   5  11   20.59    0.37
   9   5 -11   20.51    0.39
   9   5 -11   19.89    0.35
  -9  -5  10    0.24    0.08
  -9   5  10    0.22    0.07
   9   5 -10    0.22    0.08
   9  -5 -10    0.24    0.08
   9   5 -10    0.24    0.08
  -9  -5   9    1.10    0.10
  -9   5   9    1.13    0.10
   9   5  -9    0.96    0.11
   9  -5  -9    1.25    0.11
  -9  -5   8   14.68    0.35
  -9   5   8   14.87    0.35
   9  -5  -8   15.27    0.37
  -9  -5   7    5.03    0.19
   9   5  -7    5.09    0.18
  -9   5   7    5.36    0.19
   9  -5  -7    5.43    0.21
   9   5  -7    4.92    0.19
  -9  -5   6   24.89    0.41
   9   5  -6   25.01    0.40
  -9   5   6   24.49    0.42
   9  -5  -6   25.85    0.45
   9  -5  -6   27.37    0.45
   9   5  -6   25.20    0.42
  -9  -5   5    2.10    0.13
   9   5  -5    1.97    0.12
  -9   5   5    2.13    0.14
   9  -5  -5    2.12    0.14
  -9  -5   5    1.97    0.14
   9  -5  -5    2.15    0.14
   9   5  -5    2.34    0.14
  -9  -5   4    4.93    0.19
   9   5  -4    5.07    0.19
  -9   5   4    4.94    0.21
   9  -5  -4    4.95    0.21
  -9  -5   4    4.78    0.21
   9  -5  -4    4.93    0.20
  -9   5   4    5.14    0.19
   9   5  -4    4.86    0.21
  -9  -5   3    1.75    0.12
   9   5  -3    1.74    0.11
  -9   5   3    1.91    0.14
   9  -5  -3    1.72    0.12
  -9   5   3    1.79    0.11
   9   5  -3    1.85    0.13
  -9  -5   2    8.09    0.24
   9   5  -2    7.72    0.22
  -9   5   2    8.01    0.27
  -9   5   2    7.51    0.24
  -9   5   2    7.86    0.22
   9  -5  -2    7.78    0.24
  -9   5   2    7.86    0.23
   9   5  -2    7.62    0.25
  -9   5   1    5.34    0.20
  -9  -5   1    5.66    0.21
   9   5  -1    5.20    0.19
  -9   5   1    5.64    0.23
  -9  -5   1    5.52    0.22
   9   5  -1    5.37    0.21
  -9   5   1    5.43    0.19
   9  -5  -1    5.49    0.20
  -9   5   1    5.57    0.19
   9   5  -1    5.56    0.21
  -9   5   0    1.76    0.12
  -9   5   0    1.99    0.14
  -9   5   0    1.77    0.12
  -9  -5   0    1.77    0.13
   9   5   0    1.70    0.12
  -9   5   0    1.86    0.11
   9  -5   0    1.78    0.12
  -9   5   0    1.78    0.11
   9   5   0    1.81    0.13
  -9   5  -1    1.14    0.10
  -9   5  -1    1.08    0.11
  -9   5  -1    1.11    0.10
  -9  -5  -1    1.12    0.11
   9   5   1    1.14    0.10
  -9   5  -1    1.17    0.09
  -9   5  -1    1.13    0.09
   9   5   1    1.16    0.11
  -9   5  -2   14.15    0.36
  -9   5  -2   13.77    0.32
  -9  -5  -2   13.83    0.35
   9   5   2   14.51    0.33
  -9   5  -2   14.36    0.32
   9  -5   2   14.47    0.33
  -9   5  -2   13.50    0.32
   9   5   2   14.70    0.35
  -9   5  -3    8.67    0.28
  -9   5  -3    9.06    0.26
  -9  -5  -3    8.81    0.28
   9   5   3    8.40    0.25
  -9   5  -3    9.09    0.26
  -9  -5  -3    9.02    0.27
  -9   5  -3    8.67    0.24
  -9   5  -3    9.06    0.27
  -9  -5  -4    0.14    0.07
  -9   5  -4    0.00    0.05
  -9  -5  -4    0.15    0.07
  -9   5  -4    0.06    0.04
  -9   5  -4    0.10    0.05
  -9  -5  -5    9.21    0.29
  -9   5  -5    9.04    0.24
   9  -5   5    8.45    0.24
  -9  -5  -5    8.89    0.26
   9  -5   6   16.97    0.41
  -9  -5  -6   18.34    0.45
  -9   5  -6   17.67    0.39
  -9  -5  -6   17.31    0.41
   9  -5   7    0.07    0.08
  -9  -5  -7    0.08    0.07
  -9   5  -7    0.05    0.06
  -9  -5  -7    0.05    0.08
  -9  -5  -9    3.81    0.19
  -9   5  -9    4.05    0.17
  -9  -5 -10   10.43    0.29
  -9   5 -10    9.86    0.26
  -9  -5 -11    1.63    0.13
  -9   5 -11    1.58    0.13
  -9  -5 -12    4.76    0.20
  -9   5 -12    4.71    0.19
  -9  -5 -13    1.78    0.14
  -9   5 -13    1.77    0.13
   9  -5  14    0.72    0.13
  -9  -5 -14    0.72    0.11
  -9   5 -14    0.59    0.11
   9  -5  15    0.09    0.11
  -9  -5 -15    0.04    0.09
  -9   5 -15    0.00    0.10
   9  -5  16    0.46    0.12
  -9  -5 -16    0.60    0.11
  -9   5 -16    0.50    0.11
  -9  -7  15    0.42    0.11
   9   7 -15    0.50    0.12
  -9  -7  14    0.66    0.11
   9   7 -14    0.72    0.11
   9  -7 -14    0.68    0.12
  -9  -7  13    3.57    0.18
   9   7 -13    3.38    0.18
   9  -7 -13    3.28    0.17
  -9  -7  12   10.72    0.28
   9   7 -12   11.49    0.30
   9  -7 -12   10.80    0.28
  -9  -7  11   -0.06    0.08
   9   7 -11    0.07    0.10
   9  -7 -11    0.03    0.08
   9   7 -11   -0.01    0.08
  -9  -7  10    1.07    0.12
   9   7 -10    1.11    0.12
   9  -7 -10    1.10    0.12
  -9  -7   9    4.81    0.19
  -9   7   9    4.68    0.18
   9   7  -9    5.02    0.20
   9  -7  -9    4.87    0.19
  -9  -7   8    0.72    0.10
  -9   7   8    0.73    0.09
   9   7  -8    0.81    0.12
   9  -7  -8    0.70    0.10
   9   7  -8    0.70    0.10
  -9  -7   7    0.83    0.10
  -9   7   7    0.86    0.10
  -9  -7   7    0.80    0.11
   9  -7  -7    0.77    0.10
   9   7  -7    0.85    0.11
  -9  -7   6    3.85    0.17
  -9   7   6    3.71    0.17
  -9  -7   6    3.70    0.18
   9  -7  -6    3.80    0.17
   9   7  -6    3.86    0.17
  -9  -7   5    0.05    0.07
  -9   7   5    0.04    0.07
  -9  -7   5    0.02    0.09
   9  -7  -5    0.11    0.08
   9   7  -5    0.06    0.08
  -9  -7   4    6.33    0.22
  -9   7   4    5.97    0.22
  -9  -7   4    6.19    0.23
   9  -7  -4    6.07    0.22
   9   7  -4    6.62    0.23
  -9  -7   3    2.35    0.14
  -9   7   3    2.31    0.15
  -9  -7   3    2.18    0.14
   9  -7  -3    2.51    0.15
   9   7  -3    2.40    0.16
  -9   7   2    4.97    0.21
   9  -7  -2    5.04    0.20
   9   7  -2    5.24    0.21
  -9   7   1    0.69    0.10
   9   7  -1    0.77    0.11
  -9   7   0   11.97    0.32
   9  -7   0   11.57    0.29
   9   7   0   11.94    0.30
  -9   7  -1    0.04    0.08
  -9  -7  -1    0.04    0.07
   9  -7   1    0.03    0.07
   9   7   1    0.22    0.09
  -9   7  -2    0.08    0.09
  -9  -7  -2    0.06    0.09
  -9   7  -2    0.02    0.05
   9   7   2    0.02    0.08
  -9   7  -3   13.14    0.33
  -9  -7  -3   13.53    0.33
  -9   7  -3   13.85    0.30
   9   7   3   13.84    0.32
  -9   7  -4    6.80    0.24
  -9  -7  -4    6.97    0.24
  -9   7  -4    6.74    0.21
   9   7   4    7.13    0.24
  -9   7  -5    0.26    0.09
  -9  -7  -5    0.23    0.08
  -9   7  -5    0.12    0.06
  -9  -7  -5    0.11    0.09
  -9  -7  -6    4.34    0.20
  -9   7  -6    4.58    0.18
  -9  -7  -6    4.33    0.19
  -9  -7  -7    0.15    0.09
  -9   7  -7    0.12    0.07
  -9  -7  -7    0.12    0.09
  -9  -7  -8    4.03    0.20
  -9   7  -8    4.08    0.17
  -9  -7  -8    3.82    0.19
  -9  -7  -9    8.01    0.26
  -9   7  -9    8.15    0.24
  -9  -7  -9    8.13    0.26
  -9  -7 -10    6.98    0.24
  -9   7 -10    6.95    0.22
  -9  -7 -10    7.26    0.25
   9  -7  11   -0.04    0.09
  -9  -7 -11    0.02    0.09
  -9   7 -11   -0.07    0.08
  -9  -7 -11   -0.02    0.10
   9  -7  12    0.59    0.11
  -9  -7 -12    0.67    0.11
  -9   7 -12    0.62    0.11
  -9  -7 -12    0.63    0.12
   9  -7  13    2.91    0.18
  -9   7 -13    3.11    0.16
  -9  -7 -13    2.94    0.17
   9   9 -10    6.39    0.23
   9  -9 -10    6.11    0.22
   9   9  -9    2.91    0.17
   9  -9  -9    2.94    0.17
   9   9  -8    0.52    0.11
   9  -9  -8    0.41    0.10
   9   9  -7    1.37    0.13
   9  -9  -7    1.35    0.12
   9   9  -7    1.22    0.12
   9   9  -6    1.59    0.13
   9  -9  -6    1.61    0.14
   9   9  -6    1.64    0.14
  -9  -9   5    7.00    0.23
   9   9  -5    6.55    0.23
  -9  -9   4    6.79    0.23
   9   9  -4    7.07    0.24
  -9  -9   3    0.75    0.11
   9  -9  -3    0.77    0.10
   9   9  -3    0.72    0.11
  -9  -9   2    0.60    0.11
   9  -9  -2    0.64    0.10
   9   9  -2    0.70    0.11
  -9  -9   1    1.03    0.12
   9  -9  -1    0.82    0.11
   9   9  -1    0.91    0.12
  -9  -9   0    1.15    0.12
   9   9   0    1.08    0.12
   9   9   1    8.79    0.26
  -9   9  -2    0.83    0.12
   9   9   2    0.60    0.12
  -9   9  -3    0.94    0.12
   9   9   3    0.87    0.13
  -9   9  -4    0.19    0.10
   9   9   4    0.19    0.11
  -9   9  -5    1.90    0.16
  -9  -9  -5    2.00    0.15
   9   9   5    2.04    0.16
  -9   9  -6    0.17    0.10
  -9  -9  -6    0.15    0.09
   9   9   6    0.26    0.10
  -9   9  -7    2.61    0.17
   9   9   7    2.75    0.16
  -9   9  -8    4.44    0.21
 -10   0  20    0.35    0.10
  10   0 -20    0.24    0.09
  10   0 -20    0.36    0.10
 -10   0  19    0.07    0.10
  10   0 -19   -0.04    0.08
  10   0 -19   -0.04    0.08
 -10   0  18    0.39    0.09
  10   0 -18    0.34    0.10
  10   0 -18    0.36    0.09
 -10   0  17   -0.02    0.08
  10   0 -17    0.08    0.08
  10   0 -17   -0.04    0.08
 -10   0  16   12.05    0.29
  10   0 -16   12.00    0.29
  10   0 -16   12.06    0.29
 -10   0  15    0.01    0.09
  10   0 -15   -0.01    0.08
 -10   0  14   22.29    0.39
  10   0 -14   21.40    0.38
  10   0 -14   21.08    0.38
 -10   0  13    0.00    0.08
  10   0 -13   -0.02    0.07
  10   0 -13    0.06    0.08
 -10   0  12    3.58    0.17
  10   0 -12    3.35    0.16
  10   0 -12    3.58    0.17
 -10   0  11    0.00    0.06
  10   0 -11    0.06    0.07
  10   0 -11    0.01    0.06
 -10   0  10   28.73    0.48
  10   0 -10   27.72    0.48
  10   0 -10   27.94    0.47
 -10   0   9    0.05    0.06
  10   0  -9    0.07    0.06
  10   0  -9    0.03    0.05
  10   0  -9    0.01    0.06
 -10   0   8   44.78    0.74
  10   0  -8   46.22    0.75
  10   0  -8   46.12    0.78
  10   0  -8   43.48    0.73
 -10   0   7    0.02    0.04
  10   0  -7    0.01    0.04
 -10   0   7    0.00    0.04
  10   0  -7    0.01    0.05
  10   0  -7    0.03    0.04
 -10   0   7    0.02    0.05
  10   0  -6  176.69    1.81
 -10   0   6  179.82    1.91
  10   0  -6  174.96    1.81
  10   0  -6  174.00    1.91
  10   0  -5    0.04    0.05
  10   0  -5    0.21    0.06
  10   0  -5    0.06    0.04
  10   0  -4   65.60    0.86
 -10   0   4   66.09    0.88
  10   0  -4   61.57    0.84
  10   0  -3    0.02    0.05
 -10   0   3    0.02    0.04
  10   0  -3    0.00    0.05
 -10   0   3    0.02    0.04
  10   0  -2  101.76    1.32
 -10   0   2  101.83    1.33
  10   0  -2  102.57    1.33
 -10   0   2  104.67    1.33
  10   0  -1    0.03    0.05
 -10   0   1    0.07    0.05
  10   0  -1    0.04    0.05
  10   0  -1    0.11    0.05
 -10   0   1    0.02    0.05
 -10   0   0   90.17    1.24
  10   0   0   89.50    1.20
 -10   0   0   88.70    1.20
  10   0   0   90.37    1.17
  10   0   0   89.82    1.20
 -10   0   0   88.17    1.15
 -10   0  -1    0.17    0.08
 -10   0  -1    0.21    0.08
  10   0   1    0.19    0.07
  10   0   1    0.22    0.07
 -10   0  -1    0.14    0.07
 -10   0  -2    2.35    0.14
 -10   0  -2    2.43    0.15
 -10   0  -2    2.38    0.14
  10   0   2    2.24    0.13
  10   0   2    2.30    0.14
 -10   0  -3    0.14    0.08
 -10   0  -3    0.14    0.08
  10   0   3    0.15    0.06
  10   0   3    0.15    0.07
  10   0   4   40.71    0.65
 -10   0  -4   42.09    0.62
 -10   0  -4   41.88    0.63
  10   0   4   41.09    0.60
  10   0   4   41.29    0.64
  10   0   5    0.26    0.08
 -10   0  -5    0.09    0.06
 -10   0  -5    0.13    0.06
  10   0   5    0.06    0.06
 -10   0  -5    0.07    0.05
  10   0   5    0.09    0.05
  10   0   6   42.53    0.74
 -10   0  -6   42.74    0.71
 -10   0  -6   44.24    0.74
  10   0   6   40.52    0.67
 -10   0  -6   42.55    0.74
  10   0   6   41.86    0.69
  10   0   7    0.02    0.05
 -10   0  -7    0.02    0.05
  10   0   7    0.01    0.05
  10   0   7    0.00    0.04
  10   0   8    1.18    0.11
 -10   0  -8    1.52    0.11
 -10   0  -8    1.09    0.09
  10   0   8    1.14    0.09
  10   0   9   -0.01    0.06
 -10   0  -9    0.04    0.06
 -10   0  -9    0.04    0.05
  10   0   9    0.04    0.05
  10   0  10    0.16    0.07
 -10   0 -10    0.24    0.07
  10   0  10    0.17    0.05
  10   0  11   -0.01    0.07
 -10   0 -11   -0.02    0.05
  10   0  11    0.02    0.05
  10   0  12   20.20    0.38
 -10   0 -12   19.78    0.37
  10   0  12   18.95    0.33
  10   0  13    0.03    0.08
  10   0  14    1.53    0.13
 -10   0 -14    1.44    0.13
  10   0  15    0.03    0.08
 -10   0 -15    0.03    0.07
  10   0  16    0.33    0.09
 -10   0 -16    0.27    0.09
  10   0  17    0.02    0.09
 -10   0 -17    0.00    0.09
  10   0  18    1.84    0.15
 -10   0 -18    1.91    0.15
 -10   2  19    0.97    0.11
  10   2 -19    0.98    0.12
  10  -2 -19    1.01    0.12
  10   2 -19    1.06    0.11
 -10   2  18    0.47    0.10
  10  -2 -18    0.49    0.09
  10  -2 -18    0.58    0.10
  10   2 -18    0.58    0.10
 -10  -2  17    4.99    0.20
 -10   2  17    5.10    0.20
  10  -2 -17    4.89    0.18
  10  -2 -17    5.24    0.20
  10   2 -17    5.18    0.20
 -10  -2  16   15.03    0.33
 -10   2  16   16.88    0.34
  10  -2 -16   16.11    0.32
  10   2 -16   16.88    0.34
  10  -2 -16   16.67    0.33
  10   2 -16   16.30    0.33
 -10   2  15    0.19    0.09
  10  -2 -15    0.04    0.06
  10   2 -15    0.05    0.08
  10  -2 -15    0.01    0.09
  10   2 -15    0.07    0.08
 -10   2  14    2.55    0.14
  10  -2 -14    2.37    0.14
  10   2 -14    2.56    0.15
  10  -2 -14    2.43    0.14
  10   2 -14    2.55    0.14
 -10   2  13    7.19    0.23
  10  -2 -13    7.14    0.22
  10  -2 -13    7.29    0.22
  10   2 -13    7.37    0.24
  10  -2 -13    7.52    0.23
  10   2 -13    7.17    0.22
 -10   2  12    0.64    0.09
  10  -2 -12    0.64    0.08
  10  -2 -12    0.58    0.08
  10   2 -12    0.70    0.10
  10  -2 -12    0.65    0.09
  10   2 -12    0.60    0.09
 -10   2  11   21.23    0.38
  10  -2 -11   21.37    0.37
  10   2 -11   21.07    0.39
  10  -2 -11   21.16    0.38
  10   2 -11   20.94    0.36
 -10  -2  10    3.26    0.16
 -10   2  10    3.31    0.15
  10   2 -10    3.21    0.16
  10  -2 -10    3.33    0.16
  10   2 -10    3.27    0.15
 -10  -2   9   11.73    0.30
 -10   2   9   11.23    0.28
  10   2  -9   11.71    0.30
  10  -2  -9   11.28    0.29
  10   2  -9   11.22    0.28
 -10  -2   8   22.78    0.40
 -10   2   8   21.50    0.38
  10   2  -8   20.51    0.35
  10  -2  -8   21.83    0.39
 -10  -2   8   21.62    0.39
  10  -2  -8   20.78    0.39
  10   2  -8   21.98    0.40
  10  -2  -8   21.24    0.38
 -10   2   8   21.40    0.35
  10   2  -8   21.82    0.36
 -10  -2   8   21.45    0.36
 -10  -2   7    0.96    0.10
  10   2  -7    0.94    0.09
 -10   2   7    0.91    0.09
  10  -2  -7    0.91    0.10
 -10  -2   7    0.93    0.10
  10   2  -7    0.89    0.10
  10  -2  -7    0.88    0.09
  10  -2  -7    0.94    0.09
 -10   2   7    0.84    0.08
  10   2  -7    0.87    0.09
 -10  -2   7    0.92    0.09
 -10  -2   6  197.96    2.36
  10   2  -6  196.46    2.28
 -10   2   6  194.15    2.32
  10  -2  -6  177.10    2.16
 -10  -2   6  188.37    2.32
  10  -2  -6  185.08    2.21
  10  -2  -6  191.93    2.26
 -10   2   6  189.48    2.25
 -10  -2   5    1.83    0.12
  10   2  -5    1.71    0.12
 -10   2   5    1.62    0.12
  10  -2  -5    1.73    0.13
  10  -2  -5    1.61    0.11
  10  -2  -5    1.57    0.12
 -10   2   5    1.66    0.10
 -10  -2   4   73.67    0.91
  10   2  -4   75.14    0.92
 -10   2   4   72.49    0.93
  10  -2  -4   73.30    1.01
  10  -2  -4   73.88    0.94
 -10   2   4   74.10    0.86
  10   2  -4   71.41    0.89
 -10  -2   4   74.13    0.92
 -10  -2   3    5.78    0.20
  10   2  -3    5.82    0.20
 -10   2   3    6.23    0.22
 -10  -2   3    6.17    0.22
 -10   2   3    6.08    0.22
  10  -2  -3    5.96    0.20
  10  -2  -3    6.10    0.20
 -10   2   3    5.76    0.18
  10   2  -3    6.04    0.20
 -10  -2   3    6.08    0.21
 -10  -2   2   44.45    0.65
  10   2  -2   44.18    0.66
 -10   2   2   44.43    0.69
 -10  -2   2   45.25    0.71
  10   2  -2   47.92    0.73
 -10   2   2   45.46    0.70
  10  -2  -2   44.75    0.65
  10  -2  -2   45.09    0.65
 -10   2   2   44.45    0.60
  10   2  -2   45.61    0.69
 -10  -2   2   45.79    0.67
 -10  -2   1    0.42    0.06
  10   2  -1    0.42    0.07
 -10   2   1    0.44    0.08
  10  -2  -1    0.42    0.08
 -10  -2   1    0.42    0.08
  10   2  -1    0.39    0.07
 -10   2   1    0.40    0.07
  10  -2  -1    0.44    0.06
  10  -2  -1    0.35    0.06
 -10   2   1    0.41    0.06
 -10  -2   1    0.42    0.07
 -10  -2   0   20.14    0.41
 -10   2   0   19.99    0.44
  10   2   0   19.77    0.50
 -10  -2   0   20.43    0.44
  10   2   0   20.32    0.42
 -10   2   0   20.99    0.42
  10  -2   0   20.69    0.38
  10  -2   0   21.24    0.40
 -10   2   0   21.07    0.39
 -10   2  -1    1.99    0.13
 -10  -2  -1    2.12    0.13
 -10   2  -1    2.04    0.14
 -10  -2  -1    2.12    0.14
  10   2   1    1.96    0.12
 -10   2  -1    2.09    0.13
  10  -2   1    2.04    0.12
  10   2   1    1.87    0.12
  10  -2   1    1.99    0.12
 -10   2  -1    2.03    0.12
 -10   2  -2    9.15    0.25
 -10  -2  -2    8.94    0.25
 -10  -2  -2    9.14    0.27
 -10   2  -2    9.39    0.28
 -10  -2  -2    8.59    0.26
  10   2   2    8.84    0.24
 -10   2  -2    9.17    0.24
  10  -2   2    8.99    0.24
  10  -2   2    9.04    0.24
 -10   2  -2    8.72    0.24
  10   2   2    8.76    0.26
 -10   2  -3   24.52    0.48
 -10  -2  -3   27.82    0.51
 -10  -2  -3   29.95    0.58
  10   2   3   27.52    0.50
 -10   2  -3   28.76    0.51
  10  -2   3   28.15    0.50
  10   2   3   27.98    0.51
  10  -2   3   27.40    0.78
  10   2   3   27.84    0.53
 -10  -2  -4   35.46    0.59
  10   2   4   34.72    0.58
 -10   2  -4   34.60    0.58
 -10  -2  -4   34.84    0.62
  10   2   4   34.73    0.58
  10   2   5   17.53    0.41
  10  -2   5   16.82    0.41
  10   2   5   17.29    0.37
 -10   2  -5   17.54    0.39
 -10  -2  -5   17.27    0.41
  10   2   5   17.12    0.38
  10  -2   6    3.08    0.16
  10   2   6    3.16    0.16
 -10  -2  -6    3.11    0.14
  10   2   6    3.07    0.14
 -10   2  -6    3.27    0.15
  10  -2   6    3.20    0.15
 -10  -2  -6    3.15    0.16
  10   2   6    3.20    0.15
  10  -2   7    4.79    0.20
  10   2   7    4.80    0.19
 -10  -2  -7    4.99    0.18
 -10  -2  -7    4.68    0.19
 -10   2  -7    4.99    0.18
  10   2   7    4.96    0.18
  10  -2   7    5.01    0.20
  10  -2   8    7.61    0.25
  10   2   8    7.63    0.25
 -10  -2  -8    7.82    0.24
 -10  -2  -8    7.87    0.25
 -10   2  -8    7.79    0.23
  10   2   8    8.05    0.24
  10  -2   9    9.19    0.27
  10   2   9    9.57    0.26
 -10  -2  -9    9.46    0.24
 -10  -2  -9    9.34    0.26
 -10   2  -9    9.12    0.24
 -10   2  -9    9.09    0.25
 -10  -2  -9    9.12    0.26
  10  -2   9    9.25    0.25
  10  -2  10    0.30    0.10
  10   2  10    0.27    0.07
 -10  -2 -10    0.35    0.06
 -10  -2 -10    0.33    0.09
 -10   2 -10    0.28    0.08
 -10  -2 -10    0.31    0.07
  10  -2  10    0.42    0.07
  10  -2  11    5.65    0.21
  10   2  11    5.53    0.20
 -10  -2 -11    5.76    0.21
 -10   2 -11    5.66    0.19
 -10  -2 -11    5.68    0.21
  10  -2  11    5.54    0.19
  10  -2  12    0.03    0.07
  10   2  12    0.08    0.07
 -10  -2 -12   -0.01    0.08
 -10   2 -12    0.02    0.08
 -10  -2 -12    0.07    0.06
  10  -2  13    1.75    0.14
  10   2  13    1.86    0.13
 -10  -2 -13    1.77    0.13
 -10   2 -13    1.83    0.13
 -10  -2 -13    1.80    0.14
  10  -2  14    1.86    0.14
  10   2  14    1.97    0.14
 -10  -2 -14    1.98    0.14
 -10   2 -14    1.89    0.14
 -10  -2 -14    2.05    0.14
  10  -2  15   18.79    0.38
  10   2  15   18.23    0.36
 -10  -2 -15   19.36    0.38
 -10   2 -15   18.72    0.35
 -10  -2 -15   18.50    0.36
  10  -2  16    3.14    0.17
 -10  -2 -16    3.52    0.18
 -10   2 -16    3.30    0.17
  10  -2  17    0.38    0.12
 -10  -2 -17    0.49    0.12
 -10  -4  18    0.06    0.10
 -10   4  18   -0.03    0.08
  10   4 -18    0.03    0.09
  10  -4 -18   -0.05    0.10
 -10  -4  17    2.02    0.14
 -10   4  17    2.07    0.14
  10   4 -17    1.96    0.15
  10  -4 -17    1.89    0.15
 -10  -4  16    0.99    0.11
 -10   4  16    1.09    0.12
  10   4 -16    1.00    0.11
  10  -4 -16    1.10    0.13
  10   4 -16    0.95    0.10
 -10   4  15    4.63    0.19
  10   4 -15    4.44    0.19
  10  -4 -15    4.72    0.19
  10   4 -15    4.67    0.18
 -10   4  14    0.29    0.09
  10   4 -14    0.25    0.10
  10  -4 -14    0.28    0.09
  10   4 -14    0.23    0.09
 -10   4  13   14.84    0.32
  10  -4 -13   14.75    0.31
  10  -4 -13   14.75    0.32
  10   4 -13   14.70    0.30
 -10   4  12   34.13    0.48
  10  -4 -12   32.48    0.47
  10  -4 -12   33.69    0.49
  10   4 -12   33.89    0.47
 -10  -4  11    0.07    0.08
 -10   4  11    0.01    0.06
  10  -4 -11    0.04    0.05
  10   4 -11    0.07    0.07
 -10  -4  10   11.23    0.30
 -10   4  10   11.19    0.30
  10  -4 -10   10.31    0.29
  10  -4 -10   11.46    0.31
  10   4 -10   10.61    0.30
  10   4 -10   10.88    0.28
 -10  -4   9    1.07    0.11
 -10   4   9    1.14    0.11
  10  -4  -9    1.05    0.10
  10  -4  -9    1.12    0.10
  10   4  -9    1.14    0.11
  10  -4  -9    1.00    0.10
  10   4  -9    1.08    0.11
 -10  -4   8   51.51    0.89
 -10   4   8   50.76    0.92
 -10  -4   8   51.52    0.81
  10  -4  -8   51.79    0.78
 -10  -4   7   44.44    0.70
  10   4  -7   45.14    0.68
 -10   4   7   45.16    0.71
  10  -4  -7   45.57    0.73
 -10  -4   7   45.54    0.75
  10  -4  -7   45.63    0.71
  10   4  -7   45.20    0.71
 -10  -4   6   42.78    0.64
  10   4  -6   44.88    0.61
 -10   4   6   44.19    0.64
  10  -4  -6   41.97    0.65
 -10  -4   6   43.72    0.64
  10  -4  -6   43.21    0.62
 -10   4   6   44.43    0.59
  10   4  -6   42.21    0.66
 -10  -4   5   80.49    0.74
  10   4  -5   78.42    0.70
 -10   4   5   78.26    0.79
  10  -4  -5   75.86    0.78
  10  -4  -5   78.73    0.74
 -10   4   5   77.79    0.71
  10   4  -5   78.86    0.76
 -10  -4   5   77.52    0.75
 -10  -4   4    2.92    0.14
  10   4  -4    2.76    0.13
 -10   4   4    3.07    0.16
  10  -4  -4    3.12    0.16
  10   4  -4    2.82    0.16
  10  -4  -4    2.79    0.14
 -10   4   4    2.89    0.13
  10   4  -4    3.04    0.16
 -10  -4   4    2.82    0.15
 -10  -4   3    0.58    0.08
  10   4  -3    0.60    0.07
 -10   4   3    0.54    0.08
  10  -4  -3    1.09    0.11
  10   4  -3    0.56    0.09
  10  -4  -3    0.51    0.07
 -10   4   3    0.56    0.07
  10   4  -3    0.53    0.09
 -10  -4   3    0.62    0.09
 -10  -4   2   23.43    0.48
  10   4  -2   22.58    0.46
 -10   4   2   24.06    0.52
 -10   4   2   21.99    0.46
  10   4  -2   23.81    0.50
 -10   4   2   23.21    0.48
  10   4  -2   23.20    0.47
  10  -4  -2   23.59    0.49
 -10   4   2   22.96    0.44
  10   4  -2   24.03    0.50
  10   4  -1    2.31    0.13
 -10   4   1    2.18    0.15
 -10  -4   1    2.11    0.14
  10   4  -1    2.27    0.14
 -10   4   1    2.23    0.12
  10   4  -1    2.27    0.13
  10  -4  -1    2.38    0.14
 -10   4   1    2.20    0.12
  10   4  -1    2.15    0.13
 -10   4   0    5.69    0.21
 -10  -4   0    6.14    0.22
  10   4   0    5.75    0.23
 -10   4   0    5.81    0.23
 -10  -4   0    6.08    0.24
  10   4   0    5.92    0.22
 -10   4   0    6.11    0.21
  10  -4   0    5.94    0.21
  10  -4   0    5.84    0.21
 -10   4   0    5.90    0.20
  10   4   0    6.10    0.23
 -10   4  -1   99.74    1.41
 -10   4  -1  101.22    1.49
 -10  -4  -1   98.77    1.44
  10   4   1  103.84    1.47
 -10   4  -1  102.33    1.45
  10  -4   1  101.60    1.42
  10   4   1  102.55    1.43
  10  -4   1  103.24    1.50
 -10   4  -1  102.42    1.41
  10   4   1  107.26    1.51
 -10   4  -2    1.51    0.11
 -10   4  -2    1.55    0.12
 -10  -4  -2    1.63    0.13
  10   4   2    1.61    0.11
 -10   4  -2    1.62    0.11
  10  -4   2    1.55    0.11
 -10   4  -2    1.59    0.10
  10   4   2    1.53    0.12
 -10  -4  -3    0.81    0.10
  10   4   3    0.78    0.08
 -10   4  -3    0.77    0.08
  10  -4   3    0.70    0.08
 -10   4  -3    0.74    0.08
 -10   4  -3    0.79    0.10
 -10  -4  -4    5.65    0.22
  10   4   4    5.20    0.19
 -10   4  -4    5.33    0.19
  10  -4   4    4.94    0.18
 -10  -4  -4    5.12    0.20
 -10  -4  -5    0.84    0.08
 -10  -4  -5    0.96    0.09
 -10  -4  -5    1.31    0.12
 -10   4  -5    1.24    0.10
  10  -4   5    1.29    0.10
 -10  -4  -5    1.42    0.12
 -10  -4  -6    4.31    0.19
 -10  -4  -6    4.38    0.20
 -10   4  -6    4.32    0.18
 -10  -4  -6    4.47    0.20
  10  -4   7   14.37    0.34
 -10  -4  -7   15.57    0.31
 -10  -4  -7   16.10    0.37
 -10   4  -7   15.86    0.31
 -10  -4  -7   16.05    0.35
  10  -4   8   12.18    0.34
  10   4   8   11.39    0.32
 -10  -4  -8   11.43    0.29
 -10  -4  -8   12.11    0.34
 -10   4  -8   11.85    0.30
  10  -4   9    2.80    0.16
 -10  -4  -9    2.74    0.13
 -10  -4  -9    2.80    0.16
 -10   4  -9    2.62    0.14
  10  -4  10    0.26    0.09
 -10  -4 -10    0.15    0.09
 -10   4 -10    0.10    0.08
  10  -4  11   11.27    0.30
 -10  -4 -11   11.41    0.30
 -10   4 -11   11.03    0.26
  10  -4  12    0.36    0.11
 -10  -4 -12    0.24    0.10
 -10   4 -12    0.26    0.09
  10  -4  13    1.67    0.15
 -10  -4 -13    1.56    0.14
 -10   4 -13    1.70    0.13
  10  -4  14    6.44    0.23
 -10  -4 -14    6.30    0.23
 -10   4 -14    6.43    0.21
  10  -4  15    0.15    0.12
 -10  -4 -15    0.11    0.10
 -10   4 -15    0.07    0.09
  10  -4  16    1.54    0.14
 -10  -4 -16    1.35    0.13
 -10   4 -16    1.51    0.13
 -10  -6  16    0.20    0.10
  10   6 -16    0.21    0.11
  10  -6 -16    0.12    0.10
 -10  -6  15    4.71    0.19
  10   6 -15    4.89    0.21
 -10  -6  14    9.74    0.26
  10   6 -14   10.21    0.28
 -10  -6  13    0.24    0.09
 -10   6  13    0.19    0.08
  10   6 -13    0.18    0.10
  10  -6 -13    0.22    0.09
  10   6 -13    0.18    0.09
 -10  -6  12    3.24    0.17
 -10   6  12    3.28    0.16
  10   6 -12    3.37    0.18
  10  -6 -12    3.52    0.18
  10   6 -12    3.23    0.15
 -10  -6  11    0.34    0.08
 -10   6  11    0.33    0.09
  10   6 -11    0.30    0.09
  10  -6 -11    0.35    0.10
  10   6 -11    0.32    0.08
 -10  -6  10    0.30    0.08
 -10   6  10    0.24    0.07
  10   6 -10    0.24    0.09
  10  -6 -10    0.24    0.09
 -10   6   9    0.04    0.07
  10   6  -9    0.03    0.09
  10  -6  -9    0.04    0.08
 -10  -6   8    0.04    0.06
 -10   6   8    0.02    0.06
 -10  -6   8    0.00    0.08
  10  -6  -8    0.01    0.07
  10   6  -8    0.04    0.08
 -10  -6   7    8.57    0.24
 -10   6   7    9.18    0.25
 -10  -6   7    8.98    0.26
  10  -6  -7    8.93    0.25
  10   6  -7    9.03    0.25
 -10  -6   6    4.17    0.18
 -10   6   6    4.17    0.18
 -10  -6   6    4.37    0.20
  10  -6  -6    4.22    0.18
  10   6  -6    4.02    0.18
 -10  -6   5   20.86    0.45
 -10   6   5   21.12    0.47
 -10  -6   5   20.68    0.46
  10  -6  -5   20.78    0.45
  10   6  -5   21.34    0.46
 -10  -6   4    3.09    0.16
 -10   6   4    3.33    0.18
 -10  -6   4    3.13    0.17
  10  -6  -4    3.23    0.16
  10   6  -4    3.31    0.18
 -10  -6   3    0.10    0.07
 -10   6   3    0.18    0.09
  10  -6  -3    0.15    0.08
 -10   6   3    0.08    0.06
  10   6  -3    0.15    0.10
 -10  -6   2    2.74    0.15
 -10   6   2    2.25    0.16
  10  -6  -2    2.10    0.13
 -10   6   2    1.97    0.12
  10   6  -2    2.06    0.14
 -10   6   1    4.50    0.20
 -10  -6   1    4.37    0.20
 -10   6   1    4.29    0.16
  10  -6  -1    4.38    0.18
 -10   6   1    4.27    0.16
  10   6  -1    4.24    0.19
 -10   6   0    1.05    0.12
 -10  -6   0    1.03    0.11
 -10   6   0    1.03    0.09
  10  -6   0    1.07    0.10
  10   6   0    1.03    0.12
 -10   6  -1   41.78    0.75
 -10  -6  -1   41.12    0.75
 -10   6  -1   40.63    0.68
  10  -6   1   40.87    0.71
  10   6   1   41.55    0.74
 -10   6  -2    0.19    0.08
 -10  -6  -2    0.18    0.08
 -10   6  -2    0.20    0.06
  10   6   2    0.17    0.09
 -10   6  -3   19.25    0.46
 -10  -6  -3   19.08    0.45
 -10   6  -3   19.02    0.41
  10   6   3   19.07    0.43
 -10   6  -4    4.82    0.21
 -10  -6  -4    4.71    0.21
 -10   6  -4    4.57    0.17
 -10  -6  -5    4.80    0.21
 -10   6  -5    4.92    0.18
 -10  -6  -5    4.88    0.21
 -10  -6  -6    0.18    0.09
 -10   6  -6    0.04    0.06
 -10  -6  -6    0.00    0.09
 -10  -6  -7    0.01    0.08
 -10   6  -7    0.04    0.07
 -10  -6  -7   -0.07    0.08
 -10  -6  -8    1.25    0.14
 -10   6  -8    1.19    0.11
 -10  -6  -8    1.26    0.13
  10  -6   9    0.93    0.12
 -10  -6  -9    1.10    0.13
 -10   6  -9    0.98    0.10
 -10  -6  -9    1.26    0.13
  10  -6  10    0.02    0.09
 -10  -6 -10    0.03    0.09
 -10   6 -10    0.07    0.08
 -10  -6 -10    0.05    0.10
  10  -6  11    4.19    0.20
 -10  -6 -11    4.14    0.20
 -10   6 -11    4.46    0.18
 -10  -6 -11    4.36    0.19
  10  -6  12    2.59    0.17
 -10  -6 -12    2.31    0.16
 -10   6 -12    2.56    0.15
 -10  -6 -12    2.40    0.16
 -10  -6 -13    1.29    0.13
 -10   6 -13    1.43    0.13
 -10  -6 -14    1.92    0.15
 -10   6 -14    1.98    0.14
 -10  -8  13    1.63    0.14
  10   8 -13    1.71    0.15
  10  -8 -13    1.63    0.15
 -10  -8  12    0.16    0.09
  10   8 -12    0.29    0.11
  10  -8 -12    0.19    0.11
 -10  -8  11    0.29    0.09
  10   8 -11    0.26    0.10
  10  -8 -11    0.19    0.11
 -10  -8  10    4.66    0.19
  10   8 -10    4.73    0.20
  10  -8 -10    4.54    0.19
 -10  -8   9    0.23    0.08
  10   8  -9    0.27    0.10
  10  -8  -9    0.22    0.09
  10   8  -9    0.12    0.08
 -10  -8   8    1.31    0.12
  10   8  -8    1.42    0.13
  10  -8  -8    1.40    0.12
  10   8  -8    1.22    0.12
 -10  -8   7    3.41    0.17
  10  -8  -7    3.51    0.17
  10   8  -7    3.57    0.17
 -10  -8   6    5.07    0.21
  10  -8  -6    5.27    0.20
  10   8  -6    5.22    0.20
 -10   8   5    0.72    0.10
 -10  -8   5    0.85    0.12
  10  -8  -5    0.63    0.10
  10   8  -5    0.73    0.11
 -10   8   4    0.03    0.07
 -10  -8   4    0.02    0.08
  10  -8  -4    0.03    0.09
  10   8  -4    0.03    0.08
 -10   8   3    0.75    0.11
 -10  -8   3    0.68    0.11
  10  -8  -3    0.67    0.11
  10   8  -3    0.58    0.11
 -10   8   2    0.21    0.09
 -10  -8   2    0.23    0.09
  10   8  -2    0.17    0.09
 -10   8   1    2.51    0.16
  10  -8  -1    2.59    0.15
  10   8  -1    2.45    0.16
 -10   8   0    0.12    0.08
  10  -8   0    0.13    0.08
  10   8   0    0.03    0.09
 -10   8  -1    0.10    0.09
  10   8   1    0.13    0.10
 -10   8  -2    1.21    0.13
  10   8   2    1.47    0.14
 -10   8  -3    0.72    0.12
 -10  -8  -3    0.82    0.11
  10   8   3    0.76    0.11
 -10   8  -4    0.24    0.09
 -10  -8  -4    0.25    0.10
  10   8   4    0.27    0.11
 -10   8  -5    0.25    0.10
 -10  -8  -5    0.28    0.09
  10   8   5    0.26    0.11
 -10   8  -6   10.08    0.29
 -10  -8  -6    9.77    0.29
  10   8   6    9.69    0.28
 -10   8  -7    0.47    0.11
 -10  -8  -7    0.42    0.10
 -10  -8  -7    0.40    0.12
 -10  -8  -8    3.87    0.20
 -10  -8  -8    4.45    0.20
 -10  -8  -9    0.29    0.10
 -10  -8  -9    0.29    0.12
 -10   8 -10    0.46    0.09
 -10  -8 -10    0.53    0.12
 -10   8 -11    0.05    0.08
 -10  -8 -11   -0.01    0.11
  10  10  -6    2.13    0.15
  10  10  -5    1.90    0.14
  10 -10  -5    1.69    0.14
  10  10  -5    1.73    0.14
 -10 -10   4    3.20    0.17
  10 -10  -4    3.25    0.17
  10  10  -4    3.32    0.18
 -10 -10   3    0.73    0.11
  10  10  -3    0.75    0.12
 -10 -10   2    0.19    0.09
  10  10  -2    0.10    0.11
 -10 -10   1    0.44    0.10
  10  10  -1    0.39    0.10
 -10 -10   0    0.01    0.08
  10  10   0    0.07    0.10
 -10 -10  -1    1.40    0.13
  10  10   1    1.25    0.14
 -10 -10  -2    2.52    0.16
  10  10   2    2.48    0.16
  10  10   3    0.35    0.11
  10  10   4    0.04    0.11
 -11   1  20    3.53    0.18
  11  -1 -20    3.39    0.15
  11   1 -20    3.77    0.17
  11  -1 -20    3.55    0.17
  11   1 -20    3.52    0.17
 -11  -1  19    4.84    0.20
 -11   1  19    5.00    0.20
  11  -1 -19    4.57    0.17
  11   1 -19    4.72    0.19
  11  -1 -19    4.65    0.19
  11   1 -19    4.76    0.19
 -11  -1  18    1.90    0.14
 -11   1  18    1.86    0.13
  11  -1 -18    1.94    0.13
  11   1 -18    1.98    0.14
  11  -1 -18    1.96    0.13
  11   1 -18    1.89    0.13
 -11  -1  17    0.37    0.09
 -11   1  17    0.28    0.10
  11  -1 -17    0.41    0.08
  11  -1 -17    0.31    0.09
  11   1 -17    0.33    0.09
 -11  -1  16    5.30    0.20
 -11   1  16    5.42    0.21
  11  -1 -16    5.40    0.19
  11   1 -16    5.70    0.20
  11  -1 -16    5.33    0.20
  11   1 -16    5.41    0.19
 -11  -1  15    4.25    0.19
 -11   1  15    4.27    0.18
  11  -1 -15    3.99    0.17
  11   1 -15    4.04    0.18
  11  -1 -15    4.23    0.18
  11   1 -15    4.10    0.18
 -11  -1  14    9.24    0.26
 -11   1  14    9.46    0.26
  11   1 -14    9.86    0.27
  11  -1 -14    9.87    0.26
  11   1 -14    9.46    0.25
 -11  -1  13   16.59    0.39
 -11   1  13   15.88    0.38
  11   1 -13   16.00    0.38
  11  -1 -13   16.33    0.38
  11   1 -13   16.05    0.37
 -11  -1  12    3.51    0.17
 -11   1  12    3.82    0.17
  11  -1 -12    3.89    0.17
  11   1 -12    3.96    0.17
  11  -1 -12    3.90    0.17
  11   1 -12    3.81    0.17
 -11   1  11    3.13    0.16
  11  -1 -11    3.19    0.16
  11   1 -11    3.25    0.16
  11  -1 -11    3.32    0.16
  11   1 -11    2.99    0.15
 -11   1  10    0.77    0.10
  11  -1 -10    0.91    0.10
  11   1 -10    0.74    0.10
  11  -1 -10    0.77    0.10
  11   1 -10    0.88    0.10
 -11   1   9    1.98    0.13
  11   1  -9    2.16    0.13
  11  -1  -9    2.04    0.13
  11   1  -9    2.34    0.15
  11  -1  -9    2.04    0.13
  11   1  -9    2.14    0.13
 -11   1   8    0.07    0.05
  11   1  -8    0.03    0.06
 -11  -1   8    0.04    0.06
  11  -1  -8    0.03    0.05
  11   1  -8    0.01    0.05
  11  -1  -8    0.02    0.05
  11  -1  -8    0.09    0.07
  11   1  -8    0.06    0.06
 -11   1   8    0.02    0.05
 -11   1   7    0.72    0.09
  11   1  -7    0.72    0.09
  11  -1  -7    0.74    0.08
 -11  -1   7    0.69    0.09
  11   1  -7    0.79    0.09
  11  -1  -7    0.69    0.09
  11  -1  -7    0.70    0.08
  11  -1  -7    0.58    0.08
  11   1  -7    0.72    0.09
 -11   1   7    0.67    0.08
 -11  -1   6    3.00    0.14
 -11   1   6    3.19    0.15
  11   1  -6    3.50    0.16
  11  -1  -6    3.42    0.16
 -11   1   6    3.34    0.16
 -11  -1   6    3.40    0.16
  11   1  -6    3.40    0.16
  11  -1  -6    3.30    0.16
  11   1  -6    3.25    0.15
 -11   1   6    3.37    0.14
 -11  -1   6    3.44    0.15
 -11  -1   5   26.11    0.46
 -11   1   5   27.66    0.49
  11   1  -5   26.97    0.47
  11  -1  -5   28.82    0.51
  11   1  -5   26.43    0.49
  11  -1  -5   26.82    0.50
 -11   1   5   27.22    0.45
  11   1  -5   27.63    0.48
 -11  -1   5   26.60    0.46
 -11  -1   4    7.61    0.22
 -11   1   4    7.88    0.24
  11   1  -4    7.99    0.24
  11  -1  -4    7.90    0.25
 -11  -1   4    7.88    0.25
 -11   1   4    8.01    0.25
  11   1  -4    7.87    0.25
  11  -1  -4    7.56    0.24
  11  -1  -4    7.54    0.22
 -11   1   4    8.39    0.22
 -11  -1   4    7.92    0.23
 -11  -1   3   24.40    0.45
 -11   1   3   24.12    0.47
  11   1  -3   26.02    0.48
  11  -1  -3   24.73    0.48
 -11  -1   3   25.77    0.50
 -11   1   3   24.45    0.48
  11   1  -3   24.72    0.48
  11  -1  -3   24.43    0.47
  11  -1  -3   24.31    0.42
 -11  -1   3   25.69    0.46
 -11  -1   2    0.97    0.09
 -11   1   2    0.86    0.10
  11   1  -2    0.93    0.09
  11  -1  -2    0.94    0.10
 -11  -1   2    0.93    0.10
 -11   1   2    0.93    0.10
  11   1  -2    0.87    0.09
  11  -1  -2    0.88    0.09
  11  -1  -2    0.87    0.08
 -11  -1   2    0.86    0.08
 -11  -1   1    5.12    0.20
  11   1  -1    5.30    0.21
  11  -1  -1    5.04    0.20
 -11  -1   1    5.08    0.20
 -11   1   1    5.07    0.20
  11  -1  -1    5.38    0.19
  11  -1  -1    5.13    0.17
 -11   1   1    5.33    0.18
 -11  -1   1    5.30    0.19
 -11  -1   0   24.75    0.48
  11   1   0   24.83    0.48
  11  -1   0   26.29    0.49
 -11  -1   0   24.80    0.49
 -11   1   0   24.18    0.47
  11  -1   0   24.28    0.43
  11  -1   0   25.36    0.44
 -11   1   0   24.94    0.45
  11   1   0   24.66    0.47
 -11  -1   0   24.64    0.46
 -11  -1  -1  523.39    4.74
 -11   1  -1  513.38    5.62
  11  -1   1  515.57    4.44
  11   1   1  519.06    4.65
 -11   1  -1  499.08    4.45
 -11   1  -2    2.09    0.13
 -11  -1  -2    2.21    0.13
 -11  -1  -2    2.21    0.15
 -11  -1  -2    2.23    0.15
 -11   1  -2    2.26    0.14
  11   1   2    2.13    0.13
  11  -1   2    2.10    0.12
  11   1   2    2.09    0.13
  11  -1   2    2.28    0.13
  11   1   2    2.11    0.13
 -11   1  -2    2.15    0.13
 -11   1  -3  202.55    1.97
 -11  -1  -3  201.37    2.01
 -11  -1  -3  203.05    2.10
 -11  -1  -3  199.89    2.05
 -11   1  -3  206.08    2.08
  11   1   3  200.03    1.96
  11  -1   3  205.08    1.99
  11   1   3  204.65    2.00
  11  -1   3  199.23    1.99
  11   1   3  202.03    2.12
 -11   1  -4   42.91    0.68
 -11  -1  -4   43.59    0.69
 -11  -1  -4   44.99    0.73
 -11   1  -4   45.23    0.72
  11   1   4   46.25    0.70
  11  -1   4   45.16    0.69
  11   1   4   44.95    0.71
  11  -1   4   43.56    0.68
  11  -1   4   44.58    0.72
  11   1   4   43.45    0.73
  11   1   5   13.19    0.35
  11  -1   5   13.04    0.35
 -11   1  -5   13.04    0.32
 -11  -1  -5   13.53    0.33
 -11  -1  -5   13.53    0.35
 -11   1  -5   13.01    0.33
  11   1   5   12.79    0.31
  11  -1   5   13.31    0.32
 -11  -1  -5   13.13    0.34
  11   1   5   13.12    0.32
  11  -1   5   13.08    0.32
  11  -1   5   13.43    0.34
  11   1   6   39.29    0.56
  11  -1   6   38.27    0.55
 -11   1  -6   39.12    0.49
 -11  -1  -6   38.87    0.50
 -11  -1  -6   38.22    0.53
 -11   1  -6   39.06    0.51
  11   1   6   39.77    0.48
  11  -1   6   37.12    0.47
 -11  -1  -6   38.37    0.52
  11   1   6   39.40    0.51
  11  -1   6   38.03    0.48
  11  -1   6   39.12    0.54
  11  -1   7    0.05    0.06
  11   1   7    0.06    0.05
 -11   1  -7    0.07    0.05
 -11   1  -7    0.06    0.05
 -11  -1  -7    0.24    0.06
  11   1   7    0.04    0.05
  11  -1   7    0.05    0.04
  11  -1   8    5.49    0.22
  11   1   8    5.55    0.22
 -11  -1  -8    5.54    0.20
 -11   1  -8    5.32    0.19
 -11   1  -8    5.51    0.21
  11   1   8    5.43    0.19
  11  -1   8    5.16    0.18
  11  -1   9    0.68    0.09
  11   1   9    0.59    0.09
 -11  -1  -9    0.74    0.08
 -11   1  -9    0.59    0.09
 -11   1  -9    1.12    0.10
  11   1   9    0.63    0.08
  11  -1   9    0.56    0.07
  11  -1  10    1.52    0.13
  11   1  10    1.42    0.11
 -11   1 -10    1.50    0.11
  11   1  10    1.55    0.11
  11  -1  10    1.49    0.10
  11  -1  11   20.72    0.45
  11   1  11   20.67    0.45
 -11  -1 -11   19.82    0.43
 -11   1 -11   20.22    0.43
 -11  -1 -11   20.32    0.45
  11   1  11   20.21    0.41
  11  -1  11   20.14    0.41
  11  -1  12    6.68    0.23
  11   1  12    6.77    0.23
 -11  -1 -12    6.82    0.22
 -11   1 -12    6.76    0.21
 -11  -1 -12    6.67    0.22
  11  -1  13    2.97    0.16
  11   1  13    3.02    0.16
 -11  -1 -13    3.17    0.17
 -11   1 -13    3.04    0.16
 -11  -1 -13    2.91    0.16
  11  -1  14    2.71    0.16
  11   1  14    2.95    0.16
 -11  -1 -14    2.80    0.15
  11  -1  15    0.02    0.09
  11   1  15   -0.07    0.08
 -11  -1 -15   -0.01    0.09
  11  -1  16    0.05    0.10
  11   1  16    0.01    0.09
 -11  -1 -16    0.10    0.10
  11  -1  17    4.72    0.21
 -11  -1 -17    4.82    0.20
 -11   1 -17    4.54    0.19
 -11   3  19    3.76    0.18
  11  -3 -19    3.57    0.18
 -11   3  18    0.47    0.10
  11   3 -18    0.40    0.10
  11  -3 -18    0.41    0.10
  11   3 -18    0.42    0.09
 -11   3  17    0.29    0.10
  11   3 -17    0.15    0.09
  11  -3 -17    0.18    0.10
  11   3 -17    0.11    0.08
 -11  -3  16    1.98    0.14
 -11   3  16    1.74    0.13
  11   3 -16    1.71    0.14
  11  -3 -16    1.85    0.14
  11   3 -16    1.80    0.13
 -11  -3  15    0.22    0.10
 -11   3  15    0.30    0.09
  11  -3 -15    0.21    0.07
  11   3 -15    0.27    0.09
  11  -3 -15    0.28    0.09
  11   3 -15    0.28    0.08
 -11  -3  14    1.11    0.11
 -11   3  14    1.11    0.11
  11  -3 -14    1.13    0.10
  11   3 -14    1.19    0.12
  11  -3 -14    1.21    0.12
  11   3 -14    1.12    0.11
 -11  -3  13   16.48    0.34
 -11   3  13   16.95    0.33
  11  -3 -13   15.59    0.31
  11   3 -13   16.90    0.35
  11  -3 -13   16.84    0.34
  11   3 -13   16.67    0.32
 -11  -3  12    0.05    0.08
 -11   3  12    0.12    0.08
  11  -3 -12    0.15    0.06
  11   3 -12    0.05    0.08
  11  -3 -12    0.10    0.07
  11   3 -12    0.09    0.06
 -11  -3  11   29.30    0.56
 -11   3  11   27.58    0.52
  11  -3 -11   27.23    0.51
  11   3 -11   27.49    0.54
  11  -3 -11   27.32    0.52
  11   3 -11   28.65    0.52
 -11  -3  10    7.40    0.23
 -11   3  10    7.55    0.22
  11  -3 -10    7.70    0.24
  11  -3 -10    7.60    0.22
  11   3 -10    7.91    0.22
 -11  -3   9   31.80    0.56
 -11   3   9   32.57    0.56
 -11  -3   9   30.77    0.55
  11  -3  -9   30.84    0.56
  11  -3  -9   30.92    0.53
  11   3  -9   30.58    0.53
 -11  -3   8    1.17    0.10
  11   3  -8    1.19    0.09
 -11   3   8    1.34    0.11
 -11  -3   8    1.14    0.10
  11  -3  -8    1.14    0.10
  11  -3  -8    1.21    0.09
  11   3  -8    1.30    0.11
 -11  -3   6   25.73    0.42
  11   3  -6   25.01    0.39
 -11   3   6   25.28    0.42
  11  -3  -6   24.48    0.43
 -11  -3   6   24.22    0.43
  11  -3  -6   24.33    0.41
  11  -3  -6   24.50    0.41
  11  -3  -6   25.12    0.41
 -11   3   6   24.50    0.37
  11   3  -6   25.72    0.41
 -11  -3   6   25.16    0.41
 -11  -3   5    4.02    0.17
  11   3  -5    3.95    0.16
 -11   3   5    4.04    0.18
  11  -3  -5    3.96    0.19
  11   3  -5    3.97    0.18
  11  -3  -5    4.11    0.17
 -11   3   5    4.19    0.16
  11   3  -5    4.07    0.17
 -11  -3   4    3.23    0.15
  11   3  -4    3.27    0.15
 -11   3   4    3.08    0.16
  11  -3  -4    3.15    0.17
  11   3  -4    3.25    0.17
  11  -3  -4    3.28    0.15
 -11   3   4    3.17    0.14
  11   3  -4    3.11    0.16
 -11  -3   3   18.14    0.39
  11   3  -3   17.22    0.38
 -11   3   3   16.88    0.40
  11  -3  -3   16.38    0.39
 -11  -3   3   17.00    0.41
 -11   3   3   16.75    0.39
  11   3  -3   17.24    0.40
  11  -3  -3   16.92    0.37
 -11   3   3   16.41    0.35
  11   3  -3   16.57    0.38
 -11  -3   3   15.06    0.35
 -11  -3   2    0.61    0.07
  11   3  -2    0.55    0.07
 -11   3   2    0.59    0.08
 -11  -3   2    0.50    0.08
  11   3  -2    0.59    0.09
 -11   3   2    0.57    0.08
  11  -3  -2    0.52    0.07
 -11   3   2    0.55    0.07
  11   3  -2    0.55    0.08
 -11  -3   2    0.51    0.08
 -11  -3   1    0.53    0.07
  11   3  -1    0.50    0.07
 -11   3   1    0.51    0.09
 -11  -3   1    0.49    0.08
  11   3  -1    0.48    0.07
 -11   3   1    0.72    0.08
  11   3  -1    0.56    0.08
  11  -3  -1    0.52    0.07
 -11   3   1    0.51    0.06
  11   3  -1    0.69    0.08
 -11  -3   0    5.02    0.18
 -11   3   0    4.91    0.21
  11   3   0    5.00    0.20
  11   3   0    5.24    0.20
 -11   3   0    5.06    0.19
  11  -3   0    4.88    0.18
 -11   3   0    5.03    0.17
 -11  -3  -1   67.54    0.98
 -11   3  -1   68.21    0.97
 -11  -3  -1   70.26    0.98
 -11   3  -1   72.05    1.06
  11   3   1   68.78    0.99
 -11   3  -1   66.72    0.99
  11  -3   1   69.53    0.97
  11  -3   1   69.00    0.97
 -11   3  -1   71.40    0.97
 -11   3  -2    8.41    0.26
 -11  -3  -2    7.82    0.24
 -11  -3  -2    7.76    0.25
 -11   3  -2    7.96    0.28
  11   3   2    7.85    0.25
 -11   3  -2    8.10    0.24
  11  -3   2    8.16    0.25
  11   3   2    7.76    0.25
  11  -3   2    8.17    0.25
 -11   3  -2    7.77    0.24
 -11   3  -3    1.03    0.09
 -11  -3  -3    0.90    0.09
  11   3   3    0.93    0.09
 -11   3  -3    0.87    0.08
  11  -3   3    0.92    0.08
  11   3   3    0.93    0.09
  11   3   3    0.93    0.10
 -11   3  -4    3.38    0.15
 -11  -3  -4    3.29    0.15
 -11  -3  -4    3.32    0.17
 -11  -3  -4    3.20    0.17
  11   3   4    3.16    0.15
 -11   3  -4    3.45    0.15
  11  -3   4    3.86    0.16
 -11  -3  -4    3.17    0.16
  11   3   4    3.42    0.15
 -11  -3  -5    3.82    0.16
 -11  -3  -5    3.96    0.18
 -11  -3  -5    3.83    0.19
  11   3   5    3.65    0.15
 -11   3  -5    3.91    0.16
  11  -3   5    3.89    0.16
 -11  -3  -5    3.97    0.18
  11   3   5    3.96    0.16
  11  -3   6    6.54    0.24
 -11  -3  -6    6.51    0.21
 -11  -3  -6    6.60    0.24
 -11   3  -6    6.32    0.21
 -11  -3  -6    6.48    0.23
  11  -3   7   29.91    0.57
  11   3   7   27.97    0.53
 -11  -3  -7   28.51    0.50
 -11  -3  -7   28.50    0.54
 -11   3  -7   28.63    0.50
 -11  -3  -7   29.24    0.54
  11  -3   8    0.62    0.10
  11   3   8    0.57    0.09
 -11  -3  -8    0.50    0.07
 -11  -3  -8    0.50    0.10
 -11   3  -8    0.59    0.09
  11  -3   9   18.43    0.43
  11   3   9   18.16    0.41
 -11  -3  -9   17.60    0.38
 -11  -3  -9   19.22    0.44
 -11   3  -9   17.94    0.39
  11  -3  10   11.11    0.30
  11   3  10   11.43    0.29
 -11  -3 -10   12.02    0.27
 -11  -3 -10   11.50    0.30
 -11   3 -10   11.05    0.26
  11  -3  11   11.86    0.31
  11   3  11   11.26    0.28
 -11  -3 -11   11.20    0.29
 -11   3 -11   11.44    0.27
  11  -3  12    0.60    0.11
 -11  -3 -12    0.58    0.11
 -11   3 -12    0.61    0.10
  11  -3  13    1.04    0.13
 -11  -3 -13    1.06    0.13
 -11   3 -13    0.91    0.10
  11  -3  14    0.18    0.11
 -11  -3 -14    0.07    0.10
 -11   3 -14    0.01    0.10
  11  -3  15    0.18    0.10
 -11  -3 -15    0.37    0.10
 -11   3 -15    0.14    0.09
  11  -3  16    1.47    0.16
 -11  -3 -16    1.51    0.14
 -11   3 -16    1.55    0.14
  11  -3  17    8.66    0.27
 -11  -3 -17    8.10    0.25
 -11   3 -17    8.27    0.24
 -11  -5  17    0.11    0.10
 -11   5  17    0.14    0.08
  11   5 -17    0.16    0.10
  11  -5 -17    0.12    0.11
 -11  -5  16    0.34    0.09
 -11   5  16    0.34    0.09
  11  -5 -16    0.43    0.12
 -11  -5  15    1.44    0.13
 -11   5  15    1.59    0.12
  11  -5 -15    1.39    0.12
  11   5 -15    1.42    0.11
 -11  -5  14    3.56    0.17
 -11   5  14    3.68    0.17
  11   5 -14    3.54    0.16
 -11  -5  13    1.48    0.13
 -11   5  13    1.53    0.12
  11   5 -13    1.44    0.13
  11   5 -13    1.42    0.12
 -11  -5  12    4.73    0.18
 -11   5  12    5.00    0.19
  11   5 -12    4.86    0.20
  11   5 -12    4.85    0.18
 -11   5  11    0.27    0.08
  11   5 -11    0.23    0.09
  11  -5 -11    0.12    0.08
  11   5 -11    0.20    0.07
 -11   5  10    5.37    0.19
  11   5 -10    5.21    0.21
  11  -5 -10    5.18    0.20
  11   5 -10    5.82    0.20
 -11   5   9   17.13    0.38
 -11  -5   9   16.85    0.40
  11  -5  -9   17.81    0.40
 -11   5   8    6.63    0.22
  11  -5  -8    6.86    0.22
  11   5  -7    0.30    0.07
 -11   5   7    0.34    0.09
  11  -5  -7    0.35    0.08
  11   5  -7    0.39    0.10
  11   5  -6   28.68    0.42
 -11   5   6   27.93    0.45
  11  -5  -6   27.70    0.44
  11   5  -6   27.10    0.42
  11   5  -5    2.47    0.13
 -11   5   5    2.46    0.15
  11  -5  -5    2.84    0.16
  11   5  -5    2.43    0.14
 -11  -5   4    0.94    0.09
  11   5  -4    0.91    0.09
 -11   5   4    1.08    0.12
  11  -5  -4    1.10    0.11
 -11   5   4    0.94    0.09
  11   5  -4    1.01    0.12
 -11  -5   3    1.67    0.11
  11   5  -3    1.65    0.11
 -11   5   3    1.78    0.14
  11  -5  -3    1.78    0.12
 -11   5   3    1.59    0.11
  11   5  -3    1.80    0.13
 -11  -5   2    1.72    0.11
  11   5  -2    1.52    0.11
 -11   5   2    1.75    0.14
 -11  -5   2    1.70    0.13
 -11   5   2    1.68    0.12
 -11   5   2    1.73    0.12
  11  -5  -2    1.62    0.12
 -11   5   2    1.61    0.11
  11   5  -2    1.75    0.13
 -11  -5   1    2.37    0.13
  11   5  -1    2.22    0.13
 -11   5   1    2.35    0.15
 -11   5   1    2.42    0.14
 -11  -5   1    2.35    0.15
 -11   5   1    2.36    0.13
  11  -5  -1    2.38    0.13
 -11   5   1    2.27    0.12
  11   5  -1    2.48    0.15
 -11   5   0    4.06    0.20
 -11   5   0    3.97    0.17
 -11  -5   0    3.99    0.19
 -11   5   0    3.77    0.15
  11  -5   0    3.87    0.16
 -11   5   0    3.70    0.15
  11   5   0    3.98    0.18
 -11   5  -1   11.08    0.33
 -11   5  -1   10.51    0.28
 -11  -5  -1   10.44    0.31
 -11   5  -1   10.71    0.28
  11  -5   1   10.89    0.29
 -11   5  -1   10.52    0.26
  11   5   1   10.39    0.30
 -11   5  -2   73.78    1.07
 -11  -5  -2   71.86    1.04
 -11   5  -2   73.79    0.99
  11  -5   2   75.04    1.02
 -11   5  -2   71.54    0.97
  11   5   2   73.13    1.03
 -11   5  -3    5.94    0.23
 -11  -5  -3    5.94    0.23
 -11   5  -3    5.94    0.20
  11  -5   3    5.54    0.20
 -11   5  -3    5.95    0.21
  11   5   3    5.71    0.21
 -11   5  -4    8.55    0.27
 -11  -5  -4    7.95    0.26
 -11   5  -4    7.90    0.23
  11  -5   4    8.00    0.23
 -11  -5  -5   13.94    0.38
 -11   5  -5   12.95    0.32
 -11  -5  -5   13.23    0.35
 -11  -5  -6   76.40    1.20
 -11   5  -6   75.12    1.10
 -11  -5  -6   74.81    1.14
 -11  -5  -7    0.08    0.08
 -11   5  -7    0.11    0.07
 -11  -5  -7    0.10    0.09
 -11  -5  -8    0.46    0.10
 -11   5  -8    0.53    0.09
 -11  -5  -8    0.65    0.10
 -11  -5  -9    3.64    0.18
 -11   5  -9    3.49    0.16
 -11  -5  -9    3.89    0.18
 -11  -5 -10    0.50    0.11
 -11   5 -10    0.58    0.10
 -11  -5 -10    0.53    0.11
 -11  -5 -11   12.17    0.32
 -11   5 -11   12.21    0.29
 -11  -5 -11   12.24    0.30
  11  -5  12    0.97    0.13
 -11  -5 -12    0.87    0.12
 -11   5 -12    1.09    0.12
  11  -5  13    3.83    0.19
 -11  -5 -13    4.04    0.19
 -11   5 -13    4.03    0.18
  11  -5  14    2.02    0.16
 -11  -5 -14    1.88    0.15
 -11   5 -14    1.99    0.14
  11  -5  15    2.23    0.17
 -11  -5 -15    2.17    0.15
 -11   5 -15    2.32    0.15
 -11  -7  15    0.25    0.09
  11  -7 -15    0.14    0.10
 -11  -7  14    0.36    0.10
  11   7 -14    0.31    0.11
  11  -7 -14    0.39    0.10
 -11  -7  13    2.45    0.15
  11   7 -13    2.47    0.16
  11  -7 -13    2.25    0.15
 -11  -7  12    0.97    0.12
  11   7 -12    1.07    0.12
  11  -7 -12    1.10    0.12
  11   7 -12    1.09    0.11
 -11  -7  11   15.85    0.33
  11   7 -11   15.85    0.34
  11  -7 -11   15.80    0.33
  11   7 -11   16.18    0.33
 -11  -7  10    2.60    0.15
 -11   7  10    2.92    0.15
  11   7 -10    2.52    0.16
  11  -7 -10    2.64    0.15
 -11  -7   9    2.66    0.15
 -11   7   9    2.37    0.14
  11   7  -9    2.53    0.15
  11  -7  -9    2.39    0.15
 -11  -7   8    1.74    0.12
 -11   7   8    1.84    0.13
 -11  -7   8    1.80    0.14
  11  -7  -8    1.81    0.13
  11   7  -8    1.64    0.12
 -11  -7   7    2.32    0.14
 -11   7   7    2.30    0.14
 -11  -7   7    2.36    0.16
  11  -7  -7    2.19    0.15
  11   7  -7    2.30    0.14
 -11  -7   6   11.23    0.28
 -11   7   6   11.12    0.28
 -11  -7   6   11.72    0.31
  11  -7  -6   11.57    0.29
  11   7  -6   11.37    0.28
 -11  -7   5    2.44    0.14
 -11   7   5    2.56    0.15
 -11  -7   5    2.39    0.15
  11  -7  -5    2.67    0.16
  11   7  -5    2.45    0.15
 -11  -7   4    1.38    0.12
 -11   7   4    1.51    0.13
 -11  -7   4    1.34    0.13
  11  -7  -4    1.44    0.12
  11   7  -4    1.57    0.14
 -11  -7   3    3.35    0.17
 -11   7   3    3.51    0.18
  11  -7  -3    3.47    0.17
  11   7  -3    3.43    0.17
 -11   7   2    0.58    0.10
  11  -7  -2    0.63    0.10
  11   7  -2    0.61    0.11
 -11   7   1    0.55    0.11
  11  -7  -1    0.57    0.10
  11   7  -1    0.52    0.10
 -11   7   0   21.74    0.43
 -11  -7   0   21.40    0.41
  11   7   0   20.68    0.39
 -11   7  -1    2.92    0.18
 -11  -7  -1    2.80    0.17
  11  -7   1    3.00    0.15
  11   7   1    2.88    0.17
 -11   7  -2   68.11    0.79
 -11  -7  -2   69.51    0.76
  11   7   2   66.99    0.73
 -11   7  -3    0.99    0.13
 -11  -7  -3    1.02    0.12
  11   7   3    1.10    0.13
 -11   7  -4    5.47    0.22
 -11  -7  -4    5.33    0.22
 -11   7  -4    5.33    0.19
  11   7   4    5.26    0.21
 -11   7  -5    0.77    0.11
 -11  -7  -5    0.85    0.11
 -11   7  -5    0.92    0.10
  11   7   5    0.96    0.13
 -11   7  -6    1.11    0.13
 -11  -7  -6    0.97    0.12
 -11   7  -6    1.00    0.11
 -11  -7  -7    0.01    0.07
 -11   7  -7    0.01    0.07
 -11  -7  -7   -0.01    0.09
 -11  -7  -8    5.48    0.22
 -11   7  -8    5.55    0.19
 -11  -7  -8    5.32    0.21
 -11  -7  -9   10.85    0.31
 -11   7  -9   10.91    0.27
 -11  -7  -9   11.11    0.30
 -11  -7 -10    0.08    0.09
 -11   7 -10    0.02    0.08
 -11  -7 -10    0.13    0.11
 -11  -7 -11    0.19    0.11
 -11   7 -11    0.17    0.08
 -11  -7 -11    0.25    0.10
 -11  -7 -12    2.49    0.17
 -11   7 -12    2.29    0.14
 -11  -7 -12    2.43    0.16
  11   9 -10    0.11    0.10
  11  -9 -10    0.14    0.10
  11   9  -9    0.07    0.10
  11  -9  -9    0.04    0.09
  11   9  -8    0.09    0.10
  11  -9  -8    0.05    0.09
  11   9  -8    0.06    0.09
  11   9  -7    1.02    0.12
  11  -9  -7    1.04    0.12
  11   9  -7    0.96    0.12
 -11  -9   6    0.54    0.10
  11  -9  -6    0.56    0.10
  11   9  -6    0.56    0.10
 -11  -9   5    0.67    0.11
  11  -9  -5    0.81    0.11
  11   9  -5    0.74    0.11
 -11  -9   4    0.09    0.08
  11   9  -4    0.10    0.09
 -11  -9   3    0.16    0.09
  11   9  -3    0.18    0.10
 -11  -9   2    3.68    0.18
  11  -9  -2    3.97    0.18
  11   9  -2    3.68    0.18
 -11  -9   1    0.42    0.11
  11  -9  -1    0.34    0.09
  11   9  -1    0.38    0.11
 -11   9   0    2.31    0.15
  11   9   0    2.44    0.15
 -11   9  -1    4.54    0.21
  11   9   1    4.48    0.21
 -11   9  -2    3.45    0.19
  11   9   2    3.32    0.18
 -11   9  -3    0.74    0.11
  11   9   3    0.80    0.13
 -11   9  -4    5.79    0.23
 -11  -9  -4    6.29    0.23
  11   9   4    6.21    0.23
 -11   9  -5    0.04    0.09
 -11  -9  -5    0.04    0.09
  11   9   5    0.06    0.10
 -11   9  -6    1.79    0.15
 -11  -9  -6    1.89    0.14
  11   9   6    1.87    0.15
 -11   9  -7    0.05    0.10
  11   9   7    0.08    0.11
 -11   9  -8    1.84    0.16
 -12   0  20    2.42    0.15
  12   0 -20    2.54    0.14
  12   0 -20    2.65    0.15
 -12   0  19   -0.02    0.09
  12   0 -19    0.05    0.08
  12   0 -19    0.06    0.08
 -12   0  18    3.98    0.18
  12   0 -18    4.00    0.17
  12   0 -18    3.84    0.18
 -12   0  17   -0.01    0.08
  12   0 -17    0.02    0.08
  12   0 -17   -0.03    0.08
 -12   0  16    0.16    0.09
  12   0 -16    0.16    0.09
 -12   0  15    0.09    0.09
  12   0 -15    0.08    0.07
  12   0 -15   -0.01    0.08
 -12   0  14    1.30    0.12
  12   0 -14    1.66    0.12
  12   0 -14    1.22    0.12
 -12   0  13    0.07    0.08
  12   0 -13    0.03    0.08
  12   0 -13    0.01    0.09
 -12   0  12    1.30    0.12
  12   0 -12    1.31    0.12
  12   0 -12    1.19    0.12
 -12   0  11    0.10    0.08
  12   0 -11    0.01    0.07
  12   0 -11    0.04    0.09
 -12   0  10    0.85    0.11
  12   0 -10    0.81    0.10
  12   0 -10    0.95    0.10
  12   0 -10    0.95    0.11
 -12   0   9    0.04    0.08
  12   0  -9    0.16    0.07
  12   0  -9    0.03    0.07
  12   0  -9    0.01    0.07
 -12   0   8    8.19    0.24
  12   0  -8    8.31    0.24
 -12   0   8    8.26    0.24
  12   0  -8    7.82    0.24
  12   0  -8    8.05    0.22
  12   0  -7    0.02    0.05
 -12   0   7    0.06    0.05
  12   0  -7    0.00    0.05
  12   0  -7    0.13    0.05
  12   0  -6    2.28    0.14
 -12   0   6    2.09    0.13
  12   0  -6    2.21    0.14
  12   0  -6    1.95    0.12
  12   0  -5    0.00    0.05
  12   0  -5    0.04    0.06
 -12   0   5    0.03    0.06
  12   0  -4   17.58    0.38
 -12   0   4   18.42    0.41
  12   0  -4   18.06    0.40
 -12   0   4   17.29    0.35
  12   0  -3    0.02    0.05
 -12   0   3    0.04    0.04
  12   0  -3    0.01    0.04
  12   0  -3    0.04    0.04
 -12   0   3    0.11    0.05
 -12   0   2    1.83    0.12
  12   0  -2    1.95    0.13
 -12   0   2    1.89    0.13
  12   0  -2    1.90    0.12
 -12   0   2    1.89    0.12
 -12   0   1    0.06    0.05
  12   0  -1    0.04    0.04
 -12   0   1    0.03    0.04
  12   0  -1    0.03    0.04
  12   0  -1    0.01    0.04
 -12   0   1    0.04    0.05
 -12   0   0  154.78    1.71
  12   0   0  162.25    1.73
 -12   0   0  165.71    1.78
  12   0   0  156.80    1.62
  12   0   0  166.00    1.78
 -12   0   0  161.47    1.67
 -12   0  -1    0.14    0.07
 -12   0  -1    0.19    0.08
  12   0   1    0.14    0.07
  12   0   1    0.13    0.07
 -12   0  -1    0.11    0.07
 -12   0  -2   39.41    0.61
 -12   0  -2   37.52    0.64
 -12   0  -2   39.45    0.63
  12   0   2   34.66    0.55
  12   0   2   37.07    0.58
  12   0   2   37.16    0.60
 -12   0  -3    0.14    0.07
 -12   0  -3    0.10    0.07
 -12   0  -3    0.15    0.07
  12   0   3    0.14    0.06
 -12   0  -4   28.08    0.51
 -12   0  -4   28.47    0.53
  12   0   4   28.42    0.51
  12   0   4   27.46    0.52
 -12   0  -5    0.01    0.05
 -12   0  -5    0.00    0.06
  12   0   5    0.01    0.04
  12   0   5    0.03    0.04
  12   0   6   22.30    0.42
 -12   0  -6   23.18    0.38
 -12   0  -6   22.35    0.39
  12   0   6   22.38    0.37
  12   0   6   21.81    0.40
  12   0   7    0.03    0.07
 -12   0  -7    0.17    0.06
 -12   0  -7    0.02    0.06
 -12   0  -7    0.02    0.06
  12   0   7    0.03    0.04
  12   0   8  135.82    1.66
 -12   0  -8  139.57    1.70
 -12   0  -8  135.15    1.64
  12   0   8  132.70    1.58
  12   0   9    0.40    0.10
 -12   0  -9    0.14    0.08
 -12   0  -9    0.09    0.07
  12   0   9    0.08    0.06
  12   0  10    0.32    0.08
 -12   0 -10    0.28    0.07
  12   0  10    0.30    0.06
  12   0  11    0.03    0.07
  12   0  11   -0.01    0.05
  12   0  12    3.25    0.17
  12   0  13    0.01    0.08
  12   0  14    0.44    0.11
  12   0  15    0.07    0.09
 -12   0 -15   -0.03    0.09
  12   0  16    0.19    0.10
 -12   0 -16    0.09    0.09
  12   0  17   -0.04    0.09
 -12   0 -17   -0.04    0.09
 -12  -2  19    2.04    0.15
 -12   2  19    2.13    0.15
  12  -2 -19    1.84    0.14
  12   2 -19    2.00    0.14
 -12  -2  18    3.40    0.18
 -12   2  18    3.50    0.17
  12  -2 -18    3.38    0.17
  12   2 -18    3.53    0.17
 -12   2  17    3.60    0.17
  12  -2 -17    3.51    0.16
  12   2 -17    3.66    0.18
  12  -2 -17    3.56    0.17
  12   2 -17    3.71    0.17
 -12   2  16    0.05    0.09
  12  -2 -16    0.02    0.07
  12   2 -16    0.01    0.08
  12  -2 -16    0.01    0.08
  12   2 -16    0.07    0.08
 -12   2  15    4.91    0.19
  12  -2 -15    4.79    0.18
  12   2 -15    4.61    0.19
  12  -2 -15    4.79    0.19
  12   2 -15    4.98    0.19
 -12   2  14    1.61    0.13
  12  -2 -14    1.59    0.11
  12   2 -14    1.74    0.13
  12  -2 -14    1.63    0.13
  12   2 -14    1.56    0.12
 -12   2  13    0.22    0.09
  12  -2 -13    0.20    0.07
  12   2 -13    0.22    0.09
  12  -2 -13    0.22    0.08
  12   2 -13    0.20    0.08
 -12  -2  12    9.32    0.26
 -12   2  12    9.61    0.26
  12  -2 -12    9.22    0.25
  12   2 -12    9.75    0.27
  12  -2 -12    8.88    0.25
  12   2 -12    9.19    0.25
 -12  -2  11    0.04    0.07
 -12   2  11    0.05    0.07
  12   2 -11    0.07    0.08
  12  -2 -11   -0.01    0.06
  12   2 -11    0.00    0.07
 -12  -2  10   16.24    0.33
 -12   2  10   16.28    0.32
  12  -2 -10   15.55    0.34
  12  -2 -10   15.86    0.33
  12   2 -10   16.57    0.35
  12  -2 -10   16.51    0.33
  12   2 -10   16.71    0.32
 -12  -2   9   12.26    0.30
 -12   2   9   12.50    0.30
 -12  -2   9   12.67    0.32
  12  -2  -9   12.51    0.32
  12  -2  -9   12.10    0.31
  12   2  -9   12.43    0.29
 -12  -2   8    7.13    0.23
 -12   2   8    6.97    0.22
  12   2  -8    7.25    0.22
 -12  -2   8    7.23    0.24
  12   2  -8    7.55    0.25
  12  -2  -8    7.32    0.24
  12  -2  -8    7.30    0.23
  12   2  -8    7.34    0.22
 -12  -2   7    4.84    0.18
 -12   2   7    4.86    0.18
  12   2  -7    4.75    0.17
 -12  -2   7    4.82    0.19
  12   2  -7    5.05    0.20
  12  -2  -7    4.63    0.19
  12  -2  -7    4.96    0.19
 -12   2   7    4.83    0.16
  12   2  -7    4.98    0.18
 -12  -2   6   20.49    0.44
  12   2  -6   21.06    0.43
 -12   2   6   19.71    0.43
 -12   2   6   20.89    0.45
  12   2  -6   20.38    0.46
  12  -2  -6   21.02    0.49
  12  -2  -6   19.99    0.43
 -12   2   6   20.38    0.41
 -12  -2   5   17.36    0.38
  12   2  -5   18.26    0.39
 -12   2   5   17.46    0.39
 -12   2   5   18.03    0.40
  12   2  -5   17.54    0.40
  12  -2  -5   18.43    0.41
  12  -2  -5   17.90    0.39
 -12   2   5   17.63    0.35
 -12  -2   5   18.65    0.40
 -12  -2   4   17.62    0.39
  12   2  -4   16.78    0.38
 -12   2   4   16.59    0.39
 -12  -2   4   17.21    0.41
 -12   2   4   17.53    0.41
  12  -2  -4   16.99    0.38
  12  -2  -4   17.37    0.38
 -12   2   4   16.90    0.35
  12   2  -4   16.39    0.37
 -12  -2   4   16.86    0.38
 -12  -2   3    2.49    0.13
  12   2  -3    2.54    0.14
 -12   2   3    2.57    0.15
  12  -2  -3    2.70    0.15
 -12  -2   3    2.63    0.15
 -12   2   3    2.63    0.15
  12  -2  -3    2.68    0.14
  12  -2  -3    2.45    0.13
 -12   2   3    2.45    0.12
  12   2  -3    2.57    0.14
 -12  -2   3    2.69    0.14
 -12  -2   2    4.22    0.17
  12   2  -2    4.24    0.18
 -12   2   2    4.25    0.19
  12  -2  -2    4.35    0.19
 -12  -2   2    4.39    0.19
 -12   2   2    4.57    0.19
  12  -2  -2    4.45    0.17
  12  -2  -2    4.21    0.17
 -12   2   2    4.39    0.16
 -12  -2   2    4.28    0.17
 -12  -2   1    4.95    0.18
 -12   2   1    4.93    0.21
  12   2  -1    5.01    0.20
  12  -2  -1    4.85    0.20
 -12  -2   1    4.87    0.20
  12   2  -1    4.60    0.19
 -12   2   1    5.08    0.20
  12  -2  -1    5.14    0.18
  12  -2  -1    4.99    0.18
 -12  -2   1    5.15    0.19
 -12  -2   0   29.67    0.55
 -12   2   0   30.64    0.60
  12   2   0   31.41    0.59
 -12  -2   0   31.08    0.60
  12   2   0   29.28    0.54
 -12   2   0   30.20    0.56
  12  -2   0   30.22    0.52
  12  -2   0   30.74    0.53
 -12   2   0   30.72    0.53
 -12  -2   0   32.44    0.57
 -12   2  -1   23.48    0.47
 -12  -2  -1   25.71    0.52
 -12   2  -1   23.45    0.50
 -12  -2  -1   25.42    0.53
  12   2   1   24.74    0.48
 -12   2  -1   24.20    0.48
  12  -2   1   24.79    0.45
  12   2   1   24.28    0.47
  12  -2   1   24.87    0.46
 -12   2  -1   25.79    0.49
  12   2   1   25.07    0.50
 -12  -2  -2    8.19    0.25
 -12  -2  -2    8.37    0.27
 -12  -2  -2    8.75    0.28
  12   2   2    8.71    0.25
 -12   2  -2    8.65    0.26
  12  -2   2    8.34    0.24
  12  -2   2    8.48    0.24
 -12   2  -2    8.28    0.25
  12   2   2    7.99    0.26
 -12  -2  -3   44.86    0.75
 -12  -2  -3   44.49    0.79
 -12  -2  -3   45.24    0.79
  12   2   3   44.82    0.74
 -12   2  -3   46.85    0.77
  12  -2   3   46.22    0.75
  12   2   3   45.51    0.75
  12  -2   3   45.76    0.73
  12   2   3   45.51    0.78
 -12  -2  -4    0.06    0.05
 -12  -2  -4    0.04    0.05
  12   2   4    0.08    0.06
 -12   2  -4    0.07    0.06
  12  -2   4    0.06    0.06
  12   2   4    0.01    0.05
  12   2   4    0.09    0.07
 -12   2  -5   23.49    0.39
 -12  -2  -5   24.93    0.39
  12   2   5   23.14    0.37
 -12   2  -5   24.43    0.40
  12  -2   5   24.11    0.38
 -12  -2  -5   25.06    0.43
  12   2   5   24.92    0.39
  12  -2   6   28.31    0.55
 -12  -2  -6   29.51    0.47
 -12   2  -6   28.89    0.47
 -12  -2  -6   27.46    0.48
  12   2   6   28.38    0.46
  12  -2   7   36.52    0.64
  12   2   7   37.11    0.64
 -12  -2  -7   37.69    0.61
 -12   2  -7   38.40    0.63
 -12  -2  -7   36.23    0.62
  12   2   7   38.44    0.62
  12  -2   8   25.80    0.45
  12   2   8   25.25    0.43
 -12  -2  -8   25.59    0.40
 -12  -2  -8   24.12    0.43
 -12   2  -8   25.88    0.41
 -12  -2  -8   25.01    0.42
  12   2   8   24.85    0.39
  12  -2   8   24.53    0.38
  12  -2   9    4.49    0.19
  12   2   9    4.49    0.19
 -12  -2  -9    4.67    0.18
 -12  -2  -9    4.55    0.19
 -12   2  -9    4.52    0.18
 -12  -2  -9    4.52    0.20
  12  -2   9    3.92    0.16
  12  -2   9    4.52    0.18
  12  -2  11    6.48    0.23
  12   2  11    6.73    0.23
 -12  -2 -11    6.02    0.22
 -12   2 -11    6.23    0.21
  12  -2  12    9.25    0.27
  12   2  12    9.39    0.27
 -12  -2 -12    9.32    0.27
 -12   2 -12    8.84    0.24
  12  -2  13    0.33    0.10
  12   2  13    0.26    0.09
 -12  -2 -13    0.27    0.10
 -12   2 -13    0.34    0.09
  12  -2  14    1.70    0.14
 -12  -2 -14    1.77    0.15
 -12   2 -14    1.65    0.13
  12  -2  15    1.76    0.15
 -12  -2 -15    1.58    0.14
 -12   2 -15    1.65    0.13
  12  -2  16    1.85    0.16
 -12  -2 -16    1.58    0.14
 -12   2 -16    1.73    0.14
  12  -2  17    3.45    0.19
 -12  -2 -17    3.60    0.18
 -12   2 -17    3.55    0.17
 -12  -4  18    7.71    0.24
 -12   4  18    7.97    0.24
  12   4 -18    7.74    0.24
  12  -4 -18    7.91    0.25
 -12   4  17    0.06    0.09
  12   4 -17    0.04    0.10
  12  -4 -17    0.02    0.10
  12   4 -17   -0.03    0.07
 -12   4  16    5.63    0.20
  12   4 -16    5.64    0.21
  12  -4 -16    5.66    0.21
  12   4 -16    5.85    0.20
 -12   4  15    0.18    0.08
  12   4 -15    0.27    0.10
  12  -4 -15    0.18    0.10
  12   4 -15    0.14    0.08
 -12   4  14    1.88    0.13
  12   4 -14    1.80    0.14
  12  -4 -14    1.76    0.14
  12   4 -14    1.67    0.12
 -12  -4  13    2.41    0.15
 -12   4  13    2.51    0.14
  12   4 -13    2.32    0.15
  12  -4 -13    2.33    0.14
  12   4 -13    2.39    0.13
 -12  -4  12    3.61    0.17
 -12   4  12    3.37    0.16
  12  -4 -12    3.24    0.15
  12   4 -12    3.42    0.15
 -12  -4  11    3.21    0.16
 -12   4  11    3.04    0.15
  12  -4 -11    3.29    0.15
  12   4 -11    3.23    0.15
 -12  -4  10   18.86    0.41
 -12   4  10   18.31    0.40
  12  -4 -10   17.09    0.40
  12  -4 -10   19.14    0.44
  12  -4 -10   18.28    0.41
  12   4 -10   18.95    0.40
 -12  -4   9    2.14    0.13
 -12   4   9    2.30    0.14
 -12  -4   9    2.19    0.14
  12  -4  -9    2.20    0.14
  12   4  -9    2.33    0.14
 -12  -4   8   43.90    0.56
 -12   4   8   44.44    0.56
 -12  -4   8   42.43    0.56
  12  -4  -8   43.06    0.56
 -12  -4   7    2.10    0.13
  12   4  -7    2.08    0.12
 -12   4   7    2.07    0.14
 -12  -4   7    2.16    0.14
  12  -4  -7    2.12    0.14
  12   4  -7    2.06    0.13
 -12  -4   6    3.16    0.15
  12   4  -6    2.97    0.14
 -12   4   6    2.71    0.15
 -12  -4   6    2.94    0.16
  12  -4  -6    3.10    0.15
  12   4  -6    2.98    0.16
 -12  -4   5   10.98    0.28
  12   4  -5   10.72    0.26
 -12   4   5   11.55    0.31
  12  -4  -5   10.73    0.28
 -12   4   5   10.86    0.26
  12   4  -5   11.08    0.29
 -12  -4   4    0.13    0.05
  12   4  -4    0.07    0.05
 -12   4   4    0.12    0.06
  12  -4  -4    0.16    0.07
  12  -4  -4    0.11    0.05
 -12   4   4    0.10    0.05
  12   4  -4    0.12    0.06
 -12  -4   3    6.65    0.21
  12   4  -3    6.03    0.20
 -12   4   3    6.76    0.24
  12  -4  -3    6.66    0.23
  12  -4  -3    6.81    0.21
 -12   4   3    6.40    0.19
  12   4  -3    6.24    0.21
 -12  -4   2    2.71    0.14
  12   4  -2    2.73    0.14
 -12   4   2    2.67    0.16
 -12   4   2    2.75    0.15
  12  -4  -2    2.70    0.14
  12  -4  -2    2.67    0.14
 -12   4   2    2.62    0.12
  12   4  -2    2.72    0.15
 -12  -4   1    7.76    0.23
  12   4  -1    7.57    0.24
 -12   4   1    7.76    0.26
  12   4  -1    7.39    0.23
 -12   4   1    7.88    0.23
  12  -4  -1    7.26    0.22
  12  -4  -1    7.76    0.23
 -12   4   1    7.72    0.21
  12   4  -1    7.43    0.24
 -12   4   0    1.33    0.11
 -12  -4   0    1.38    0.10
 -12   4   0    1.37    0.12
  12   4   0    1.30    0.11
  12   4   0    1.32    0.11
 -12   4   0    1.36    0.10
  12  -4   0    1.35    0.10
  12  -4   0    1.45    0.11
 -12   4   0    1.43    0.09
  12   4   0    1.31    0.11
 -12   4  -1   51.51    0.75
 -12  -4  -1   48.64    0.75
 -12   4  -1   52.35    0.68
  12  -4   1   49.61    0.66
  12  -4   1   49.83    0.67
 -12   4  -1   51.44    0.64
 -12   4  -2    1.35    0.12
 -12  -4  -2    1.39    0.12
 -12   4  -2    1.42    0.10
  12  -4   2    1.27    0.10
  12  -4   2    1.38    0.10
 -12   4  -2    1.43    0.10
 -12   4  -3    2.11    0.14
 -12  -4  -3    2.18    0.15
 -12   4  -3    2.02    0.12
  12  -4   3    1.92    0.12
 -12  -4  -4    0.13    0.07
 -12   4  -4    0.01    0.05
  12  -4   4    0.03    0.04
  12   4   4   -0.02    0.07
 -12  -4  -5    0.87    0.09
 -12  -4  -5    0.88    0.11
 -12  -4  -5    0.79    0.10
 -12   4  -5    0.75    0.09
  12  -4   5    0.75    0.08
 -12  -4  -5    0.88    0.10
 -12  -4  -6   18.86    0.40
 -12  -4  -6   20.42    0.47
 -12  -4  -6   20.23    0.47
 -12   4  -6   20.79    0.43
 -12  -4  -6   20.89    0.45
  12  -4   7    8.75    0.29
 -12  -4  -7    8.45    0.23
 -12  -4  -7    8.71    0.28
 -12  -4  -7    8.47    0.27
 -12   4  -7    8.70    0.26
 -12  -4  -7    8.64    0.26
  12  -4   8    4.54    0.21
 -12  -4  -8    4.33    0.17
 -12  -4  -8    4.51    0.21
 -12   4  -8    4.49    0.18
 -12  -4  -8    4.59    0.20
  12  -4   9   24.77    0.45
 -12  -4  -9   24.33    0.44
 -12   4  -9   25.24    0.41
 -12  -4  -9   24.51    0.43
  12  -4  10    0.13    0.10
 -12  -4 -10    0.18    0.09
 -12   4 -10    0.40    0.09
 -12  -4 -10    0.08    0.08
  12  -4  11    0.35    0.11
 -12  -4 -11    0.31    0.12
 -12   4 -11    0.32    0.09
 -12  -4 -11    0.40    0.11
  12  -4  12    1.63    0.15
 -12  -4 -12    1.79    0.15
 -12   4 -12    1.62    0.14
  12  -4  13    2.96    0.17
 -12  -4 -13    2.91    0.18
 -12   4 -13    2.84    0.16
  12  -4  14    2.31    0.17
 -12  -4 -14    2.22    0.16
 -12   4 -14    2.23    0.14
  12  -4  15    0.56    0.13
 -12  -4 -15    0.47    0.11
 -12   4 -15    0.38    0.11
  12  -4  16   -0.04    0.11
 -12  -4 -16    0.04    0.11
 -12   4 -16   -0.02    0.08
 -12  -6  16    1.23    0.12
 -12  -6  15    1.68    0.13
  12   6 -15    1.66    0.14
 -12  -6  14    3.00    0.16
 -12   6  14    3.13    0.16
  12   6 -14    3.12    0.18
  12  -6 -14    3.24    0.18
  12   6 -14    3.18    0.15
 -12  -6  13    0.16    0.08
 -12   6  13    0.25    0.08
  12   6 -13    0.37    0.10
  12  -6 -13    0.25    0.10
  12   6 -13    0.17    0.08
 -12  -6  12    0.02    0.08
 -12   6  12    0.03    0.07
  12   6 -12    0.11    0.10
  12  -6 -12   -0.01    0.09
  12   6 -12    0.01    0.07
 -12  -6  11    4.43    0.18
 -12   6  11    4.70    0.18
  12   6 -11    4.51    0.19
  12  -6 -11    4.73    0.19
  12   6 -11    4.60    0.18
 -12  -6  10    0.10    0.07
 -12   6  10    0.12    0.08
  12   6 -10    0.10    0.09
  12  -6 -10    0.03    0.08
 -12  -6   9    0.29    0.08
 -12   6   9    0.29    0.08
  12  -6  -9    0.43    0.10
 -12  -6   8    1.98    0.13
 -12   6   8    1.97    0.13
  12  -6  -8    2.11    0.15
  12   6  -8    1.89    0.13
 -12  -6   7    2.20    0.14
 -12   6   7    2.13    0.14
 -12  -6   7    2.07    0.14
  12  -6  -7    2.25    0.14
  12   6  -7    2.31    0.14
 -12  -6   6   14.32    0.31
 -12   6   6   14.25    0.33
 -12  -6   6   14.66    0.33
  12  -6  -6   14.57    0.31
  12   6  -6   15.23    0.33
 -12  -6   5    6.36    0.21
 -12   6   5    6.15    0.23
 -12  -6   5    6.01    0.23
  12  -6  -5    6.22    0.21
  12   6  -5    6.20    0.22
 -12  -6   4    1.23    0.11
 -12   6   4    1.29    0.13
  12  -6  -4    1.35    0.13
  12   6  -4    1.34    0.13
 -12  -6   3    1.11    0.10
 -12   6   3    1.17    0.13
  12  -6  -3    1.11    0.11
  12   6  -3    1.11    0.13
 -12  -6   2    0.08    0.06
 -12   6   2    0.11    0.08
  12  -6  -2    0.04    0.07
  12   6  -2    0.06    0.09
 -12   6   1    1.10    0.12
 -12  -6   1    1.16    0.12
  12  -6  -1    1.22    0.11
  12   6  -1    1.16    0.12
 -12   6   0    2.70    0.17
 -12  -6   0    2.66    0.16
 -12   6   0    2.68    0.13
  12  -6   0    2.79    0.15
  12   6   0    2.57    0.16
 -12   6  -1   22.42    0.50
 -12  -6  -1   21.60    0.49
 -12   6  -1   20.94    0.43
  12   6   1   20.45    0.45
 -12   6  -2    0.18    0.08
 -12  -6  -2    0.19    0.09
 -12   6  -2    0.16    0.06
  12  -6   2    0.19    0.06
  12   6   2    0.14    0.09
 -12   6  -3    1.08    0.12
 -12  -6  -3    1.04    0.12
 -12   6  -3    1.10    0.09
  12   6   3    1.03    0.12
 -12   6  -4    0.53    0.11
 -12  -6  -4    0.58    0.11
 -12   6  -4    0.55    0.08
  12   6   4    0.58    0.11
 -12   6  -5   17.57    0.38
 -12  -6  -5   18.06    0.39
 -12   6  -5   18.12    0.33
 -12  -6  -6   10.52    0.30
 -12   6  -6   10.90    0.27
 -12  -6  -6   10.65    0.29
 -12  -6  -7    9.66    0.29
 -12   6  -7    9.72    0.25
 -12  -6  -7    9.50    0.27
 -12  -6  -8    4.73    0.23
 -12   6  -8    4.20    0.17
 -12  -6  -8    4.44    0.20
 -12  -6  -9   20.76    0.42
 -12   6  -9   20.50    0.36
 -12  -6  -9   20.58    0.40
 -12  -6 -10    1.71    0.15
 -12   6 -10    1.66    0.12
 -12  -6 -10    1.55    0.14
 -12  -6 -11    0.62    0.12
 -12   6 -11    0.56    0.10
 -12  -6 -11    0.61    0.12
 -12  -6 -12    0.06    0.10
 -12   6 -12    0.03    0.08
 -12  -6 -12    0.07    0.10
 -12  -6 -13    0.11    0.10
 -12   6 -13    0.02    0.09
 -12  -6 -13   -0.01    0.10
 -12  -6 -14    2.11    0.15
 -12   6 -14    2.06    0.14
 -12  -6 -14    2.00    0.15
 -12  -8  12    0.82    0.10
  12   8 -12    0.71    0.12
  12  -8 -12    0.72    0.12
 -12  -8  11    1.43    0.12
  12   8 -11    1.37    0.14
  12  -8 -11    1.31    0.13
 -12  -8  10    0.42    0.09
  12   8 -10    0.28    0.10
  12  -8 -10    0.36    0.11
  12   8  -9    0.54    0.11
  12  -8  -9    0.50    0.10
  12   8  -9    0.48    0.10
  12  -8  -8    1.23    0.12
  12   8  -8    1.36    0.12
 -12  -8   7    0.37    0.10
  12  -8  -7    0.25    0.09
  12   8  -7    0.32    0.09
 -12   8   6   12.41    0.29
 -12  -8   6   13.02    0.31
  12  -8  -6   12.35    0.30
  12   8  -6   12.50    0.30
 -12   8   5    0.16    0.08
 -12  -8   5    0.10    0.10
  12  -8  -5    0.20    0.09
  12   8  -5    0.29    0.10
 -12   8   4    0.86    0.11
 -12  -8   4    0.92    0.13
  12  -8  -4    1.01    0.12
  12   8  -4    0.92    0.12
 -12   8   3    0.54    0.10
 -12  -8   3    0.62    0.10
  12  -8  -3    0.59    0.09
  12   8  -3    0.54    0.10
 -12   8   2    0.01    0.08
  12   8  -2    0.08    0.09
 -12   8   1    3.99    0.19
  12   8  -1    3.66    0.19
 -12   8   0    2.06    0.15
  12  -8   0    2.11    0.14
  12   8   0    2.16    0.16
 -12   8  -1    1.14    0.13
  12   8   1    1.13    0.13
 -12   8  -2    0.26    0.11
 -12  -8  -2    0.26    0.10
  12   8   2    0.22    0.10
 -12   8  -3    0.27    0.10
 -12  -8  -3    0.21    0.09
  12   8   3    0.31    0.10
 -12   8  -4    0.05    0.09
 -12  -8  -4   -0.01    0.08
  12   8   4    0.05    0.10
 -12   8  -5    1.04    0.13
 -12  -8  -5    0.99    0.12
  12   8   5    1.09    0.13
 -12   8  -6    3.83    0.20
 -12  -8  -6    3.70    0.18
  12   8   6    3.25    0.19
 -12   8  -7   16.37    0.37
 -12  -8  -7   15.92    0.36
  12   8   7   16.47    0.36
 -12   8  -8    1.36    0.15
 -12  -8  -8    1.16    0.14
 -12   8  -9    0.37    0.11
 -12  -8  -9    0.20    0.10
 -12  -8 -10    0.08    0.09
 -12  -8 -10    0.11    0.10
 -12 -10   4    0.74    0.11
  12  10  -4    0.84    0.11
 -12 -10   3    1.11    0.13
  12  10  -3    1.00    0.13
 -12 -10   2    0.01    0.09
  12  10  -2    0.02    0.09
 -12 -10   1    0.20    0.09
  12  10  -1    0.15    0.11
 -12 -10   0    3.28    0.18
  12  10   0    3.09    0.18
 -12 -10  -1    1.95    0.15
  12  10   1    1.88    0.15
  12  10   2    3.28    0.18
 -13  -1  19    1.26    0.12
 -13   1  19    1.29    0.13
  13  -1 -19    1.23    0.11
  13   1 -19    1.30    0.12
  13  -1 -19    1.38    0.13
  13   1 -19    1.34    0.13
 -13  -1  18    0.66    0.11
 -13   1  18    0.62    0.10
  13  -1 -18    0.55    0.09
  13  -1 -18    0.76    0.12
  13   1 -18    0.57    0.10
 -13  -1  17    1.36    0.13
 -13   1  17    1.45    0.13
  13  -1 -17    1.41    0.12
  13   1 -17    1.33    0.12
  13  -1 -17    1.66    0.13
  13   1 -17    1.40    0.12
 -13  -1  16   -0.01    0.08
 -13   1  16    0.05    0.07
  13  -1 -16    0.06    0.08
  13   1 -16    0.09    0.07
  13  -1 -16    0.06    0.08
  13   1 -16    0.09    0.08
 -13  -1  15    5.36    0.21
 -13   1  15    5.27    0.20
  13   1 -15    5.48    0.20
  13  -1 -15    5.11    0.20
  13   1 -15    5.38    0.20
 -13  -1  14    1.84    0.13
 -13   1  14    1.85    0.14
  13   1 -14    1.72    0.13
  13  -1 -14    1.82    0.13
  13   1 -14    1.85    0.13
 -13   1  13    1.43    0.12
  13  -1 -13    1.47    0.11
  13   1 -13    1.41    0.12
  13  -1 -13    1.54    0.12
  13   1 -13    1.41    0.12
 -13   1  12    1.18    0.12
  13  -1 -12    1.09    0.11
  13  -1 -12    1.18    0.11
  13   1 -12    1.21    0.12
  13  -1 -12    1.20    0.12
  13   1 -12    1.17    0.11
 -13   1  11    0.26    0.08
  13  -1 -11    0.37    0.07
  13  -1 -11    0.26    0.08
  13   1 -11    0.26    0.08
  13  -1 -11    0.31    0.08
  13   1 -11    0.25    0.09
 -13   1  10    2.38    0.14
  13  -1 -10    2.35    0.14
  13  -1 -10    2.32    0.14
  13   1 -10    2.27    0.15
  13  -1 -10    2.38    0.14
  13   1 -10    2.33    0.14
 -13   1   9   25.03    0.44
 -13  -1   9   25.63    0.47
  13   1  -9   25.55    0.47
  13  -1  -9   24.56    0.46
  13  -1  -9   26.22    0.47
  13  -1  -9   25.35    0.45
  13   1  -9   24.42    0.42
 -13  -1   8    0.79    0.09
 -13   1   8    0.80    0.09
  13   1  -8    0.75    0.08
 -13  -1   8    0.79    0.09
  13   1  -8    0.79    0.10
  13  -1  -8    0.82    0.10
  13  -1  -8    0.73    0.09
  13   1  -8    0.82    0.09
 -13  -1   7    0.55    0.08
 -13   1   7    0.51    0.08
  13  -1  -7    0.68    0.09
 -13   1   7    0.55    0.08
 -13  -1   7    0.50    0.09
  13   1  -7    0.54    0.08
  13  -1  -7    0.65    0.09
  13   1  -7    0.55    0.07
 -13   1   7    0.60    0.08
 -13  -1   7    0.58    0.08
 -13  -1   6   26.95    0.52
 -13   1   6   26.87    0.52
  13   1  -6   27.39    0.53
  13  -1  -6   27.29    0.54
 -13   1   6   26.49    0.53
  13   1  -6   27.02    0.54
  13  -1  -6   26.35    0.54
  13   1  -6   26.66    0.51
 -13   1   6   28.69    0.52
 -13  -1   6   27.67    0.51
 -13  -1   5    6.68    0.21
 -13   1   5    6.14    0.21
  13   1  -5    6.33    0.22
  13  -1  -5    6.05    0.22
  13   1  -5    6.39    0.22
  13  -1  -5    6.42    0.23
  13  -1  -5    6.29    0.20
  13   1  -5    6.09    0.20
 -13   1   5    6.51    0.20
 -13  -1   5    6.16    0.20
 -13  -1   4   11.24    0.29
 -13   1   4   10.14    0.29
  13   1  -4   11.46    0.31
  13  -1  -4   11.56    0.32
 -13  -1   4   11.12    0.32
 -13   1   4   11.63    0.32
  13   1  -4   11.64    0.32
  13  -1  -4   11.02    0.31
  13  -1  -4   11.38    0.29
 -13  -1   4   11.37    0.29
 -13  -1   3   76.96    1.08
  13   1  -3   77.83    1.09
  13  -1  -3   76.56    1.09
 -13  -1   3   78.53    1.12
 -13   1   3   76.61    1.11
  13   1  -3   78.05    1.11
  13  -1  -3   79.55    1.10
  13  -1  -3   76.62    1.04
 -13   1   3   76.85    1.02
 -13  -1   3   78.61    1.14
 -13  -1   2    8.54    0.25
  13   1  -2    9.07    0.27
  13  -1  -2    8.89    0.27
 -13  -1   2    8.62    0.26
 -13   1   2    9.40    0.28
  13   1  -2    8.33    0.25
  13  -1  -2    8.73    0.24
  13  -1  -2    8.95    0.23
 -13   1   2    8.84    0.23
  13   1  -2    7.89    0.23
 -13  -1   2    8.91    0.24
 -13  -1   1   14.12    0.33
  13   1  -1   13.01    0.32
  13  -1  -1   13.26    0.32
 -13  -1   1   13.69    0.34
 -13   1   1   12.74    0.32
  13   1  -1   12.95    0.30
  13  -1  -1   14.15    0.30
  13  -1  -1   13.83    0.28
  13   1  -1   13.60    0.31
 -13   1   1   13.57    0.30
 -13  -1   1   13.54    0.30
 -13  -1   0   14.30    0.37
  13   1   0   14.92    0.36
 -13  -1   0   15.18    0.37
 -13   1   0   15.14    0.36
  13  -1   0   15.06    0.32
  13  -1   0   15.48    0.33
  13   1   0   14.77    0.33
 -13   1   0   16.04    0.35
 -13  -1   0   14.98    0.34
 -13  -1  -1  217.15    2.74
 -13  -1  -1  218.96    2.67
 -13   1  -1  229.62    1.58
  13  -1   1  225.34    1.22
  13   1   1  232.97    1.69
 -13   1  -1  221.95    2.55
 -13  -1  -1  216.02    2.54
 -13   1  -2    0.01    0.05
 -13  -1  -2    0.01    0.05
 -13  -1  -2    0.03    0.04
 -13   1  -2    0.04    0.06
 -13  -1  -2    0.05    0.05
 -13   1  -2    0.03    0.05
  13  -1   2    0.02    0.05
  13   1   2    0.02    0.04
  13   1   2    0.02    0.05
 -13   1  -2    0.02    0.04
 -13   1  -3    1.15    0.10
 -13  -1  -3    1.02    0.09
 -13  -1  -3    1.08    0.11
 -13   1  -3    1.18    0.11
 -13   1  -3    1.03    0.09
  13  -1   3    1.37    0.10
  13  -1   3    1.06    0.09
  13   1   3    1.09    0.10
 -13   1  -4    5.69    0.21
 -13  -1  -4    6.00    0.21
 -13  -1  -4    5.84    0.23
 -13  -1  -4    6.01    0.23
 -13   1  -4    5.93    0.21
  13   1   4    5.97    0.20
  13  -1   4    6.39    0.21
  13   1   4    6.23    0.22
  13  -1   4    5.87    0.21
  13  -1   4    6.22    0.22
  13   1   4    6.41    0.23
 -13   1  -5    3.03    0.15
 -13  -1  -5    2.96    0.14
 -13  -1  -5    2.86    0.15
 -13   1  -5    3.10    0.15
  13   1   5    2.98    0.14
  13  -1   5    3.01    0.14
  13   1   5    2.84    0.14
  13  -1   5    2.81    0.14
  13  -1   5    3.00    0.15
  13   1   5    2.86    0.15
  13  -1   6   18.32    0.40
 -13   1  -6   18.24    0.36
 -13  -1  -6   19.38    0.37
 -13  -1  -6   19.14    0.40
 -13   1  -6   18.08    0.37
  13   1   6   18.35    0.36
  13  -1   6   18.58    0.36
  13  -1   6   19.62    0.39
  13   1   6   18.68    0.40
  13   1   7   57.56    0.87
  13  -1   7   58.91    0.89
 -13  -1  -7   57.23    0.85
 -13   1  -7   54.97    0.80
 -13  -1  -7   56.54    0.85
  13   1   7   57.59    0.82
  13  -1   7   56.62    0.79
  13  -1   7   56.50    0.84
  13  -1   8   15.11    0.35
  13   1   8   14.86    0.34
 -13  -1  -8   14.37    0.30
 -13   1  -8   14.94    0.31
 -13  -1  -8   14.79    0.33
  13   1   8   14.38    0.30
  13  -1   8   14.43    0.30
  13  -1   8   15.03    0.33
  13   1   9   30.74    0.59
  13  -1   9   30.73    0.59
 -13   1  -9   31.16    0.57
 -13  -1  -9   30.47    0.57
  13   1   9   30.45    0.55
  13  -1   9   30.75    0.55
  13  -1   9   29.42    0.57
  13  -1  10    7.06    0.24
  13   1  10    7.36    0.24
 -13   1 -10    7.59    0.23
 -13  -1 -10    7.28    0.23
  13   1  10    6.93    0.20
  13  -1  10    6.99    0.20
  13  -1  11    8.52    0.26
  13   1  11    8.61    0.25
 -13   1 -11    8.61    0.24
 -13  -1 -11    8.60    0.25
  13  -1  12    4.67    0.20
  13   1  12    4.83    0.20
 -13  -1 -12    4.83    0.19
 -13   1 -12    4.90    0.19
 -13  -1 -12    4.74    0.19
  13  -1  13    3.38    0.17
  13   1  13    3.30    0.17
 -13  -1 -13    3.32    0.17
 -13   1 -13    3.08    0.16
  13  -1  14    5.19    0.21
  13   1  14    5.26    0.20
 -13  -1 -14    5.23    0.21
 -13   1 -14    5.17    0.20
  13  -1  15    0.95    0.12
  13   1  15    0.92    0.11
 -13  -1 -15    1.04    0.12
 -13   1 -15    0.67    0.10
  13  -1  16    1.94    0.15
 -13  -1 -16    1.99    0.15
  13  -1  17    1.22    0.13
 -13  -1 -17    1.36    0.14
 -13   3  19    5.52    0.21
  13   3 -19    5.43    0.21
  13  -3 -19    5.69    0.21
  13   3 -19    5.39    0.20
 -13   3  18    3.78    0.18
  13   3 -18    3.73    0.18
  13  -3 -18    4.04    0.18
  13   3 -18    3.63    0.17
 -13  -3  17    0.20    0.09
 -13   3  17    0.18    0.09
  13   3 -17    0.22    0.09
  13  -3 -17    0.18    0.09
  13   3 -17    0.11    0.09
 -13  -3  16    0.54    0.09
 -13   3  16    0.34    0.09
  13   3 -16    0.56    0.11
  13  -3 -16    0.57    0.10
  13   3 -16    0.59    0.09
 -13  -3  15    0.28    0.09
 -13   3  15    0.27    0.09
  13   3 -15    0.22    0.09
  13  -3 -15    0.14    0.09
  13   3 -15    0.29    0.09
 -13  -3  14    2.13    0.14
 -13   3  14    2.20    0.14
  13  -3 -14    2.12    0.12
  13   3 -14    2.38    0.15
  13  -3 -14    2.27    0.14
  13   3 -14    2.23    0.13
 -13  -3  13    3.93    0.18
 -13   3  13    4.28    0.18
  13  -3 -13    4.15    0.16
  13   3 -13    4.36    0.19
  13  -3 -13    4.06    0.18
  13   3 -13    4.17    0.17
 -13  -3  12    3.58    0.17
 -13   3  12    3.52    0.16
  13  -3 -12    3.66    0.15
  13   3 -12    3.42    0.17
  13  -3 -12    3.37    0.16
  13   3 -12    3.41    0.15
 -13  -3  11    2.62    0.15
 -13   3  11    2.57    0.14
  13  -3 -11    2.65    0.14
  13  -3 -11    2.71    0.14
  13   3 -11    2.85    0.16
  13   3 -11    2.66    0.14
 -13  -3  10   14.10    0.35
 -13   3  10   14.33    0.34
  13  -3 -10   13.73    0.35
  13  -3 -10   14.18    0.33
  13   3 -10   14.43    0.33
 -13  -3   9   11.86    0.28
 -13   3   9   12.35    0.28
 -13  -3   9   12.30    0.30
  13  -3  -9   11.88    0.30
  13  -3  -9   12.53    0.28
  13  -3  -9   11.65    0.28
  13   3  -9   12.26    0.28
 -13  -3   8    0.56    0.09
 -13   3   8    0.32    0.07
 -13  -3   8    0.39    0.08
  13  -3  -8    0.46    0.08
  13  -3  -8    0.34    0.06
  13  -3  -8    0.30    0.08
  13   3  -8    0.41    0.08
 -13  -3   7   29.43    0.49
  13   3  -7   29.00    0.47
 -13   3   7   29.29    0.49
 -13  -3   7   29.28    0.51
  13  -3  -7   28.59    0.49
  13  -3  -7   28.48    0.56
 -13  -3   6    4.69    0.18
  13   3  -6    5.06    0.19
 -13   3   6    4.94    0.19
  13  -3  -6    4.91    0.18
  13  -3  -6    4.93    0.19
 -13   3   6    4.87    0.16
  13   3  -6    4.64    0.18
 -13  -3   4    0.23    0.06
  13   3  -4    0.25    0.06
 -13   3   4    0.25    0.08
  13  -3  -4    0.22    0.06
 -13  -3   4    0.25    0.08
  13   3  -4    0.23    0.07
  13  -3  -4    0.32    0.05
  13  -3  -4    0.22    0.07
 -13   3   4    0.24    0.06
  13   3  -4    0.23    0.07
 -13  -3   4    0.28    0.06
 -13  -3   3   14.00    0.34
  13   3  -3   13.75    0.35
 -13   3   3   14.29    0.37
 -13  -3   3   14.35    0.38
 -13   3   3   13.85    0.36
  13   3  -3   14.68    0.38
  13  -3  -3   13.24    0.32
  13  -3  -3   13.71    0.34
 -13   3   3   13.63    0.31
  13   3  -3   14.21    0.35
 -13  -3   3   13.37    0.34
 -13  -3   2    2.98    0.14
  13   3  -2    2.96    0.15
 -13   3   2    3.05    0.16
 -13  -3   2    2.97    0.16
  13   3  -2    3.00    0.16
 -13   3   2    3.02    0.16
  13  -3  -2    2.91    0.14
  13  -3  -2    2.92    0.14
 -13   3   2    2.94    0.13
  13   3  -2    2.88    0.15
 -13  -3   2    2.91    0.15
 -13  -3   1    1.78    0.11
 -13   3   1    1.63    0.13
  13   3  -1    1.65    0.12
 -13  -3   1    1.67    0.12
  13   3  -1    1.61    0.12
 -13   3   1    1.91    0.12
  13  -3  -1    1.66    0.11
  13  -3  -1    1.67    0.11
 -13   3   1    1.69    0.10
 -13  -3   0   37.17    0.66
 -13   3   0   39.26    0.73
  13   3   0   36.03    0.67
 -13  -3   0   36.35    0.69
  13   3   0   37.60    0.67
 -13   3   0   36.14    0.66
  13  -3   0   38.11    0.65
  13  -3   0   37.80    0.65
 -13   3   0   38.32    0.69
 -13  -3  -1   55.80    1.02
 -13   3  -1   61.65    0.97
 -13   3  -1   58.53    0.99
  13   3   1   58.13    0.92
 -13   3  -1   58.43    0.93
  13   3   1   60.66    0.94
  13  -3   1   59.65    0.93
 -13   3  -1   58.45    1.06
 -13   3  -2   22.74    0.40
 -13  -3  -2   22.43    0.39
 -13  -3  -2   22.93    0.41
 -13   3  -2   22.95    0.44
  13   3   2   22.12    0.38
 -13   3  -2   21.89    0.38
  13  -3   2   22.70    0.38
 -13   3  -2   22.91    0.40
  13   3   2   22.36    0.41
 -13  -3  -3   26.44    0.41
 -13  -3  -3   26.66    0.46
 -13   3  -3   26.69    0.48
 -13   3  -3   26.35    0.41
  13   3   3   26.35    0.41
  13   3   3   26.28    0.45
 -13  -3  -4    9.17    0.28
 -13   3  -4    9.05    0.25
  13  -3   4    9.02    0.25
  13   3   4    9.59    0.26
  13   3   4    9.13    0.27
 -13  -3  -5   78.67    1.03
 -13  -3  -5   77.64    1.09
 -13  -3  -5   72.51    1.03
 -13   3  -5   77.45    1.04
  13  -3   5   78.60    1.03
  13   3   5   77.38    1.07
 -13  -3  -6   40.14    0.51
 -13  -3  -6   39.71    0.57
 -13  -3  -6   40.19    0.58
 -13   3  -6   40.82    0.52
 -13  -3  -6   39.61    0.54
  13  -3   7   33.49    0.64
 -13  -3  -7   33.92    0.60
 -13  -3  -7   33.86    0.64
 -13   3  -7   34.45    0.61
 -13  -3  -7   32.88    0.62
  13  -3   8   80.09    1.21
 -13  -3  -8   79.63    1.14
 -13  -3  -8   80.27    1.20
 -13   3  -8   80.63    1.16
 -13  -3  -8   79.81    1.18
  13   3   9    2.87    0.16
  13  -3   9    2.84    0.17
 -13  -3  -9    2.78    0.14
 -13  -3  -9    2.85    0.17
 -13   3  -9    2.90    0.15
 -13  -3  -9    2.75    0.16
  13  -3  10    0.59    0.10
 -13  -3 -10    0.56    0.11
 -13   3 -10    0.59    0.10
 -13  -3 -10    0.57    0.11
  13  -3  11   11.15    0.30
 -13  -3 -11   11.18    0.30
 -13   3 -11   10.93    0.27
 -13  -3 -11   11.43    0.30
  13  -3  12   16.53    0.36
 -13  -3 -12   16.00    0.36
 -13   3 -12   15.73    0.32
 -13  -3 -12   15.82    0.34
  13  -3  13    1.25    0.14
 -13  -3 -13    1.30    0.13
 -13   3 -13    1.21    0.11
 -13  -3 -13    1.22    0.13
  13  -3  14    0.54    0.12
 -13  -3 -14    0.52    0.12
 -13   3 -14    0.57    0.10
 -13  -3 -14    0.53    0.10
  13  -3  15    2.10    0.16
 -13  -3 -15    2.18    0.15
 -13   3 -15    2.12    0.15
  13  -3  16    0.46    0.12
 -13  -3 -16    0.37    0.11
 -13   3 -16    0.44    0.11
 -13  -5  17    0.53    0.11
 -13   5  17    0.59    0.10
  13   5 -17    0.54    0.11
  13  -5 -17    0.58    0.12
 -13  -5  16    0.10    0.09
 -13   5  16    0.06    0.08
  13   5 -16   -0.08    0.09
  13  -5 -16    0.06    0.10
  13   5 -16   -0.01    0.08
 -13  -5  15    0.34    0.10
 -13   5  15    0.36    0.09
  13   5 -15    0.31    0.09
 -13   5  14    0.86    0.10
  13   5 -14    0.91    0.10
 -13   5  13    4.54    0.18
  13  -5 -13    4.38    0.18
  13   5 -13    4.69    0.17
 -13   5  12    3.38    0.16
  13  -5 -12    3.40    0.17
  13   5 -12    3.23    0.15
 -13   5  11    2.54    0.15
  13   5 -11    2.56    0.16
  13  -5 -11    2.43    0.15
  13   5 -11    2.44    0.13
 -13   5  10    3.62    0.17
  13  -5 -10    3.57    0.17
  13   5 -10    3.63    0.17
 -13   5   9    0.56    0.09
 -13  -5   9    0.57    0.10
  13  -5  -9    0.52    0.10
 -13  -5   8    0.60    0.09
 -13   5   8    0.55    0.09
 -13  -5   8    0.62    0.10
  13  -5  -8    0.59    0.09
 -13  -5   7   11.28    0.27
  13   5  -7   11.39    0.27
 -13   5   7   11.39    0.28
 -13  -5   7   10.01    0.28
  13  -5  -7   11.66    0.31
  13   5  -7   11.15    0.27
 -13  -5   6    2.87    0.15
  13   5  -6    2.85    0.14
 -13   5   6    3.13    0.17
  13  -5  -6    2.91    0.15
  13   5  -6    3.09    0.16
 -13  -5   5   30.66    0.57
  13   5  -5   29.23    0.61
 -13   5   5   31.17    0.59
  13  -5  -5   31.59    0.58
  13   5  -5   32.10    0.59
  13   5  -4   13.60    0.29
 -13   5   4   14.47    0.34
  13  -5  -4   14.13    0.31
 -13   5   4   14.04    0.28
  13   5  -4   14.35    0.32
  13   5  -3    7.39    0.23
 -13   5   3    8.12    0.26
  13  -5  -3    8.41    0.24
 -13   5   3    7.70    0.21
  13   5  -3    7.93    0.25
 -13  -5   2    0.58    0.08
 -13   5   2    0.68    0.10
 -13  -5   2    0.57    0.10
 -13   5   2    0.55    0.08
  13  -5  -2    0.65    0.08
 -13   5   2    0.56    0.07
  13   5  -2    0.62    0.09
 -13  -5   1    5.38    0.19
 -13   5   1    5.26    0.21
 -13  -5   1    5.41    0.22
 -13   5   1    5.34    0.19
  13  -5  -1    5.24    0.19
 -13   5   1    5.22    0.17
  13   5  -1    5.07    0.20
 -13   5   0   24.04    0.46
 -13  -5   0   24.88    0.45
 -13   5   0   23.12    0.38
  13  -5   0   24.15    0.40
 -13   5   0   23.19    0.36
  13   5   0   24.43    0.43
 -13   5  -1    0.13    0.08
 -13  -5  -1    0.07    0.07
 -13   5  -1    0.06    0.05
  13  -5   1    0.07    0.05
  13  -5   1    0.10    0.06
  13   5   1    0.08    0.07
 -13   5  -2   41.08    0.59
 -13  -5  -2   40.43    0.58
 -13   5  -2   40.09    0.51
  13  -5   2   39.92    0.51
  13  -5   2   40.73    0.53
 -13   5  -3   17.78    0.44
 -13  -5  -3   17.71    0.43
 -13   5  -3   17.64    0.39
  13  -5   3   16.63    0.38
 -13   5  -4   12.91    0.36
 -13  -5  -4   12.57    0.35
 -13   5  -4   12.42    0.31
  13  -5   4   12.06    0.31
 -13   5  -5    0.18    0.10
 -13  -5  -5    0.02    0.10
 -13   5  -5    0.15    0.07
  13   5   5    0.10    0.08
 -13  -5  -6    1.37    0.14
 -13   5  -6    1.39    0.11
 -13  -5  -7    0.55    0.11
 -13   5  -7    0.48    0.10
 -13  -5  -7    0.58    0.10
 -13  -5  -8   54.34    0.67
 -13   5  -8   53.53    0.59
 -13  -5  -8   52.10    0.64
 -13  -5  -9    5.41    0.23
 -13   5  -9    5.53    0.19
 -13  -5  -9    5.51    0.22
  13  -5  10    7.19    0.26
 -13  -5 -10    7.51    0.26
 -13   5 -10    7.73    0.23
 -13  -5 -10    7.67    0.25
  13  -5  11    0.58    0.13
 -13  -5 -11    0.51    0.11
 -13   5 -11    0.59    0.11
 -13  -5 -11    0.55    0.12
  13  -5  12    1.94    0.15
 -13  -5 -12    1.92    0.15
 -13   5 -12    1.88    0.14
 -13  -5 -12    2.06    0.15
  13  -5  13    2.07    0.17
 -13  -5 -13    1.83    0.15
 -13   5 -13    1.73    0.14
 -13  -5 -13    1.85    0.15
  13  -5  14    5.01    0.22
 -13  -5 -14    5.07    0.22
 -13   5 -14    4.76    0.19
 -13  -5 -14    4.92    0.20
 -13  -7  14    0.06    0.09
  13   7 -14    0.06    0.10
  13  -7 -14    0.05    0.10
 -13  -7  13    1.91    0.14
  13   7 -13    2.07    0.16
  13  -7 -13    1.88    0.14
  13   7 -13    1.87    0.13
 -13  -7  12    2.61    0.15
  13   7 -12    2.84    0.17
  13  -7 -12    2.54    0.16
  13   7 -12    2.70    0.15
 -13  -7  11    1.07    0.11
 -13   7  11    1.10    0.11
  13   7 -11    1.28    0.13
  13  -7 -11    1.07    0.12
  13   7 -11    1.06    0.12
 -13  -7  10    0.19    0.08
 -13   7  10    0.27    0.08
  13   7 -10    0.16    0.10
  13  -7 -10    0.25    0.09
 -13  -7   9    0.59    0.10
 -13   7   9    0.50    0.09
 -13  -7   9    0.64    0.10
  13  -7  -9    0.60    0.10
 -13  -7   8    0.27    0.08
 -13   7   8    0.28    0.08
 -13  -7   8    0.32    0.09
  13  -7  -8    0.29    0.08
  13   7  -8    0.33    0.09
 -13  -7   7    0.94    0.10
 -13   7   7    0.99    0.11
 -13  -7   7    0.91    0.12
  13  -7  -7    0.94    0.11
  13   7  -7    0.79    0.10
 -13  -7   6    4.12    0.17
 -13   7   6    4.01    0.18
 -13  -7   6    4.20    0.19
  13  -7  -6    4.07    0.18
  13   7  -6    4.21    0.19
 -13  -7   5    0.47    0.08
 -13   7   5    0.45    0.10
 -13  -7   5    0.48    0.11
  13  -7  -5    0.36    0.09
  13   7  -5    0.46    0.10
 -13  -7   4   10.11    0.29
 -13   7   4    9.95    0.28
 -13  -7   4   10.90    0.30
  13  -7  -4   10.80    0.28
  13   7  -4   10.40    0.28
 -13   7   3    6.51    0.24
  13  -7  -3    6.19    0.21
  13   7  -3    6.80    0.23
 -13   7   2    4.88    0.21
  13  -7  -2    5.09    0.20
  13   7  -2    4.94    0.20
 -13   7   1    0.13    0.09
  13  -7  -1    0.08    0.07
  13   7  -1    0.09    0.09
 -13   7   0   21.80    0.43
 -13  -7   0   21.77    0.42
  13   7   0   21.21    0.40
 -13   7  -1    6.15    0.24
 -13  -7  -1    6.34    0.23
  13  -7   1    6.03    0.21
  13   7   1    5.57    0.22
 -13   7  -2   11.62    0.32
 -13  -7  -2   11.88    0.32
  13   7   2   11.45    0.30
 -13   7  -3    4.34    0.21
 -13  -7  -3    4.40    0.20
  13   7   3    4.17    0.20
 -13   7  -4   -0.02    0.09
 -13  -7  -4    0.04    0.08
  13   7   4    0.17    0.09
 -13   7  -5    2.98    0.17
 -13  -7  -5    2.94    0.17
  13   7   5    2.99    0.17
 -13   7  -6    8.00    0.27
 -13  -7  -6    7.87    0.26
 -13   7  -6    7.39    0.21
 -13   7  -7    3.28    0.19
 -13  -7  -7    3.04    0.18
 -13   7  -7    2.97    0.15
 -13  -7  -8   20.23    0.41
 -13   7  -8   20.44    0.36
 -13  -7  -9    0.94    0.13
 -13   7  -9    0.91    0.11
 -13  -7  -9    0.95    0.13
 -13  -7 -10    0.21    0.09
 -13   7 -10    0.23    0.08
 -13  -7 -10    0.23    0.10
 -13  -7 -11    0.41    0.10
 -13   7 -11    0.37    0.09
 -13  -7 -11    0.47    0.12
 -13  -7 -12    0.05    0.10
 -13   7 -12    0.08    0.09
 -13  -7 -12    0.02    0.10
  13   9  -9    0.12    0.11
  13  -9  -9    0.00    0.08
  13   9  -9    0.11    0.09
  13   9  -8    1.28    0.13
  13  -9  -8    1.09    0.12
  13   9  -8    1.20    0.12
 -13  -9   7    0.42    0.11
  13  -9  -7    0.52    0.10
  13   9  -7    0.42    0.10
 -13  -9   6    0.02    0.09
  13  -9  -6    0.09    0.08
  13   9  -6    0.14    0.09
 -13  -9   5    0.20    0.09
  13  -9  -5    0.19    0.09
  13   9  -5    0.28    0.10
 -13  -9   4    1.01    0.12
  13   9  -4    0.88    0.11
 -13  -9   3    3.25    0.17
  13   9  -3    3.47    0.18
 -13  -9   2    0.19    0.10
  13   9  -2    0.21    0.10
 -13   9   1    3.18    0.18
 -13  -9   1    3.35    0.18
  13   9  -1    3.16    0.18
 -13   9   0   11.07    0.30
  13   9   0   11.64    0.30
 -13   9  -1    4.70    0.21
  13   9   1    4.85    0.21
 -13   9  -2    2.67    0.17
  13   9   2    2.83    0.17
 -13   9  -3    0.09    0.09
  13   9   3    0.07    0.10
 -13   9  -4    5.56    0.23
 -13  -9  -4    5.22    0.21
  13   9   4    5.88    0.23
 -13   9  -5   -0.02    0.10
 -13  -9  -5   -0.04    0.09
  13   9   5    0.02    0.12
 -13   9  -6    0.16    0.11
 -13  -9  -6    0.10    0.10
  13   9   6    0.08    0.12
 -13   9  -7    2.25    0.17
 -13  -9  -7    2.05    0.16
 -14   0  19    0.04    0.09
  14   0 -19   -0.04    0.08
  14   0 -19   -0.02    0.09
 -14   0  18    9.80    0.27
  14   0 -18    9.77    0.26
  14   0 -18   10.09    0.26
 -14   0  17    0.06    0.08
  14   0 -17   -0.06    0.09
 -14   0  16    0.52    0.10
  14   0 -16    0.69    0.09
  14   0 -16    0.52    0.10
 -14   0  15   -0.02    0.08
  14   0 -15   -0.01    0.07
  14   0 -15    0.01    0.09
 -14   0  14    4.75    0.19
  14   0 -14    4.92    0.19
  14   0 -14    5.06    0.19
 -14   0  13    0.02    0.08
  14   0 -13    0.03    0.07
  14   0 -13    0.01    0.09
 -14   0  12    9.51    0.26
  14   0 -12    9.50    0.26
  14   0 -12    9.58    0.25
 -14   0  11    0.04    0.08
  14   0 -11    0.03    0.07
  14   0 -11    0.10    0.09
 -14   0  10    5.26    0.20
  14   0 -10    5.46    0.21
  14   0 -10    5.50    0.21
  14   0 -10    5.38    0.19
 -14   0   9    0.08    0.06
  14   0  -9    0.04    0.06
  14   0  -9    0.08    0.07
 -14   0   8    4.26    0.18
  14   0  -8    4.13    0.18
  14   0  -8    3.95    0.17
  14   0  -7   -0.04    0.06
 -14   0   7    0.02    0.05
  14   0  -7    0.02    0.05
 -14   0   7    0.07    0.06
  14   0  -6   45.90    0.77
  14   0  -6   44.81    0.77
 -14   0   6   43.90    0.71
  14   0  -5    0.03    0.05
 -14   0   5    0.01    0.05
  14   0  -5    0.15    0.06
 -14   0   5    0.00    0.04
 -14   0   4    2.80    0.14
  14   0  -4    2.74    0.15
 -14   0   4    2.87    0.15
  14   0  -4    2.71    0.15
  14   0  -4    2.89    0.14
 -14   0   4    3.42    0.15
 -14   0   3    0.03    0.04
  14   0  -3    0.00    0.05
 -14   0   3    0.02    0.04
  14   0  -3    0.01    0.05
  14   0  -3    0.04    0.04
 -14   0   3    0.04    0.05
 -14   0   2    1.60    0.12
  14   0  -2    1.48    0.12
 -14   0   2    1.56    0.12
  14   0  -2    1.49    0.11
 -14   0   2    1.53    0.11
 -14   0   1   -0.01    0.04
  14   0  -1    0.01    0.05
 -14   0   1    0.01    0.04
  14   0  -1   -0.03    0.04
 -14   0   1    0.01    0.05
 -14   0   0   48.02    0.79
  14   0   0   48.03    0.78
 -14   0   0   46.46    0.77
  14   0   0   46.01    0.71
  14   0   0   46.13    0.72
 -14   0   0   46.06    0.73
 -14   0  -1    0.03    0.05
 -14   0  -1    0.09    0.06
  14   0   1    0.01    0.05
  14   0   1   -0.01    0.04
 -14   0  -1    0.00    0.04
 -14   0  -2   14.83    0.36
 -14   0  -2   15.42    0.39
 -14   0  -2   15.28    0.38
  14   0   2   14.31    0.33
  14   0   2   14.54    0.34
  14   0   2   14.72    0.36
 -14   0  -3    0.05    0.05
 -14   0  -3    0.11    0.06
 -14   0  -3    0.01    0.05
  14   0   3    0.02    0.04
  14   0   3    0.08    0.05
 -14   0  -4   12.96    0.33
 -14   0  -4   12.71    0.35
 -14   0  -4   12.98    0.34
  14   0   4   12.67    0.31
  14   0   4   12.78    0.32
  14   0   4   13.11    0.35
 -14   0  -5    0.25    0.06
 -14   0  -5    0.02    0.06
  14   0   5    0.04    0.04
  14   0   5    0.02    0.05
 -14   0  -6    0.31    0.07
 -14   0  -6    0.35    0.08
  14   0   6    0.34    0.06
  14   0   6    0.32    0.07
  14   0   7    0.14    0.09
 -14   0  -7    0.08    0.07
 -14   0  -7    0.12    0.09
  14   0   7    0.09    0.06
  14   0   7    0.07    0.07
  14   0   8  104.04    0.98
 -14   0  -8  108.54    0.91
  14   0   8  102.37    0.81
  14   0   8  105.69    0.94
  14   0   9    0.01    0.08
 -14   0  -9    0.18    0.09
  14   0   9    0.00    0.05
  14   0  10   12.70    0.31
 -14   0 -10   12.79    0.30
 -14   0 -10   12.25    0.30
  14   0  10   12.26    0.27
  14   0  11   -0.02    0.08
 -14   0 -11   -0.01    0.08
  14   0  12    2.45    0.15
 -14   0 -12    2.39    0.14
  14   0  13   -0.01    0.07
  14   0  14    0.76    0.11
  14   0  15    0.00    0.09
  14   0  16    3.72    0.18
 -14   0 -16    3.85    0.19
  14   0  17    0.03    0.10
 -14   0 -17    0.01    0.09
 -14   2  19    0.56    0.11
  14  -2 -19    0.53    0.12
  14   2 -19    0.66    0.11
 -14   2  18    6.68    0.23
  14   2 -18    6.13    0.21
  14  -2 -18    6.28    0.21
  14   2 -18    6.52    0.21
 -14   2  17    8.09    0.24
  14   2 -17    8.05    0.24
  14  -2 -17    7.90    0.24
  14   2 -17    7.93    0.23
 -14   2  16    3.51    0.17
  14  -2 -16    3.30    0.15
  14   2 -16    3.28    0.17
  14  -2 -16    3.54    0.17
  14   2 -16    3.46    0.16
 -14  -2  15    2.32    0.15
 -14   2  15    2.43    0.15
  14  -2 -15    2.35    0.13
  14   2 -15    2.31    0.15
  14  -2 -15    2.40    0.15
  14   2 -15    2.38    0.14
 -14  -2  14    0.08    0.08
 -14   2  14    0.17    0.09
  14  -2 -14    0.10    0.07
  14   2 -14    0.08    0.08
  14  -2 -14    0.05    0.08
  14   2 -14    0.10    0.08
 -14  -2  13    4.14    0.18
 -14   2  13    3.85    0.17
  14   2 -13    4.09    0.19
  14  -2 -13    4.15    0.18
  14   2 -13    4.13    0.17
 -14  -2  12    4.29    0.18
 -14   2  12    4.06    0.18
  14  -2 -12    3.98    0.18
  14   2 -12    4.00    0.18
  14  -2 -12    4.27    0.18
  14   2 -12    3.95    0.16
 -14  -2  11    7.11    0.23
 -14   2  11    7.66    0.23
  14  -2 -11    7.04    0.23
  14  -2 -11    7.08    0.22
  14   2 -11    6.96    0.23
  14  -2 -11    6.91    0.22
  14   2 -11    7.30    0.22
 -14  -2  10    0.59    0.08
 -14   2  10    0.60    0.09
 -14  -2  10    0.58    0.09
  14  -2 -10    0.55    0.08
  14  -2 -10    0.68    0.09
  14   2 -10    0.54    0.08
 -14  -2   9    5.94    0.21
 -14   2   9    5.72    0.21
 -14  -2   9    6.17    0.23
  14  -2  -9    5.92    0.22
  14  -2  -9    6.35    0.22
  14   2  -9    6.04    0.20
 -14  -2   8    0.05    0.05
 -14   2   8    0.07    0.07
 -14  -2   8    0.02    0.06
  14  -2  -8    0.16    0.05
  14  -2  -8    0.03    0.04
  14  -2  -8    0.03    0.06
  14   2  -8    0.04    0.06
 -14  -2   7    1.70    0.11
 -14   2   7    1.70    0.12
  14   2  -7    1.73    0.12
 -14  -2   7    1.72    0.12
  14   2  -7    1.66    0.12
  14  -2  -7    1.77    0.13
  14  -2  -7    1.63    0.11
  14  -2  -7    1.71    0.11
  14   2  -7    1.87    0.12
 -14  -2   6   12.31    0.29
 -14   2   6   11.59    0.29
  14   2  -6   11.85    0.28
 -14   2   6   12.17    0.30
  14   2  -6   11.81    0.30
  14  -2  -6   11.32    0.29
  14  -2  -6   12.22    0.28
 -14   2   6   12.04    0.26
 -14  -2   6   11.72    0.28
 -14  -2   5    0.24    0.06
 -14   2   5    0.27    0.07
  14   2  -5    0.26    0.07
  14  -2  -5    0.26    0.08
  14   2  -5    0.28    0.08
  14  -2  -5    0.27    0.06
  14  -2  -5    0.18    0.06
 -14   2   5    0.29    0.07
 -14  -2   5    0.30    0.08
 -14  -2   4    7.65    0.24
 -14   2   4    8.04    0.27
  14   2  -4    7.90    0.26
  14  -2  -4    7.94    0.27
 -14  -2   4    7.88    0.27
 -14   2   4    7.74    0.26
  14   2  -4    8.09    0.27
  14  -2  -4    7.95    0.25
  14  -2  -4    7.89    0.25
 -14   2   4    7.57    0.22
  14   2  -4    7.21    0.23
 -14  -2   4    7.83    0.25
 -14  -2   3    4.63    0.18
 -14   2   3    4.75    0.20
  14   2  -3    4.39    0.18
  14  -2  -3    4.39    0.19
 -14  -2   3    4.73    0.20
 -14   2   3    4.55    0.19
  14  -2  -3    4.51    0.17
  14  -2  -3    4.45    0.17
 -14   2   3    4.60    0.17
 -14  -2   3    4.56    0.18
 -14  -2   2    1.91    0.12
 -14   2   2    1.85    0.13
  14   2  -2    1.85    0.13
  14  -2  -2    1.96    0.13
 -14  -2   2    1.88    0.13
 -14   2   2    2.04    0.13
  14  -2  -2    1.83    0.11
  14  -2  -2    1.90    0.11
 -14  -2   2    1.66    0.11
 -14  -2   1    1.25    0.10
 -14   2   1    1.52    0.13
  14   2  -1    1.40    0.11
  14  -2  -1    1.40    0.11
 -14  -2   1    1.42    0.12
 -14   2   1    1.31    0.11
  14  -2  -1    1.41    0.10
  14  -2  -1    1.36    0.10
 -14   2   1    1.39    0.10
  14   2  -1    1.38    0.11
 -14  -2   1    1.28    0.10
 -14  -2   0    4.25    0.18
 -14   2   0    3.90    0.19
  14   2   0    4.52    0.19
 -14  -2   0    4.48    0.20
 -14   2   0    4.28    0.18
  14  -2   0    4.36    0.16
  14  -2   0    4.42    0.16
 -14   2   0    4.34    0.17
  14   2   0    4.66    0.19
 -14  -2   0    4.20    0.17
 -14  -2  -1   33.84    0.64
 -14  -2  -1   34.18    0.67
  14   2   1   35.14    0.63
 -14   2  -1   34.71    0.64
  14  -2   1   35.73    0.61
  14   2   1   34.60    0.62
  14  -2   1   34.93    0.60
 -14   2  -1   35.60    0.63
  14   2   1   35.13    0.64
 -14  -2  -2   25.34    0.51
 -14  -2  -2   25.06    0.53
 -14  -2  -2   25.90    0.54
  14   2   2   26.61    0.51
 -14   2  -2   26.70    0.53
  14  -2   2   26.19    0.49
  14   2   2   24.82    0.51
 -14   2  -2   25.75    0.51
 -14   2  -3    5.64    0.20
 -14  -2  -3    6.53    0.21
 -14  -2  -3    6.42    0.23
 -14  -2  -3    6.58    0.23
  14   2   3    6.18    0.20
 -14   2  -3    6.66    0.22
  14  -2   3    6.51    0.20
  14  -2   3    6.29    0.21
  14   2   3    6.48    0.21
  14  -2   3    6.54    0.20
  14   2   3    6.46    0.22
 -14  -2  -4    7.17    0.22
 -14  -2  -4    7.40    0.26
 -14  -2  -4    7.39    0.26
 -14   2  -4    7.18    0.23
  14  -2   4    7.38    0.22
  14   2   4    6.99    0.22
  14  -2   4    7.16    0.21
  14   2   4    7.19    0.24
 -14  -2  -5    7.06    0.22
 -14  -2  -5    7.66    0.26
 -14  -2  -5    6.57    0.24
 -14   2  -5    7.07    0.23
  14  -2   5    7.16    0.22
  14   2   5    7.29    0.22
  14  -2   5    6.12    0.21
  14  -2   5    8.05    0.22
  14   2   5    7.26    0.24
 -14   2  -6   37.53    0.63
  14   2   6   36.91    0.59
  14   2   6   38.32    0.65
 -14  -2  -7    3.69    0.16
 -14   2  -7    3.67    0.18
 -14  -2  -7    3.77    0.18
  14   2   7    3.57    0.16
  14  -2   8  246.75    1.52
 -14  -2  -8  250.96    1.52
 -14   2  -8  247.64    1.51
 -14  -2  -8  235.80    3.07
  14   2   9   71.65    1.09
  14  -2   9   71.54    1.10
 -14  -2  -9   69.39    1.02
 -14   2  -9   72.55    1.08
 -14  -2  -9   71.31    1.08
  14  -2  10    0.02    0.09
  14   2  10    0.09    0.07
 -14  -2 -10    0.07    0.08
 -14   2 -10    0.06    0.08
 -14  -2 -10    0.06    0.07
  14   2  11    0.52    0.10
  14  -2  11    0.59    0.11
 -14  -2 -11    0.41    0.11
 -14   2 -11    0.54    0.10
 -14  -2 -11    0.57    0.10
  14   2  12    3.16    0.17
  14  -2  12    3.12    0.18
 -14  -2 -12    3.12    0.17
 -14   2 -12    2.93    0.15
 -14  -2 -12    3.13    0.16
  14  -2  13    3.30    0.18
 -14  -2 -13    3.35    0.17
 -14   2 -13    3.26    0.17
  14  -2  14    4.14    0.19
 -14  -2 -14    4.11    0.19
 -14   2 -14    4.00    0.18
  14  -2  15    6.12    0.23
 -14  -2 -15    6.44    0.23
 -14   2 -15    6.18    0.21
  14  -2  16    2.29    0.16
 -14  -2 -16    2.35    0.16
 -14   2 -16    2.41    0.15
 -14   4  18    2.18    0.14
  14   4 -18    2.24    0.16
  14  -4 -18    2.22    0.15
  14   4 -18    2.11    0.13
 -14   4  17    4.64    0.19
  14   4 -17    4.55    0.20
  14  -4 -17    4.76    0.20
  14   4 -17    4.75    0.18
 -14   4  16    0.90    0.11
  14   4 -16    0.84    0.12
  14  -4 -16    0.90    0.13
  14   4 -16    0.81    0.10
 -14  -4  15    5.63    0.20
 -14   4  15    5.57    0.20
  14   4 -15    5.81    0.22
  14  -4 -15    5.95    0.21
  14   4 -15    5.77    0.20
 -14  -4  14    0.42    0.10
 -14   4  14    0.49    0.09
  14   4 -14    0.52    0.11
  14   4 -14    0.51    0.09
 -14  -4  13    2.16    0.14
 -14   4  13    2.06    0.13
  14   4 -13    2.14    0.15
  14   4 -13    2.13    0.13
 -14  -4  12   18.07    0.36
 -14   4  12   18.69    0.35
  14   4 -12   17.81    0.36
  14   4 -12   18.02    0.33
 -14  -4  11    0.31    0.08
 -14   4  11    0.44    0.08
  14  -4 -11    0.39    0.09
  14   4 -11    0.29    0.08
 -14  -4  10    9.53    0.26
 -14   4  10    9.22    0.25
 -14  -4  10    8.69    0.26
  14  -4 -10    9.16    0.25
  14   4 -10    9.21    0.24
 -14  -4   9    7.69    0.23
 -14   4   9    7.89    0.23
 -14  -4   9    8.17    0.25
  14  -4  -9    7.79    0.23
  14   4  -9    7.79    0.23
 -14  -4   8    0.66    0.09
 -14   4   8    0.67    0.09
 -14  -4   8    0.69    0.10
  14  -4  -8    0.62    0.09
 -14  -4   7   13.08    0.30
  14   4  -7   12.75    0.28
 -14   4   7   13.31    0.30
 -14  -4   7   13.17    0.32
  14  -4  -7   13.12    0.30
  14   4  -7   12.15    0.28
 -14  -4   6    3.74    0.17
  14   4  -6    3.60    0.15
 -14   4   6    3.61    0.17
  14  -4  -6    3.58    0.16
  14   4  -6    3.39    0.16
 -14  -4   5    9.19    0.26
  14   4  -5    9.07    0.26
 -14   4   5    9.29    0.28
  14  -4  -5    9.10    0.26
 -14   4   5    8.96    0.24
  14   4  -5    8.94    0.26
 -14  -4   4    0.17    0.05
  14   4  -4    0.18    0.06
 -14   4   4    0.14    0.08
  14  -4  -4    0.18    0.06
 -14   4   4    0.17    0.05
  14   4  -4    0.14    0.07
 -14  -4   3    0.17    0.05
  14   4  -3    0.18    0.06
 -14   4   3    0.14    0.08
 -14  -4   3    0.15    0.07
 -14   4   3    0.16    0.06
  14  -4  -3    0.13    0.06
 -14   4   3    0.18    0.05
  14   4  -3    0.16    0.07
 -14  -4   2    6.85    0.22
  14   4  -2    6.97    0.23
 -14   4   2    6.82    0.24
 -14   4   2    6.59    0.23
  14  -4  -2    6.72    0.23
  14  -4  -2    6.73    0.22
 -14   4   2    6.44    0.19
  14   4  -2    7.19    0.24
 -14  -4   1    0.01    0.04
 -14   4   1    0.04    0.07
  14   4  -1    0.01    0.05
 -14   4   1    0.03    0.05
  14  -4  -1    0.03    0.04
  14  -4  -1    0.00    0.05
 -14   4   1    0.07    0.05
  14   4  -1    0.06    0.07
 -14  -4   0    0.40    0.06
 -14   4   0    0.39    0.09
  14   4   0    0.39    0.07
 -14   4   0    0.38    0.07
  14  -4   0    0.40    0.07
  14  -4   0    0.43    0.07
 -14   4   0    0.42    0.06
 -14  -4  -1   23.27    0.44
 -14   4  -1   24.38    0.51
 -14   4  -1   23.72    0.46
  14  -4   1   23.93    0.45
  14  -4   1   24.42    0.46
 -14  -4  -2    7.09    0.22
 -14   4  -2    7.06    0.26
 -14  -4  -2    6.86    0.25
 -14   4  -2    7.27    0.23
  14  -4   2    7.21    0.23
  14  -4   2    7.33    0.23
 -14   4  -2    7.13    0.22
 -14  -4  -3    0.87    0.09
 -14  -4  -3    0.98    0.09
 -14   4  -3    0.91    0.11
 -14  -4  -3    0.90    0.11
 -14   4  -3    0.98    0.09
  14  -4   3    0.96    0.10
  14   4   3    0.95    0.11
 -14  -4  -4    3.83    0.16
 -14  -4  -4    4.25    0.18
 -14   4  -4    3.88    0.19
 -14  -4  -4    4.22    0.21
 -14   4  -4    3.95    0.17
  14  -4   4    3.95    0.16
  14   4   4    3.98    0.19
 -14  -4  -5   25.07    0.52
 -14  -4  -5   25.28    0.54
 -14   4  -5   26.10    0.50
  14   4   5   26.22    0.53
 -14  -4  -6   25.04    0.48
 -14  -4  -6   25.10    0.55
 -14  -4  -6   25.10    0.54
 -14   4  -6   26.15    0.50
  14   4   6   25.94    0.53
 -14  -4  -7  125.07    1.65
 -14  -4  -7  124.63    1.83
 -14  -4  -7  129.03    1.82
 -14   4  -7  127.59    1.75
 -14  -4  -7  125.46    1.77
 -14  -4  -8   92.46    0.90
 -14  -4  -8   94.24    0.90
 -14   4  -8   94.56    0.83
 -14  -4  -8   95.83    0.88
 -14  -4  -9   48.05    0.72
 -14  -4  -9   48.94    0.63
 -14   4  -9   46.81    0.56
 -14  -4  -9   49.24    0.62
  14  -4  10    0.29    0.11
 -14  -4 -10    0.33    0.11
 -14   4 -10    0.32    0.09
 -14  -4 -10    0.29    0.11
  14  -4  11   11.30    0.31
 -14  -4 -11   11.18    0.31
 -14   4 -11   11.20    0.27
 -14  -4 -11   11.23    0.29
  14  -4  12    1.30    0.14
 -14  -4 -12    1.11    0.13
 -14   4 -12    1.10    0.12
 -14  -4 -12    1.15    0.13
  14  -4  13    0.60    0.12
 -14  -4 -13    0.58    0.13
 -14   4 -13    0.60    0.10
 -14  -4 -13    0.48    0.11
  14  -4  14    0.18    0.11
 -14  -4 -14    0.15    0.10
 -14   4 -14    0.26    0.10
 -14  -4 -14    0.18    0.10
  14  -4  15    8.09    0.27
 -14  -4 -15    8.04    0.26
 -14   4 -15    7.99    0.24
 -14  -6  16    0.20    0.09
 -14  -6  15    2.01    0.14
 -14   6  15    1.80    0.13
  14  -6 -15    1.98    0.16
  14   6 -15    1.93    0.13
 -14  -6  14    0.77    0.11
 -14   6  14    0.90    0.11
  14   6 -14    0.68    0.12
  14  -6 -14    0.75    0.11
  14   6 -14    0.75    0.10
 -14  -6  13    0.03    0.08
 -14   6  13   -0.01    0.08
  14   6 -13    0.05    0.09
  14  -6 -13    0.10    0.10
  14   6 -13    0.04    0.09
 -14  -6  12    0.40    0.09
 -14   6  12    0.37    0.09
  14   6 -12    0.35    0.10
  14  -6 -12    0.50    0.10
  14   6 -12    0.47    0.09
 -14  -6  11    0.04    0.08
 -14   6  11    0.03    0.07
  14   6 -11    0.13    0.09
  14  -6 -11    0.08    0.09
  14   6 -11    0.05    0.07
 -14  -6  10    0.02    0.07
 -14   6  10    0.08    0.07
  14  -6 -10    0.13    0.09
 -14  -6   9    0.01    0.07
 -14   6   9    0.04    0.06
  14  -6  -9    0.00    0.08
 -14  -6   8    0.01    0.06
 -14   6   8    0.06    0.08
  14  -6  -8   -0.03    0.07
  14   6  -8    0.05    0.08
 -14  -6   7    1.11    0.11
 -14   6   7    1.09    0.12
  14  -6  -7    1.15    0.12
  14   6  -7    1.00    0.11
 -14  -6   6   10.25    0.26
 -14   6   6    9.71    0.27
 -14  -6   6    9.25    0.27
  14  -6  -6   10.66    0.27
  14   6  -6   10.61    0.27
 -14  -6   5    4.74    0.18
 -14   6   5    4.92    0.20
  14  -6  -5    4.91    0.19
  14   6  -5    4.79    0.20
 -14  -6   4    1.15    0.10
 -14   6   4    1.17    0.12
  14  -6  -4    1.05    0.10
  14   6  -4    1.11    0.13
 -14  -6   3    0.09    0.06
 -14   6   3    0.05    0.08
  14  -6  -3    0.09    0.07
  14   6  -3    0.14    0.10
 -14  -6   2    1.28    0.11
 -14   6   2    1.37    0.13
 -14  -6   2    1.30    0.12
  14  -6  -2    1.27    0.11
  14   6  -2    1.35    0.13
 -14   6   1    5.14    0.22
 -14  -6   1    5.28    0.22
  14  -6  -1    5.27    0.19
  14   6  -1    5.20    0.21
 -14   6   0    3.88    0.19
 -14  -6   0    3.97    0.19
  14  -6   0    3.93    0.17
  14   6   0    3.90    0.18
 -14   6  -1    3.66    0.19
 -14  -6  -1    3.53    0.19
  14   6   1    3.51    0.17
 -14   6  -2    3.63    0.19
 -14  -6  -2    3.59    0.19
 -14   6  -2    3.55    0.15
  14  -6   2    3.31    0.15
  14   6   2    3.61    0.18
 -14   6  -3    2.84    0.18
 -14  -6  -3    3.14    0.18
 -14   6  -3    3.07    0.14
  14   6   3    2.56    0.16
 -14   6  -4    6.83    0.25
 -14  -6  -4    6.56    0.24
 -14   6  -4    6.49    0.20
 -14   6  -5    4.90    0.22
 -14  -6  -5    5.00    0.22
 -14   6  -5    5.18    0.18
 -14   6  -6    1.44    0.15
 -14  -6  -6    1.46    0.13
 -14   6  -6    1.50    0.12
  14   6   6    1.39    0.14
 -14  -6  -7   48.93    0.65
 -14   6  -7   49.44    0.56
  14   6   7   48.65    0.62
 -14  -6  -8    3.28    0.20
 -14   6  -8    2.93    0.15
 -14  -6  -9    9.59    0.30
 -14   6  -9    9.02    0.24
 -14  -6  -9    8.87    0.27
 -14  -6 -10    7.01    0.25
 -14   6 -10    7.33    0.22
 -14  -6 -10    6.94    0.24
 -14  -6 -11    0.57    0.11
 -14   6 -11    0.72    0.11
 -14  -6 -11    0.69    0.11
 -14  -6 -12    0.10    0.10
 -14   6 -12    0.11    0.08
 -14  -6 -12    0.10    0.09
 -14  -6 -13    0.14    0.10
 -14   6 -13    0.11    0.09
 -14  -6 -13    0.11    0.10
  14   8 -12    0.64    0.12
  14  -8 -12    0.57    0.11
  14   8 -11    0.17    0.11
  14  -8 -11    0.10    0.09
  14   8 -11    0.11    0.09
  14   8 -10    0.29    0.11
  14  -8 -10    0.23    0.09
  14   8  -9    0.21    0.10
  14  -8  -9    0.21    0.10
  14   8  -9    0.23    0.10
 -14  -8   8    1.23    0.13
  14  -8  -8    1.16    0.12
  14   8  -8    1.18    0.12
 -14   8   7    1.10    0.11
 -14  -8   7    1.26    0.13
  14  -8  -7    1.23    0.12
  14   8  -7    1.23    0.12
 -14   8   6    0.04    0.08
 -14  -8   6    0.18    0.09
  14  -8  -6    0.10    0.09
  14   8  -6    0.12    0.09
 -14   8   5    1.19    0.12
 -14  -8   5    1.16    0.12
  14  -8  -5    1.21    0.11
  14   8  -5    1.22    0.12
 -14   8   4    0.30    0.10
 -14  -8   4    0.26    0.10
  14  -8  -4    0.28    0.08
  14   8  -4    0.26    0.10
 -14   8   3    2.78    0.17
 -14  -8   3    2.78    0.16
  14  -8  -3    3.07    0.16
  14   8  -3    2.99    0.17
 -14   8   2    0.85    0.12
  14  -8  -2    0.94    0.11
  14   8  -2    0.92    0.12
 -14   8   1    2.04    0.16
  14   8  -1    2.23    0.15
 -14   8   0    8.07    0.26
  14   8   0    8.36    0.26
 -14   8  -1    0.02    0.10
 -14  -8  -1    0.00    0.08
  14   8   1    0.11    0.10
 -14   8  -2    0.04    0.09
 -14  -8  -2    0.10    0.08
  14   8   2    0.00    0.09
 -14   8  -3    2.07    0.16
 -14  -8  -3    2.19    0.15
  14   8   3    2.16    0.16
 -14   8  -4    1.20    0.13
 -14  -8  -4    1.10    0.12
  14   8   4    1.24    0.13
 -14   8  -5    0.08    0.10
 -14  -8  -5    0.13    0.09
  14   8   5    0.09    0.10
 -14   8  -6    0.48    0.12
 -14  -8  -6    0.48    0.11
  14   8   6    0.49    0.12
 -14   8  -7   13.80    0.35
 -14  -8  -7   14.35    0.35
 -14   8  -8   12.58    0.34
 -14  -8  -8   13.52    0.34
 -14   8  -9   14.66    0.36
 -14  -8  -9   14.41    0.35
  14   8   9   14.74    0.35
 -15  -1  19    3.07    0.17
 -15   1  19    2.99    0.17
  15  -1 -19    3.02    0.16
  15   1 -19    2.99    0.16
 -15  -1  18    6.67    0.23
 -15   1  18    6.89    0.23
  15  -1 -18    6.72    0.22
  15   1 -18    6.57    0.22
  15  -1 -18    6.77    0.22
  15   1 -18    6.35    0.21
 -15  -1  17   11.89    0.29
 -15   1  17   11.21    0.28
  15  -1 -17   11.54    0.28
  15   1 -17   11.80    0.28
  15  -1 -17   11.93    0.29
  15   1 -17   12.46    0.29
 -15  -1  16    2.11    0.15
 -15   1  16    2.32    0.15
  15   1 -16    2.04    0.13
  15  -1 -16    2.27    0.14
  15   1 -16    2.30    0.14
 -15   1  15    0.07    0.08
  15   1 -15    0.10    0.07
  15  -1 -15    0.14    0.10
  15   1 -15    0.10    0.09
 -15   1  14    0.26    0.09
  15  -1 -14    0.31    0.07
  15   1 -14    0.28    0.09
  15  -1 -14    0.21    0.09
  15   1 -14    0.29    0.09
 -15   1  13    5.61    0.21
  15  -1 -13    5.60    0.20
  15   1 -13    5.60    0.21
  15  -1 -13    5.57    0.21
  15   1 -13    5.51    0.19
 -15   1  12    0.75    0.11
  15  -1 -12    0.80    0.10
  15  -1 -12    0.79    0.10
  15   1 -12    0.79    0.10
  15  -1 -12    0.73    0.11
  15   1 -12    0.80    0.11
 -15   1  11    0.29    0.09
  15  -1 -11    0.45    0.09
  15  -1 -11    0.36    0.08
  15   1 -11    0.30    0.09
  15  -1 -11    0.42    0.10
  15   1 -11    0.27    0.09
 -15  -1  10    0.86    0.10
 -15   1  10    0.78    0.11
 -15  -1  10    0.90    0.10
  15  -1 -10    0.87    0.10
  15  -1 -10    0.93    0.10
  15  -1 -10    0.89    0.10
  15   1 -10    1.02    0.11
 -15  -1   9    3.50    0.16
 -15   1   9    3.45    0.16
 -15  -1   9    3.54    0.17
  15  -1  -9    3.61    0.17
  15  -1  -9    3.59    0.16
  15   1  -9    3.66    0.16
 -15  -1   8    1.79    0.13
 -15   1   8    1.98    0.12
 -15   1   8    1.81    0.13
 -15  -1   8    1.93    0.13
  15   1  -8    1.90    0.13
  15  -1  -8    1.90    0.13
  15   1  -8    1.96    0.12
 -15  -1   7    5.79    0.20
 -15   1   7    6.03    0.21
  15   1  -7    5.97    0.21
 -15   1   7    5.94    0.21
 -15  -1   7    5.97    0.22
  15   1  -7    5.83    0.22
  15  -1  -7    6.12    0.22
  15  -1  -7    5.05    0.18
  15   1  -7    5.92    0.20
 -15  -1   6   10.66    0.26
 -15   1   6   10.16    0.26
  15   1  -6   10.61    0.27
  15  -1  -6   10.58    0.28
  15   1  -6   10.42    0.28
  15  -1  -6   10.69    0.29
  15  -1  -6   10.34    0.25
 -15  -1   6   10.85    0.26
 -15  -1   5    8.70    0.26
  15   1  -5    8.65    0.27
  15  -1  -5    8.27    0.27
 -15  -1   5    8.55    0.28
 -15   1   5    8.61    0.28
  15   1  -5    8.89    0.28
  15  -1  -5    8.09    0.26
  15  -1  -5    8.59    0.25
 -15  -1   5    8.33    0.25
 -15  -1   4    1.43    0.10
  15   1  -4    1.41    0.11
  15  -1  -4    1.39    0.12
 -15  -1   4    1.40    0.11
 -15   1   4    1.47    0.12
  15   1  -4    1.41    0.12
  15  -1  -4    1.37    0.11
  15  -1  -4    1.38    0.10
 -15   1   4    1.44    0.10
 -15  -1   4    1.49    0.11
 -15  -1   3   34.12    0.62
  15   1  -3   34.18    0.64
  15  -1  -3   32.57    0.62
 -15  -1   3   34.45    0.65
 -15   1   3   31.70    0.62
  15   1  -3   32.21    0.60
  15  -1  -3   32.35    0.60
  15  -1  -3   33.58    0.58
 -15   1   3   33.81    0.60
 -15  -1   3   33.77    0.61
 -15  -1   2   12.18    0.32
  15   1  -2   12.19    0.33
  15  -1  -2   12.57    0.34
 -15  -1   2   12.16    0.33
 -15   1   2   12.85    0.36
  15   1  -2   11.91    0.32
  15  -1  -2   12.38    0.31
  15  -1  -2   12.40    0.30
  15   1  -2   11.94    0.30
 -15   1   2   11.99    0.30
 -15  -1   2   12.12    0.31
 -15  -1   1    0.06    0.05
  15   1  -1    0.04    0.05
  15  -1  -1    0.05    0.06
 -15  -1   1    0.02    0.06
 -15   1   1    0.02    0.05
  15   1  -1    0.01    0.05
  15  -1  -1    0.05    0.05
  15  -1  -1    0.14    0.05
  15   1  -1    0.05    0.05
 -15   1   1    0.01    0.05
 -15  -1   1    0.03    0.06
 -15  -1   0    1.16    0.10
 -15   1   0    1.18    0.11
  15   1   0    1.19    0.11
 -15  -1   0    1.26    0.11
 -15   1   0    1.16    0.10
  15   1   0    1.09    0.10
  15  -1   0    1.20    0.09
  15  -1   0    1.19    0.09
  15   1   0    1.21    0.10
 -15   1   0    1.27    0.10
 -15  -1   0    1.16    0.10
 -15  -1  -1    0.65    0.08
 -15   1  -1    0.59    0.09
 -15  -1  -1    0.64    0.09
 -15   1  -1    0.63    0.09
  15   1   1    0.58    0.08
  15  -1   1    0.61    0.07
  15  -1   1    0.63    0.07
  15   1   1    0.63    0.08
 -15   1  -1    0.62    0.08
 -15   1  -2   14.70    0.36
 -15  -1  -2   14.34    0.36
 -15  -1  -2   14.56    0.39
 -15   1  -2   13.73    0.38
 -15  -1  -2   14.13    0.37
 -15   1  -2   14.22    0.36
  15  -1   2   14.34    0.33
  15   1   2   13.70    0.34
  15   1   2   14.44    0.36
 -15   1  -2   13.61    0.34
 -15   1  -3    8.25    0.24
 -15  -1  -3    8.41    0.24
 -15  -1  -3    8.14    0.26
 -15   1  -3    8.29    0.26
 -15  -1  -3    8.04    0.25
 -15   1  -3    8.06    0.24
  15  -1   3    8.49    0.22
  15  -1   3    7.89    0.23
  15  -1   3    8.31    0.23
  15   1   3    7.97    0.25
 -15   1  -4    3.33    0.16
 -15  -1  -4    3.23    0.15
 -15  -1  -4    3.36    0.18
 -15   1  -4    3.34    0.18
 -15  -1  -4    3.24    0.17
 -15   1  -4    3.38    0.17
  15  -1   4    3.48    0.15
  15   1   4    3.29    0.15
  15  -1   4    3.31    0.15
  15  -1   4    3.32    0.15
  15   1   4    3.52    0.17
 -15  -1  -5    1.69    0.11
 -15  -1  -5    1.72    0.14
 -15  -1  -5    1.68    0.13
 -15   1  -5    1.80    0.13
  15   1   5    1.77    0.11
  15  -1   5    1.59    0.11
  15  -1   5    1.74    0.12
  15   1   5    1.86    0.13
 -15  -1  -6    2.53    0.13
 -15  -1  -6    2.41    0.15
 -15   1  -6    2.51    0.15
  15   1   6    2.33    0.13
  15  -1   6    2.54    0.13
  15  -1   6    2.47    0.14
  15   1   6    2.46    0.15
 -15  -1  -7   61.76    0.63
 -15  -1  -7   60.24    0.69
 -15   1  -7   60.16    0.65
  15   1   7   61.59    0.64
  15  -1   7   59.89    0.61
  15  -1   7   59.98    0.66
  15   1   7   60.61    0.68
  15  -1   8   27.57    0.56
 -15  -1  -8   27.97    0.55
 -15   1  -8   27.62    0.54
  15   1   8   27.60    0.51
  15  -1   8   27.36    0.51
  15  -1   8   27.67    0.54
  15   1   8   27.04    0.54
  15   1   9   14.64    0.38
  15  -1   9   14.98    0.38
 -15  -1  -9   14.32    0.37
 -15   1  -9   15.20    0.37
  15   1   9   14.36    0.33
  15  -1   9   14.81    0.34
  15  -1   9   15.00    0.36
  15   1   9   15.00    0.37
  15  -1  10    4.31    0.19
  15   1  10    4.40    0.20
 -15   1 -10    4.48    0.18
 -15  -1 -10    4.40    0.18
  15   1  10    4.23    0.16
  15  -1  10    4.35    0.18
  15   1  11   -0.01    0.06
  15  -1  11    0.26    0.10
 -15   1 -11   -0.03    0.08
 -15  -1 -11    0.01    0.07
  15  -1  11    0.02    0.05
  15  -1  12    0.12    0.09
  15   1  12    0.04    0.08
 -15   1 -12    0.06    0.08
  15   1  13    0.75    0.11
  15  -1  13    0.74    0.12
 -15  -1 -13    0.69    0.10
 -15   1 -13    0.79    0.11
  15  -1  14    2.63    0.17
  15   1  14    2.79    0.16
 -15  -1 -14    2.74    0.16
 -15   1 -14    2.61    0.16
  15  -1  15    0.16    0.11
 -15  -1 -15    0.12    0.11
 -15   1 -15    0.16    0.11
  15  -1  16    1.49    0.14
 -15  -1 -16    1.52    0.13
 -15   1 -16    1.59    0.15
 -15  -3  18    9.77    0.27
 -15   3  18    9.89    0.27
  15   3 -18    9.69    0.27
  15  -3 -18    9.37    0.26
  15   3 -18    9.51    0.25
 -15  -3  17    6.14    0.22
 -15   3  17    5.98    0.21
  15   3 -17    5.96    0.21
  15  -3 -17    6.21    0.22
  15   3 -17    5.95    0.20
 -15  -3  16    5.98    0.21
 -15   3  16    6.00    0.21
  15   3 -16    5.65    0.21
  15  -3 -16    6.01    0.21
  15   3 -16    6.06    0.20
 -15  -3  15    0.58    0.10
 -15   3  15    0.49    0.10
  15   3 -15    0.41    0.10
  15  -3 -15    0.49    0.10
  15   3 -15    0.51    0.10
 -15  -3  14    0.06    0.08
 -15   3  14    0.09    0.08
  15   3 -14    0.02    0.08
  15  -3 -14    0.04    0.08
  15   3 -14    0.09    0.08
 -15  -3  13    0.53    0.10
 -15   3  13    0.51    0.09
  15  -3 -13    0.46    0.07
  15   3 -13    0.54    0.10
  15   3 -13    0.49    0.09
 -15  -3  12    4.05    0.18
 -15   3  12    4.10    0.18
  15  -3 -12    3.84    0.16
  15   3 -12    4.08    0.18
  15   3 -12    3.72    0.16
 -15  -3  11   12.41    0.29
 -15   3  11   12.39    0.28
  15  -3 -11   12.22    0.28
  15   3 -11   12.70    0.31
  15   3 -11   12.66    0.28
 -15  -3  10    1.32    0.12
 -15   3  10    1.29    0.12
 -15  -3  10    1.27    0.12
  15  -3 -10    1.27    0.11
  15  -3 -10    1.29    0.10
  15  -3 -10    1.33    0.11
  15   3 -10    1.33    0.11
 -15  -3   9   44.19    0.75
 -15   3   9   44.78    0.74
 -15  -3   9   46.84    0.80
  15  -3  -9   44.63    0.76
  15  -3  -9   46.28    0.77
  15   3  -9   45.93    0.76
 -15  -3   8    1.48    0.11
 -15   3   8    1.48    0.11
 -15  -3   8    1.55    0.12
  15  -3  -8    1.36    0.11
  15  -3  -8    1.44    0.10
  15  -3  -8    1.53    0.12
  15   3  -8    1.51    0.12
 -15  -3   7    6.07    0.22
 -15   3   7    5.99    0.21
  15   3  -7    5.94    0.21
 -15  -3   7    6.32    0.23
  15  -3  -7    5.69    0.21
  15  -3  -7    6.12    0.21
  15  -3  -7    6.09    0.21
 -15  -3   6    0.44    0.07
  15   3  -6    0.41    0.07
 -15   3   6    0.46    0.08
  15  -3  -6    0.46    0.06
  15  -3  -6    0.42    0.07
  15  -3  -6    0.38    0.08
 -15  -3   5    0.02    0.05
  15   3  -5    0.01    0.04
 -15   3   5    0.01    0.05
 -15   3   5    0.04    0.05
  15  -3  -5    0.04    0.04
  15  -3  -5    0.02    0.05
 -15   3   5    0.06    0.05
  15   3  -5    0.07    0.06
 -15  -3   4    0.17    0.06
 -15   3   4    0.17    0.07
  15   3  -4    0.19    0.06
 -15  -3   4    0.16    0.06
 -15   3   4    0.20    0.06
  15  -3  -4    0.19    0.05
  15  -3  -4    0.24    0.07
 -15   3   4    0.22    0.06
  15   3  -4    0.20    0.07
 -15  -3   3    3.95    0.16
 -15   3   3    4.06    0.18
  15   3  -3    3.83    0.17
 -15  -3   3    3.88    0.18
 -15   3   3    3.80    0.18
  15  -3  -3    3.89    0.15
  15  -3  -3    4.21    0.17
 -15   3   3    3.76    0.14
  15   3  -3    3.54    0.16
 -15  -3   2    0.43    0.07
 -15   3   2    0.40    0.08
  15   3  -2    0.42    0.07
 -15  -3   2    0.58    0.09
 -15   3   2    0.41    0.08
  15  -3  -2    0.42    0.06
  15  -3  -2    0.49    0.07
 -15   3   2    0.44    0.07
 -15  -3   1   67.99    0.68
 -15   3   1   68.71    0.79
  15   3  -1   64.61    0.75
 -15  -3   1   66.51    0.74
 -15   3   1   66.39    0.74
  15  -3  -1   68.23    0.66
  15  -3  -1   66.68    0.67
 -15  -3   0   29.45    0.45
 -15   3   0   29.51    0.52
  15   3   0   29.46    0.48
 -15  -3   0   28.57    0.51
 -15   3   0   28.45    0.46
  15  -3   0   29.28    0.43
  15  -3   0   29.62    0.44
 -15   3   0   28.96    0.42
 -15  -3  -1    7.57    0.24
 -15  -3  -1    7.65    0.23
 -15   3  -1    7.85    0.27
 -15  -3  -1    7.43    0.26
 -15   3  -1    8.06    0.25
  15  -3   1    7.56    0.22
  15  -3   1    7.52    0.23
 -15   3  -1    7.44    0.22
  15   3   1    7.53    0.25
 -15  -3  -2    1.80    0.12
 -15  -3  -2    1.65    0.12
 -15   3  -2    1.85    0.14
 -15  -3  -2    1.68    0.14
 -15   3  -2    1.79    0.12
  15  -3   2    1.81    0.12
  15  -3   2    1.77    0.11
 -15   3  -2    1.73    0.12
  15   3   2    1.80    0.13
 -15  -3  -3    1.03    0.09
 -15  -3  -3    1.20    0.11
 -15   3  -3    1.04    0.12
 -15   3  -3    1.04    0.11
  15  -3   3    1.15    0.10
  15   3   3    1.04    0.12
 -15  -3  -4    1.90    0.12
 -15  -3  -4    1.94    0.14
 -15   3  -4    1.71    0.12
  15   3   4    1.76    0.13
 -15  -3  -5    0.75    0.10
 -15   3  -5    0.61    0.10
  15   3   5    0.71    0.10
 -15  -3  -6   21.15    0.48
 -15  -3  -6   22.42    0.49
 -15  -3  -6   19.55    0.46
 -15   3  -6   22.98    0.47
  15   3   6   22.45    0.48
 -15  -3  -7   46.56    0.75
 -15  -3  -7   46.27    0.81
 -15  -3  -7   45.45    0.80
 -15   3  -7   46.15    0.76
  15   3   7   46.45    0.78
 -15  -3  -8   55.24    0.60
 -15  -3  -8   55.70    0.69
 -15  -3  -8   56.13    0.67
 -15   3  -8   56.12    0.62
 -15  -3  -8   57.35    0.69
 -15  -3  -9   11.27    0.30
 -15   3  -9   11.77    0.28
 -15  -3  -9   11.85    0.30
  15  -3  10    2.04    0.16
 -15  -3 -10    2.06    0.15
 -15   3 -10    1.88    0.14
 -15  -3 -10    1.90    0.14
  15  -3  11   13.24    0.32
 -15  -3 -11   13.12    0.33
 -15   3 -11   12.58    0.29
 -15  -3 -11   13.37    0.31
  15  -3  12    0.56    0.12
 -15  -3 -12    0.56    0.12
 -15   3 -12    0.57    0.10
 -15  -3 -12    0.62    0.12
  15  -3  13    0.03    0.10
 -15  -3 -13    0.08    0.10
 -15   3 -13    0.13    0.10
 -15  -3 -13    0.05    0.08
  15  -3  14    1.29    0.14
 -15  -3 -14    1.08    0.14
 -15   3 -14    1.23    0.13
  15  -3  15    0.01    0.11
 -15  -3 -15   -0.01    0.09
 -15   3 -15    0.00    0.09
 -15  -5  17    2.99    0.17
 -15   5  17    3.00    0.17
  15   5 -17    3.10    0.17
  15  -5 -17    2.83    0.17
  15   5 -17    2.97    0.16
 -15   5  16    4.76    0.19
  15   5 -16    4.70    0.20
  15   5 -16    4.68    0.18
 -15   5  15    0.14    0.09
  15   5 -15    0.16    0.10
  15   5 -15    0.15    0.08
 -15   5  14    0.03    0.08
  15   5 -14   -0.06    0.09
  15  -5 -14    0.07    0.08
  15   5 -14    0.12    0.09
 -15   5  13    1.52    0.12
  15  -5 -13    1.60    0.13
  15   5 -13    1.62    0.12
 -15  -5  12    1.78    0.13
 -15   5  12    2.03    0.13
  15  -5 -12    1.94    0.14
  15   5 -12    1.89    0.13
 -15  -5  11    0.73    0.09
 -15   5  11    0.67    0.09
  15  -5 -11    0.63    0.10
  15   5 -11    0.73    0.10
 -15  -5  10    1.54    0.12
 -15   5  10    1.63    0.12
 -15  -5  10    1.50    0.13
  15  -5 -10    1.56    0.12
  15   5 -10    1.77    0.13
 -15  -5   9   15.23    0.32
 -15   5   9   15.29    0.32
 -15  -5   9   14.99    0.34
  15  -5  -9   15.39    0.32
 -15  -5   8   10.80    0.27
 -15   5   8   10.25    0.27
 -15  -5   8   10.46    0.29
  15  -5  -8   10.48    0.26
 -15  -5   7    2.62    0.14
 -15   5   7    2.69    0.15
 -15  -5   7    2.75    0.16
  15  -5  -7    2.84    0.15
  15   5  -7    2.91    0.15
 -15  -5   6    0.10    0.07
 -15   5   6    0.07    0.08
  15  -5  -6    0.08    0.08
  15   5  -6    0.07    0.09
 -15  -5   5    1.80    0.12
 -15   5   5    1.82    0.14
  15  -5  -5    1.83    0.13
  15   5  -5    1.90    0.14
 -15  -5   4    0.65    0.08
 -15   5   4    0.69    0.10
  15  -5  -4    0.71    0.09
 -15   5   4    0.74    0.08
  15   5  -4    0.58    0.10
 -15  -5   3    4.57    0.18
 -15   5   3    4.51    0.20
  15  -5  -3    4.58    0.18
 -15   5   3    4.41    0.16
  15   5  -3    4.52    0.19
 -15  -5   2    4.14    0.17
 -15   5   2    4.18    0.19
  15  -5  -2    4.33    0.18
 -15   5   2    4.07    0.15
  15   5  -2    4.35    0.19
 -15   5   1    1.18    0.13
 -15  -5   1    0.97    0.11
 -15   5   1    1.13    0.10
  15  -5  -1    1.07    0.09
  15  -5  -1    1.03    0.10
  15   5  -1    1.09    0.11
 -15   5   0   19.52    0.46
 -15  -5   0   20.94    0.48
 -15   5   0   19.99    0.43
  15  -5   0   18.62    0.42
  15  -5   0   20.12    0.43
  15   5   0   18.94    0.43
 -15   5  -1    2.97    0.17
 -15  -5  -1    2.89    0.17
 -15   5  -1    2.99    0.15
  15  -5   1    2.76    0.14
  15  -5   1    2.98    0.15
 -15   5  -2    1.92    0.15
 -15  -5  -2    1.63    0.13
 -15   5  -2    1.73    0.12
  15  -5   2    1.70    0.11
 -15   5  -3    0.37    0.11
 -15  -5  -3    0.38    0.10
 -15   5  -3    0.41    0.08
  15  -5   3    0.39    0.07
 -15   5  -4   12.06    0.35
 -15  -5  -4   12.94    0.36
 -15   5  -4   12.17    0.31
  15   5   4   12.84    0.34
 -15   5  -5    1.16    0.13
 -15  -5  -5    0.94    0.12
 -15   5  -5    0.88    0.09
  15   5   5    1.00    0.12
 -15   5  -6   15.78    0.37
 -15  -5  -6   15.15    0.36
 -15   5  -6   14.66    0.30
  15   5   6   15.12    0.34
 -15  -5  -7   16.31    0.37
 -15   5  -7   16.31    0.32
  15   5   7   15.94    0.35
 -15  -5  -8   32.37    0.52
 -15   5  -8   31.09    0.45
  15   5   8   31.97    0.50
 -15  -5  -9    5.69    0.23
 -15   5  -9    6.02    0.21
 -15  -5  -9    5.92    0.22
 -15  -5 -10    0.66    0.13
 -15   5 -10    0.70    0.10
 -15  -5 -10    0.61    0.11
 -15  -5 -11    0.26    0.11
 -15   5 -11    0.24    0.10
 -15  -5 -11    0.24    0.10
 -15  -5 -12    0.27    0.11
 -15   5 -12    0.19    0.10
 -15  -5 -12    0.13    0.10
 -15  -5 -13    2.03    0.16
 -15   5 -13    1.87    0.14
 -15  -5 -13    1.77    0.15
  15  -5  14    0.02    0.10
 -15  -5 -14   -0.01    0.10
 -15   5 -14   -0.02    0.09
 -15  -5 -14    0.03    0.09
 -15  -7  14   -0.01    0.08
  15   7 -14    0.08    0.11
  15  -7 -14    0.03    0.10
 -15  -7  13    5.30    0.20
  15   7 -13    5.35    0.21
  15  -7 -13    5.28    0.21
  15   7 -13    5.07    0.18
 -15  -7  12    1.68    0.12
 -15   7  12    1.61    0.13
  15   7 -12    1.62    0.14
  15  -7 -12    1.55    0.14
  15   7 -12    1.43    0.12
 -15  -7  11    2.56    0.14
 -15   7  11    2.61    0.14
  15   7 -11    2.69    0.16
  15  -7 -11    2.74    0.16
  15   7 -11    2.74    0.15
 -15  -7  10    0.31    0.09
 -15   7  10    0.40    0.09
  15  -7 -10    0.45    0.10
 -15  -7   9    0.03    0.07
 -15   7   9    0.02    0.08
 -15  -7   9    0.03    0.09
  15  -7  -9    0.03    0.08
 -15  -7   8    5.77    0.20
 -15   7   8    5.70    0.20
 -15  -7   8    5.82    0.22
  15  -7  -8    5.29    0.19
  15   7  -8    5.42    0.20
 -15  -7   7    1.92    0.13
 -15   7   7    2.09    0.15
 -15  -7   7    2.09    0.15
  15  -7  -7    1.96    0.13
  15   7  -7    1.91    0.14
 -15  -7   6    0.67    0.09
 -15   7   6    0.61    0.10
 -15  -7   6    0.77    0.11
  15  -7  -6    0.68    0.10
  15   7  -6    0.72    0.11
 -15   7   5    0.70    0.11
 -15  -7   5    0.64    0.12
  15  -7  -5    0.70    0.11
  15   7  -5    0.75    0.12
 -15   7   4    0.25    0.09
  15  -7  -4    0.19    0.08
  15   7  -4    0.30    0.11
 -15   7   3    0.08    0.08
  15  -7  -3    0.03    0.07
  15   7  -3   -0.01    0.10
 -15   7   2    3.40    0.18
  15  -7  -2    3.39    0.16
  15   7  -2    3.61    0.18
 -15   7   1    0.33    0.10
 -15  -7   1    0.21    0.10
  15  -7  -1    0.25    0.07
  15   7  -1    0.30    0.09
 -15   7   0    1.76    0.15
 -15  -7   0    1.79    0.14
  15   7   0    1.82    0.14
 -15   7  -1    2.22    0.16
 -15  -7  -1    2.33    0.16
  15   7   1    2.42    0.16
 -15   7  -2    3.12    0.18
 -15  -7  -2    3.27    0.18
  15   7   2    3.15    0.17
 -15   7  -3    5.29    0.22
 -15  -7  -3    5.40    0.22
  15   7   3    5.25    0.22
 -15   7  -4    6.41    0.24
 -15  -7  -4    6.32    0.24
  15   7   4    5.54    0.22
 -15   7  -5    0.11    0.09
 -15  -7  -5    0.21    0.09
 -15   7  -6    1.83    0.16
 -15  -7  -6    1.76    0.14
 -15   7  -7    9.95    0.30
 -15  -7  -7    9.52    0.29
  15   7   7    9.44    0.28
 -15   7  -8   34.66    0.54
 -15  -7  -8   36.01    0.55
  15   7   8   34.77    0.51
 -15   7  -9    1.28    0.15
 -15  -7  -9    1.28    0.14
  15   7   9    1.34    0.15
 -15  -7 -10    0.88    0.13
 -15   7 -10    0.80    0.10
  15   7  10    0.95    0.13
 -15  -7 -11    0.58    0.12
 -15   7 -11    0.56    0.10
  15   7  11    0.65    0.13
 -15  -9   8    0.40    0.11
  15  -9  -8    0.31    0.10
  15   9  -8    0.31    0.10
 -15  -9   7    1.13    0.12
  15  -9  -7    1.17    0.12
  15   9  -7    1.19    0.12
 -15  -9   6    0.41    0.11
  15  -9  -6    0.29    0.09
  15   9  -6    0.37    0.10
 -15  -9   5    0.05    0.10
  15  -9  -5    0.01    0.08
  15   9  -5    0.06    0.09
 -15  -9   4    2.24    0.15
  15   9  -4    2.11    0.15
 -15  -9   3    0.16    0.09
  15   9  -3    0.13    0.11
 -15   9   2    0.59    0.11
 -15  -9   2    0.67    0.11
  15   9  -2    0.51    0.11
 -15   9   1    1.18    0.13
  15   9  -1    1.20    0.14
 -15   9   0    4.44    0.20
  15   9   0    3.99    0.19
 -15   9  -1    3.55    0.19
  15   9   1    3.77    0.19
 -15   9  -2    2.23    0.16
  15   9   2    2.59    0.17
 -15   9  -3    4.79    0.22
 -15  -9  -3    4.87    0.21
  15   9   3    4.79    0.21
 -15   9  -4    1.26    0.15
 -15  -9  -4    1.26    0.14
  15   9   4    1.20    0.14
 -15   9  -5    0.02    0.11
 -15  -9  -5    0.02    0.10
  15   9   5    0.12    0.10
 -16   0  19   -0.02    0.10
  16   0 -19    0.01    0.08
  16   0 -19   -0.03    0.10
 -16   0  18   13.12    0.31
  16   0 -18   12.62    0.29
 -16   0  17    0.09    0.09
  16   0 -17   -0.03    0.07
  16   0 -17    0.00    0.08
 -16   0  16    1.95    0.14
  16   0 -16    1.77    0.12
  16   0 -16    1.84    0.14
 -16   0  15    0.06    0.08
  16   0 -15    0.01    0.08
  16   0 -15    0.05    0.08
 -16   0  14    0.08    0.08
  16   0 -14    0.06    0.07
  16   0 -14    0.09    0.08
 -16   0  13    0.01    0.08
  16   0 -13    0.06    0.08
  16   0 -13    0.00    0.09
 -16   0  12    1.52    0.13
  16   0 -12    1.71    0.13
  16   0 -12    1.66    0.13
  16   0 -11    0.06    0.08
  16   0 -11   -0.02    0.08
  16   0 -10    2.63    0.15
  16   0 -10    2.73    0.15
  16   0 -10    2.46    0.14
 -16   0   9   -0.05    0.07
  16   0  -9    0.04    0.06
  16   0  -9    0.01    0.06
 -16   0   8    0.18    0.08
  16   0  -8    0.10    0.05
  16   0  -7    0.06    0.06
 -16   0   6   34.56    0.48
  16   0  -6   35.58    0.51
  16   0  -6   38.29    0.56
 -16   0   6   35.26    0.46
 -16   0   5    0.04    0.05
  16   0  -5    0.00    0.05
 -16   0   5    0.00    0.05
  16   0  -5    0.01    0.05
  16   0  -5   -0.01    0.04
 -16   0   5    0.05    0.05
 -16   0   4   42.03    0.74
  16   0  -4   43.17    0.75
 -16   0   4   42.61    0.76
  16   0  -4   43.81    0.75
  16   0  -4   42.28    0.70
 -16   0   4   43.13    0.72
 -16   0   3    0.02    0.05
  16   0  -3    0.02    0.04
 -16   0   3    0.01    0.05
  16   0  -3    0.02    0.04
  16   0  -3    0.03    0.05
 -16   0   3    0.00    0.05
 -16   0   2   40.07    0.71
  16   0  -2   39.18    0.70
 -16   0   2   37.71    0.70
  16   0  -2   39.44    0.69
 -16   0   2   41.36    0.71
 -16   0   1    0.00    0.04
  16   0  -1    0.00    0.04
 -16   0   1    0.00    0.05
  16   0  -1    0.02    0.05
 -16   0   1   -0.02    0.04
 -16   0   0   23.00    0.51
  16   0   0   22.92    0.49
 -16   0   0   22.74    0.50
  16   0   0   22.28    0.46
  16   0   0   22.61    0.47
 -16   0   0   22.30    0.46
 -16   0  -1    0.04    0.05
 -16   0  -1    0.01    0.05
  16   0   1   -0.02    0.04
  16   0   1    0.00    0.05
 -16   0  -1    0.00    0.05
 -16   0  -2    0.26    0.06
 -16   0  -2    0.24    0.06
 -16   0  -2    0.25    0.07
  16   0   2    0.26    0.06
  16   0   2    0.23    0.06
  16   0   2    0.25    0.06
 -16   0  -3    0.03    0.04
 -16   0  -3    0.05    0.05
 -16   0  -3    0.05    0.05
  16   0   3    0.02    0.05
  16   0   3    0.03    0.05
 -16   0  -4   38.36    0.57
 -16   0  -4   36.95    0.62
 -16   0  -4   36.66    0.60
  16   0   4   37.80    0.57
  16   0   4   36.60    0.58
 -16   0  -5    0.03    0.05
 -16   0  -5    0.06    0.07
 -16   0  -5    0.00    0.07
  16   0   5    0.00    0.05
  16   0   5    0.03    0.06
 -16   0  -6   21.56    0.39
  16   0   6   20.34    0.35
  16   0   6   19.52    0.37
 -16   0  -7    0.21    0.10
  16   0   7    0.13    0.07
  16   0   7    0.11    0.09
 -16   0  -8   70.21    1.07
  16   0   8   69.40    1.01
  16   0   8   72.17    1.10
 -16   0  -9    0.04    0.08
  16   0   9    0.02    0.05
  16   0   9    0.03    0.06
  16   0  10    0.55    0.10
 -16   0 -10    0.40    0.10
  16   0  10    0.49    0.09
  16   0  11    0.01    0.07
 -16   0 -11    0.02    0.08
  16   0  11    0.00    0.06
  16   0  12    2.63    0.16
 -16   0 -12    2.52    0.16
  16   0  12    2.23    0.13
  16   0  13    0.01    0.09
 -16   0 -13   -0.02    0.09
  16   0  14   38.60    0.55
  16   0  15    0.00    0.10
  16   0  16    3.50    0.18
 -16   2  19    3.07    0.17
  16   2 -19    3.11    0.17
  16  -2 -19    3.22    0.17
  16   2 -19    2.99    0.16
 -16   2  18   15.22    0.32
  16   2 -18   14.66    0.32
  16  -2 -18   15.52    0.34
  16   2 -18   15.62    0.32
 -16  -2  17    2.22    0.16
 -16   2  17    2.19    0.14
  16   2 -17    2.19    0.14
  16  -2 -17    2.35    0.16
  16   2 -17    2.42    0.15
 -16  -2  16    2.03    0.14
 -16   2  16    2.01    0.13
  16   2 -16    2.06    0.14
  16  -2 -16    2.07    0.14
  16   2 -16    1.97    0.13
 -16  -2  15    0.35    0.10
 -16   2  15    0.42    0.10
  16  -2 -15    0.43    0.08
  16   2 -15    0.35    0.09
  16  -2 -15    0.62    0.10
  16   2 -15    0.37    0.10
 -16  -2  14    0.05    0.08
 -16   2  14    0.05    0.09
  16   2 -14   -0.01    0.08
  16  -2 -14    0.02    0.09
  16   2 -14    0.05    0.08
 -16  -2  13    2.89    0.15
 -16   2  13    2.91    0.16
  16  -2 -13    2.74    0.14
  16   2 -13    2.89    0.16
  16  -2 -13    2.94    0.16
  16   2 -13    2.98    0.15
 -16  -2  12    0.34    0.08
 -16   2  12    0.38    0.09
  16  -2 -12    0.40    0.08
  16   2 -12    0.42    0.09
  16   2 -12    0.37    0.08
 -16  -2  11    2.29    0.14
 -16   2  11    2.38    0.15
  16  -2 -11    2.28    0.14
  16  -2 -11    2.32    0.14
  16   2 -11    2.34    0.15
  16   2 -11    2.44    0.14
 -16  -2  10    5.31    0.19
 -16   2  10    5.48    0.19
 -16  -2  10    5.27    0.20
  16  -2 -10    5.15    0.20
  16  -2 -10    5.30    0.19
  16   2 -10    5.34    0.19
 -16  -2   9   22.15    0.39
 -16   2   9   22.44    0.39
 -16  -2   9   22.54    0.41
  16  -2  -9   21.70    0.40
  16  -2  -9   22.34    0.39
  16  -2  -9   21.64    0.37
  16   2  -9   21.42    0.36
 -16  -2   8    9.90    0.26
 -16   2   8   10.10    0.26
 -16  -2   8    9.67    0.27
  16  -2  -8    9.68    0.27
  16  -2  -8    9.85    0.26
  16  -2  -8   10.04    0.26
  16   2  -8    9.78    0.25
 -16  -2   7   11.98    0.30
 -16   2   7   12.02    0.31
  16   2  -7   11.46    0.30
 -16   2   7   12.31    0.32
  16  -2  -7   12.22    0.32
  16  -2  -7   12.37    0.31
  16   2  -7   12.47    0.31
 -16  -2   6   28.68    0.48
 -16   2   6   27.86    0.48
  16   2  -6   27.57    0.48
  16  -2  -6   26.51    0.47
  16  -2  -6   28.55    0.47
 -16   2   6   29.40    0.46
 -16  -2   5    6.99    0.22
 -16   2   5    6.88    0.23
  16   2  -5    6.77    0.23
 -16  -2   5    6.86    0.24
 -16   2   5    6.89    0.23
  16   2  -5    7.28    0.25
  16  -2  -5    6.99    0.23
  16  -2  -5    7.01    0.22
 -16   2   5    7.09    0.21
 -16  -2   4    0.32    0.07
 -16   2   4    0.38    0.08
  16   2  -4    0.34    0.07
 -16  -2   4    0.33    0.08
 -16   2   4    0.34    0.07
  16   2  -4    0.35    0.07
  16  -2  -4    0.32    0.06
  16  -2  -4    0.31    0.06
 -16  -2   3    0.17    0.05
 -16   2   3    0.19    0.07
  16   2  -3    0.20    0.07
  16  -2  -3    0.16    0.07
 -16  -2   3    0.21    0.07
 -16   2   3    0.18    0.06
  16   2  -3    0.15    0.06
  16  -2  -3    0.17    0.05
  16  -2  -3    0.18    0.06
 -16  -2   3    0.19    0.08
 -16  -2   2   11.28    0.28
 -16   2   2   10.76    0.30
  16   2  -2   11.31    0.30
  16  -2  -2   11.68    0.30
 -16  -2   2   11.25    0.31
 -16   2   2   11.48    0.31
  16   2  -2   10.94    0.28
  16  -2  -2   11.48    0.26
  16  -2  -2   11.31    0.26
 -16   2   2   11.64    0.26
  16   2  -2   11.49    0.28
 -16  -2   2   11.50    0.29
 -16  -2   1    4.61    0.18
  16   2  -1    4.41    0.19
  16  -2  -1    4.74    0.20
 -16  -2   1    4.58    0.20
 -16   2   1    4.40    0.19
  16  -2  -1    4.61    0.17
  16  -2  -1    4.56    0.17
 -16   2   1    4.50    0.17
  16   2  -1    4.52    0.19
 -16  -2   1    4.77    0.19
 -16  -2   0    0.37    0.07
  16   2   0    0.41    0.08
 -16  -2   0    0.39    0.08
 -16   2   0    0.46    0.08
  16  -2   0    0.62    0.08
  16  -2   0    0.38    0.07
 -16   2   0    0.40    0.07
  16   2   0    0.46    0.09
 -16  -2   0    0.43    0.08
 -16  -2  -1    0.06    0.06
 -16  -2  -1    0.06    0.06
 -16   2  -1    0.12    0.06
  16  -2   1    0.01    0.05
  16   2   1    0.09    0.06
  16  -2   1    0.04    0.04
  16   2   1    0.05    0.06
 -16   2  -1    0.06    0.05
 -16  -2  -2   67.53    0.83
 -16  -2  -2   66.34    0.89
 -16  -2  -2   67.08    0.89
 -16   2  -2   67.44    0.86
  16  -2   2   69.72    0.82
  16  -2   2   69.88    0.83
  16   2   2   68.41    0.89
 -16   2  -2   66.08    0.82
 -16  -2  -3    4.13    0.17
 -16  -2  -3    4.24    0.19
 -16   2  -3    3.57    0.18
 -16  -2  -3    4.12    0.19
 -16   2  -3    4.28    0.18
  16  -2   3    4.25    0.16
  16  -2   3    3.98    0.17
  16   2   3    4.29    0.17
  16  -2   3    4.31    0.16
  16   2   3    4.21    0.19
 -16  -2  -4    7.61    0.24
 -16  -2  -4    7.45    0.26
 -16   2  -4    7.67    0.27
 -16  -2  -4    7.82    0.27
 -16   2  -4    7.13    0.24
  16   2   4    7.77    0.24
  16  -2   4    7.46    0.23
  16  -2   4    7.62    0.22
  16   2   4    7.77    0.25
 -16  -2  -5   12.97    0.29
 -16  -2  -5   13.37    0.33
 -16   2  -5   13.54    0.34
 -16  -2  -5   13.65    0.34
 -16   2  -5   13.30    0.31
  16   2   5   13.02    0.29
  16  -2   5   13.28    0.27
  16   2   5   13.22    0.32
 -16  -2  -6    1.04    0.09
 -16  -2  -6    1.20    0.12
 -16  -2  -6    1.02    0.12
 -16   2  -6    1.02    0.11
  16  -2   6    0.88    0.08
  16   2   6    1.14    0.12
 -16  -2  -7   20.71    0.47
 -16   2  -7   20.94    0.44
  16   2   7   21.31    0.47
 -16  -2  -8   28.47    0.53
 -16   2  -8   28.59    0.55
  16   2   8   28.64    0.55
 -16   2  -9    0.06    0.07
  16   2   9    0.06    0.08
  16  -2  10    3.06    0.17
 -16  -2 -10    2.49    0.16
 -16   2 -10    2.84    0.15
  16  -2  11    3.76    0.19
 -16  -2 -11    3.90    0.19
 -16   2 -11    3.98    0.18
 -16  -2 -11    3.67    0.18
  16  -2  12    0.07    0.09
 -16  -2 -12    0.00    0.09
 -16   2 -12    0.04    0.09
  16  -2  13    8.26    0.27
 -16  -2 -13    8.12    0.25
 -16   2 -13    8.12    0.24
  16  -2  14    9.39    0.28
 -16  -2 -14    9.67    0.27
 -16   2 -14    9.19    0.26
  16  -2  15    7.83    0.26
 -16  -2 -15    7.67    0.25
 -16   2 -15    7.64    0.24
 -16   4  17    7.62    0.23
  16   4 -17    7.16    0.24
  16  -4 -17    7.36    0.24
  16   4 -17    7.55    0.23
 -16  -4  16    0.37    0.11
 -16   4  16    0.43    0.10
  16   4 -16    0.33    0.11
  16  -4 -16    0.40    0.11
  16   4 -16    0.43    0.09
 -16  -4  15    0.37    0.09
 -16   4  15    0.20    0.09
  16   4 -15    0.31    0.10
  16   4 -15    0.33    0.09
 -16  -4  14    0.36    0.09
 -16   4  14    0.33    0.09
  16   4 -14    0.38    0.10
  16   4 -14    0.30    0.08
 -16  -4  13    0.40    0.09
 -16   4  13    0.52    0.10
  16   4 -13    0.52    0.10
  16  -4 -13    0.36    0.09
  16   4 -13    0.49    0.09
 -16  -4  12    0.44    0.09
 -16   4  12    0.50    0.09
  16   4 -12    0.42    0.10
  16  -4 -12    0.44    0.09
  16   4 -12    0.53    0.09
 -16  -4  11    1.72    0.13
 -16   4  11    1.52    0.12
 -16  -4  11    1.51    0.13
  16  -4 -11    1.67    0.12
  16   4 -11    1.56    0.12
 -16  -4  10    6.52    0.21
 -16   4  10    6.54    0.21
 -16  -4  10    6.51    0.22
  16  -4 -10    6.62    0.21
  16   4 -10    6.71    0.21
 -16  -4   9    0.17    0.07
 -16   4   9    0.22    0.08
 -16  -4   9    0.13    0.09
  16  -4  -9    0.20    0.07
  16   4  -9    0.19    0.08
 -16  -4   8   12.49    0.32
 -16   4   8   11.65    0.31
 -16  -4   8   12.58    0.34
  16  -4  -8   12.12    0.31
 -16  -4   7    1.12    0.10
 -16   4   7    1.10    0.11
 -16  -4   7    1.13    0.12
  16  -4  -7    1.10    0.10
 -16  -4   6   18.09    0.40
  16   4  -6   18.13    0.40
 -16   4   6   18.09    0.41
  16  -4  -6   18.29    0.40
  16   4  -6   17.89    0.40
 -16  -4   5    5.80    0.20
  16   4  -5    5.82    0.20
 -16   4   5    5.85    0.21
  16  -4  -5    5.81    0.20
  16   4  -5    5.84    0.20
 -16  -4   4    2.98    0.15
  16   4  -4    2.88    0.15
 -16   4   4    3.00    0.16
 -16  -4   4    3.19    0.17
  16  -4  -4    2.74    0.14
  16  -4  -4    3.01    0.15
 -16   4   4    2.94    0.13
  16   4  -4    3.02    0.16
 -16  -4   3    0.06    0.06
 -16   4   3    0.06    0.07
  16   4  -3    0.08    0.06
 -16  -4   3    0.01    0.07
 -16   4   3    0.07    0.05
  16  -4  -3    0.08    0.05
  16  -4  -3    0.10    0.06
 -16   4   3    0.08    0.05
  16   4  -3    0.02    0.08
 -16  -4   2    5.27    0.19
 -16   4   2    5.22    0.21
  16   4  -2    5.33    0.21
 -16  -4   2    5.30    0.22
 -16   4   2    5.32    0.21
  16  -4  -2    4.90    0.19
  16  -4  -2    5.38    0.19
 -16   4   2    5.55    0.17
  16   4  -2    5.45    0.21
 -16  -4   1   14.81    0.31
 -16   4   1   14.36    0.35
  16   4  -1   14.56    0.34
 -16   4   1   14.58    0.33
  16  -4  -1   14.53    0.30
  16  -4  -1   13.90    0.30
 -16   4   1   15.86    0.30
 -16  -4   0    6.38    0.20
 -16   4   0    6.23    0.24
 -16   4   0    6.00    0.21
  16  -4   0    6.23    0.20
  16  -4   0    6.04    0.21
 -16  -4  -1    9.63    0.26
 -16  -4  -1   10.15    0.25
 -16   4  -1   10.39    0.30
 -16   4  -1   10.25    0.27
  16  -4   1   10.00    0.25
  16  -4   1   10.49    0.26
  16   4   1    9.31    0.27
 -16  -4  -2   32.75    0.45
 -16  -4  -2   33.72    0.46
 -16   4  -2   34.80    0.55
 -16   4  -2   33.17    0.48
  16  -4   2   32.84    0.45
  16  -4   2   31.92    0.47
  16   4   2   32.36    0.49
 -16  -4  -3   87.54    1.30
 -16   4  -3   85.91    1.30
 -16  -4  -3   81.40    1.25
 -16   4  -3   85.43    1.22
  16  -4   3   83.22    1.18
  16   4   3   85.54    1.24
 -16  -4  -5    1.75    0.11
 -16  -4  -5    1.80    0.13
 -16   4  -5    1.80    0.15
 -16  -4  -5    1.89    0.15
 -16   4  -5    1.86    0.13
  16   4   5    1.90    0.14
 -16  -4  -6    2.55    0.15
 -16   4  -6    2.50    0.17
 -16  -4  -6    2.74    0.17
 -16   4  -6    2.65    0.15
  16   4   6    2.62    0.16
 -16  -4  -7   39.72    0.58
 -16  -4  -7   39.81    0.59
 -16   4  -7   40.09    0.52
  16   4   7   40.04    0.56
 -16  -4  -8   13.59    0.34
 -16  -4  -8   13.63    0.34
 -16   4  -8   13.43    0.30
  16   4   8   14.06    0.33
 -16  -4  -9    4.95    0.22
 -16   4  -9    5.07    0.19
  16   4   9    5.27    0.21
 -16  -4 -10    1.04    0.14
 -16   4 -10    1.08    0.12
 -16  -4 -10    1.18    0.13
 -16  -4 -11    0.57    0.12
 -16   4 -11    0.54    0.11
 -16  -4 -11    0.58    0.11
 -16  -4 -12    5.21    0.22
 -16   4 -12    4.90    0.19
 -16  -4 -12    4.87    0.21
  16  -4  13    1.01    0.14
 -16  -4 -13    1.17    0.14
 -16   4 -13    1.15    0.12
 -16  -4 -13    1.16    0.13
  16  -4  14    1.66    0.16
 -16  -4 -14    1.61    0.15
 -16   4 -14    1.62    0.13
 -16  -6  15    0.51    0.11
 -16   6  15    0.64    0.10
  16  -6 -15    0.50    0.11
  16   6 -15    0.53    0.10
 -16  -6  14   -0.01    0.08
 -16   6  14   -0.01    0.08
  16  -6 -14   -0.06    0.09
  16   6 -14    0.01    0.08
 -16  -6  13    1.62    0.13
 -16   6  13    1.65    0.12
  16   6 -13    1.64    0.15
  16  -6 -13    1.59    0.13
  16   6 -13    1.73    0.12
 -16  -6  12    0.06    0.08
 -16   6  12   -0.02    0.07
  16   6 -12    0.03    0.10
  16  -6 -12    0.02    0.09
  16   6 -12    0.01    0.09
 -16  -6  11    0.72    0.09
 -16   6  11    0.75    0.10
  16   6 -11    0.72    0.11
  16  -6 -11    0.79    0.10
  16   6 -11    0.84    0.10
 -16   6  10    5.86    0.20
 -16  -6  10    6.15    0.22
  16  -6 -10    6.17    0.21
 -16   6   9    2.44    0.15
 -16  -6   9    2.40    0.15
  16  -6  -9    2.34    0.14
 -16   6   8    0.16    0.08
  16  -6  -8    0.11    0.08
  16   6  -8    0.13    0.08
 -16   6   7    0.07    0.09
  16  -6  -7    0.08    0.09
  16   6  -7    0.11    0.09
 -16  -6   6    0.18    0.07
 -16   6   6    0.19    0.09
  16  -6  -6    0.18    0.09
  16   6  -6    0.34    0.11
 -16  -6   5   26.96    0.44
 -16   6   5   27.52    0.46
  16  -6  -5   28.93    0.46
  16   6  -5   27.16    0.47
 -16  -6   4   13.82    0.30
 -16   6   4   13.98    0.33
  16  -6  -4   14.21    0.31
  16   6  -4   14.18    0.32
 -16  -6   3   10.02    0.26
 -16   6   3    9.88    0.29
  16  -6  -3   10.39    0.26
  16   6  -3   10.76    0.28
 -16  -6   2    0.65    0.08
 -16   6   2    0.66    0.11
 -16  -6   2    0.64    0.10
  16  -6  -2    0.68    0.09
  16   6  -2    0.63    0.10
 -16   6   1    7.22    0.25
 -16  -6   1    7.21    0.25
  16  -6  -1    7.42    0.23
  16   6  -1    7.33    0.24
 -16   6   0    2.18    0.16
 -16  -6   0    2.10    0.15
  16  -6   0    2.01    0.13
  16   6   0    1.98    0.14
 -16   6  -1    0.04    0.09
 -16  -6  -1    0.06    0.09
  16   6   1    0.07    0.09
 -16   6  -2    0.03    0.09
 -16  -6  -2    0.03    0.08
 -16   6  -3    8.57    0.28
 -16  -6  -3    8.81    0.28
 -16   6  -4    0.07    0.09
 -16  -6  -4   -0.02    0.08
 -16   6  -4    0.02    0.06
 -16   6  -5   10.89    0.31
 -16  -6  -5   10.43    0.30
 -16   6  -5   10.61    0.26
  16   6   5   10.67    0.29
 -16   6  -6    0.81    0.13
 -16  -6  -6    0.85    0.13
 -16   6  -6    0.95    0.11
  16   6   6    0.89    0.13
 -16   6  -7   37.87    0.56
 -16  -6  -7   37.57    0.58
 -16   6  -7   37.30    0.50
  16   6   7   37.82    0.54
 -16   6  -8    0.10    0.12
 -16  -6  -8    0.25    0.12
 -16   6  -8    0.14    0.09
  16   6   8    0.22    0.12
 -16  -6  -9    8.31    0.28
 -16   6  -9    7.60    0.22
  16   6   9    8.04    0.26
 -16  -6 -10    2.09    0.16
 -16   6 -10    2.06    0.13
  16   6  10    2.06    0.15
 -16  -6 -11    0.03    0.09
 -16   6 -11    0.02    0.09
  16   6  11   -0.01    0.10
 -16  -6 -12    1.41    0.14
 -16   6 -12    1.39    0.13
  16   8 -11    0.75    0.13
  16  -8 -11    0.83    0.11
  16   8 -11    0.76    0.11
  16   8 -10    5.50    0.22
  16  -8 -10    5.26    0.20
 -16  -8   9    1.15    0.12
  16  -8  -9    1.06    0.12
  16   8  -9    1.08    0.12
 -16   8   8    1.35    0.12
 -16  -8   8    1.29    0.14
  16  -8  -8    1.29    0.12
  16   8  -8    1.33    0.12
 -16   8   7    3.08    0.16
 -16  -8   7    3.29    0.18
  16  -8  -7    3.14    0.16
  16   8  -7    3.23    0.16
 -16   8   6    0.46    0.10
 -16  -8   6    0.54    0.11
  16  -8  -6    0.49    0.10
  16   8  -6    0.62    0.11
 -16   8   5    1.58    0.13
 -16  -8   5    1.47    0.14
  16  -8  -5    1.42    0.12
  16   8  -5    1.53    0.14
 -16   8   4    1.54    0.13
 -16  -8   4    1.64    0.14
  16  -8  -4    1.66    0.12
  16   8  -4    1.68    0.14
 -16   8   3    3.26    0.18
  16  -8  -3    3.57    0.17
  16   8  -3    3.61    0.18
 -16   8   2    0.10    0.09
  16   8  -2    0.13    0.10
 -16   8   1    7.32    0.26
  16   8  -1    7.46    0.25
 -16   8   0    0.83    0.12
  16   8   0    0.76    0.12
 -16   8  -1    0.06    0.10
 -16  -8  -1    0.07    0.09
  16   8   1    0.03    0.09
 -16   8  -2    0.52    0.11
 -16  -8  -2    0.58    0.11
  16   8   2    0.42    0.11
 -16   8  -3    0.44    0.11
 -16  -8  -3    0.41    0.10
  16   8   3    0.42    0.11
 -16   8  -4    1.20    0.13
 -16  -8  -4    1.29    0.13
  16   8   4    1.31    0.14
 -16   8  -5    0.77    0.13
 -16  -8  -5    0.88    0.12
  16   8   5    0.74    0.13
 -16   8  -6    1.87    0.17
 -16  -8  -6    1.98    0.15
 -16   8  -7    3.23    0.20
 -16  -8  -7    3.31    0.19
 -16   8  -8   20.85    0.43
 -16  -8  -8   20.81    0.42
  16   8   8   21.14    0.41
 -17  -1  19   16.24    0.34
 -17   1  19   15.68    0.33
  17  -1 -19   15.78    0.32
  17   1 -19   16.87    0.34
 -17  -1  18    0.54    0.12
 -17   1  18    0.62    0.11
  17   1 -18    0.64    0.11
  17  -1 -18    0.62    0.11
  17   1 -18    0.55    0.10
 -17   1  17   13.12    0.30
  17   1 -17   12.81    0.30
  17  -1 -17   13.03    0.30
  17   1 -17   13.37    0.29
 -17   1  16    0.76    0.10
  17   1 -16    0.75    0.10
  17  -1 -16    0.89    0.11
  17   1 -16    0.73    0.10
 -17   1  15    6.48    0.21
  17  -1 -15    6.71    0.22
  17   1 -15    6.30    0.21
  17  -1 -15    6.40    0.22
  17   1 -15    6.75    0.22
 -17   1  14    0.22    0.09
  17  -1 -14    0.20    0.08
  17   1 -14    0.22    0.09
  17  -1 -14    0.26    0.10
  17   1 -14    0.18    0.08
 -17   1  13    0.24    0.09
  17  -1 -13    0.27    0.08
  17   1 -13    0.22    0.08
  17  -1 -13    0.50    0.10
  17   1 -13    0.25    0.09
 -17  -1  12    0.45    0.10
 -17   1  12    0.44    0.09
  17  -1 -12    0.40    0.08
  17   1 -12    0.38    0.09
  17  -1 -12    0.41    0.09
  17   1 -12    0.46    0.09
 -17  -1  11    5.66    0.21
 -17   1  11    5.54    0.20
  17  -1 -11    5.45    0.20
  17  -1 -11    5.41    0.20
  17   1 -11    5.77    0.21
  17  -1 -11    4.97    0.19
  17   1 -11    5.48    0.19
 -17  -1  10    1.33    0.11
 -17   1  10    1.30    0.11
 -17  -1  10    1.22    0.11
  17  -1 -10    1.20    0.11
  17  -1 -10    1.29    0.11
  17   1 -10    1.34    0.11
 -17  -1   9    0.88    0.09
 -17   1   9    0.99    0.11
 -17   1   9    0.92    0.10
 -17  -1   9    0.98    0.10
  17  -1  -9    0.87    0.10
  17   1  -9    0.87    0.09
 -17  -1   8    8.56    0.25
 -17   1   8    8.28    0.25
 -17   1   8    8.82    0.27
 -17  -1   8    7.85    0.25
  17  -1  -8    8.70    0.28
  17  -1  -8    8.19    0.24
  17   1  -8    8.42    0.24
 -17  -1   7    1.63    0.11
 -17   1   7    1.47    0.11
  17   1  -7    1.49    0.12
  17  -1  -7    1.73    0.12
  17  -1  -7    1.57    0.11
 -17  -1   6   41.87    0.60
  17   1  -6   41.64    0.62
  17   1  -6   42.08    0.65
  17  -1  -6   42.00    0.63
  17  -1  -6   40.53    0.58
 -17  -1   5    1.35    0.10
  17   1  -5    1.36    0.11
 -17  -1   5    1.40    0.12
 -17   1   5    1.36    0.11
  17   1  -5    1.41    0.11
  17  -1  -5    1.33    0.11
  17  -1  -5    1.55    0.11
 -17   1   5    1.36    0.10
 -17  -1   4    6.87    0.22
  17   1  -4    6.84    0.23
  17  -1  -4    6.50    0.23
 -17  -1   4    6.87    0.24
 -17   1   4    6.78    0.23
  17   1  -4    6.85    0.23
  17  -1  -4    7.14    0.22
  17  -1  -4    6.87    0.20
 -17   1   4    6.49    0.20
 -17  -1   4    6.64    0.21
 -17  -1   3    5.94    0.21
  17   1  -3    6.12    0.22
  17  -1  -3    5.90    0.22
 -17  -1   3    5.70    0.22
 -17   1   3    5.93    0.22
  17   1  -3    5.57    0.20
  17  -1  -3    5.72    0.20
  17  -1  -3    5.92    0.19
 -17   1   3    6.15    0.20
 -17  -1   3    5.80    0.20
 -17  -1   2    8.78    0.26
 -17   1   2    8.21    0.26
  17   1  -2    8.22    0.25
  17  -1  -2    8.54    0.26
 -17  -1   2    8.44    0.26
 -17   1   2    8.95    0.27
  17   1  -2    8.18    0.24
  17  -1  -2    9.25    0.25
  17  -1  -2    8.11    0.22
  17   1  -2    8.55    0.24
 -17   1   2    8.73    0.24
 -17  -1   2    8.45    0.24
 -17  -1   1    1.76    0.13
 -17   1   1    1.73    0.13
  17   1  -1    1.58    0.12
  17  -1  -1    1.72    0.13
 -17  -1   1    1.77    0.13
 -17   1   1    1.73    0.13
  17   1  -1    1.77    0.12
  17  -1  -1    1.65    0.11
  17  -1  -1    1.79    0.11
  17   1  -1    1.62    0.11
 -17   1   1    1.78    0.12
 -17  -1   1    1.67    0.12
 -17  -1   0    0.31    0.08
 -17   1   0    0.32    0.08
  17   1   0    0.37    0.07
 -17  -1   0    0.33    0.08
 -17   1   0    0.38    0.08
  17   1   0    0.33    0.07
  17  -1   0    0.29    0.06
  17  -1   0    0.36    0.06
  17   1   0    0.35    0.07
 -17   1   0    0.33    0.07
 -17  -1   0    0.35    0.07
 -17   1  -1    7.15    0.23
 -17  -1  -1    7.76    0.25
 -17   1  -1    7.04    0.25
 -17  -1  -1    7.20    0.24
 -17   1  -1    7.49    0.24
  17   1   1    7.28    0.22
  17  -1   1    7.13    0.21
  17  -1   1    7.73    0.22
  17   1   1    7.44    0.23
 -17   1  -1    7.35    0.23
 -17   1  -2    1.70    0.12
 -17  -1  -2    1.73    0.12
 -17  -1  -2    1.70    0.13
 -17   1  -2    1.61    0.13
 -17  -1  -2    1.66    0.13
 -17   1  -2    1.72    0.13
  17  -1   2    1.68    0.10
  17   1   2    1.69    0.12
  17   1   2    1.73    0.13
 -17   1  -2    1.57    0.11
 -17  -1  -3    6.74    0.22
 -17  -1  -3    7.09    0.25
 -17   1  -3    6.70    0.25
 -17  -1  -3    6.63    0.24
 -17   1  -3    6.66    0.23
  17  -1   3    6.95    0.21
  17  -1   3    6.66    0.22
  17   1   3    6.90    0.23
 -17  -1  -4    0.31    0.07
 -17  -1  -4    0.26    0.09
 -17   1  -4    0.25    0.09
 -17  -1  -4    0.33    0.09
 -17   1  -4    0.33    0.08
  17  -1   4    0.25    0.07
  17   1   4    0.27    0.08
  17  -1   4    0.33    0.07
  17   1   4    0.25    0.07
 -17  -1  -5   14.34    0.30
 -17  -1  -5   13.83    0.34
 -17   1  -5   15.24    0.36
 -17  -1  -5   14.15    0.33
 -17   1  -5   13.83    0.32
  17   1   5   14.24    0.30
  17  -1   5   14.02    0.30
  17  -1   5   13.99    0.30
  17   1   5   14.18    0.33
 -17  -1  -6   11.45    0.30
 -17  -1  -6   11.62    0.34
 -17   1  -6   11.65    0.34
 -17  -1  -6   11.83    0.34
 -17   1  -6   12.01    0.33
  17   1   6   11.28    0.29
  17  -1   6   11.87    0.31
  17  -1   6   11.55    0.31
  17   1   6   11.73    0.32
 -17  -1  -7   38.35    0.71
 -17  -1  -7   39.22    0.70
 -17   1  -7   39.70    0.70
  17   1   7   39.10    0.65
  17  -1   7   38.34    0.64
  17  -1   7   40.91    0.71
  17   1   7   39.67    0.70
 -17  -1  -8    0.84    0.11
 -17   1  -8    0.78    0.11
  17   1   8    0.64    0.08
  17  -1   8    0.69    0.08
  17  -1   8    0.69    0.09
  17   1   8    0.66    0.10
 -17  -1  -9    0.66    0.10
 -17   1  -9    0.95    0.11
  17   1   9    0.67    0.08
  17  -1   9    0.72    0.09
  17   1   9    0.81    0.10
 -17  -1 -10    6.76    0.23
 -17   1 -10    6.96    0.23
  17   1  10    6.89    0.23
  17  -1  11    1.76    0.14
 -17   1 -11    1.65    0.14
  17   1  11    1.69    0.13
  17   1  12    0.01    0.08
  17  -1  12    0.03    0.08
 -17   1 -12    0.05    0.09
  17   1  12    0.05    0.07
  17   1  13    0.26    0.10
  17  -1  13    0.19    0.11
 -17   1 -13    0.22    0.10
  17  -1  14    0.01    0.12
 -17  -1 -14    0.04    0.11
 -17   1 -14    0.07    0.11
  17  -1  15   10.05    0.29
 -17  -1 -15   10.13    0.28
 -17   1 -15    9.93    0.27
 -17  -3  18    6.56    0.23
 -17   3  18    6.86    0.23
  17   3 -18    6.97    0.23
  17  -3 -18    7.03    0.23
  17   3 -18    7.32    0.23
 -17  -3  17   18.96    0.36
 -17   3  17   18.97    0.36
  17   3 -17   18.53    0.36
  17  -3 -17   18.87    0.36
  17   3 -17   19.20    0.35
 -17  -3  16   -0.02    0.08
 -17   3  16    0.14    0.09
  17   3 -16    0.13    0.09
  17  -3 -16    0.01    0.09
  17   3 -16    0.12    0.09
 -17  -3  15    2.61    0.15
 -17   3  15    2.46    0.15
  17   3 -15    2.52    0.16
  17  -3 -15    2.51    0.15
  17   3 -15    2.51    0.14
 -17  -3  14    2.22    0.14
 -17   3  14    1.99    0.14
  17   3 -14    2.14    0.14
  17   3 -14    2.25    0.14
 -17  -3  13    1.72    0.13
 -17   3  13    1.83    0.13
  17   3 -13    1.82    0.13
  17   3 -13    1.88    0.13
 -17  -3  12    3.64    0.17
 -17   3  12    3.99    0.17
  17  -3 -12    3.52    0.16
  17   3 -12    4.05    0.18
  17  -3 -12    3.45    0.17
  17   3 -12    3.83    0.16
 -17  -3  11    0.89    0.11
 -17   3  11    0.84    0.10
 -17  -3  11    0.93    0.11
  17  -3 -11    0.92    0.10
  17   3 -11    0.76    0.10
 -17  -3  10    5.15    0.19
 -17   3  10    5.17    0.20
 -17  -3  10    5.38    0.21
  17  -3 -10    5.24    0.19
  17  -3 -10    5.14    0.19
  17   3 -10    5.15    0.18
 -17  -3   9    1.41    0.11
 -17   3   9    1.46    0.12
 -17  -3   9    1.34    0.12
  17  -3  -9    1.33    0.11
  17  -3  -9    1.39    0.10
  17  -3  -9    1.32    0.12
  17   3  -9    1.52    0.11
 -17  -3   8    4.66    0.18
 -17   3   8    4.52    0.18
 -17  -3   8    4.42    0.19
  17  -3  -8    4.17    0.17
  17  -3  -8    4.47    0.18
  17  -3  -8    4.40    0.18
  17   3  -8    4.71    0.18
 -17  -3   7   34.52    0.49
 -17   3   7   35.75    0.50
  17  -3  -7   33.68    0.50
  17  -3  -7   34.96    0.50
  17  -3  -7   35.15    0.48
 -17  -3   6    9.99    0.26
 -17   3   6   10.40    0.28
  17   3  -6   10.06    0.26
 -17   3   6   10.05    0.27
  17  -3  -6   10.18    0.26
  17  -3  -6   10.41    0.26
 -17  -3   5    6.45    0.22
 -17   3   5    6.13    0.23
  17   3  -5    6.66    0.23
 -17  -3   5    6.26    0.24
  17  -3  -5    6.40    0.21
  17  -3  -5    6.20    0.22
 -17   3   5    6.48    0.20
  17   3  -5    6.34    0.22
 -17  -3   4   10.24    0.28
 -17   3   4    9.32    0.29
  17   3  -4    9.80    0.29
 -17  -3   4    9.93    0.30
 -17   3   4    9.85    0.29
  17  -3  -4    9.90    0.26
  17  -3  -4   10.21    0.28
 -17   3   4   10.30    0.26
  17   3  -4    8.45    0.26
 -17  -3   3    1.56    0.11
 -17   3   3    1.49    0.13
  17   3  -3    1.61    0.12
 -17  -3   3    1.47    0.13
 -17   3   3    1.56    0.12
  17  -3  -3    1.60    0.11
  17  -3  -3    1.60    0.12
 -17  -3   2    8.76    0.25
 -17   3   2    8.82    0.28
  17   3  -2    8.64    0.27
 -17  -3   2    8.76    0.29
 -17   3   2    8.94    0.28
  17  -3  -2    8.81    0.24
  17  -3  -2    8.88    0.26
 -17  -3   1   12.35    0.31
 -17   3   1   11.80    0.34
  17   3  -1   12.09    0.34
 -17  -3   1   11.75    0.33
 -17   3   1   11.87    0.33
  17  -3  -1   12.15    0.29
  17  -3  -1   12.49    0.31
 -17   3   1   11.97    0.29
  17   3  -1   12.16    0.32
 -17  -3   0    4.54    0.18
 -17   3   0    4.87    0.22
 -17  -3   0    4.71    0.21
 -17   3   0    4.73    0.20
  17  -3   0    4.71    0.18
  17  -3   0    4.68    0.18
 -17   3   0    4.69    0.18
  17   3   0    4.97    0.21
 -17  -3  -1    7.65    0.25
 -17  -3  -1    7.45    0.24
 -17   3  -1    8.05    0.28
 -17  -3  -1    7.86    0.27
 -17   3  -1    8.03    0.26
  17  -3   1    7.83    0.23
  17  -3   1    7.52    0.23
 -17   3  -1    8.23    0.25
  17   3   1    7.70    0.25
 -17  -3  -2    0.48    0.07
 -17  -3  -2    0.48    0.08
 -17  -3  -2    0.52    0.10
 -17   3  -2    0.47    0.08
  17  -3   2    0.37    0.07
  17  -3   2    0.41    0.07
  17   3   2    0.41    0.09
 -17   3  -2    0.44    0.07
 -17  -3  -3    0.27    0.06
 -17  -3  -3    0.27    0.07
 -17  -3  -3    0.31    0.11
 -17   3  -3    0.27    0.08
  17  -3   3    0.30    0.07
  17  -3   3    0.24    0.06
  17   3   3    0.22    0.09
 -17  -3  -4    8.58    0.23
 -17  -3  -4    8.71    0.28
 -17   3  -4    9.14    0.27
  17   3   4    8.33    0.26
 -17  -3  -5   30.69    0.56
 -17  -3  -5   29.74    0.59
 -17   3  -5   33.22    0.60
  17   3   5   32.01    0.61
 -17  -3  -6    1.14    0.09
 -17  -3  -6    1.09    0.11
 -17   3  -6    1.25    0.11
  17   3   6    1.11    0.11
 -17  -3  -7   25.20    0.45
 -17  -3  -7   26.17    0.46
 -17   3  -7   27.89    0.43
  17   3   7   27.99    0.46
 -17  -3  -8    3.14    0.17
 -17  -3  -8    3.21    0.18
 -17   3  -8    3.17    0.16
  17   3   8    3.24    0.17
 -17  -3  -9   25.54    0.45
 -17  -3  -9   27.37    0.47
 -17   3  -9   27.26    0.43
  17   3   9   26.77    0.45
 -17  -3 -10    3.27    0.17
 -17  -3 -10    3.23    0.18
 -17   3 -10    3.20    0.16
  17   3  10    3.22    0.17
 -17  -3 -11    1.01    0.14
 -17   3 -11    1.21    0.13
  17   3  11    1.22    0.13
 -17  -3 -12    5.29    0.22
 -17   3 -12    5.39    0.21
 -17  -3 -13    0.08    0.09
 -17   3 -13    0.12    0.10
  17  -3  14    2.68    0.18
 -17  -3 -14    2.82    0.17
 -17   3 -14    2.87    0.16
  17  -3  15    2.04    0.16
 -17  -3 -15    1.96    0.16
 -17   3 -15    2.21    0.15
 -17   5  16    0.77    0.11
  17   5 -16    0.73    0.12
  17  -5 -16    0.60    0.12
  17   5 -16    0.63    0.10
 -17   5  15    1.15    0.12
  17   5 -15    1.12    0.14
  17  -5 -15    1.05    0.12
  17   5 -15    1.17    0.11
 -17  -5  14    0.47    0.10
 -17   5  14    0.50    0.09
  17   5 -14    0.42    0.10
  17  -5 -14    0.49    0.10
  17   5 -14    0.56    0.09
 -17  -5  13    0.02    0.07
 -17   5  13    0.00    0.08
  17   5 -13    0.05    0.08
  17  -5 -13    0.02    0.08
  17   5 -13    0.10    0.08
 -17  -5  12    1.11    0.11
 -17   5  12    1.12    0.12
  17  -5 -12    1.00    0.12
  17   5 -12    1.01    0.11
 -17  -5  11    1.32    0.12
 -17   5  11    1.18    0.11
 -17  -5  11    1.18    0.12
  17  -5 -11    1.18    0.12
  17   5 -11    1.13    0.11
 -17  -5  10    2.10    0.13
 -17   5  10    2.25    0.14
 -17  -5  10    2.01    0.14
  17  -5 -10    2.15    0.14
  17   5 -10    2.30    0.14
 -17  -5   9    0.80    0.09
 -17   5   9    0.80    0.10
 -17  -5   9    0.88    0.12
  17  -5  -9    0.85    0.10
 -17  -5   8    5.21    0.20
 -17   5   8    5.15    0.20
 -17  -5   8    5.30    0.21
  17  -5  -8    5.42    0.20
 -17  -5   7   16.69    0.34
 -17   5   7   16.68    0.35
 -17  -5   7   16.55    0.36
  17  -5  -7   16.63    0.34
  17   5  -7   16.12    0.33
 -17  -5   6   10.20    0.26
 -17   5   6    9.64    0.27
  17  -5  -6    9.93    0.26
  17   5  -6    9.86    0.26
 -17  -5   5    0.02    0.06
 -17   5   5    0.05    0.08
  17  -5  -5    0.01    0.06
  17   5  -5    0.08    0.08
 -17  -5   4    0.04    0.06
 -17   5   4    0.06    0.08
  17  -5  -4    0.07    0.07
  17   5  -4    0.05    0.08
 -17  -5   3    0.66    0.08
 -17   5   3    0.70    0.10
  17  -5  -3    0.64    0.09
  17   5  -3    0.68    0.11
 -17  -5   2    0.85    0.09
 -17   5   2    0.86    0.11
  17  -5  -2    0.79    0.09
  17  -5  -2    0.74    0.09
  17   5  -2    0.80    0.12
 -17  -5   1    0.07    0.05
 -17   5   1    0.08    0.10
  17  -5  -1    0.09    0.05
  17  -5  -1    0.10    0.06
  17   5  -1    0.09    0.08
 -17  -5   0    1.64    0.11
 -17  -5   0    1.64    0.13
 -17   5   0    1.47    0.14
 -17  -5   0    1.39    0.14
 -17   5   0    1.50    0.12
  17  -5   0    1.59    0.11
  17  -5   0    1.57    0.11
 -17   5  -1    0.15    0.10
 -17  -5  -1    0.09    0.09
 -17   5  -1    0.15    0.06
  17  -5   1    0.12    0.06
  17  -5   1    0.09    0.05
 -17   5  -2    3.59    0.19
 -17  -5  -2    3.61    0.19
 -17   5  -2    3.45    0.16
  17  -5   2    3.42    0.15
  17   5   2    3.32    0.17
 -17   5  -3    0.42    0.10
 -17  -5  -3    0.44    0.09
 -17   5  -3    0.44    0.08
  17  -5   3    0.42    0.07
  17   5   3    0.40    0.10
 -17   5  -4    6.96    0.25
 -17  -5  -4    7.12    0.25
 -17   5  -4    7.32    0.22
  17   5   4    7.24    0.24
 -17   5  -5    0.11    0.10
 -17  -5  -5    0.04    0.09
 -17   5  -5    0.06    0.07
  17   5   5   -0.04    0.08
 -17   5  -6    7.99    0.27
 -17  -5  -6    8.35    0.29
 -17   5  -6    7.75    0.22
  17   5   6    7.98    0.25
 -17   5  -7   14.86    0.36
 -17  -5  -7   15.62    0.37
 -17   5  -7   15.34    0.31
  17   5   7   14.55    0.34
 -17   5  -8   43.45    0.61
 -17  -5  -8   40.42    0.59
 -17   5  -8   41.00    0.52
  17   5   8   41.39    0.58
 -17  -5  -9    3.52    0.19
 -17   5  -9    3.33    0.16
  17   5   9    3.66    0.18
 -17  -5 -10    0.37    0.12
 -17   5 -10    0.36    0.09
  17   5  10    0.29    0.10
 -17  -5 -11    1.58    0.14
 -17   5 -11    1.57    0.13
  17   5  11    1.68    0.14
 -17  -5 -12    1.35    0.14
 -17   5 -12    1.44    0.12
  17   5  12    1.34    0.13
 -17  -5 -13    0.58    0.12
 -17   5 -13    0.68    0.11
  17   5  13    0.66    0.11
 -17  -7  13    0.77    0.11
  17   7 -13    0.86    0.14
  17  -7 -13    1.01    0.12
  17   7 -13    0.75    0.11
 -17  -7  12    0.40    0.09
 -17   7  12    0.46    0.10
  17   7 -12    0.38    0.12
  17  -7 -12    0.41    0.10
  17   7 -12    0.41    0.10
 -17  -7  11    1.32    0.12
 -17   7  11    1.19    0.12
  17   7 -11    1.25    0.14
  17  -7 -11    1.31    0.13
  17   7 -11    1.22    0.12
 -17  -7  10    3.54    0.16
 -17   7  10    3.63    0.17
  17  -7 -10    3.51    0.17
 -17  -7   9    0.81    0.10
 -17   7   9    0.84    0.11
  17  -7  -9    0.82    0.10
 -17   7   8    0.33    0.09
 -17  -7   8    0.22    0.10
  17  -7  -8    0.28    0.09
  17   7  -8    0.32    0.10
 -17   7   7    0.41    0.10
 -17  -7   7    0.40    0.10
  17  -7  -7    0.40    0.09
  17   7  -7    0.41    0.11
 -17   7   6    0.13    0.08
 -17  -7   6    0.22    0.10
  17  -7  -6    0.19    0.08
  17   7  -6    0.23    0.10
 -17   7   5    0.22    0.10
 -17  -7   5    0.24    0.09
  17  -7  -5    0.22    0.08
  17   7  -5    0.19    0.11
 -17   7   4    0.02    0.09
  17  -7  -4    0.02    0.07
  17   7  -4   -0.03    0.09
 -17   7   3    3.36    0.18
  17  -7  -3    3.40    0.16
  17   7  -3    3.48    0.18
 -17   7   2    1.67    0.14
  17  -7  -2    1.51    0.12
  17   7  -2    1.63    0.13
 -17   7   1    2.36    0.17
 -17  -7   1    2.38    0.17
  17  -7  -1    2.26    0.14
  17   7  -1    2.41    0.16
 -17   7   0    4.97    0.22
 -17  -7   0    5.29    0.22
  17   7   0    5.19    0.21
 -17   7  -1    0.00    0.09
 -17  -7  -1   -0.02    0.09
  17   7   1    0.08    0.09
 -17   7  -2    2.72    0.17
 -17  -7  -2    2.84    0.18
  17   7   2    2.79    0.16
 -17   7  -3    0.71    0.12
 -17  -7  -3    0.71    0.11
 -17   7  -4    0.45    0.12
 -17  -7  -4    0.45    0.11
 -17   7  -5    1.07    0.14
 -17  -7  -5    1.09    0.13
  17   7   5    0.90    0.11
 -17   7  -6    2.32    0.17
 -17  -7  -6    2.34    0.16
  17   7   6    2.24    0.15
 -17   7  -7    2.16    0.17
 -17  -7  -7    2.43    0.16
  17   7   7    2.32    0.17
 -17   7  -8    9.87    0.30
 -17  -7  -8    9.66    0.29
  17   7   8    9.97    0.29
 -17   7  -9    0.23    0.10
 -17  -7  -9    0.26    0.11
  17   7   9    0.14    0.10
 -17   7 -10    0.08    0.12
 -17  -7 -10    0.11    0.11
  17   7  10    0.03    0.10
 -17  -9   7    0.84    0.12
  17  -9  -7    0.89    0.11
  17   9  -7    0.90    0.12
 -17  -9   6    0.74    0.13
  17   9  -6    0.73    0.11
 -17  -9   5    0.39    0.11
  17   9  -5    0.28    0.11
 -17  -9   4    0.54    0.12
  17   9  -4    0.61    0.12
 -17   9   3    0.32    0.10
 -17  -9   3    0.41    0.11
  17   9  -3    0.31    0.11
 -17   9   2    0.80    0.12
  17   9  -2    0.69    0.13
 -17   9   1    2.14    0.16
  17   9  -1    2.32    0.16
 -17   9   0    6.15    0.23
  17   9   0    6.58    0.24
 -17   9  -1   -0.03    0.11
  17   9   1   -0.02    0.11
 -17   9  -2    0.44    0.12
 -17  -9  -2    0.41    0.11
  17   9   2    0.50    0.11
 -17   9  -3    1.01    0.14
 -17  -9  -3    0.85    0.13
  17   9   3    0.97    0.13
  18   0 -19   -0.04    0.10
 -18   0  18    9.16    0.26
  18   0 -18    9.38    0.26
 -18   0  17   -0.09    0.09
  18   0 -17   -0.03    0.07
  18   0 -17    0.04    0.08
 -18   0  16    0.04    0.09
  18   0 -16    0.08    0.07
  18   0 -16   -0.01    0.08
 -18   0  15    0.02    0.09
  18   0 -15   -0.02    0.06
  18   0 -15    0.01    0.08
 -18   0  14    7.64    0.24
  18   0 -14    7.48    0.23
  18   0 -14    7.47    0.23
  18   0 -13   -0.01    0.07
  18   0 -13    0.07    0.08
  18   0 -12   48.97    0.60
  18   0 -12   48.37    0.62
  18   0 -11    0.00    0.07
  18   0 -11    0.01    0.08
 -18   0  10   31.88    0.59
  18   0 -10   29.82    0.55
 -18   0   9   -0.05    0.06
  18   0  -9    0.01    0.07
 -18   0   8   10.37    0.26
 -18   0   8   11.11    0.29
  18   0  -8   10.98    0.29
 -18   0   7   -0.03    0.07
  18   0  -7    0.02    0.05
  18   0  -7    0.04    0.06
 -18   0   6    0.03    0.06
  18   0  -6    0.04    0.06
  18   0  -6    0.05    0.06
 -18   0   5    0.00    0.06
 -18   0   5    0.00    0.06
  18   0  -5    0.00    0.05
  18   0  -5   -0.02    0.05
 -18   0   4   64.97    0.83
  18   0  -4   63.84    0.83
 -18   0   4   64.87    0.86
  18   0  -4   63.27    0.82
  18   0  -4   63.21    0.80
 -18   0   4   64.12    0.80
 -18   0   3    0.04    0.06
  18   0  -3    0.04    0.05
 -18   0   3    0.02    0.06
  18   0  -3    0.01    0.05
  18   0  -3    0.04    0.05
 -18   0   3   -0.02    0.05
 -18   0   2    4.76    0.20
  18   0  -2    4.54    0.19
 -18   0   2    4.66    0.20
  18   0  -2    4.82    0.18
  18   0  -2    4.67    0.18
 -18   0   2    4.65    0.18
 -18   0   1    0.03    0.05
  18   0  -1    0.03    0.06
 -18   0   1    0.02    0.05
  18   0  -1    0.00    0.05
 -18   0   1   -0.01    0.05
 -18   0   0    1.42    0.12
 -18   0   0    1.46    0.12
  18   0   0    1.37    0.10
 -18   0   0    1.44    0.11
 -18   0  -1   -0.04    0.05
 -18   0  -1    0.00    0.05
  18   0   1   -0.03    0.04
  18   0   1    0.00    0.05
 -18   0  -1    0.02    0.05
 -18   0  -2   18.74    0.39
 -18   0  -2   19.31    0.42
 -18   0  -2   17.98    0.40
  18   0   2   18.19    0.37
  18   0   2   18.57    0.37
 -18   0  -3    0.05    0.06
 -18   0  -3   -0.01    0.06
 -18   0  -3    0.06    0.08
  18   0   3    0.06    0.06
 -18   0  -4    0.03    0.06
 -18   0  -4    0.04    0.06
 -18   0  -4    0.07    0.07
  18   0   4    0.05    0.05
  18   0   4    0.05    0.06
 -18   0  -5    0.07    0.07
 -18   0  -5    0.03    0.08
  18   0   5    0.00    0.05
  18   0   5    0.01    0.05
 -18   0  -6    0.43    0.09
 -18   0  -6    0.36    0.09
  18   0   6    0.34    0.07
  18   0   6    0.38    0.08
 -18   0  -7    0.13    0.09
 -18   0  -7    0.14    0.09
  18   0   7    0.03    0.05
  18   0   7    0.09    0.07
 -18   0  -8   10.07    0.28
  18   0   8    9.69    0.24
  18   0   8    9.33    0.26
 -18   0  -9   -0.02    0.08
  18   0   9    0.03    0.06
 -18   0 -10   24.56    0.42
  18   0  10   23.12    0.40
 -18   0 -11    0.03    0.09
 -18   0 -12    0.01    0.09
 -18   0 -13   -0.03    0.09
  18   0  14   20.00    0.40
 -18   0 -14   19.59    0.38
 -18  -2  18    1.61    0.14
 -18   2  18    1.80    0.14
  18   2 -18    1.67    0.13
  18  -2 -18    1.77    0.14
  18   2 -18    1.65    0.14
 -18  -2  17    0.43    0.11
 -18   2  17    0.37    0.10
  18   2 -17    0.39    0.10
  18  -2 -17    0.42    0.11
  18   2 -17    0.39    0.09
 -18  -2  16    0.61    0.10
 -18   2  16    0.66    0.11
  18   2 -16    0.67    0.10
  18  -2 -16    0.57    0.10
  18   2 -16    0.57    0.10
 -18  -2  15    1.03    0.11
 -18   2  15    1.03    0.11
  18   2 -15    1.09    0.11
  18  -2 -15    1.05    0.11
  18   2 -15    1.07    0.11
 -18  -2  14    2.16    0.14
 -18   2  14    2.48    0.15
  18  -2 -14    2.13    0.13
  18   2 -14    2.29    0.14
  18  -2 -14    2.23    0.14
  18   2 -14    2.25    0.14
 -18  -2  13    1.14    0.11
 -18   2  13    1.09    0.11
  18  -2 -13    1.02    0.10
  18   2 -13    1.20    0.12
  18   2 -13    1.12    0.11
 -18  -2  12   22.26    0.39
 -18   2  12   22.46    0.39
  18  -2 -12   22.14    0.39
  18   2 -12   22.32    0.40
  18   2 -12   22.31    0.38
 -18  -2  11    8.10    0.24
 -18   2  11    8.18    0.24
 -18  -2  11    7.91    0.24
  18  -2 -11    8.14    0.24
  18   2 -11    7.89    0.22
 -18  -2  10   21.57    0.45
 -18   2  10   21.95    0.45
 -18  -2  10   21.53    0.47
  18  -2 -10   22.95    0.49
  18  -2 -10   22.86    0.47
  18  -2 -10   20.78    0.44
  18   2 -10   20.93    0.43
 -18  -2   9    0.24    0.08
 -18   2   9    0.21    0.08
 -18  -2   9    0.25    0.09
  18  -2  -9    0.24    0.06
  18  -2  -9    0.27    0.07
  18  -2  -9    0.25    0.08
  18   2  -9    0.33    0.08
 -18  -2   8    0.04    0.06
 -18   2   8   -0.02    0.07
 -18   2   8   -0.02    0.05
 -18  -2   8    0.03    0.07
  18  -2  -8    0.00    0.05
  18  -2  -8    0.14    0.07
  18   2  -8    0.00    0.07
 -18  -2   7    0.08    0.06
 -18   2   7    0.10    0.07
 -18   2   7    0.07    0.05
  18  -2  -7    0.09    0.05
  18  -2  -7    0.14    0.07
  18   2  -7    0.08    0.07
 -18  -2   6    0.13    0.06
 -18   2   6    0.09    0.07
  18   2  -6    0.05    0.06
  18  -2  -6    0.09    0.05
  18  -2  -6    0.07    0.06
 -18  -2   5   13.30    0.32
 -18   2   5   12.64    0.33
  18   2  -5   13.26    0.34
 -18  -2   5   12.94    0.34
 -18   2   5   13.31    0.34
  18  -2  -5   13.11    0.32
  18  -2  -5   12.90    0.31
 -18  -2   4    0.31    0.07
 -18   2   4    0.28    0.08
  18   2  -4    0.27    0.07
 -18  -2   4    0.25    0.08
 -18   2   4    0.74    0.09
  18  -2  -4    0.27    0.06
  18  -2  -4    0.28    0.06
 -18   2   4    0.29    0.06
 -18  -2   3   31.84    0.51
  18   2  -3   31.27    0.53
 -18  -2   3   31.11    0.55
 -18   2   3   31.28    0.55
  18  -2  -3   30.87    0.48
  18  -2  -3   31.21    0.49
  18   2  -3   29.90    0.49
 -18   2   3   31.04    0.48
 -18  -2   2   75.38    0.88
  18   2  -2   75.22    0.93
 -18  -2   2   76.44    0.96
 -18   2   2   76.93    0.99
  18  -2  -2   75.22    0.86
  18  -2  -2   75.50    0.86
  18   2  -2   72.73    0.91
 -18   2   2   76.98    0.90
 -18  -2   1    8.99    0.26
  18   2  -1    9.55    0.28
 -18  -2   1    8.88    0.29
 -18   2   1    9.26    0.28
  18  -2  -1    8.87    0.24
  18  -2  -1    9.52    0.25
  18   2  -1    9.10    0.26
 -18   2   1    9.33    0.25
 -18  -2   0    0.39    0.08
 -18  -2   0    0.40    0.09
 -18   2   0    0.52    0.09
  18  -2   0    0.42    0.07
  18  -2   0    0.43    0.07
  18   2   0    0.40    0.08
 -18   2   0    0.44    0.08
 -18  -2  -1    1.76    0.12
 -18  -2  -1    1.79    0.13
 -18  -2  -1    1.84    0.14
 -18   2  -1    1.70    0.12
  18  -2   1    1.75    0.11
  18   2   1    1.65    0.12
  18  -2   1    1.73    0.11
  18   2   1    1.73    0.13
 -18   2  -1    1.75    0.12
 -18  -2  -2    0.02    0.05
 -18  -2  -2    0.05    0.06
 -18   2  -2    0.07    0.07
 -18  -2  -2    0.08    0.07
 -18   2  -2    0.04    0.07
  18  -2   2    0.03    0.05
  18  -2   2    0.07    0.05
  18   2   2    0.08    0.07
 -18   2  -2    0.05    0.05
 -18  -2  -3    0.32    0.07
 -18  -2  -3    0.33    0.08
 -18   2  -3    0.31    0.09
 -18  -2  -3    0.45    0.11
 -18   2  -3    0.38    0.08
  18  -2   3    0.31    0.07
  18  -2   3    0.37    0.07
  18   2   3    0.35    0.08
 -18  -2  -4   11.89    0.27
 -18  -2  -4   12.30    0.32
 -18   2  -4   12.25    0.32
 -18  -2  -4   11.88    0.31
 -18   2  -4   11.84    0.29
  18  -2   4   11.39    0.27
  18  -2   4   12.40    0.27
  18   2   4   12.05    0.30
 -18  -2  -6    1.19    0.10
 -18  -2  -6    1.33    0.12
 -18   2  -6    1.19    0.12
 -18  -2  -6    1.50    0.13
 -18   2  -6    1.22    0.11
  18  -2   6    1.14    0.10
  18  -2   6    1.30    0.11
  18   2   6    1.30    0.12
 -18  -2  -7    1.12    0.11
 -18   2  -7    1.24    0.12
 -18  -2  -7    1.11    0.12
 -18   2  -7    1.22    0.12
  18   2   7    1.21    0.12
 -18  -2  -8    0.22    0.06
 -18  -2  -8    0.21    0.07
 -18   2  -8    0.20    0.08
  18   2   8    0.19    0.08
 -18  -2  -9    6.79    0.24
 -18   2  -9    6.49    0.22
  18   2   9    6.52    0.22
 -18   2 -10    0.18    0.09
  18   2  10    0.09    0.07
 -18   2 -11    0.28    0.11
  18   2  11    0.32    0.09
 -18  -2 -12    3.17    0.18
 -18   2 -12    3.18    0.17
  18   2  12    3.15    0.17
 -18  -2 -13    0.15    0.11
 -18   2 -13    0.02    0.10
  18   2  13    0.04    0.08
 -18  -2 -14   10.89    0.30
 -18   2 -14   11.54    0.29
 -18  -2 -15    1.55    0.15
 -18   2 -15    1.56    0.13
 -18  -4  17    0.22    0.09
 -18   4  17    0.32    0.11
  18   4 -17    0.32    0.11
  18   4 -17    0.34    0.10
 -18  -4  16    2.23    0.15
 -18   4  16    2.45    0.15
  18   4 -16    2.42    0.15
  18   4 -16    2.52    0.15
 -18  -4  15    0.23    0.09
 -18   4  15    0.18    0.09
  18   4 -15    0.21    0.10
  18   4 -15    0.20    0.09
 -18  -4  14    1.49    0.13
 -18   4  14    1.54    0.12
  18   4 -14    1.60    0.14
  18  -4 -14    1.61    0.13
  18   4 -14    1.40    0.12
 -18  -4  13    0.22    0.09
 -18   4  13    0.16    0.08
  18   4 -13    0.18    0.09
  18  -4 -13    0.23    0.09
  18   4 -13    0.14    0.08
 -18  -4  12    2.77    0.15
 -18   4  12    2.79    0.15
  18   4 -12    2.88    0.16
  18  -4 -12    2.63    0.15
  18   4 -12    2.69    0.15
 -18  -4  11   21.48    0.38
 -18   4  11   21.77    0.37
 -18  -4  11   21.94    0.40
  18  -4 -11   22.12    0.38
  18   4 -11   21.70    0.37
 -18  -4  10    5.79    0.20
 -18   4  10    5.77    0.20
 -18  -4  10    5.73    0.21
  18  -4 -10    5.95    0.20
  18   4 -10    5.81    0.20
 -18  -4   9    1.65    0.13
 -18   4   9    1.52    0.13
 -18  -4   9    1.43    0.12
  18  -4  -9    1.53    0.12
  18   4  -9    1.46    0.12
 -18  -4   8    4.41    0.18
 -18   4   8    4.22    0.18
 -18  -4   8    4.32    0.19
  18  -4  -8    4.34    0.18
 -18  -4   7    3.84    0.17
 -18   4   7    4.01    0.18
  18  -4  -7    4.06    0.17
 -18  -4   6    1.26    0.10
 -18   4   6    1.26    0.11
  18  -4  -6    1.26    0.11
  18   4  -6    1.25    0.12
 -18  -4   5    4.70    0.18
 -18   4   5    4.93    0.21
  18  -4  -5    4.64    0.18
  18   4  -5    4.71    0.18
 -18  -4   4   31.34    0.57
 -18   4   4   33.31    0.63
 -18  -4   4   31.88    0.62
  18  -4  -4   30.71    0.79
  18  -4  -4   32.03    0.59
 -18   4   4   31.16    0.54
  18   4  -4   32.66    0.59
 -18  -4   3   14.59    0.35
 -18   4   3   14.58    0.38
 -18  -4   3   14.70    0.38
 -18   4   3   14.09    0.36
  18  -4  -3   14.22    0.34
 -18   4   3   14.91    0.33
  18   4  -3   13.18    0.34
 -18  -4   2   47.19    0.77
 -18   4   2   46.29    0.81
 -18  -4   2   46.18    0.80
 -18   4   2   47.85    0.81
  18  -4  -2   47.03    0.77
 -18  -4   1   13.32    0.34
 -18   4   1   14.67    0.39
 -18  -4   1   15.01    0.39
 -18   4   1   14.66    0.37
  18  -4  -1   14.89    0.35
 -18  -4   0    1.85    0.12
 -18   4   0    1.83    0.15
 -18  -4   0    1.74    0.15
 -18   4   0    1.90    0.13
  18  -4   0    1.74    0.11
  18  -4   0    1.82    0.12
  18   4   0    1.80    0.14
 -18  -4  -1    0.59    0.08
 -18  -4  -1    0.56    0.08
 -18   4  -1    0.59    0.12
 -18   4  -1    0.60    0.09
  18  -4   1    0.53    0.08
  18  -4   1    0.58    0.08
  18   4   1    0.55    0.10
 -18  -4  -2    5.70    0.20
 -18  -4  -2    5.97    0.20
 -18   4  -2    5.89    0.24
 -18   4  -2    5.77    0.21
  18  -4   2    5.90    0.19
  18  -4   2    5.90    0.21
  18   4   2    5.65    0.21
 -18  -4  -3    2.37    0.13
 -18  -4  -3    2.32    0.13
 -18   4  -3    2.47    0.17
 -18   4  -3    2.43    0.14
  18   4   3    2.30    0.15
 -18  -4  -4    8.78    0.27
 -18   4  -4    9.26    0.29
 -18   4  -4    9.53    0.26
  18   4   4    9.17    0.26
 -18  -4  -5    4.36    0.18
 -18   4  -5    4.05    0.19
 -18  -4  -5    4.32    0.20
 -18   4  -5    4.35    0.18
  18   4   5    4.46    0.20
 -18  -4  -6    0.88    0.09
 -18  -4  -6    0.81    0.11
 -18   4  -6    0.90    0.10
  18   4   6    0.84    0.11
 -18  -4  -7   10.19    0.30
 -18   4  -7   10.21    0.26
  18   4   7   10.23    0.28
 -18  -4  -8    8.15    0.27
 -18   4  -8    8.12    0.24
  18   4   8    7.63    0.25
 -18  -4  -9    0.37    0.11
 -18   4  -9    0.35    0.10
  18   4   9    0.28    0.11
 -18  -4 -10   13.94    0.34
 -18   4 -10   13.62    0.30
  18   4  10   13.33    0.32
 -18  -4 -11    0.40    0.11
 -18   4 -11    0.45    0.10
  18   4  11    0.39    0.11
 -18  -4 -12    4.26    0.21
 -18   4 -12    4.09    0.18
  18   4  12    3.87    0.19
 -18  -4 -13    4.26    0.21
 -18   4 -13    4.58    0.19
  18   4  13    4.49    0.19
 -18  -6  15    1.41    0.13
 -18   6  15    1.46    0.13
  18  -6 -15    1.45    0.14
  18   6 -15    1.50    0.13
 -18  -6  14    2.18    0.15
 -18   6  14    2.15    0.14
  18  -6 -14    2.30    0.15
  18   6 -14    2.20    0.14
 -18   6  13    4.28    0.18
  18  -6 -13    4.39    0.19
  18   6 -13    4.24    0.18
 -18   6  12    0.40    0.10
  18  -6 -12    0.43    0.10
  18   6 -12    0.48    0.10
 -18   6  11   12.94    0.30
 -18  -6  11   12.90    0.31
  18  -6 -11   12.99    0.30
  18   6 -11   13.19    0.30
 -18   6  10    0.04    0.09
 -18  -6  10    0.07    0.09
  18  -6 -10    0.06    0.09
 -18   6   9    4.47    0.18
 -18  -6   9    4.67    0.21
  18  -6  -9    4.38    0.19
 -18   6   8    7.71    0.23
 -18  -6   8    7.85    0.25
  18  -6  -8    8.08    0.24
  18   6  -8    7.99    0.24
 -18   6   7    8.04    0.24
  18  -6  -7    8.57    0.25
  18   6  -7    8.34    0.24
 -18   6   6    5.16    0.21
  18  -6  -6    4.98    0.20
  18   6  -6    4.83    0.20
 -18   6   5   30.80    0.48
  18  -6  -5   29.24    0.45
  18   6  -5   29.42    0.46
 -18   6   4   11.64    0.31
  18  -6  -4   12.47    0.30
  18   6  -4   12.07    0.30
 -18   6   3    2.27    0.16
 -18  -6   3    2.29    0.16
  18  -6  -3    2.30    0.14
  18   6  -3    2.19    0.15
 -18   6   2    0.08    0.09
 -18  -6   2    0.08    0.09
  18  -6  -2    0.13    0.07
  18   6  -2    0.04    0.10
 -18   6   1    0.02    0.10
 -18  -6   1    0.05    0.10
  18  -6  -1    0.03    0.06
  18   6  -1    0.12    0.10
 -18   6   0    0.51    0.11
 -18  -6   0    0.58    0.10
  18  -6   0    0.58    0.08
  18   6   0    0.44    0.10
 -18   6  -1    1.10    0.13
 -18  -6  -1    0.95    0.12
 -18   6  -2    0.11    0.09
 -18  -6  -2    0.22    0.09
 -18   6  -3    3.15    0.18
 -18  -6  -3    2.97    0.17
  18   6   3    3.27    0.17
 -18   6  -4    0.37    0.11
 -18  -6  -4    0.30    0.10
  18   6   4    0.39    0.10
 -18   6  -5    0.21    0.10
 -18  -6  -5    0.17    0.09
  18   6   5    0.17    0.10
 -18   6  -6    9.17    0.29
 -18  -6  -6    9.45    0.29
 -18   6  -6    9.01    0.24
  18   6   6    9.47    0.27
 -18   6  -7    1.25    0.14
 -18  -6  -7    1.16    0.14
 -18   6  -7    1.08    0.11
  18   6   7    1.15    0.13
 -18   6  -8    0.75    0.14
 -18  -6  -8    0.92    0.13
 -18   6  -8    0.85    0.10
  18   6   8    0.85    0.12
 -18   6  -9    0.55    0.13
 -18  -6  -9    0.73    0.12
 -18   6  -9    0.74    0.10
  18   6   9    0.62    0.13
 -18   6 -10    0.84    0.13
 -18  -6 -10    0.86    0.13
 -18   6 -10    0.75    0.10
  18   6  10    0.80    0.13
 -18  -6 -11    0.49    0.12
 -18   6 -11    0.43    0.10
  18   6  11    0.50    0.11
 -18  -8  10    0.01    0.10
  18  -8 -10    0.01    0.08
 -18   8   9    2.04    0.14
 -18  -8   9    1.81    0.15
  18  -8  -9    2.15    0.15
 -18   8   8    2.65    0.16
 -18  -8   8    2.45    0.16
  18  -8  -8    2.79    0.16
  18   8  -8    2.69    0.15
 -18   8   7   -0.03    0.08
 -18  -8   7   -0.07    0.09
  18  -8  -7    0.12    0.08
  18   8  -7    0.02    0.09
 -18   8   6    2.02    0.14
 -18  -8   6    2.06    0.15
  18  -8  -6    2.09    0.14
  18   8  -6    1.93    0.14
 -18   8   5    0.50    0.10
 -18  -8   5    0.49    0.11
  18  -8  -5    0.51    0.09
  18   8  -5    0.37    0.11
 -18   8   4    6.86    0.24
  18  -8  -4    6.82    0.22
  18   8  -4    6.60    0.22
 -18   8   3    0.28    0.10
  18   8  -3    0.26    0.11
 -18   8   2    1.83    0.15
  18   8  -2    1.77    0.15
 -18   8   1    1.24    0.14
  18   8  -1    1.10    0.14
 -18   8   0    0.04    0.09
 -18  -8   0    0.05    0.09
  18   8   0    0.10    0.11
 -18   8  -1    3.97    0.20
 -18  -8  -1    3.86    0.19
  18   8   1    3.83    0.19
 -18   8  -2    0.17    0.11
 -18  -8  -2    0.15    0.11
  18   8   2    0.21    0.11
 -18   8  -3    0.87    0.13
 -18  -8  -3    0.93    0.12
  18   8   3    0.97    0.13
 -18   8  -4    0.29    0.11
 -18  -8  -4    0.30    0.11
 -18   8  -5    1.42    0.15
 -18  -8  -5    1.44    0.15
 -18   8  -6    0.84    0.14
 -18  -8  -6    0.94    0.14
  18   8   6    0.83    0.13
 -18   8  -7    0.61    0.14
 -18  -8  -7    0.75    0.13
  18   8   7    0.72    0.12
 -19   1  18    0.07    0.09
  19   1 -18    0.11    0.08
  19  -1 -18    0.07    0.10
  19   1 -18    0.14    0.09
 -19   1  17    0.25    0.10
  19   1 -17    0.20    0.09
  19  -1 -17    0.19    0.09
  19   1 -17    0.23    0.10
 -19   1  16    0.03    0.08
  19  -1 -16    0.01    0.07
  19   1 -16    0.05    0.08
  19  -1 -16   -0.04    0.09
  19   1 -16    0.02    0.09
 -19  -1  15    0.53    0.10
 -19   1  15    0.70    0.10
  19  -1 -15    0.61    0.09
  19   1 -15    0.63    0.10
  19  -1 -15    0.60    0.11
  19   1 -15    0.86    0.11
 -19  -1  14    0.12    0.08
 -19   1  14    0.06    0.09
  19  -1 -14    0.12    0.07
  19   1 -14    0.11    0.07
  19  -1 -14    0.09    0.08
  19   1 -14    0.11    0.08
 -19  -1  13    0.36    0.09
 -19   1  13    0.31    0.09
  19  -1 -13    0.43    0.08
  19   1 -13    0.40    0.09
  19  -1 -13    0.40    0.10
  19   1 -13    0.40    0.09
 -19  -1  12    1.39    0.12
 -19   1  12    1.50    0.12
  19  -1 -12    1.31    0.11
  19   1 -12    1.38    0.12
  19   1 -12    1.25    0.11
 -19  -1  11   29.56    0.44
 -19   1  11   30.49    0.44
 -19  -1  11   29.50    0.46
  19  -1 -11   29.04    0.46
  19  -1 -11   29.60    0.46
  19   1 -11   29.77    0.44
 -19  -1  10   18.22    0.40
 -19   1  10   17.37    0.39
 -19  -1  10   17.93    0.41
  19  -1 -10   17.71    0.42
  19  -1 -10   18.41    0.41
  19   1 -10   18.20    0.40
 -19  -1   9    3.99    0.17
 -19   1   9    3.97    0.18
 -19  -1   9    4.00    0.18
  19  -1  -9    4.18    0.19
  19  -1  -9    4.23    0.18
  19   1  -9    3.88    0.16
 -19  -1   8    0.04    0.07
 -19   1   8   -0.01    0.06
 -19  -1   8    0.04    0.07
  19  -1  -8    0.02    0.06
  19  -1  -8    0.00    0.06
 -19  -1   7   14.29    0.30
  19  -1  -7   13.89    0.32
  19  -1  -7   14.58    0.30
 -19  -1   6    0.07    0.07
 -19  -1   6    0.02    0.06
  19  -1  -6    0.03    0.06
  19  -1  -6    0.02    0.06
  19   1  -6    0.03    0.06
 -19  -1   5   96.84    1.25
 -19  -1   5   98.75    1.31
 -19   1   5   98.52    1.31
  19  -1  -5  100.20    1.29
  19  -1  -5   95.43    1.25
  19   1  -5  101.16    1.32
 -19  -1   4    0.87    0.09
 -19   1   4    0.92    0.10
  19   1  -4    0.91    0.10
 -19  -1   4    0.87    0.10
 -19   1   4    0.91    0.10
  19  -1  -4    0.85    0.09
  19  -1  -4    0.86    0.09
 -19   1   4    0.88    0.09
 -19  -1   3   23.16    0.43
 -19   1   3   24.02    0.46
  19   1  -3   23.78    0.46
 -19  -1   3   23.79    0.47
 -19   1   3   23.26    0.46
  19  -1  -3   22.93    0.42
  19  -1  -3   24.20    0.42
 -19   1   3   23.79    0.42
 -19  -1   2    5.15    0.20
 -19   1   2    5.26    0.21
  19   1  -2    5.18    0.21
 -19  -1   2    5.38    0.22
 -19   1   2    5.36    0.22
  19  -1  -2    5.43    0.19
  19  -1  -2    5.25    0.18
  19   1  -2    4.81    0.18
 -19   1   2    5.43    0.20
 -19  -1   2    5.26    0.19
 -19  -1   1    3.02    0.16
 -19   1   1    2.97    0.16
  19   1  -1    3.03    0.16
 -19  -1   1    2.88    0.17
 -19   1   1    2.83    0.16
  19  -1  -1    3.24    0.15
  19  -1  -1    2.90    0.13
  19   1  -1    3.21    0.15
 -19   1   1    2.98    0.15
 -19  -1   1    3.10    0.16
 -19  -1   0    0.44    0.08
 -19   1   0    0.48    0.08
 -19  -1   0    0.50    0.09
 -19   1   0    0.43    0.09
  19  -1   0    0.45    0.07
  19  -1   0    0.47    0.07
  19   1   0    0.43    0.08
 -19   1   0    0.46    0.08
 -19  -1   0    0.44    0.08
 -19  -1  -1    6.76    0.24
 -19   1  -1    7.03    0.26
 -19  -1  -1    6.80    0.25
 -19   1  -1    7.10    0.25
  19  -1   1    6.95    0.21
  19   1   1    6.99    0.23
  19  -1   1    7.37    0.23
  19   1   1    7.20    0.23
 -19   1  -1    6.95    0.23
 -19  -1  -2    0.35    0.07
 -19  -1  -2    0.36    0.08
 -19   1  -2    0.39    0.10
 -19  -1  -2    0.34    0.09
 -19   1  -2    0.36    0.09
  19   1   2    0.36    0.07
  19  -1   2    0.38    0.07
  19   1   2    0.42    0.08
 -19  -1  -3    9.56    0.25
 -19  -1  -3    9.34    0.28
 -19   1  -3    9.85    0.29
 -19  -1  -3    9.74    0.28
 -19   1  -3    9.55    0.27
  19  -1   3    9.14    0.25
  19   1   3    9.55    0.26
 -19  -1  -4    3.60    0.16
 -19  -1  -4    3.61    0.18
 -19   1  -4    3.73    0.19
 -19  -1  -4    3.64    0.19
 -19   1  -4    3.77    0.18
  19   1   4    3.71    0.16
  19  -1   4    3.60    0.16
  19   1   4    3.72    0.18
 -19  -1  -5    5.23    0.18
 -19  -1  -5    5.38    0.22
 -19   1  -5    5.48    0.23
 -19  -1  -5    5.66    0.22
 -19   1  -5    5.37    0.21
  19   1   5    5.24    0.18
  19  -1   5    5.40    0.19
  19  -1   5    5.42    0.19
  19   1   5    5.75    0.21
 -19  -1  -6    0.32    0.09
 -19   1  -6    0.32    0.10
 -19  -1  -6    0.35    0.10
 -19   1  -6    0.35    0.10
  19   1   6    0.28    0.07
  19  -1   6    0.28    0.06
  19  -1   6    0.35    0.07
  19   1   6    0.33    0.08
 -19  -1  -7    0.72    0.10
 -19   1  -7    0.67    0.10
 -19  -1  -7    0.80    0.11
 -19   1  -7    0.56    0.10
  19   1   7    0.64    0.07
  19  -1   7    0.65    0.08
  19   1   7    0.69    0.09
 -19  -1  -8    0.09    0.07
 -19   1  -8    0.14    0.08
 -19  -1  -8    0.04    0.09
 -19   1  -8    0.04    0.08
  19  -1   8    0.08    0.05
  19   1   8    0.10    0.07
 -19  -1  -9    3.98    0.19
 -19  -1  -9    4.00    0.19
 -19   1  -9    4.11    0.19
  19   1   9    3.84    0.17
 -19  -1 -10    0.04    0.10
 -19   1 -10    0.00    0.08
  19   1  10    0.00    0.07
 -19  -1 -11    1.06    0.12
 -19   1 -11    1.31    0.13
  19   1  11    1.17    0.11
 -19   1 -12    0.91    0.12
 -19   1 -13    3.25    0.18
 -19   1 -14    0.12    0.10
 -19  -3  17    0.27    0.10
 -19   3  17    0.23    0.09
  19   3 -17    0.26    0.10
  19  -3 -17    0.31    0.11
  19   3 -17    0.29    0.10
 -19  -3  16    0.86    0.11
 -19   3  16    0.87    0.12
  19   3 -16    0.76    0.11
  19  -3 -16    0.79    0.12
  19   3 -16    0.91    0.11
 -19  -3  15    2.17    0.14
 -19   3  15    2.17    0.15
  19   3 -15    2.17    0.15
  19   3 -15    2.08    0.14
 -19  -3  14    0.09    0.09
 -19   3  14    0.14    0.08
  19   3 -14    0.13    0.09
  19   3 -14    0.09    0.09
 -19  -3  13    0.03    0.08
 -19   3  13    0.06    0.07
  19   3 -13    0.00    0.08
  19  -3 -13   -0.01    0.08
  19   3 -13    0.07    0.08
 -19  -3  12    1.86    0.13
 -19   3  12    1.73    0.13
  19  -3 -12    1.86    0.13
  19   3 -12    1.69    0.12
 -19  -3  11   -0.05    0.06
 -19   3  11   -0.03    0.08
 -19  -3  11    0.02    0.08
  19  -3 -11    0.00    0.05
  19  -3 -11    0.03    0.08
  19   3 -11    0.05    0.07
 -19  -3  10   17.25    0.34
 -19   3  10   17.80    0.35
 -19  -3  10   18.47    0.37
  19  -3 -10   16.71    0.34
  19  -3 -10   17.66    0.34
  19   3 -10   16.48    0.35
 -19  -3   9    0.36    0.09
 -19   3   9    0.38    0.09
 -19  -3   9    0.35    0.09
  19  -3  -9    0.36    0.07
  19  -3  -9    0.37    0.09
  19   3  -9    0.33    0.08
 -19  -3   8    0.14    0.07
 -19   3   8    0.19    0.07
 -19  -3   8    0.12    0.08
  19  -3  -8    0.09    0.05
  19  -3  -8    0.10    0.05
  19  -3  -8    0.16    0.08
  19   3  -8    0.09    0.08
 -19  -3   7    0.78    0.10
 -19   3   7    0.79    0.10
  19  -3  -7    0.79    0.08
  19  -3  -7    0.83    0.09
 -19  -3   6    6.14    0.20
 -19   3   6    6.09    0.22
 -19   3   6    6.21    0.21
  19  -3  -6    6.10    0.20
  19  -3  -6    6.24    0.21
 -19  -3   5    6.42    0.21
 -19   3   5    6.33    0.22
  19   3  -5    6.08    0.21
 -19   3   5    6.16    0.22
 -19  -3   5    6.28    0.23
  19  -3  -5    6.18    0.19
  19  -3  -5    6.34    0.21
 -19  -3   4   18.83    0.35
 -19   3   4   19.07    0.39
  19   3  -4   18.12    0.37
 -19  -3   4   19.38    0.40
 -19   3   4   18.45    0.39
  19  -3  -4   18.53    0.33
  19  -3  -4   18.98    0.36
 -19  -3   3   11.96    0.28
 -19   3   3   11.67    0.31
  19   3  -3   11.60    0.30
 -19  -3   3   11.66    0.31
 -19   3   3   11.58    0.30
  19  -3  -3   11.73    0.26
  19  -3  -3   12.05    0.28
 -19   3   3   11.60    0.26
 -19  -3   2    9.17    0.25
 -19   3   2    9.12    0.28
  19   3  -2    9.24    0.27
 -19  -3   2    9.43    0.29
 -19   3   2    9.62    0.28
  19  -3  -2    9.07    0.23
  19  -3  -2    9.52    0.25
 -19   3   2    9.08    0.23
  19   3  -2    8.92    0.25
 -19  -3   1    5.02    0.19
 -19   3   1    4.96    0.22
  19   3  -1    5.25    0.20
 -19  -3   1    5.22    0.22
 -19   3   1    5.03    0.21
  19  -3  -1    5.09    0.18
  19  -3  -1    5.38    0.19
 -19   3   1    4.98    0.18
  19   3  -1    5.14    0.20
 -19  -3   0   21.08    0.39
 -19   3   0   18.92    0.41
 -19  -3   0   21.26    0.42
 -19   3   0   22.42    0.42
  19  -3   0   20.84    0.35
  19  -3   0   21.40    0.37
  19   3   0   20.79    0.39
 -19  -3  -1   89.29    1.29
 -19  -3  -1   89.38    1.31
 -19  -3  -1   90.15    1.35
 -19   3  -1   90.52    1.32
  19  -3   1   91.20    1.29
  19  -3   1   84.08    1.28
  19   3   1   90.45    1.35
 -19  -3  -2   13.69    0.34
 -19  -3  -2   13.86    0.35
 -19  -3  -2   15.14    0.41
 -19   3  -2   14.15    0.36
  19  -3   2   14.22    0.33
  19  -3   2   13.79    0.33
  19   3   2   13.52    0.35
 -19  -3  -3    4.17    0.17
 -19  -3  -3    4.28    0.19
 -19  -3  -3    4.32    0.20
 -19   3  -3    4.02    0.18
  19  -3   3    3.88    0.16
  19   3   3    4.12    0.18
 -19  -3  -4    5.03    0.18
 -19  -3  -4    4.76    0.20
 -19  -3  -4    4.85    0.21
 -19   3  -4    5.03    0.20
  19   3   4    4.93    0.20
 -19  -3  -5    0.29    0.06
 -19  -3  -5    0.23    0.07
 -19   3  -5    0.25    0.10
 -19   3  -5    0.28    0.08
  19   3   5    0.30    0.08
 -19  -3  -6    1.19    0.11
 -19   3  -6    1.11    0.13
 -19   3  -6    1.08    0.12
  19   3   6    1.10    0.12
 -19  -3  -7   13.04    0.33
 -19   3  -7   12.90    0.33
 -19   3  -7   13.36    0.30
  19   3   7   13.28    0.32
 -19  -3  -8    5.63    0.22
 -19   3  -8    6.07    0.23
 -19   3  -8    5.91    0.21
  19   3   8    5.96    0.22
 -19  -3  -9    3.83    0.18
 -19  -3  -9    3.97    0.20
 -19   3  -9    4.03    0.18
  19   3   9    4.04    0.19
 -19  -3 -10    0.07    0.11
 -19   3 -10    0.10    0.09
  19   3  10    0.02    0.08
 -19  -3 -11   18.23    0.39
 -19   3 -11   18.21    0.35
  19   3  11   17.98    0.36
 -19  -3 -12    2.77    0.18
 -19   3 -12    2.71    0.16
  19   3  12    2.71    0.16
 -19  -3 -13    0.62    0.12
 -19   3 -13    0.76    0.12
  19   3  13    0.60    0.10
 -19  -3 -14    0.94    0.13
 -19   3 -14    0.91    0.11
 -19   5  16    0.89    0.12
  19   5 -16    1.04    0.13
  19  -5 -16    0.92    0.13
  19   5 -16    0.99    0.11
 -19  -5  15    3.26    0.17
 -19   5  15    3.32    0.17
  19   5 -15    3.23    0.18
  19  -5 -15    3.10    0.17
  19   5 -15    3.22    0.16
 -19  -5  14    0.86    0.11
 -19   5  14    0.77    0.11
  19   5 -14    0.88    0.12
  19  -5 -14    0.71    0.12
  19   5 -14    0.78    0.11
 -19  -5  13    0.18    0.09
 -19   5  13    0.19    0.09
  19   5 -13    0.09    0.09
  19  -5 -13    0.12    0.08
  19   5 -13    0.14    0.08
 -19  -5  12    9.48    0.26
 -19   5  12    9.92    0.26
  19  -5 -12    9.64    0.26
  19   5 -12    9.25    0.24
 -19  -5  11    4.00    0.17
 -19   5  11    3.81    0.17
 -19  -5  11    3.72    0.18
  19  -5 -11    3.67    0.17
  19   5 -11    3.94    0.17
 -19  -5  10    0.05    0.07
 -19   5  10    0.09    0.08
 -19  -5  10    0.07    0.08
  19  -5 -10    0.04    0.08
  19   5 -10    0.07    0.08
 -19  -5   9    0.38    0.09
 -19   5   9    0.35    0.09
 -19  -5   9    0.35    0.10
  19  -5  -9    0.27    0.09
 -19  -5   8    0.14    0.07
 -19   5   8    0.13    0.08
 -19  -5   8    0.12    0.09
  19  -5  -8    0.12    0.08
 -19  -5   7    0.36    0.08
 -19   5   7    0.42    0.10
  19  -5  -7    0.40    0.09
  19   5  -7    0.46    0.11
 -19  -5   6    0.20    0.07
 -19   5   6    0.07    0.08
  19  -5  -6   -0.02    0.07
  19   5  -6   -0.01    0.09
 -19  -5   5   16.62    0.34
 -19   5   5   16.58    0.36
  19  -5  -5   16.38    0.33
  19   5  -5   16.19    0.34
 -19  -5   4   92.08    0.85
 -19   5   4   89.14    0.88
 -19  -5   4   87.92    0.85
  19  -5  -4   88.97    0.85
  19   5  -4   88.29    0.80
 -19  -5   3    0.94    0.10
 -19   5   3    1.02    0.13
 -19  -5   3    1.10    0.13
  19  -5  -3    1.04    0.10
  19   5  -3    1.17    0.13
 -19  -5   2    1.12    0.10
 -19   5   2    1.15    0.13
  19  -5  -2    1.19    0.11
  19   5  -2    0.98    0.12
 -19  -5   1    2.51    0.14
 -19   5   1    2.30    0.16
  19  -5  -1    2.50    0.14
 -19  -5   0   24.52    0.40
 -19   5   0   24.67    0.46
  19  -5   0   25.40    0.41
 -19   5  -1    3.04    0.18
 -19  -5  -1    2.56    0.16
  19  -5   1    2.90    0.14
  19   5   1    3.02    0.17
 -19   5  -2    1.48    0.14
 -19  -5  -2    1.49    0.14
 -19   5  -2    1.58    0.12
  19   5   2    1.48    0.13
 -19   5  -3    1.99    0.15
 -19  -5  -3    1.93    0.15
 -19   5  -3    1.89    0.13
  19   5   3    1.85    0.14
 -19   5  -4    0.17    0.10
 -19  -5  -4    0.11    0.08
 -19   5  -4    0.13    0.06
  19   5   4    0.17    0.09
 -19   5  -5    0.08    0.10
 -19  -5  -5    0.02    0.09
 -19   5  -5    0.01    0.07
  19   5   5    0.03    0.09
 -19   5  -6    1.18    0.14
 -19  -5  -6    1.11    0.14
 -19   5  -6    1.21    0.11
  19   5   6    1.14    0.12
 -19   5  -7    1.68    0.15
 -19  -5  -7    1.74    0.16
 -19   5  -7    1.58    0.12
  19   5   7    1.57    0.14
 -19   5  -8    0.10    0.10
 -19  -5  -8    0.12    0.11
 -19   5  -8    0.09    0.09
  19   5   8    0.06    0.10
 -19   5  -9    0.01    0.11
 -19  -5  -9    0.06    0.10
 -19   5  -9    0.16    0.09
  19   5   9    0.11    0.10
 -19  -5 -10    1.66    0.15
 -19   5 -10    1.85    0.13
  19   5  10    1.82    0.14
 -19  -5 -11    5.52    0.23
 -19   5 -11    5.43    0.20
  19   5  11    5.26    0.22
 -19  -5 -12    2.57    0.17
 -19   5 -12    2.68    0.15
  19   5  12    2.67    0.16
 -19   7  12   10.02    0.26
  19   7 -12    9.81    0.28
  19  -7 -12   10.45    0.28
  19   7 -12    9.41    0.24
 -19   7  11    0.01    0.09
 -19  -7  11    0.06    0.09
  19  -7 -11   -0.02    0.08
  19   7 -11    0.08    0.09
 -19   7  10    1.71    0.13
  19  -7 -10    1.60    0.13
 -19   7   9    0.02    0.08
  19  -7  -9    0.05    0.08
 -19   7   8    1.53    0.12
  19  -7  -8    1.63    0.13
  19   7  -8    1.80    0.13
 -19   7   7    4.77    0.20
  19  -7  -7    4.52    0.19
  19   7  -7    4.34    0.19
 -19   7   6   10.10    0.28
 -19  -7   6    9.88    0.28
  19  -7  -6    9.79    0.26
  19   7  -6    9.73    0.26
 -19   7   5    0.16    0.10
  19  -7  -5    0.00    0.07
  19   7  -5    0.04    0.09
 -19   7   4   41.84    0.59
  19  -7  -4   40.98    0.53
  19   7  -4   40.79    0.54
 -19   7   3    9.45    0.28
  19  -7  -3    8.74    0.25
  19   7  -3    8.76    0.26
 -19   7   2    2.38    0.16
 -19  -7   2    2.48    0.16
  19   7  -2    2.68    0.16
 -19   7   1    0.41    0.10
 -19  -7   1    0.34    0.11
  19   7  -1    0.48    0.12
 -19   7   0    0.52    0.11
 -19  -7   0    0.30    0.11
  19   7   0    0.63    0.12
 -19   7  -1    0.02    0.10
 -19  -7  -1    0.04    0.10
  19   7   1    0.15    0.10
 -19   7  -2    3.47    0.18
 -19  -7  -2    3.82    0.20
 -19   7  -3    0.50    0.12
 -19  -7  -3    0.40    0.11
 -19   7  -4    2.29    0.16
 -19  -7  -4    1.99    0.16
  19   7   4    1.99    0.15
 -19   7  -5    0.09    0.11
 -19  -7  -5    0.06    0.11
  19   7   5    0.05    0.10
 -19   7  -6    0.26    0.12
 -19  -7  -6    0.29    0.11
  19   7   6    0.36    0.11
 -19   7  -7    2.75    0.19
 -19  -7  -7    2.70    0.18
  19   7   7    2.87    0.18
 -19   7  -8    1.28    0.15
 -19  -7  -8    1.35    0.14
  19   7   8    1.40    0.15
 -19   7  -9    2.79    0.19
 -19  -7  -9    3.24    0.18
  19   7   9    3.08    0.18
 -19   9   4    0.03    0.10
 -19  -9   4    0.01    0.11
  19   9  -4   -0.04    0.10
 -19   9   3    4.96    0.21
 -19  -9   3    4.49    0.20
  19   9  -3    4.90    0.21
 -19   9   2    1.60    0.14
  19   9  -2    1.59    0.15
 -19   9   1    0.48    0.11
  19   9  -1    0.35    0.13
 -19   9   0    2.43    0.17
  19   9   0    2.62    0.17
 -19   9  -1    0.10    0.11
 -20   0  18    3.11    0.17
  20   0 -18    3.06    0.16
  20   0 -18    3.03    0.16
 -20   0  17    0.06    0.08
  20   0 -17    0.04    0.07
  20   0 -17    0.02    0.09
 -20   0  16    0.33    0.10
  20   0 -16    0.37    0.08
  20   0 -16    0.41    0.09
  20   0 -15    0.05    0.07
  20   0 -15    0.02    0.09
  20   0 -14    4.24    0.18
  20   0 -14    4.23    0.17
  20   0 -13    0.05    0.07
  20   0 -13   -0.01    0.07
  20   0 -12    3.87    0.18
  20   0 -12    3.59    0.16
 -20   0  11    0.03    0.07
 -20   0  10    3.22    0.16
 -20   0  10    3.25    0.17
 -20   0   9    0.12    0.07
 -20   0   9    0.03    0.07
 -20   0   8    0.40    0.08
 -20   0   8    0.37    0.09
  20   0  -8    0.31    0.09
 -20   0   7    0.05    0.07
  20   0  -7    0.01    0.07
  20   0  -7    0.03    0.06
 -20   0   6   17.82    0.35
 -20   0   6   18.26    0.37
  20   0  -6   18.36    0.37
  20   0  -6   18.11    0.33
 -20   0   5   -0.02    0.07
 -20   0   5    0.03    0.08
  20   0  -5    0.00    0.06
  20   0  -5   -0.01    0.06
 -20   0   4   63.05    0.91
 -20   0   4   65.58    0.97
  20   0  -4   63.95    0.91
  20   0  -4   63.40    0.91
 -20   0   3    0.01    0.05
 -20   0   3    0.02    0.06
  20   0  -3    0.02    0.05
  20   0  -3   -0.02    0.06
 -20   0   3    0.01    0.05
 -20   0   2   20.13    0.44
 -20   0   2   19.86    0.44
  20   0  -2   19.09    0.40
  20   0  -2   20.90    0.41
 -20   0   2   19.77    0.41
 -20   0   1    0.05    0.06
 -20   0   1    0.00    0.08
 -20   0   1   -0.01    0.05
 -20   0   0    1.39    0.12
 -20   0   0    1.64    0.13
 -20   0   0    1.67    0.12
 -20   0  -1    0.00    0.06
 -20   0  -1    0.00    0.06
  20   0   1   -0.02    0.06
 -20   0  -1    0.01    0.06
 -20   0  -2    1.13    0.11
 -20   0  -2    1.74    0.13
  20   0   2    1.08    0.10
  20   0   2    1.12    0.10
 -20   0  -3    0.03    0.06
 -20   0  -3   -0.01    0.07
  20   0   3   -0.01    0.06
 -20   0  -4    0.12    0.08
 -20   0  -4    0.16    0.09
  20   0   4    0.14    0.06
  20   0   4    0.13    0.06
 -20   0  -5    0.03    0.08
 -20   0  -5    0.03    0.09
  20   0   5    0.03    0.05
  20   0   5    0.04    0.06
 -20   0  -6   20.27    0.41
 -20   0  -6   20.41    0.40
  20   0   6   19.60    0.34
  20   0   6   20.51    0.38
 -20   0  -7    0.01    0.08
 -20   0  -7   -0.01    0.07
  20   0   7    0.01    0.06
 -20   0  -8    3.60    0.18
 -20   0  -8    3.62    0.18
  20   0   8    3.51    0.16
 -20   0  -9    0.12    0.08
 -20   0  -9    0.07    0.08
  20   0   9    0.02    0.06
 -20   0 -10    0.17    0.09
 -20   0 -11    0.04    0.10
 -20   0 -12    0.20    0.11
 -20   0 -13    0.10    0.10
 -20   0 -14    0.94    0.13
 -20  -2  18    0.11    0.10
 -20   2  18    0.08    0.09
  20   2 -18    0.06    0.08
  20  -2 -18    0.19    0.10
  20   2 -18    0.17    0.09
 -20  -2  17    0.22    0.10
 -20   2  17    0.12    0.10
  20   2 -17    0.21    0.09
  20  -2 -17    0.24    0.10
  20   2 -17    0.16    0.10
 -20  -2  16    0.44    0.10
 -20   2  16    0.35    0.09
  20   2 -16    0.46    0.10
  20  -2 -16    0.47    0.11
  20   2 -16    0.54    0.10
 -20  -2  15    0.05    0.08
 -20   2  15    0.02    0.08
  20   2 -15    0.09    0.08
  20  -2 -15    0.08    0.08
  20   2 -15    0.02    0.08
 -20  -2  14    1.65    0.13
 -20   2  14    1.60    0.12
  20   2 -14    1.63    0.13
  20   2 -14    1.57    0.12
 -20  -2  13    6.74    0.22
 -20   2  13    6.45    0.22
  20  -2 -13    6.44    0.21
  20   2 -13    6.66    0.23
  20   2 -13    6.44    0.21
 -20  -2  12    3.40    0.17
 -20   2  12    3.58    0.16
 -20  -2  12    3.65    0.17
  20  -2 -12    3.34    0.16
  20  -2 -12    3.36    0.16
  20   2 -12    3.50    0.16
 -20  -2  11    1.70    0.12
 -20   2  11    1.91    0.14
 -20  -2  11    1.69    0.14
  20  -2 -11    1.70    0.12
  20  -2 -11    1.71    0.13
  20   2 -11    1.61    0.12
 -20  -2  10    2.52    0.15
 -20   2  10    2.45    0.14
 -20  -2  10    2.52    0.15
  20  -2 -10    2.46    0.14
  20  -2 -10    2.57    0.15
  20   2 -10    2.53    0.14
 -20  -2   9   13.52    0.30
 -20   2   9   13.45    0.30
 -20   2   9   13.42    0.31
 -20  -2   9   12.81    0.31
  20  -2  -9   12.97    0.31
  20  -2  -9   13.39    0.30
  20   2  -9   12.90    0.29
 -20  -2   8   30.32    0.57
 -20   2   8   30.23    0.57
 -20   2   8   30.19    0.57
  20  -2  -8   30.61    0.58
  20  -2  -8   30.11    0.55
  20   2  -8   28.36    0.52
 -20  -2   7   19.08    0.41
 -20   2   7   20.01    0.43
 -20   2   7   19.14    0.43
  20  -2  -7   19.69    0.43
  20  -2  -7   19.26    0.41
 -20  -2   6    2.44    0.14
 -20   2   6    2.52    0.15
  20  -2  -6    2.47    0.14
  20  -2  -6    2.48    0.14
 -20  -2   5   31.33    0.45
 -20  -2   5   32.82    0.51
 -20   2   5   32.01    0.51
  20  -2  -5   31.77    0.47
  20  -2  -5   32.37    0.45
 -20  -2   4   46.03    0.59
  20   2  -4   46.03    0.60
 -20  -2   4   46.52    0.62
 -20   2   4   44.94    0.60
  20  -2  -4   44.85    0.55
  20  -2  -4   45.84    0.56
 -20   2   4   44.82    0.52
 -20  -2   3   15.89    0.33
  20   2  -3   14.85    0.34
 -20  -2   3   15.37    0.36
 -20   2   3   14.49    0.34
  20  -2  -3   14.75    0.30
  20  -2  -3   15.11    0.31
  20   2  -3   14.82    0.31
 -20   2   3   15.34    0.31
 -20  -2   2    8.41    0.25
  20   2  -2    8.14    0.25
 -20  -2   2    8.68    0.27
 -20   2   2    8.99    0.28
  20  -2  -2    8.57    0.23
  20  -2  -2    8.41    0.23
  20   2  -2    8.88    0.25
 -20   2   2    8.48    0.23
 -20  -2   1    5.39    0.20
  20   2  -1    5.29    0.20
 -20  -2   1    5.13    0.22
 -20   2   1    5.37    0.21
  20  -2  -1    5.46    0.18
  20  -2  -1    5.21    0.18
  20   2  -1    5.29    0.20
 -20   2   1    5.48    0.19
 -20  -2   0    0.27    0.08
 -20   2   0    0.30    0.09
 -20  -2   0    0.26    0.09
 -20   2   0    0.24    0.08
  20  -2   0    0.27    0.06
  20  -2   0    0.27    0.07
  20   2   0    0.25    0.09
 -20   2   0    0.23    0.06
 -20  -2  -1    0.10    0.06
 -20  -2  -1    0.08    0.06
 -20   2  -1    0.10    0.09
 -20  -2  -1    0.07    0.09
 -20   2  -1    0.11    0.08
  20  -2   1    0.13    0.06
  20  -2   1    0.11    0.06
  20   2   1    0.14    0.08
 -20  -2  -2    0.08    0.06
 -20  -2  -2    0.06    0.07
 -20   2  -2    0.03    0.07
 -20  -2  -2    0.09    0.08
 -20   2  -2    0.07    0.07
  20  -2   2    0.06    0.05
  20   2   2    0.07    0.07
 -20  -2  -3    0.30    0.07
 -20  -2  -3    0.36    0.09
 -20   2  -3    0.32    0.10
 -20  -2  -3    0.41    0.10
 -20   2  -3    0.63    0.10
  20  -2   3    0.30    0.07
  20  -2   3    0.33    0.06
  20   2   3    0.37    0.09
 -20  -2  -4   12.39    0.31
 -20  -2  -4   12.60    0.35
 -20   2  -4   13.09    0.36
 -20  -2  -4   12.78    0.36
 -20   2  -4   13.03    0.35
  20  -2   4   12.37    0.31
  20  -2   4   12.97    0.31
  20   2   4   12.99    0.34
 -20  -2  -5    0.06    0.05
 -20  -2  -5    0.04    0.06
 -20   2  -5    0.08    0.08
 -20  -2  -5    0.11    0.08
 -20   2  -5    0.02    0.08
  20  -2   5    0.10    0.05
  20  -2   5    0.08    0.05
  20   2   5    0.09    0.07
 -20  -2  -6    0.31    0.06
 -20  -2  -6    0.22    0.08
 -20   2  -6    0.29    0.10
 -20  -2  -6    0.33    0.09
 -20   2  -6    0.22    0.09
  20  -2   6    0.29    0.06
  20   2   6    0.29    0.08
 -20  -2  -7    1.92    0.14
 -20   2  -7    2.02    0.15
 -20  -2  -7    1.90    0.15
 -20   2  -7    2.11    0.14
  20   2   7    1.96    0.14
 -20  -2  -8    8.42    0.27
 -20   2  -8    8.79    0.28
 -20  -2  -8    8.56    0.27
 -20   2  -8    8.53    0.25
  20   2   8    8.71    0.26
 -20  -2  -9    0.66    0.11
 -20   2  -9    0.56    0.11
 -20   2  -9    0.67    0.11
  20   2   9    0.69    0.10
 -20  -2 -10    7.42    0.25
 -20   2 -10    7.40    0.24
  20   2  10    6.94    0.23
 -20  -2 -11    0.38    0.10
 -20   2 -11    0.35    0.10
  20   2  11    0.28    0.09
 -20   2 -12    1.42    0.13
  20   2  12    1.43    0.13
 -20  -2 -13    3.19    0.18
 -20   2 -13    3.05    0.17
 -20  -2 -14    2.99    0.18
 -20   2 -14    3.24    0.18
 -20  -4  16    0.21    0.10
 -20   4  16    0.30    0.11
  20   4 -16    0.25    0.10
  20  -4 -16    0.35    0.10
  20   4 -16    0.36    0.10
 -20  -4  15    0.53    0.11
 -20   4  15    0.48    0.09
  20   4 -15    0.52    0.11
  20  -4 -15    0.45    0.11
  20   4 -15    0.42    0.10
 -20  -4  14    3.88    0.18
 -20   4  14    3.97    0.17
  20   4 -14    3.73    0.18
  20  -4 -14    3.82    0.17
  20   4 -14    3.81    0.17
 -20  -4  13    6.06    0.21
 -20   4  13    6.07    0.21
  20   4 -13    6.12    0.23
  20  -4 -13    6.32    0.22
  20   4 -13    6.17    0.21
 -20  -4  12    1.35    0.12
 -20   4  12    1.16    0.12
 -20  -4  12    1.34    0.13
  20  -4 -12    1.16    0.12
  20   4 -12    1.20    0.11
 -20  -4  11    6.01    0.21
 -20   4  11    6.43    0.22
 -20  -4  11    6.04    0.22
  20  -4 -11    5.91    0.21
  20   4 -11    6.27    0.20
 -20  -4  10    5.13    0.19
 -20   4  10    4.83    0.19
 -20  -4  10    5.33    0.21
  20  -4 -10    4.86    0.19
  20   4 -10    5.12    0.19
 -20  -4   9    0.58    0.10
 -20   4   9    0.57    0.09
 -20  -4   9    0.58    0.10
  20  -4  -9    0.59    0.09
  20   4  -9    0.56    0.11
 -20  -4   8   14.40    0.31
 -20   4   8   14.62    0.32
 -20  -4   8   14.35    0.33
  20  -4  -8   14.70    0.31
 -20  -4   7    5.85    0.20
 -20   4   7    5.46    0.20
  20  -4  -7    5.97    0.20
 -20  -4   6    0.62    0.08
 -20   4   6    0.80    0.11
  20  -4  -6    0.68    0.10
  20   4  -6    0.65    0.10
 -20  -4   5   49.45    0.58
 -20   4   5   48.59    0.62
 -20  -4   5   48.76    0.63
  20  -4  -5   49.97    0.59
  20   4  -5   47.02    0.57
 -20  -4   4   20.91    0.44
 -20   4   4   22.02    0.49
 -20  -4   4   21.58    0.48
  20  -4  -4   20.90    0.43
  20  -4  -4   21.27    0.46
 -20  -4   3   45.98    0.76
 -20   4   3   44.62    0.78
 -20  -4   3   46.17    0.81
  20  -4  -3   46.25    0.74
  20  -4  -3   44.97    0.74
 -20  -4   2   11.41    0.27
 -20   4   2   11.78    0.34
 -20  -4   2   11.68    0.34
  20  -4  -2   11.19    0.28
 -20  -4   1    1.96    0.12
 -20   4   1    2.09    0.16
 -20  -4   1    2.06    0.15
 -20   4   1    2.08    0.14
  20  -4  -1    1.98    0.12
  20   4  -1    2.00    0.14
 -20  -4   0    0.23    0.06
 -20  -4   0    0.27    0.07
 -20   4   0    0.35    0.10
 -20  -4   0    0.29    0.10
 -20   4   0    0.36    0.08
  20  -4   0    0.28    0.06
  20   4   0    0.38    0.09
 -20  -4  -1    0.33    0.07
 -20  -4  -1    0.31    0.07
 -20   4  -1    0.38    0.10
 -20  -4  -1    0.34    0.10
 -20   4  -1    0.34    0.08
  20  -4   1    0.35    0.07
  20   4   1    0.42    0.09
 -20  -4  -2    0.02    0.05
 -20   4  -2   -0.05    0.08
 -20   4  -2   -0.01    0.07
  20  -4   2    0.03    0.05
  20   4   2    0.05    0.08
 -20  -4  -3    7.96    0.23
 -20   4  -3    8.13    0.27
 -20   4  -3    8.07    0.24
  20   4   3    8.09    0.25
 -20  -4  -4    2.96    0.15
 -20   4  -4    2.98    0.16
  20   4   4    2.69    0.16
 -20   4  -5    6.66    0.22
  20   4   5    6.10    0.22
 -20  -4  -6    2.18    0.16
 -20   4  -6    2.30    0.14
  20   4   6    2.18    0.14
 -20  -4  -7    2.29    0.16
 -20   4  -7    2.49    0.15
  20   4   7    2.22    0.15
 -20   4  -8    2.44    0.17
 -20  -4  -8    2.26    0.17
 -20   4  -8    2.40    0.15
  20   4   8    2.28    0.15
 -20   4  -9    4.34    0.21
 -20  -4  -9    3.99    0.20
 -20   4  -9    4.05    0.18
  20   4   9    4.15    0.19
 -20   4 -10    3.81    0.20
 -20  -4 -10    3.76    0.20
 -20   4 -10    4.03    0.19
  20   4  10    3.87    0.19
 -20  -4 -11    0.45    0.12
 -20   4 -11    0.49    0.11
  20   4  11    0.46    0.11
 -20  -4 -12    6.28    0.24
 -20   4 -12    6.38    0.22
  20   4  12    6.13    0.23
 -20   6  14    2.22    0.15
  20   6 -14    2.31    0.16
  20  -6 -14    2.17    0.15
  20   6 -14    2.31    0.14
 -20   6  13    4.75    0.19
  20  -6 -13    4.62    0.19
  20   6 -13    4.54    0.18
 -20   6  12    1.60    0.13
  20  -6 -12    1.72    0.14
  20   6 -12    1.74    0.13
 -20   6  11    6.24    0.21
 -20  -6  11    6.31    0.23
  20  -6 -11    6.28    0.21
  20   6 -11    6.32    0.22
 -20  -6  10    3.89    0.17
 -20   6  10    4.07    0.18
 -20  -6  10    3.97    0.19
  20  -6 -10    3.93    0.18
 -20  -6   9    2.35    0.14
 -20   6   9    2.64    0.16
 -20  -6   9    2.41    0.16
  20  -6  -9    2.45    0.14
 -20  -6   8    0.88    0.10
 -20   6   8    0.90    0.12
  20  -6  -8    0.95    0.11
 -20  -6   7    0.75    0.09
 -20   6   7    0.78    0.12
 -20  -6   7    0.68    0.12
  20  -6  -7    0.68    0.10
  20   6  -7    0.69    0.11
 -20  -6   6    0.97    0.10
 -20   6   6    0.90    0.12
  20  -6  -6    0.88    0.10
  20   6  -6    0.94    0.12
 -20   6   5   31.54    0.50
  20  -6  -5   30.81    0.46
  20   6  -5   31.34    0.46
 -20   6   4    0.01    0.09
  20  -6  -4   -0.01    0.08
  20   6  -4    0.09    0.10
 -20   6   3   15.80    0.36
  20  -6  -3   16.13    0.33
  20   6  -3   15.53    0.34
 -20   6   2    5.27    0.22
 -20  -6   2    5.35    0.23
  20  -6  -2    5.35    0.19
  20   6  -2    5.55    0.22
 -20   6   1   15.01    0.36
 -20  -6   1   15.04    0.36
  20  -6  -1   14.71    0.31
  20   6  -1   15.26    0.34
 -20   6   0    0.62    0.11
 -20  -6   0    0.51    0.11
 -20   6  -1    0.31    0.11
 -20  -6  -1    0.20    0.11
 -20   6  -2    0.70    0.12
 -20  -6  -2    0.54    0.11
  20   6   2    0.63    0.11
 -20   6  -3    0.09    0.10
 -20  -6  -3    0.16    0.10
  20   6   3    0.07    0.09
 -20   6  -4    0.54    0.11
 -20  -6  -4    0.50    0.12
  20   6   4    0.39    0.10
 -20   6  -5    6.29    0.24
 -20  -6  -5    6.29    0.24
  20   6   5    6.27    0.23
 -20   6  -6    2.23    0.17
 -20  -6  -6    2.19    0.17
  20   6   6    2.37    0.15
 -20   6  -7    1.68    0.16
 -20  -6  -7    1.60    0.15
  20   6   7    1.64    0.14
 -20   6  -8    0.20    0.12
 -20  -6  -8    0.27    0.12
  20   6   8    0.35    0.11
 -20   6  -9    2.35    0.17
 -20  -6  -9    2.35    0.17
  20   6   9    2.35    0.16
 -20   6 -10    0.49    0.13
 -20  -6 -10    0.47    0.13
  20   6  10    0.42    0.11
 -20   8   9    6.11    0.22
 -20  -8   9    6.05    0.23
  20  -8  -9    5.92    0.21
 -20   8   8    1.33    0.13
 -20  -8   8    1.48    0.15
  20  -8  -8    1.40    0.12
  20   8  -8    1.31    0.13
 -20   8   7    2.68    0.16
 -20  -8   7    2.63    0.16
  20  -8  -7    2.48    0.15
  20   8  -7    2.40    0.16
 -20   8   6    0.12    0.09
 -20  -8   6    0.01    0.10
  20  -8  -6    0.02    0.08
  20   8  -6    0.03    0.11
 -20   8   5    6.03    0.23
 -20  -8   5    5.35    0.22
  20   8  -5    5.65    0.22
 -20   8   4   24.64    0.44
  20   8  -4   25.35    0.42
 -20   8   3    3.77    0.19
  20   8  -3    3.69    0.18
 -20   8   2    0.86    0.12
  20   8  -2    0.96    0.13
 -20   8   1    0.14    0.11
  20   8  -1    0.05    0.10
 -20   8   0    1.45    0.15
 -20  -8   0    1.44    0.14
  20   8   0    1.58    0.14
 -20   8  -1    0.38    0.12
 -20  -8  -1    0.21    0.11
  20   8   1    0.24    0.12
 -20   8  -2    0.30    0.12
 -20  -8  -2    0.39    0.12
  20   8   2    0.38    0.11
 -20   8  -3    0.13    0.11
 -20  -8  -3    0.18    0.12
 -20   8  -4    2.14    0.17
 -20  -8  -4    2.05    0.16
 -20   8  -5    5.15    0.22
 -20  -8  -5    5.70    0.24
  20   8   5    5.46    0.23
 -21   1  18    0.52    0.11
  21   1 -18    0.66    0.10
  21  -1 -18    0.55    0.12
  21   1 -18    0.56    0.12
 -21  -1  17    0.48    0.10
 -21   1  17    0.62    0.11
  21   1 -17    0.59    0.10
  21  -1 -17    0.62    0.12
  21   1 -17    0.60    0.11
 -21  -1  16    1.21    0.12
 -21   1  16    1.16    0.12
  21   1 -16    1.14    0.12
  21  -1 -16    1.05    0.12
  21   1 -16    1.12    0.12
 -21  -1  15    0.95    0.12
 -21   1  15    1.09    0.12
  21  -1 -15    1.06    0.11
  21   1 -15    1.15    0.11
  21  -1 -15    1.07    0.11
  21   1 -15    1.08    0.11
 -21  -1  14    0.47    0.10
  21  -1 -14    0.59    0.09
  21   1 -14    0.64    0.10
  21  -1 -14    0.64    0.10
  21   1 -14    0.66    0.10
 -21  -1  13    0.04    0.08
 -21   1  13    0.08    0.09
  21  -1 -13    0.05    0.06
  21   1 -13    0.09    0.08
  21   1 -13   -0.01    0.08
 -21  -1  12    2.48    0.15
 -21   1  12    2.47    0.14
  21  -1 -12    2.43    0.14
  21   1 -12    2.51    0.15
  21   1 -12    2.48    0.14
 -21  -1  11    0.06    0.08
 -21  -1  11    0.04    0.07
  21  -1 -11    0.06    0.07
  21  -1 -11    0.09    0.09
  21   1 -11    0.14    0.08
 -21  -1  10    9.09    0.25
 -21   1  10    9.02    0.25
 -21  -1  10    9.37    0.27
  21  -1 -10    9.02    0.26
  21  -1 -10    9.25    0.25
 -21  -1   9    4.51    0.18
 -21   1   9    4.55    0.19
 -21  -1   9    4.65    0.19
  21  -1  -9    4.39    0.19
  21  -1  -9    4.43    0.18
 -21  -1   8    1.01    0.10
 -21   1   8    1.06    0.11
  21  -1  -8    1.09    0.10
  21  -1  -8    1.20    0.11
 -21  -1   7    1.74    0.12
  21  -1  -7    1.82    0.12
  21  -1  -7    1.78    0.12
  21   1  -7    1.67    0.12
 -21  -1   6   29.45    0.55
 -21   1   6   27.65    0.54
 -21   1   6   28.31    0.57
 -21  -1   6   29.16    0.57
  21  -1  -6   27.86    0.54
  21  -1  -6   29.06    0.54
  21   1  -6   29.37    0.55
 -21  -1   5  211.58    1.38
 -21   1   5  204.15    1.54
 -21  -1   5  202.57    1.42
 -21   1   5  201.22    1.34
  21  -1  -5  208.33    1.35
  21  -1  -5  206.07    1.28
  21   1  -5  203.69    1.37
 -21  -1   4    0.12    0.07
 -21   1   4    0.18    0.09
 -21  -1   4    0.16    0.08
 -21   1   4    0.16    0.08
  21  -1  -4    0.06    0.07
  21  -1  -4    0.07    0.06
  21   1  -4    0.18    0.09
 -21  -1   3   19.70    0.38
 -21   1   3   19.37    0.39
 -21  -1   3   19.64    0.40
 -21   1   3   19.53    0.39
  21  -1  -3   19.86    0.36
  21  -1  -3   19.07    0.33
 -21   1   3   19.05    0.35
 -21  -1   2    0.14    0.06
 -21   1   2    0.18    0.08
 -21  -1   2    0.16    0.07
 -21   1   2    0.16    0.07
  21  -1  -2    0.14    0.06
  21  -1  -2    0.16    0.06
 -21   1   2    0.16    0.07
 -21  -1   1    1.20    0.11
 -21   1   1    1.09    0.11
  21   1  -1    1.11    0.10
 -21  -1   1    1.07    0.12
 -21   1   1    1.17    0.11
  21  -1  -1    1.16    0.09
  21  -1  -1    1.20    0.10
  21   1  -1    1.12    0.11
 -21   1   1    1.32    0.10
 -21  -1   0    2.63    0.15
 -21   1   0    2.46    0.15
 -21  -1   0    2.63    0.17
 -21   1   0    2.41    0.15
  21  -1   0    2.48    0.13
  21   1   0    2.36    0.14
 -21   1   0    2.48    0.14
 -21  -1  -1    0.09    0.06
 -21  -1  -1    0.10    0.06
 -21   1  -1    0.09    0.08
 -21  -1  -1    0.05    0.09
 -21   1  -1    0.07    0.07
  21  -1   1    0.09    0.06
  21   1   1    0.07    0.06
 -21   1  -1    0.03    0.06
 -21  -1  -2    0.12    0.06
 -21  -1  -2    0.12    0.07
 -21   1  -2    0.16    0.09
 -21  -1  -2    0.14    0.08
 -21   1  -2    0.12    0.07
  21  -1   2    0.11    0.06
  21   1   2    0.14    0.07
  21  -1   2    0.13    0.06
  21   1   2    0.09    0.07
 -21  -1  -3    1.97    0.14
 -21   1  -3    2.06    0.15
 -21  -1  -3    2.13    0.15
 -21   1  -3    2.05    0.14
  21  -1   3    2.03    0.12
  21  -1   3    2.42    0.13
  21   1   3    2.01    0.13
 -21  -1  -4    2.17    0.15
 -21   1  -4    2.18    0.15
 -21  -1  -4    2.35    0.16
 -21   1  -4    2.36    0.15
  21   1   4    2.23    0.13
  21  -1   4    2.20    0.12
  21   1   4    2.29    0.14
 -21  -1  -5    4.70    0.20
 -21   1  -5    4.40    0.20
 -21  -1  -5    4.56    0.20
 -21   1  -5    4.48    0.19
  21  -1   5    4.36    0.17
  21   1   5    4.59    0.18
 -21  -1  -6    0.64    0.10
 -21   1  -6    0.59    0.10
 -21  -1  -6    0.63    0.10
 -21   1  -6    0.63    0.10
  21  -1   6    0.71    0.08
  21   1   6    0.69    0.10
 -21  -1  -7    0.07    0.08
 -21   1  -7    0.05    0.07
 -21  -1  -7    0.06    0.09
 -21   1  -7    0.02    0.08
  21  -1   7    0.05    0.06
  21   1   7    0.14    0.07
 -21  -1  -8    0.55    0.09
 -21   1  -8    0.51    0.11
 -21  -1  -8    0.44    0.11
 -21   1  -8    0.51    0.11
  21   1   8    0.53    0.09
 -21  -1  -9    2.83    0.16
 -21   1  -9    2.90    0.18
 -21  -1  -9    2.84    0.18
 -21   1  -9    2.74    0.17
  21   1   9    2.90    0.15
 -21  -1 -10    0.03    0.08
 -21   1 -10    0.01    0.10
 -21  -1 -10    0.06    0.10
 -21   1 -10    0.07    0.09
  21   1  10    0.11    0.07
 -21  -1 -11    6.25    0.23
 -21  -1 -11    6.09    0.23
 -21   1 -11    6.11    0.22
 -21  -1 -12    0.08    0.09
 -21  -1 -12   -0.02    0.11
 -21   1 -12    0.10    0.10
 -21  -1 -13    0.91    0.12
 -21   1 -13    1.11    0.13
 -21  -3  17    1.17    0.12
 -21   3  17    1.31    0.13
  21   3 -17    1.54    0.14
  21   3 -17    1.34    0.13
 -21  -3  16    0.00    0.10
 -21   3  16    0.03    0.09
  21   3 -16    0.12    0.09
  21   3 -16    0.04    0.08
 -21  -3  15    0.37    0.10
 -21   3  15    0.30    0.10
  21   3 -15    0.37    0.10
  21   3 -15    0.38    0.09
 -21  -3  14    0.70    0.11
 -21   3  14    0.76    0.10
  21   3 -14    0.68    0.11
  21  -3 -14    0.68    0.10
  21   3 -14    0.73    0.11
 -21  -3  13    0.03    0.08
 -21   3  13    0.13    0.08
  21   3 -13    0.03    0.09
  21  -3 -13    0.13    0.08
  21   3 -13    0.05    0.09
 -21  -3  12    8.61    0.25
 -21   3  12    8.56    0.24
 -21  -3  12    8.33    0.25
  21  -3 -12    8.14    0.24
  21   3 -12    8.34    0.23
 -21  -3  11    3.46    0.17
 -21   3  11    3.76    0.17
 -21  -3  11    3.50    0.17
  21  -3 -11    3.76    0.17
  21   3 -11    3.63    0.16
 -21  -3  10    2.61    0.15
 -21   3  10    2.48    0.15
 -21  -3  10    2.70    0.16
  21  -3 -10    2.57    0.15
  21   3 -10    2.77    0.15
 -21  -3   9    0.01    0.08
 -21   3   9    0.04    0.07
 -21  -3   9    0.04    0.09
  21  -3  -9    0.05    0.05
  21  -3  -9    0.04    0.07
  21   3  -9    0.06    0.08
 -21  -3   8    3.16    0.15
 -21   3   8    3.26    0.17
  21  -3  -8    3.59    0.17
  21   3  -8    3.62    0.17
 -21  -3   7    1.31    0.11
 -21   3   7    1.38    0.12
  21  -3  -7    1.36    0.12
 -21  -3   6   61.83    0.96
 -21   3   6   63.23    1.01
  21  -3  -6   60.59    1.00
  21  -3  -6   63.36    0.97
 -21  -3   5  204.75    1.25
 -21   3   5  206.90    1.42
 -21  -3   5  205.30    1.46
 -21   3   5  193.49    2.74
  21  -3  -5  198.65    2.54
  21  -3  -5  208.83    1.39
 -21  -3   4   92.64    1.35
 -21   3   4   91.76    1.38
 -21  -3   4   93.45    1.38
 -21   3   4   91.41    1.34
  21  -3  -4   91.06    1.34
  21  -3  -4   93.86    1.34
  21   3  -4   84.96    1.30
 -21  -3   3   83.47    1.19
 -21   3   3   81.03    1.21
 -21  -3   3   84.11    1.28
 -21   3   3   78.74    1.21
  21  -3  -3   79.66    1.14
  21  -3  -3   81.29    1.18
  21   3  -3   80.60    1.18
 -21   3   3   75.82    1.13
 -21  -3   2    0.81    0.09
 -21   3   2    0.68    0.11
 -21  -3   2    0.90    0.11
 -21   3   2    0.87    0.11
  21  -3  -2    0.95    0.09
  21  -3  -2    0.80    0.09
  21   3  -2    0.93    0.11
 -21  -3   1    0.11    0.06
 -21  -3   1    0.17    0.09
 -21   3   1    0.09    0.08
  21  -3  -1    0.15    0.05
  21  -3  -1    0.09    0.06
  21   3  -1    0.12    0.09
 -21  -3   0    0.85    0.09
 -21  -3   0    0.80    0.11
 -21   3   0    0.92    0.11
  21  -3   0    0.83    0.08
  21  -3   0    0.90    0.09
  21   3   0    0.92    0.11
 -21  -3  -1   38.44    0.68
 -21  -3  -1   38.26    0.68
 -21  -3  -1   38.97    0.72
 -21   3  -1   37.38    0.68
  21  -3   1   37.85    0.64
  21  -3   1   37.69    0.67
  21   3   1   38.80    0.69
 -21  -3  -2   21.06    0.44
 -21  -3  -2   22.06    0.47
 -21  -3  -2   22.97    0.51
 -21   3  -2   21.13    0.46
  21  -3   2   22.29    0.45
  21   3   2   21.37    0.47
 -21  -3  -3    3.64    0.16
 -21  -3  -3    3.68    0.17
 -21   3  -3    3.78    0.20
 -21  -3  -3    3.96    0.20
 -21   3  -3    3.62    0.17
  21  -3   3    3.52    0.15
  21   3   3    3.61    0.17
 -21  -3  -4    1.20    0.11
 -21   3  -4    1.13    0.13
 -21  -3  -4    1.11    0.13
 -21   3  -4    1.14    0.11
  21   3   4    1.05    0.12
 -21  -3  -5    0.08    0.06
 -21   3  -5    0.08    0.08
 -21  -3  -5    0.35    0.10
 -21   3  -5    0.09    0.07
  21   3   5    0.17    0.08
 -21  -3  -6    3.22    0.17
 -21   3  -6    3.11    0.18
 -21   3  -6    3.26    0.16
  21   3   6    3.19    0.17
 -21  -3  -7    4.03    0.19
 -21   3  -7    4.22    0.20
 -21   3  -7    4.46    0.19
  21   3   7    4.18    0.18
 -21   3  -8    4.20    0.20
 -21   3  -8    4.22    0.19
  21   3   8    4.27    0.19
 -21   3  -9    0.24    0.11
 -21   3  -9    0.34    0.11
  21   3   9    0.32    0.10
 -21   3 -10    3.49    0.19
 -21  -3 -10    3.39    0.18
 -21   3 -10    3.53    0.18
  21   3  10    3.37    0.18
 -21   3 -11    1.80    0.15
 -21  -3 -11    1.64    0.15
 -21   3 -11    1.57    0.14
  21   3  11    1.67    0.14
 -21  -3 -12    0.58    0.13
 -21   3 -12    0.52    0.11
  21   3  12    0.44    0.10
 -21  -3 -13    0.93    0.13
 -21   3 -13    0.92    0.12
 -21  -5  15    0.53    0.11
 -21   5  15    0.58    0.11
  21   5 -15    0.54    0.12
  21  -5 -15    0.46    0.11
  21   5 -15    0.42    0.10
 -21  -5  14    7.00    0.23
 -21   5  14    6.99    0.23
  21   5 -14    6.95    0.24
  21  -5 -14    6.92    0.23
  21   5 -14    6.77    0.21
 -21  -5  13    0.44    0.10
 -21   5  13    0.32    0.10
  21   5 -13    0.31    0.11
  21  -5 -13    0.30    0.10
  21   5 -13    0.28    0.10
 -21  -5  12    4.70    0.19
 -21   5  12    4.91    0.19
 -21  -5  12    4.82    0.20
  21  -5 -12    4.75    0.19
  21   5 -12    4.57    0.18
 -21  -5  11    1.49    0.13
 -21   5  11    1.58    0.13
 -21  -5  11    1.40    0.14
  21  -5 -11    1.45    0.13
  21   5 -11    1.52    0.13
 -21  -5  10   -0.02    0.07
 -21   5  10   -0.01    0.09
 -21  -5  10    0.13    0.10
  21  -5 -10    0.05    0.09
  21   5 -10    0.04    0.09
 -21  -5   9    0.14    0.08
 -21   5   9    0.22    0.09
 -21  -5   9    0.18    0.10
  21  -5  -9    0.20    0.08
 -21  -5   8    1.31    0.11
 -21   5   8    1.37    0.13
 -21  -5   8    1.26    0.12
  21  -5  -8    1.22    0.11
 -21  -5   7    7.76    0.23
 -21   5   7    7.71    0.24
  21  -5  -7    7.57    0.22
  21   5  -7    7.66    0.23
 -21  -5   6    4.48    0.18
 -21   5   6    4.66    0.20
  21  -5  -6    4.70    0.19
  21   5  -6    4.49    0.18
 -21  -5   5    5.91    0.21
 -21   5   5    5.96    0.23
  21  -5  -5    5.70    0.20
  21   5  -5    5.95    0.22
 -21  -5   4  135.75    1.08
 -21   5   4  136.80    1.15
 -21  -5   4  138.02    1.15
  21  -5  -4  136.89    1.02
  21   5  -4  135.66    1.10
 -21  -5   3    7.39    0.23
 -21   5   3    7.51    0.26
 -21  -5   3    7.50    0.26
  21  -5  -3    7.10    0.22
 -21  -5   2    0.62    0.08
 -21   5   2    0.60    0.12
 -21  -5   2    0.63    0.11
  21  -5  -2    0.65    0.09
 -21   5   1    1.66    0.14
  21  -5  -1    1.66    0.12
 -21   5   0    0.37    0.10
  21  -5   0    0.39    0.08
  21   5   0    0.39    0.10
 -21   5  -1    1.53    0.15
  21   5   1    1.39    0.13
 -21   5  -2    5.85    0.24
  21   5   2    5.89    0.21
 -21   5  -3   -0.04    0.09
 -21  -5  -3    0.01    0.09
  21   5   3    0.05    0.08
 -21   5  -4    0.82    0.12
 -21  -5  -4    0.82    0.12
 -21   5  -4    0.75    0.10
  21   5   4    0.84    0.11
 -21   5  -5    0.37    0.11
 -21  -5  -5    0.29    0.11
 -21   5  -5    0.39    0.08
  21   5   5    0.34    0.09
 -21   5  -6    1.15    0.14
 -21  -5  -6    1.20    0.14
 -21   5  -6    1.19    0.12
  21   5   6    1.16    0.13
 -21   5  -7    3.76    0.20
 -21  -5  -7    4.69    0.23
 -21   5  -7    4.11    0.18
  21   5   7    4.25    0.19
 -21  -5  -8    0.26    0.11
 -21   5  -8    0.25    0.09
  21   5   8    0.36    0.11
 -21  -5  -9   -0.01    0.10
 -21   5  -9    0.05    0.09
  21   5   9    0.08    0.09
 -21  -5 -10    2.82    0.19
 -21   5 -10    2.71    0.16
  21   5  10    3.05    0.17
 -21   5 -11    0.05    0.11
 -21  -5 -11    0.05    0.10
 -21   5 -11    0.15    0.09
  21   5  11    0.11    0.10
 -21   7  11    3.94    0.18
 -21  -7  11    4.17    0.20
  21  -7 -11    4.44    0.20
  21   7 -11    4.08    0.19
 -21   7  10    1.46    0.13
 -21  -7  10    1.41    0.14
  21  -7 -10    1.40    0.13
 -21   7   9    3.06    0.16
  21  -7  -9    3.11    0.17
 -21   7   8    0.33    0.09
  21  -7  -8    0.22    0.09
  21   7  -8    0.15    0.09
 -21   7   7    0.17    0.09
  21  -7  -7    0.25    0.08
  21   7  -7    0.27    0.10
 -21   7   6    8.73    0.26
  21  -7  -6    8.70    0.25
  21   7  -6    8.31    0.25
 -21   7   5    5.58    0.22
  21  -7  -5    5.81    0.21
  21   7  -5    5.93    0.21
 -21   7   4   20.13    0.40
  21  -7  -4   20.49    0.37
  21   7  -4   20.31    0.38
 -21   7   3    0.15    0.10
  21   7  -3    0.14    0.11
 -21   7   2    2.24    0.16
 -21  -7   2    2.04    0.16
  21   7  -2    2.12    0.15
 -21   7   1    1.01    0.14
 -21  -7   1    0.82    0.12
  21   7  -1    0.84    0.12
 -21   7   0    0.27    0.11
 -21  -7   0    0.33    0.11
  21   7   0    0.35    0.11
 -21   7  -1    0.89    0.13
 -21  -7  -1    0.91    0.13
 -21   7  -2    0.32    0.12
 -21  -7  -2    0.32    0.11
 -21   7  -3    1.69    0.16
 -21  -7  -3    1.88    0.16
  21   7   3    1.89    0.15
 -21   7  -4    0.19    0.12
 -21  -7  -4    0.12    0.12
  21   7   4    0.29    0.10
 -21   7  -5    0.87    0.14
 -21  -7  -5    1.07    0.14
  21   7   5    0.99    0.13
 -21   7  -6    0.14    0.12
 -21  -7  -6    0.17    0.11
  21   7   6    0.07    0.11
 -21   7  -7    0.83    0.15
 -21  -7  -7    0.80    0.14
  21   7   7    0.82    0.12
  22   0 -17    0.02    0.08
  22   0 -17    0.03    0.09
  22   0 -16    0.19    0.07
  22   0 -16    0.08    0.10
  22   0 -15   -0.01    0.07
  22   0 -15    0.01    0.08
  22   0 -14    2.03    0.13
  22   0 -14    1.95    0.14
  22   0 -13    0.03    0.07
  22   0 -13    0.02    0.09
 -22   0  12    0.59    0.10
  22   0 -12    0.52    0.10
 -22   0  11    0.00    0.08
 -22   0  11   -0.01    0.07
 -22   0  10    0.29    0.09
 -22   0  10    0.33    0.10
  22   0 -10    0.19    0.09
 -22   0   9    0.06    0.08
 -22   0   9   -0.02    0.07
  22   0  -9    0.03    0.08
 -22   0   8   12.60    0.32
  22   0  -8   12.67    0.32
 -22   0   7    0.04    0.08
  22   0  -7    0.02    0.07
 -22   0   6    1.18    0.11
 -22   0   6    1.25    0.12
  22   0  -6    1.23    0.11
 -22   0   5    0.11    0.09
 -22   0   5    0.15    0.08
  22   0  -5    0.01    0.07
 -22   0   4  181.44    2.36
 -22   0   4  175.80    2.31
  22   0  -4  183.35    2.44
 -22   0   3    0.01    0.07
 -22   0   3    0.09    0.08
  22   0  -3   -0.02    0.06
 -22   0   2    6.09    0.22
 -22   0   2    6.22    0.23
  22   0  -2    6.27    0.20
 -22   0   1    0.06    0.08
 -22   0   1    0.04    0.07
  22   0  -1    0.02    0.06
 -22   0   0    7.73    0.26
 -22   0   0    7.56    0.25
 -22   0   0    7.71    0.23
 -22   0  -1   -0.03    0.06
 -22   0  -1   -0.01    0.08
 -22   0  -1    0.04    0.06
 -22   0  -2    9.18    0.30
 -22   0  -2    8.93    0.29
  22   0   2    8.83    0.26
  22   0   2    9.18    0.26
 -22   0  -3   -0.01    0.08
 -22   0  -3    0.01    0.08
  22   0   3    0.01    0.05
 -22   0  -4    0.82    0.11
 -22   0  -4    0.95    0.12
  22   0   4    0.91    0.09
  22   0   4    0.93    0.09
 -22   0  -5    0.04    0.08
 -22   0  -5   -0.05    0.09
  22   0   5    0.02    0.05
  22   0   5    0.02    0.06
 -22   0  -6   19.42    0.41
 -22   0  -6   19.72    0.39
  22   0   6   18.83    0.35
 -22   0  -7   -0.02    0.07
 -22   0  -7    0.02    0.09
  22   0   7    0.03    0.06
 -22   0  -8    6.91    0.25
 -22   0  -8    6.87    0.24
  22   0   8    6.82    0.22
 -22   0  -9    0.03    0.08
 -22   0  -9   -0.02    0.10
 -22   0 -10    0.00    0.08
 -22   0 -10    0.03    0.09
 -22   0 -11   -0.05    0.08
 -22   0 -11   -0.06    0.10
 -22   0 -12    9.37    0.28
 -22   0 -12    9.07    0.27
 -22   0 -13   -0.02    0.10
 -22   0 -13   -0.09    0.11
 -22  -2  17    1.52    0.13
 -22   2  17    1.62    0.13
  22   2 -17    1.48    0.13
  22  -2 -17    1.47    0.14
  22   2 -17    1.58    0.13
 -22  -2  16    1.57    0.14
 -22   2  16    1.55    0.14
  22   2 -16    1.63    0.14
  22   2 -16    1.51    0.13
 -22  -2  15    3.91    0.18
 -22   2  15    3.83    0.17
  22   2 -15    4.26    0.18
  22   2 -15    3.95    0.17
 -22  -2  14    0.14    0.09
 -22   2  14    0.15    0.09
  22   2 -14    0.18    0.09
  22   2 -14    0.24    0.09
 -22  -2  13    0.78    0.11
 -22   2  13    0.91    0.11
  22   2 -13    0.82    0.11
  22  -2 -13    0.83    0.11
  22   2 -13    0.79    0.11
 -22  -2  12    8.17    0.24
 -22   2  12    8.35    0.24
 -22  -2  12    8.39    0.25
  22  -2 -12    8.07    0.23
  22  -2 -12    8.31    0.24
  22   2 -12    8.26    0.23
 -22  -2  11    1.32    0.12
 -22   2  11    1.28    0.12
 -22  -2  11    1.38    0.12
  22  -2 -11    1.33    0.11
  22  -2 -11    1.28    0.12
  22   2 -11    1.14    0.11
 -22  -2  10    0.08    0.07
 -22   2  10    0.11    0.08
 -22  -2  10    0.13    0.09
  22  -2 -10    0.16    0.06
  22  -2 -10    0.17    0.08
  22   2 -10    0.12    0.08
 -22  -2   9   17.97    0.35
 -22   2   9   17.85    0.35
 -22  -2   9   17.65    0.36
  22  -2  -9   17.90    0.34
  22   2  -9   15.83    0.31
 -22  -2   8    1.37    0.12
 -22   2   8    1.27    0.12
  22  -2  -8    1.27    0.11
  22  -2  -8    1.26    0.11
 -22  -2   7   13.63    0.30
  22  -2  -7   13.90    0.30
  22  -2  -7   13.33    0.30
 -22  -2   6   12.51    0.32
 -22   2   6   12.64    0.34
 -22  -2   6   13.07    0.36
  22  -2  -6   12.97    0.33
  22  -2  -6   12.98    0.32
  22   2  -6   13.46    0.34
 -22  -2   5   88.66    1.28
 -22  -2   5   86.16    1.27
 -22   2   5   89.08    1.31
  22  -2  -5   85.94    1.23
  22  -2  -5   87.50    1.26
 -22  -2   4   83.97    1.21
 -22  -2   4   83.45    1.25
 -22   2   4   81.09    1.22
  22  -2  -4   77.66    1.12
  22  -2  -4   81.11    1.18
 -22  -2   3    9.68    0.28
 -22  -2   3   10.04    0.31
 -22   2   3    9.60    0.30
  22  -2  -3    9.43    0.26
  22  -2  -3    9.45    0.27
  22   2  -3    9.51    0.28
 -22  -2   2   13.71    0.34
 -22   2   2   13.90    0.37
  22   2  -2   13.54    0.35
 -22  -2   2   13.68    0.37
 -22   2   2   14.27    0.38
  22  -2  -2   14.25    0.33
  22  -2  -2   14.11    0.33
  22   2  -2   13.60    0.34
 -22   2   2   13.56    0.33
 -22  -2   1    0.27    0.08
 -22   2   1    0.26    0.09
  22   2  -1    0.19    0.07
 -22  -2   1    0.27    0.09
 -22   2   1    0.21    0.08
  22  -2  -1    0.25    0.06
  22  -2  -1    0.22    0.07
  22   2  -1    0.16    0.07
 -22  -2   0    4.90    0.19
 -22   2   0    4.81    0.21
 -22  -2   0    4.80    0.21
 -22   2   0    4.59    0.20
  22  -2   0    4.97    0.18
  22   2   0    4.83    0.19
 -22  -2  -1    1.38    0.11
 -22  -2  -1    1.36    0.12
 -22   2  -1    1.32    0.13
 -22  -2  -1    1.24    0.13
 -22   2  -1    1.33    0.13
  22  -2   1    1.42    0.10
  22   2   1    1.38    0.12
 -22  -2  -2   11.61    0.31
 -22  -2  -2   11.85    0.33
 -22   2  -2   11.84    0.35
 -22  -2  -2   12.19    0.35
 -22   2  -2   12.13    0.34
  22  -2   2   11.99    0.30
  22   2   2   11.71    0.32
 -22  -2  -3    8.57    0.24
 -22  -2  -3    8.91    0.27
 -22   2  -3    8.90    0.28
 -22  -2  -3    8.94    0.28
 -22   2  -3    8.77    0.26
  22  -2   3    8.96    0.23
  22   2   3    8.90    0.25
 -22  -2  -4    0.97    0.09
 -22  -2  -4    1.05    0.11
 -22   2  -4    1.11    0.13
 -22  -2  -4    1.04    0.12
 -22   2  -4    0.99    0.12
  22  -2   4    1.01    0.09
  22   2   4    1.02    0.11
 -22  -2  -5    0.02    0.07
 -22   2  -5    0.04    0.08
 -22  -2  -5    0.10    0.09
 -22   2  -5    0.00    0.08
  22   2   5    0.04    0.08
 -22  -2  -6    0.04    0.07
 -22   2  -6   -0.01    0.08
 -22  -2  -6    0.00    0.08
 -22   2  -6    0.04    0.08
  22   2   6    0.00    0.07
 -22  -2  -7    0.01    0.08
 -22   2  -7    0.14    0.10
 -22  -2  -7    0.07    0.10
 -22   2  -7   -0.01    0.08
  22   2   7    0.04    0.07
 -22  -2  -8    0.21    0.09
 -22   2  -8    0.27    0.11
 -22  -2  -8    0.32    0.11
 -22   2  -8    0.35    0.11
  22   2   8    0.23    0.09
 -22  -2  -9    1.91    0.15
 -22   2  -9    1.94    0.16
 -22  -2  -9    1.85    0.15
 -22   2  -9    2.02    0.15
  22   2   9    2.07    0.14
 -22  -2 -10    7.68    0.25
 -22   2 -10    8.43    0.27
 -22  -2 -10    7.81    0.26
 -22   2 -10    8.00    0.25
  22   2  10    7.69    0.24
 -22   2 -11    1.22    0.14
 -22   2 -11    1.50    0.13
 -22   2 -12    3.42    0.19
 -22   2 -12    3.45    0.18
 -22   2 -13    5.05    0.20
 -22  -4  16    3.15    0.17
 -22   4  16    2.77    0.16
  22   4 -16    3.15    0.17
  22  -4 -16    2.99    0.16
  22   4 -16    3.03    0.16
 -22  -4  15    0.10    0.09
 -22   4  15    0.02    0.09
  22   4 -15    0.00    0.10
  22  -4 -15    0.00    0.09
  22   4 -15   -0.06    0.08
 -22  -4  14    0.74    0.11
 -22   4  14    0.75    0.11
  22   4 -14    0.75    0.12
  22  -4 -14    0.63    0.11
  22   4 -14    0.72    0.11
 -22  -4  13    0.96    0.12
 -22   4  13    0.93    0.11
  22   4 -13    1.15    0.13
  22  -4 -13    0.99    0.11
  22   4 -13    0.90    0.11
 -22  -4  12    0.18    0.09
 -22   4  12    0.23    0.09
 -22  -4  12    0.31    0.10
  22  -4 -12    0.17    0.09
  22   4 -12    0.18    0.09
 -22  -4  11    7.70    0.23
 -22   4  11    8.05    0.24
 -22  -4  11    7.87    0.25
  22  -4 -11    8.05    0.23
  22   4 -11    7.79    0.22
 -22  -4  10    0.59    0.10
 -22   4  10    0.55    0.10
 -22  -4  10    0.58    0.11
  22  -4 -10    0.47    0.10
  22   4 -10    0.48    0.10
 -22  -4   9    5.73    0.20
 -22   4   9    6.10    0.22
 -22  -4   9    5.59    0.21
  22  -4  -9    5.69    0.20
  22   4  -9    6.23    0.21
 -22  -4   8    4.79    0.19
 -22   4   8    4.99    0.19
  22  -4  -8    5.06    0.19
 -22  -4   7    5.99    0.21
 -22   4   7    5.69    0.21
  22  -4  -7    5.84    0.20
 -22  -4   6    8.88    0.25
 -22   4   6    8.76    0.26
  22  -4  -6    8.74    0.24
  22   4  -6    8.52    0.25
 -22  -4   5   64.65    0.68
 -22   4   5   66.20    0.74
 -22  -4   5   65.95    0.73
  22  -4  -5   65.47    0.68
 -22  -4   4    4.06    0.17
 -22   4   4    4.02    0.20
 -22  -4   4    4.22    0.20
  22  -4  -4    4.11    0.17
 -22  -4   3    1.83    0.12
 -22   4   3    1.71    0.15
 -22  -4   3    1.79    0.15
  22  -4  -3    1.76    0.12
  22   4  -3    1.70    0.14
 -22  -4   2    2.60    0.14
 -22   4   2    2.54    0.16
 -22  -4   2    2.53    0.16
  22  -4  -2    2.53    0.14
  22   4  -2    2.39    0.15
 -22  -4   1   17.45    0.33
 -22   4   1   17.80    0.39
 -22  -4   1   18.06    0.39
  22  -4  -1   17.22    0.33
  22   4  -1   18.25    0.36
 -22  -4   0   13.31    0.29
 -22   4   0   13.18    0.33
 -22  -4   0   13.08    0.33
 -22   4   0   12.59    0.31
  22  -4   0   13.04    0.29
  22   4   0   13.18    0.31
 -22  -4  -1    2.04    0.12
 -22   4  -1    2.23    0.16
 -22  -4  -1    2.01    0.16
 -22   4  -1    2.03    0.14
  22  -4   1    2.07    0.12
  22   4   1    2.16    0.15
 -22  -4  -2    3.38    0.15
 -22  -4  -2    3.29    0.18
 -22   4  -2    3.22    0.17
  22   4   2    3.42    0.17
 -22   4  -3    6.28    0.22
  22   4   3    6.51    0.23
 -22   4  -4    2.48    0.15
  22   4   4    2.45    0.15
 -22   4  -5    4.99    0.20
  22   4   5    4.99    0.20
 -22   4  -6    1.37    0.12
  22   4   6    1.27    0.13
 -22   4  -7    0.14    0.10
 -22  -4  -7    0.24    0.12
 -22   4  -7    0.11    0.08
  22   4   7    0.04    0.08
 -22   4  -8    3.63    0.20
 -22  -4  -8    3.80    0.20
 -22   4  -8    3.92    0.18
  22   4   8    3.49    0.17
 -22   4  -9    3.27    0.19
 -22  -4  -9    3.10    0.19
 -22   4  -9    3.23    0.16
  22   4   9    3.18    0.17
 -22   4 -10   15.45    0.37
 -22  -4 -10   14.94    0.35
 -22   4 -10   14.91    0.33
  22   4  10   14.93    0.34
 -22   4 -11    0.05    0.12
 -22  -4 -11    0.08    0.10
 -22   4 -11   -0.08    0.09
  22   4  11   -0.07    0.08
 -22   6  13    1.15    0.12
  22   6 -13    1.10    0.14
  22  -6 -13    0.86    0.12
  22   6 -13    1.02    0.12
 -22  -6  12    2.87    0.15
 -22   6  12    2.94    0.16
 -22  -6  12    3.03    0.17
  22  -6 -12    2.96    0.16
  22   6 -12    2.80    0.15
 -22  -6  11    7.48    0.23
 -22   6  11    7.57    0.23
 -22  -6  11    7.43    0.24
  22  -6 -11    7.23    0.23
  22   6 -11    7.74    0.23
 -22  -6  10   -0.02    0.07
 -22   6  10    0.04    0.08
 -22  -6  10    0.03    0.09
  22  -6 -10    0.05    0.08
  22   6 -10    0.03    0.10
 -22  -6   9    0.06    0.07
 -22   6   9    0.00    0.08
 -22  -6   9    0.06    0.10
  22  -6  -9    0.13    0.08
 -22   6   8    0.52    0.10
 -22  -6   8    0.47    0.11
  22  -6  -8    0.48    0.09
 -22   6   7    0.26    0.10
 -22  -6   7    0.20    0.10
  22  -6  -7    0.20    0.08
  22   6  -7    0.20    0.09
 -22   6   6    6.35    0.22
  22  -6  -6    6.24    0.21
  22   6  -6    6.10    0.21
 -22   6   5   17.20    0.37
  22  -6  -5   16.37    0.34
  22   6  -5   16.50    0.34
 -22   6   4    0.30    0.11
  22  -6  -4    0.22    0.08
  22   6  -4    0.35    0.11
 -22   6   3   25.15    0.45
  22  -6  -3   26.30    0.43
  22   6  -3   25.46    0.42
 -22   6   2    2.34    0.17
 -22   6   1    0.40    0.12
 -22  -6   1    0.35    0.11
 -22   6   0    1.82    0.15
 -22  -6   0    1.67    0.15
 -22   6  -1    0.14    0.11
 -22  -6  -1    0.05    0.11
  22   6   1    0.09    0.09
 -22   6  -2    2.21    0.17
 -22  -6  -2    2.16    0.16
  22   6   2    2.17    0.16
 -22   6  -3    3.03    0.19
 -22  -6  -3    2.99    0.18
  22   6   3    3.09    0.17
 -22   6  -4    0.17    0.11
 -22  -6  -4    0.07    0.09
  22   6   4    0.21    0.11
 -22   6  -5    0.04    0.11
 -22  -6  -5   -0.01    0.10
  22   6   5    0.08    0.09
 -22   6  -6    1.69    0.16
 -22  -6  -6    1.73    0.15
  22   6   6    1.66    0.14
 -22   6  -7    0.97    0.15
 -22  -6  -7    0.87    0.13
  22   6   7    1.06    0.13
 -22   6  -8    0.20    0.12
 -22  -6  -8    0.09    0.10
  22   6   8    0.03    0.11
 -22  -6  -9    0.03    0.11
  22   6   9   -0.06    0.10
 -22   8   7    0.46    0.11
 -22  -8   7    0.52    0.12
  22   8  -7    0.49    0.12
 -22   8   6    3.19    0.18
 -22  -8   6    3.16    0.19
  22   8  -6    3.47    0.18
 -22   8   5   18.90    0.38
 -22  -8   5   18.57    0.38
  22   8  -5   18.59    0.37
 -22   8   4    3.53    0.19
  22   8  -4    3.61    0.19
 -22   8   3    3.53    0.19
  22   8  -3    3.59    0.19
 -22   8   2    0.32    0.12
  22   8  -2    0.19    0.10
 -22   8   1    0.02    0.10
  22   8  -1   -0.08    0.11
 -22   8   0    2.13    0.17
 -22  -8   0    1.89    0.16
  22   8   0    2.11    0.16
 -22   8  -1    0.71    0.12
 -22  -8  -1    0.76    0.14
  22   8   1    0.86    0.13
 -22   8  -2    7.07    0.27
 -22  -8  -2    6.98    0.25
 -22   8  -3    2.87    0.19
 -22  -8  -3    2.95    0.19
 -23  -1  17    8.59    0.25
 -23   1  17    8.67    0.25
  23   1 -17    8.66    0.25
  23  -1 -17    9.07    0.26
  23   1 -17    9.26    0.25
 -23  -1  16    4.57    0.19
 -23   1  16    4.77    0.20
  23   1 -16    4.86    0.19
  23  -1 -16    4.62    0.19
  23   1 -16    4.89    0.19
 -23  -1  15    0.59    0.11
 -23   1  15    0.68    0.12
  23   1 -15    0.68    0.10
  23  -1 -15    0.53    0.10
  23   1 -15    0.63    0.10
 -23  -1  14    1.12    0.12
 -23   1  14    1.16    0.12
  23  -1 -14    1.04    0.11
  23   1 -14    1.18    0.11
  23   1 -14    1.12    0.12
 -23  -1  13    0.26    0.09
  23  -1 -13    0.31    0.08
  23   1 -13    0.26    0.09
  23   1 -13    0.27    0.10
 -23  -1  12    2.44    0.15
 -23  -1  12    2.38    0.15
  23  -1 -12    2.54    0.14
  23  -1 -12    2.45    0.15
  23   1 -12    2.48    0.14
 -23  -1  11    0.86    0.12
 -23  -1  11    0.81    0.10
  23  -1 -11    0.83    0.10
  23  -1 -11    1.01    0.11
 -23  -1  10    0.62    0.10
 -23   1  10    0.71    0.09
 -23  -1  10    0.62    0.11
  23  -1 -10    0.75    0.10
 -23  -1   9    2.82    0.16
 -23   1   9    2.74    0.15
 -23  -1   9    2.68    0.16
  23  -1  -9    2.76    0.15
 -23  -1   8    2.99    0.16
 -23   1   8    2.87    0.16
  23  -1  -8    3.05    0.15
  23   1  -8    2.91    0.15
 -23  -1   7    0.52    0.10
 -23   1   7    0.47    0.09
  23  -1  -7    0.47    0.08
  23  -1  -7    0.44    0.09
  23   1  -7    0.43    0.09
 -23  -1   6    3.49    0.17
 -23   1   6    3.24    0.16
 -23  -1   6    3.23    0.17
 -23   1   6    3.27    0.17
  23  -1  -6    3.31    0.16
  23  -1  -6    3.37    0.15
  23   1  -6    3.27    0.15
 -23  -1   5   42.13    0.72
 -23   1   5   40.91    0.72
 -23  -1   5   40.90    0.73
 -23   1   5   41.35    0.74
  23  -1  -5   40.68    0.69
  23  -1  -5   41.17    0.67
  23   1  -5   40.02    0.68
 -23  -1   4   20.75    0.44
 -23   1   4   21.12    0.46
 -23  -1   4   20.62    0.47
 -23   1   4   20.68    0.47
  23  -1  -4   20.58    0.42
  23   1  -4   22.08    0.45
 -23  -1   3   40.23    0.70
 -23   1   3   41.99    0.73
 -23  -1   3   41.34    0.75
 -23   1   3   41.28    0.74
  23  -1  -3   41.89    0.69
 -23  -1   2    5.34    0.20
 -23   1   2    5.42    0.22
 -23  -1   2    5.42    0.22
 -23   1   2    5.41    0.22
  23  -1  -2    5.35    0.18
 -23  -1   1    1.73    0.13
 -23   1   1    1.98    0.14
 -23  -1   1    1.70    0.14
 -23   1   1    1.78    0.14
  23  -1  -1    1.70    0.11
 -23   1   1    1.85    0.12
 -23  -1   0    1.15    0.12
 -23   1   0    1.24    0.12
 -23  -1   0    1.20    0.12
 -23   1   0    1.15    0.12
  23  -1   0    1.18    0.10
  23   1   0    1.14    0.10
 -23  -1  -1    1.88    0.14
 -23   1  -1    1.94    0.15
 -23  -1  -1    2.24    0.16
 -23   1  -1    1.96    0.15
  23  -1   1    2.01    0.12
  23   1   1    2.13    0.14
 -23  -1  -2    1.95    0.14
 -23   1  -2    2.00    0.14
 -23  -1  -2    2.09    0.15
 -23   1  -2    2.10    0.14
  23  -1   2    1.98    0.12
  23  -1   2    2.11    0.12
  23   1   2    2.02    0.13
 -23  -1  -3   24.34    0.45
 -23   1  -3   24.98    0.46
 -23  -1  -3   24.27    0.45
 -23   1  -3   25.09    0.45
  23  -1   3   25.66    0.40
  23   1   3   23.46    0.40
 -23  -1  -4    0.74    0.10
 -23   1  -4    0.81    0.12
 -23  -1  -4    0.75    0.12
 -23   1  -4    0.72    0.10
  23  -1   4    0.81    0.09
  23   1   4    0.70    0.09
 -23  -1  -5    2.02    0.15
 -23   1  -5    1.83    0.14
 -23  -1  -5    1.82    0.15
 -23   1  -5    1.85    0.14
  23   1   5    1.97    0.13
 -23  -1  -6    0.59    0.10
 -23   1  -6    0.57    0.11
 -23  -1  -6    0.55    0.11
 -23   1  -6    0.60    0.10
  23   1   6    0.64    0.10
 -23  -1  -7    3.33    0.18
 -23   1  -7    3.44    0.19
 -23  -1  -7    3.69    0.19
 -23   1  -7    3.42    0.18
  23   1   7    3.45    0.17
 -23  -1  -8    0.23    0.08
 -23   1  -8    0.27    0.11
 -23  -1  -8    0.23    0.10
 -23   1  -8    0.17    0.10
  23   1   8    0.16    0.08
 -23  -1  -9    0.05    0.08
 -23   1  -9    0.01    0.08
 -23  -1  -9   -0.04    0.10
 -23   1  -9    0.01    0.10
 -23  -1 -10    0.45    0.11
 -23   1 -10    0.48    0.10
 -23  -1 -10    0.35    0.11
 -23   1 -10    0.58    0.12
 -23  -1 -11    0.15    0.09
 -23   1 -11    0.12    0.10
 -23  -1 -11    0.10    0.11
 -23   1 -11    0.10    0.10
 -23  -1 -12    0.21    0.10
 -23   1 -12    0.26    0.10
 -23  -1 -12    0.31    0.11
 -23   1 -12    0.29    0.12
 -23  -3  16    1.85    0.14
 -23   3  16    1.64    0.14
  23   3 -16    1.94    0.15
  23  -3 -16    1.76    0.14
  23   3 -16    1.84    0.13
 -23  -3  15    3.02    0.16
 -23   3  15    2.74    0.15
  23   3 -15    2.69    0.16
  23  -3 -15    2.89    0.16
  23   3 -15    2.79    0.15
 -23  -3  14    1.22    0.12
 -23   3  14    1.20    0.12
  23   3 -14    1.37    0.13
  23  -3 -14    1.34    0.12
  23   3 -14    1.17    0.12
 -23  -3  13    0.19    0.08
 -23   3  13    0.14    0.09
  23  -3 -13    0.16    0.08
  23   3 -13    0.15    0.09
 -23  -3  12    1.81    0.13
 -23   3  12    1.93    0.14
 -23  -3  12    1.80    0.14
  23  -3 -12    1.85    0.13
  23   3 -12    1.84    0.13
 -23  -3  11    7.45    0.23
 -23   3  11    7.77    0.23
 -23  -3  11    7.49    0.24
  23  -3 -11    7.19    0.23
  23   3 -11    7.34    0.22
 -23  -3  10    9.25    0.25
 -23   3  10    9.51    0.26
 -23  -3  10    9.01    0.26
  23  -3 -10    9.57    0.26
  23   3 -10    9.04    0.24
 -23  -3   9   16.45    0.33
 -23   3   9   16.64    0.34
 -23  -3   9   16.75    0.36
  23  -3  -9   16.74    0.33
  23   3  -9   16.66    0.32
 -23  -3   8    0.03    0.08
 -23   3   8    0.09    0.08
  23  -3  -8    0.03    0.07
  23   3  -8    0.04    0.08
 -23  -3   7    0.38    0.09
 -23   3   7    0.41    0.10
  23  -3  -7    0.37    0.10
 -23  -3   6    0.15    0.08
 -23   3   6    0.20    0.09
  23  -3  -6    0.13    0.08
 -23  -3   5    2.04    0.13
 -23   3   5    2.15    0.16
 -23  -3   5    2.16    0.16
  23  -3  -5    2.16    0.13
 -23  -3   4   14.65    0.30
 -23   3   4   14.06    0.34
 -23  -3   4   14.69    0.35
  23  -3  -4   14.82    0.31
  23   3  -4   14.68    0.32
 -23  -3   3    6.97    0.22
 -23  -3   3    6.67    0.24
 -23   3   3    6.62    0.23
  23  -3  -3    6.95    0.20
  23  -3  -3    6.73    0.22
  23   3  -3    6.92    0.22
 -23  -3   2   14.11    0.31
 -23  -3   2   14.82    0.35
 -23   3   2   14.69    0.35
  23  -3  -2   14.15    0.29
  23  -3  -2   14.32    0.31
  23   3  -2   14.03    0.31
 -23  -3   1    0.00    0.06
 -23  -3   1   -0.02    0.09
 -23   3   1    0.12    0.08
  23  -3  -1    0.03    0.05
  23  -3  -1    0.04    0.06
  23   3  -1    0.05    0.08
 -23  -3   0    0.60    0.08
 -23  -3   0    0.62    0.11
 -23   3   0    0.57    0.09
  23  -3   0    0.58    0.08
  23   3   0    0.56    0.10
 -23  -3  -1    2.01    0.13
 -23   3  -1    1.81    0.15
 -23  -3  -1    1.88    0.15
 -23   3  -1    2.07    0.15
  23  -3   1    2.10    0.12
  23   3   1    1.94    0.14
 -23  -3  -2    4.54    0.19
 -23   3  -2    4.35    0.21
 -23  -3  -2    4.62    0.21
 -23   3  -2    4.60    0.19
  23  -3   2    4.47    0.17
  23   3   2    4.67    0.20
 -23  -3  -3    1.69    0.13
 -23   3  -3    1.70    0.15
 -23  -3  -3    1.82    0.16
 -23   3  -3    1.80    0.13
  23   3   3    1.79    0.14
 -23  -3  -4    1.98    0.13
 -23   3  -4    2.16    0.16
 -23  -3  -4    2.06    0.16
 -23   3  -4    1.94    0.14
  23   3   4    2.06    0.14
 -23  -3  -5    0.22    0.07
 -23   3  -5    0.18    0.11
 -23  -3  -5    0.26    0.12
 -23   3  -5    0.26    0.09
  23   3   5    0.22    0.09
 -23  -3  -6    0.78    0.10
 -23   3  -6    0.67    0.12
 -23  -3  -6    0.81    0.13
 -23   3  -6    0.76    0.11
  23   3   6    0.83    0.11
 -23   3  -7    1.21    0.14
 -23  -3  -7    1.20    0.14
 -23   3  -7    1.13    0.12
  23   3   7    1.08    0.11
 -23   3  -8    0.38    0.12
 -23   3  -8    0.28    0.10
  23   3   8    0.31    0.10
 -23   3  -9    8.81    0.28
 -23   3  -9    8.40    0.25
  23   3   9    8.48    0.25
 -23   3 -10    0.14    0.12
 -23   3 -10    0.16    0.09
  23   3  10    0.14    0.09
 -23   3 -11    7.91    0.27
 -23  -3 -11    7.45    0.26
 -23   3 -11    7.58    0.24
  23   3  11    7.45    0.24
 -23   3 -12    0.12    0.11
 -23  -3 -12    0.05    0.10
 -23   3 -12    0.07    0.10
 -23  -5  14    1.60    0.14
 -23   5  14    1.53    0.13
  23   5 -14    1.63    0.15
  23  -5 -14    1.55    0.14
  23   5 -14    1.36    0.12
 -23  -5  13    0.11    0.08
 -23   5  13    0.04    0.08
  23  -5 -13    0.10    0.10
  23   5 -13    0.10    0.09
 -23  -5  12   -0.06    0.07
 -23   5  12    0.04    0.09
 -23  -5  12   -0.06    0.10
  23  -5 -12    0.04    0.09
  23   5 -12   -0.06    0.09
 -23  -5  11    5.37    0.20
 -23   5  11    5.29    0.20
 -23  -5  11    5.30    0.22
  23  -5 -11    5.35    0.20
  23   5 -11    5.57    0.19
 -23  -5  10    0.83    0.11
 -23   5  10    0.71    0.11
 -23  -5  10    0.62    0.11
  23  -5 -10    0.77    0.11
  23   5 -10    0.70    0.11
 -23  -5   9    0.75    0.10
 -23   5   9    0.87    0.11
 -23  -5   9    0.93    0.12
  23  -5  -9    0.88    0.10
  23   5  -9    0.93    0.12
 -23  -5   8    0.33    0.08
 -23   5   8    0.44    0.11
 -23  -5   8    0.45    0.11
  23  -5  -8    0.28    0.09
 -23  -5   7    0.35    0.08
 -23   5   7    0.44    0.10
  23  -5  -7    0.40    0.09
 -23  -5   6   20.21    0.37
 -23   5   6   21.17    0.40
  23  -5  -6   20.33    0.36
  23   5  -6   21.05    0.38
 -23  -5   5    5.49    0.21
 -23   5   5    6.06    0.22
  23  -5  -5    5.95    0.20
  23   5  -5    5.66    0.21
 -23  -5   4    3.65    0.16
 -23   5   4    3.69    0.19
 -23  -5   4    3.64    0.19
  23  -5  -4    3.59    0.16
 -23  -5   3    3.88    0.17
 -23   5   3    4.33    0.21
 -23  -5   3    4.13    0.20
  23  -5  -3    3.94    0.17
 -23   5   2    1.19    0.13
 -23  -5   2    1.18    0.14
  23  -5  -2    1.04    0.10
  23   5  -2    1.05    0.12
 -23   5   1    0.58    0.11
 -23  -5   1    0.53    0.11
  23  -5  -1    0.45    0.08
  23   5  -1    0.55    0.10
 -23   5   0    1.61    0.15
  23   5   0    1.69    0.13
 -23   5  -1    2.91    0.18
  23   5   1    2.55    0.15
 -23   5  -2   12.32    0.33
  23   5   2   11.98    0.30
 -23   5  -3    1.43    0.15
  23   5   3    1.36    0.13
 -23   5  -4   10.16    0.30
 -23  -5  -4   10.18    0.30
  23   5   4    9.98    0.28
 -23   5  -5    0.26    0.10
 -23  -5  -5    0.31    0.10
  23   5   5    0.37    0.11
 -23  -5  -6    0.05    0.10
  23   5   6    0.05    0.09
 -23  -5  -7    0.39    0.12
 -23   5  -7    0.44    0.09
  23   5   7    0.37    0.10
 -23  -5  -8    1.16    0.15
 -23   5  -8    0.85    0.12
  23   5   8    0.94    0.12
 -23  -5  -9    0.02    0.10
 -23   5  -9    0.01    0.08
  23   5   9   -0.12    0.10
 -23   7  10    0.06    0.09
 -23  -7  10    0.00    0.11
  23  -7 -10    0.02    0.09
 -23   7   9    0.04    0.09
 -23  -7   9    0.02    0.10
  23  -7  -9    0.00    0.08
 -23   7   8    0.16    0.10
 -23  -7   8    0.21    0.11
  23  -7  -8    0.13    0.09
 -23   7   7    0.12    0.10
  23  -7  -7    0.03    0.08
  23   7  -7    0.00    0.09
 -23   7   6   10.01    0.28
  23  -7  -6    9.71    0.25
  23   7  -6    9.49    0.26
 -23   7   5   10.68    0.29
  23   7  -5   10.54    0.28
 -23   7   4   18.09    0.38
  23   7  -4   17.18    0.35
 -23   7   3   13.79    0.33
  23   7  -3   13.73    0.32
 -23   7   2    5.39    0.23
 -23  -7   2    5.25    0.22
  23   7  -2    4.92    0.21
 -23   7   1    0.13    0.11
 -23  -7   1    0.36    0.12
 -23   7   0    2.22    0.16
 -23  -7   0    2.42    0.17
 -23   7  -1    0.10    0.11
 -23  -7  -1    0.14    0.11
  23   7   1    0.08    0.11
 -23   7  -2   15.26    0.37
 -23  -7  -2   14.56    0.35
  23   7   2   15.11    0.34
 -23   7  -3    2.14    0.18
 -23  -7  -3    2.05    0.17
  23   7   3    2.09    0.16
 -23   7  -4   11.75    0.33
 -23  -7  -4   12.31    0.33
  23   7   4   12.01    0.30
 -23   7  -5    0.95    0.14
 -23  -7  -5    0.96    0.14
  23   7   5    1.04    0.14
  24   0 -17    0.03    0.10
  24   0 -16    0.47    0.11
 -24   0  15    0.00    0.09
  24   0 -15   -0.02    0.07
  24   0 -15   -0.02    0.09
 -24   0  14    1.24    0.12
  24   0 -14    1.24    0.11
  24   0 -14    1.30    0.12
 -24   0  13   -0.02    0.08
  24   0 -13    0.01    0.07
 -24   0  12   11.21    0.28
  24   0 -12   11.24    0.28
 -24   0  11    0.01    0.08
 -24   0  11   -0.05    0.08
  24   0 -11    0.04    0.08
 -24   0  10    1.22    0.12
 -24   0  10    1.23    0.11
  24   0 -10    1.18    0.11
 -24   0   9    0.05    0.09
 -24   0   9    0.07    0.09
  24   0  -9    0.09    0.08
 -24   0   8    6.59    0.22
  24   0  -8    6.65    0.21
 -24   0   7    0.06    0.08
  24   0  -7    0.03    0.08
 -24   0   6   14.00    0.31
 -24   0   6   13.72    0.33
  24   0  -6   13.84    0.29
 -24   0   5   -0.04    0.08
 -24   0   5    0.00    0.07
  24   0  -5    0.01    0.07
 -24   0   4    4.45    0.19
 -24   0   4    4.24    0.19
  24   0  -4    4.42    0.18
 -24   0   3    0.03    0.07
 -24   0   3    0.04    0.08
  24   0  -3    0.01    0.06
 -24   0   2    3.60    0.17
 -24   0   2    3.50    0.18
  24   0  -2    3.69    0.16
 -24   0   1    0.06    0.07
 -24   0   1    0.05    0.07
  24   0  -1    0.01    0.06
 -24   0   0   39.48    0.72
 -24   0   0   40.10    0.74
 -24   0  -1    0.06    0.07
 -24   0  -1   -0.01    0.07
 -24   0  -2   33.06    0.52
 -24   0  -2   34.10    0.52
 -24   0  -3    0.02    0.08
 -24   0  -3   -0.03    0.08
  24   0   3    0.00    0.06
 -24   0  -4    0.04    0.08
 -24   0  -4    0.09    0.08
  24   0   4    0.05    0.06
 -24   0  -5    0.00    0.07
 -24   0  -5   -0.03    0.08
  24   0   5    0.04    0.06
 -24   0  -6    6.20    0.24
 -24   0  -6    6.03    0.23
  24   0   6    5.89    0.20
 -24   0  -7    0.00    0.09
 -24   0  -7   -0.06    0.08
 -24   0  -8    0.44    0.09
 -24   0  -8    0.45    0.10
 -24   0  -9    0.02    0.09
 -24   0  -9    0.01    0.10
 -24   0 -10    0.01    0.09
 -24   0 -10   -0.01    0.10
 -24   0 -11    0.02    0.09
 -24   0 -11    0.00    0.10
 -24   0 -12    0.63    0.12
 -24   0 -12    0.74    0.12
 -24  -2  16    1.62    0.14
 -24   2  16    1.55    0.14
  24   2 -16    1.52    0.13
  24   2 -16    1.70    0.14
 -24  -2  15    5.87    0.21
 -24   2  15    6.11    0.22
  24   2 -15    6.47    0.22
  24  -2 -15    6.00    0.21
  24   2 -15    6.41    0.21
 -24  -2  14    3.43    0.16
 -24   2  14    3.72    0.17
  24   2 -14    3.83    0.18
  24  -2 -14    3.55    0.17
  24   2 -14    3.70    0.17
 -24  -2  13    0.78    0.11
 -24   2  13    0.70    0.10
  24  -2 -13    0.83    0.11
  24   2 -13    0.64    0.10
 -24  -2  12    0.02    0.08
 -24  -2  12   -0.02    0.08
  24  -2 -12    0.04    0.09
  24   2 -12    0.01    0.09
 -24  -2  11    6.38    0.22
 -24   2  11    6.63    0.22
 -24  -2  11    6.01    0.22
  24  -2 -11    6.05    0.21
  24   2 -11    6.07    0.20
 -24  -2  10    5.06    0.19
 -24   2  10    5.10    0.20
 -24  -2  10    5.03    0.20
  24  -2 -10    4.93    0.19
 -24  -2   9    1.36    0.11
 -24  -2   9    1.20    0.12
  24  -2  -9    1.21    0.11
 -24  -2   8    9.62    0.26
  24  -2  -8    9.42    0.25
 -24  -2   7   12.73    0.29
  24  -2  -7   13.17    0.29
  24   2  -7   12.78    0.29
 -24  -2   6    4.27    0.17
 -24  -2   6    4.22    0.19
 -24   2   6    4.11    0.18
  24  -2  -6    4.33    0.17
  24   2  -6    4.53    0.19
 -24  -2   5    7.53    0.22
 -24  -2   5    7.18    0.24
 -24   2   5    7.29    0.24
  24  -2  -5    7.19    0.21
  24  -2  -5    7.57    0.22
 -24  -2   4    0.25    0.08
 -24   2   4    0.28    0.09
 -24  -2   4    0.90    0.12
 -24   2   4    0.31    0.08
  24  -2  -4    0.36    0.07
  24  -2  -4    0.40    0.09
 -24  -2   3    1.02    0.10
 -24   2   3    1.03    0.12
 -24  -2   3    1.02    0.12
 -24   2   3    1.07    0.11
  24  -2  -3    1.02    0.09
  24  -2  -3    1.02    0.10
 -24  -2   2    0.47    0.09
 -24   2   2    0.53    0.10
 -24  -2   2    0.49    0.10
 -24   2   2    0.47    0.10
  24  -2  -2    0.50    0.08
  24   2  -2    0.44    0.08
 -24  -2   1    2.85    0.15
 -24   2   1    2.99    0.17
 -24  -2   1    3.13    0.18
 -24   2   1    3.07    0.17
  24  -2  -1    2.85    0.14
  24   2  -1    3.05    0.15
 -24  -2   0    1.75    0.13
 -24   2   0    1.68    0.14
 -24  -2   0    1.63    0.14
 -24   2   0    1.80    0.14
  24  -2   0    1.76    0.11
  24   2   0    1.75    0.13
 -24  -2  -1    0.27    0.08
 -24   2  -1    0.34    0.10
 -24  -2  -1    0.29    0.11
 -24   2  -1    0.35    0.09
  24  -2   1    0.38    0.07
  24   2   1    0.29    0.08
 -24  -2  -2   21.70    0.41
 -24   2  -2   20.50    0.42
 -24  -2  -2   22.29    0.47
 -24   2  -2   21.02    0.41
  24  -2   2   21.27    0.35
  24   2   2   20.64    0.39
 -24  -2  -3    0.55    0.10
 -24   2  -3    0.55    0.11
 -24  -2  -3    0.51    0.12
 -24   2  -3    0.58    0.11
  24  -2   3    0.52    0.08
  24   2   3    0.56    0.10
 -24  -2  -4    0.00    0.07
 -24   2  -4   -0.02    0.08
 -24  -2  -4    0.01    0.08
 -24   2  -4    0.00    0.07
  24   2   4   -0.04    0.07
 -24  -2  -5    0.74    0.11
 -24   2  -5    0.85    0.12
 -24  -2  -5    0.64    0.12
 -24   2  -5    0.72    0.10
  24   2   5    0.69    0.10
 -24  -2  -6    5.18    0.21
 -24   2  -6    5.74    0.23
 -24  -2  -6    5.40    0.23
 -24   2  -6    5.62    0.22
  24   2   6    5.23    0.20
 -24  -2  -7    0.21    0.09
 -24   2  -7    0.18    0.11
 -24  -2  -7    0.16    0.10
 -24   2  -7    0.11    0.10
  24   2   7    0.13    0.08
 -24  -2  -8    0.50    0.11
 -24   2  -8    0.49    0.12
 -24  -2  -8    0.67    0.11
 -24   2  -8    0.53    0.11
  24   2   8    0.54    0.10
 -24   2  -9    2.55    0.18
 -24  -2  -9    2.47    0.18
 -24   2  -9    2.50    0.16
  24   2   9    2.41    0.15
 -24   2 -10    2.12    0.16
 -24  -2 -10    2.05    0.16
 -24   2 -10    1.89    0.15
 -24   2 -11    3.11    0.18
 -24  -2 -11    3.18    0.19
 -24   2 -11    3.21    0.17
 -24   2 -12    1.87    0.14
 -24  -4  15    1.29    0.13
 -24   4  15    1.43    0.14
  24   4 -15    1.31    0.14
  24  -4 -15    1.37    0.13
  24   4 -15    1.27    0.13
 -24  -4  14    7.93    0.23
 -24   4  14    8.30    0.24
  24   4 -14    8.96    0.27
  24  -4 -14    8.06    0.24
  24   4 -14    8.37    0.24
 -24  -4  13    0.88    0.12
 -24   4  13    0.94    0.12
 -24  -4  13    0.94    0.12
  24  -4 -13    1.06    0.12
  24   4 -13    0.91    0.12
 -24  -4  12    0.50    0.11
 -24   4  12    0.47    0.10
 -24  -4  12    0.49    0.11
  24  -4 -12    0.46    0.10
  24   4 -12    0.47    0.10
 -24  -4  11    0.47    0.09
 -24   4  11    0.58    0.11
 -24  -4  11    0.57    0.11
  24  -4 -11    0.59    0.11
  24   4 -11    0.63    0.11
 -24  -4  10    0.67    0.09
 -24   4  10    0.64    0.11
 -24  -4  10    0.63    0.11
  24  -4 -10    0.51    0.10
  24   4 -10    0.77    0.11
 -24  -4   9    0.24    0.08
 -24   4   9    0.19    0.09
 -24  -4   9    0.18    0.10
  24  -4  -9    0.22    0.09
  24   4  -9    0.15    0.10
 -24  -4   8   16.87    0.34
 -24   4   8   16.85    0.34
  24  -4  -8   16.81    0.34
  24   4  -8   17.52    0.35
 -24  -4   7    8.45    0.24
 -24   4   7    8.38    0.25
  24  -4  -7    8.35    0.24
 -24  -4   6    7.80    0.26
 -24   4   6    7.77    0.24
  24  -4  -6    8.22    0.23
 -24  -4   5    3.53    0.16
 -24   4   5    3.88    0.19
 -24  -4   5    3.56    0.18
  24  -4  -5    3.50    0.16
 -24  -4   4    0.22    0.07
 -24   4   4    0.33    0.10
 -24  -4   4    0.24    0.11
  24  -4  -4    0.30    0.08
  24   4  -4    0.31    0.09
 -24  -4   3    4.34    0.17
 -24   4   3    4.54    0.20
 -24  -4   3    4.34    0.20
  24  -4  -3    4.45    0.18
  24   4  -3    4.26    0.18
 -24  -4   2    2.48    0.14
 -24   4   2    2.53    0.17
 -24  -4   2    2.47    0.17
  24  -4  -2    2.63    0.14
  24   4  -2    2.57    0.16
 -24  -4   1    5.92    0.20
 -24   4   1    5.87    0.23
 -24  -4   1    5.67    0.23
  24  -4  -1    5.64    0.20
  24   4  -1    5.84    0.21
 -24  -4   0   12.17    0.28
 -24   4   0   11.10    0.31
 -24  -4   0   11.86    0.32
  24  -4   0   12.02    0.27
  24   4   0   12.06    0.29
 -24  -4  -1    0.40    0.11
  24   4   1    0.45    0.10
 -24  -4  -2    5.23    0.22
 -24   4  -2    5.16    0.20
  24   4   2    5.18    0.21
 -24  -4  -3    3.49    0.19
 -24   4  -3    3.61    0.17
  24   4   3    3.65    0.18
 -24  -4  -4    0.19    0.10
 -24   4  -4    0.24    0.09
  24   4   4    0.22    0.11
 -24   4  -5    1.47    0.15
 -24   4  -5    1.42    0.13
  24   4   5    1.58    0.13
 -24   4  -6    3.23    0.19
 -24   4  -6    3.25    0.17
  24   4   6    3.21    0.18
 -24   4  -7    2.11    0.16
 -24   4  -7    2.18    0.15
  24   4   7    2.14    0.14
 -24   4  -8    0.82    0.13
 -24  -4  -8    0.67    0.12
 -24   4  -8    0.84    0.12
  24   4   8    0.79    0.12
 -24   4  -9    2.22    0.17
 -24  -4  -9    2.22    0.17
 -24   4  -9    2.35    0.15
  24   4   9    2.12    0.15
 -24   4 -10    0.92    0.14
 -24  -4 -10    0.93    0.14
 -24   4 -10    0.95    0.13
  24   4  10    0.92    0.12
 -24   6  12    4.22    0.18
 -24  -6  12    4.19    0.19
  24  -6 -12    4.19    0.18
  24   6 -12    3.89    0.17
 -24   6  11    0.09    0.09
 -24  -6  11    0.14    0.10
  24  -6 -11    0.05    0.09
  24   6 -11    0.07    0.10
 -24   6  10    0.41    0.10
 -24  -6  10    0.41    0.11
  24  -6 -10    0.32    0.10
  24   6 -10    0.43    0.11
 -24   6   9    0.54    0.10
 -24  -6   9    0.51    0.11
  24  -6  -9    0.51    0.10
 -24   6   8    1.43    0.13
 -24  -6   8    1.34    0.14
  24  -6  -8    1.38    0.12
 -24   6   7    0.25    0.09
  24  -6  -7    0.21    0.09
  24   6  -7    0.12    0.10
 -24   6   6    0.78    0.11
  24  -6  -6    0.72    0.10
  24   6  -6    0.74    0.12
 -24   6   5   24.73    0.45
  24  -6  -5   24.46    0.40
  24   6  -5   24.98    0.41
 -24   6   4    0.25    0.11
  24  -6  -4    0.28    0.08
  24   6  -4    0.27    0.11
 -24   6   3    3.92    0.20
 -24   6   2   11.50    0.31
 -24   6   1    1.71    0.16
  24   6  -1    1.67    0.13
 -24   6   0    4.78    0.21
  24   6   0    4.88    0.20
 -24   6  -1   16.16    0.37
 -24  -6  -1   16.81    0.38
  24   6   1   17.05    0.36
 -24   6  -2    0.06    0.11
 -24  -6  -2    0.05    0.11
  24   6   2    0.05    0.11
 -24   6  -3    3.16    0.19
 -24  -6  -3    3.06    0.19
  24   6   3    3.04    0.18
 -24   6  -4    1.52    0.16
 -24  -6  -4    1.61    0.14
  24   6   4    1.63    0.14
 -24   6  -5    0.53    0.13
 -24  -6  -5    0.42    0.13
  24   6   5    0.64    0.11
 -24   6  -6   -0.03    0.11
 -24  -6  -6    0.02    0.10
  24   6   6    0.03    0.10
 -24   6  -7    2.56    0.17
 -24  -6  -7    2.50    0.17
  24   6   7    2.64    0.16
 -25  -1  16    0.18    0.10
 -25   1  16    0.27    0.10
  25   1 -16    0.15    0.09
  25   1 -16    0.17    0.10
 -25  -1  15    0.10    0.09
  25   1 -15    0.06    0.08
  25   1 -15    0.11    0.09
 -25  -1  14    0.02    0.09
  25   1 -14    0.07    0.09
  25  -1 -14    0.04    0.08
  25   1 -14    0.11    0.09
 -25  -1  13    4.08    0.18
  25  -1 -13    3.92    0.17
  25   1 -13    3.88    0.18
  25  -1 -13    4.19    0.17
  25   1 -13    3.89    0.17
 -25  -1  12    7.21    0.22
 -25  -1  12    6.90    0.22
  25  -1 -12    7.27    0.23
  25  -1 -12    7.37    0.22
 -25  -1  11    2.35    0.14
 -25  -1  11    2.25    0.15
  25  -1 -11    1.98    0.13
 -25  -1  10    0.93    0.11
 -25   1  10    0.70    0.10
 -25  -1  10    0.80    0.11
  25  -1 -10    1.00    0.12
  25   1 -10    0.85    0.10
 -25  -1   9    1.37    0.12
 -25   1   9    1.30    0.12
 -25  -1   9    1.29    0.12
  25  -1  -9    1.33    0.12
  25   1  -9    1.29    0.11
 -25  -1   8    5.43    0.20
 -25   1   8    5.43    0.20
  25  -1  -8    5.55    0.20
  25   1  -8    5.46    0.19
 -25  -1   7    0.28    0.08
 -25   1   7    0.35    0.10
  25  -1  -7    0.28    0.09
  25   1  -7    0.29    0.08
 -25  -1   6    0.01    0.07
 -25   1   6    0.06    0.08
 -25  -1   6    0.11    0.08
 -25   1   6    0.02    0.08
  25  -1  -6    0.09    0.08
  25   1  -6    0.03    0.07
 -25  -1   5    0.58    0.09
 -25   1   5    0.74    0.11
 -25  -1   5    0.60    0.10
 -25   1   5    0.64    0.10
  25  -1  -5    0.72    0.10
  25   1  -5    0.61    0.09
 -25  -1   4    0.97    0.11
 -25   1   4    0.91    0.11
 -25  -1   4    0.94    0.11
 -25   1   4    0.97    0.11
  25  -1  -4    0.95    0.10
  25   1  -4    1.06    0.10
 -25  -1   3   11.88    0.29
 -25   1   3   12.49    0.31
 -25  -1   3   12.73    0.33
 -25   1   3   12.13    0.32
  25  -1  -3   12.24    0.27
  25   1  -3   12.74    0.29
 -25  -1   2    0.07    0.07
 -25   1   2    0.08    0.08
 -25  -1   2    0.14    0.08
 -25   1   2   -0.01    0.08
  25  -1  -2    0.04    0.07
 -25  -1   1    1.72    0.13
 -25   1   1    1.72    0.14
 -25  -1   1    1.64    0.14
 -25   1   1    1.81    0.14
  25  -1  -1    1.64    0.11
 -25  -1   0    0.13    0.08
 -25   1   0   -0.04    0.09
 -25  -1   0   -0.01    0.08
 -25   1   0    0.05    0.08
  25  -1   0    0.06    0.05
  25   1   0   -0.01    0.07
 -25  -1  -1   12.83    0.31
 -25   1  -1   12.26    0.32
 -25  -1  -1   13.87    0.35
 -25   1  -1   12.46    0.32
  25  -1   1   12.36    0.27
  25   1   1   12.75    0.29
 -25  -1  -2    0.84    0.10
 -25   1  -2    0.82    0.12
 -25  -1  -2    0.91    0.12
 -25   1  -2    0.77    0.10
  25  -1   2    0.81    0.09
  25   1   2    0.78    0.10
 -25  -1  -3    2.88    0.17
 -25   1  -3    2.74    0.17
 -25  -1  -3    2.86    0.18
 -25   1  -3    2.73    0.16
  25  -1   3    2.72    0.14
  25   1   3    2.75    0.15
 -25  -1  -4    0.23    0.09
 -25   1  -4    0.24    0.09
 -25  -1  -4    0.21    0.10
 -25   1  -4    0.19    0.08
  25  -1   4    0.26    0.07
  25   1   4    0.23    0.07
 -25  -1  -5    6.90    0.24
 -25   1  -5    7.30    0.25
 -25  -1  -5    7.06    0.25
 -25   1  -5    7.20    0.25
  25   1   5    6.90    0.22
 -25  -1  -6    0.35    0.09
 -25   1  -6    0.37    0.10
 -25  -1  -6    0.27    0.11
 -25   1  -6    0.25    0.10
  25   1   6    0.31    0.08
 -25  -1  -7    6.30    0.24
 -25   1  -7    6.39    0.24
 -25  -1  -7    6.43    0.24
 -25   1  -7    6.46    0.23
  25   1   7    6.71    0.22
 -25  -1  -8    0.18    0.10
 -25   1  -8    0.18    0.10
 -25  -1  -8    0.21    0.11
 -25   1  -8    0.10    0.11
 -25  -1  -9   27.09    0.48
 -25   1  -9   28.25    0.48
 -25  -1  -9   27.56    0.47
 -25   1  -9   27.81    0.47
 -25  -1 -10    0.36    0.11
 -25   1 -10    0.43    0.11
 -25  -1 -10    0.39    0.13
 -25   1 -10    0.34    0.12
 -25   1 -11    0.65    0.12
 -25  -1 -11    0.83    0.13
 -25   1 -11    0.75    0.12
 -25  -3  15    3.01    0.16
 -25   3  15    3.30    0.16
  25   3 -15    3.04    0.17
  25  -3 -15    2.98    0.17
  25   3 -15    3.02    0.16
 -25  -3  14    2.82    0.16
 -25   3  14    2.93    0.16
  25   3 -14    2.89    0.16
  25  -3 -14    2.93    0.16
  25   3 -14    2.65    0.15
 -25  -3  13    6.50    0.21
 -25   3  13    6.43    0.21
 -25  -3  13    6.63    0.23
  25  -3 -13    6.66    0.22
  25   3 -13    6.31    0.21
 -25  -3  12    2.44    0.15
 -25   3  12    2.53    0.15
 -25  -3  12    2.60    0.15
  25  -3 -12    2.50    0.15
  25   3 -12    2.64    0.14
 -25  -3  11    5.37    0.20
 -25   3  11    5.28    0.20
 -25  -3  11    5.45    0.21
  25  -3 -11    5.34    0.20
  25   3 -11    5.06    0.19
 -25  -3  10    2.35    0.15
 -25   3  10    2.21    0.14
 -25  -3  10    2.09    0.15
  25  -3 -10    2.18    0.15
  25   3 -10    2.23    0.14
 -25  -3   9    7.45    0.23
 -25   3   9    7.82    0.24
 -25  -3   9    7.75    0.25
  25  -3  -9    7.77    0.23
 -25  -3   8    2.54    0.15
 -25   3   8    2.44    0.15
  25  -3  -8    2.52    0.15
 -25  -3   7   19.11    0.35
 -25   3   7   18.84    0.36
  25  -3  -7   19.21    0.36
 -25  -3   6    1.02    0.10
 -25   3   6    1.14    0.12
 -25  -3   6    1.03    0.12
  25  -3  -6    1.26    0.12
 -25  -3   5    3.95    0.16
 -25  -3   5    3.88    0.20
  25  -3  -5    4.13    0.17
 -25  -3   4    3.13    0.15
 -25  -3   4    3.27    0.18
  25  -3  -4    3.28    0.15
 -25  -3   3    3.70    0.16
 -25  -3   3    3.61    0.19
  25  -3  -3    3.83    0.17
  25   3  -3    3.76    0.17
 -25  -3   2    0.43    0.08
 -25  -3   2    0.45    0.10
  25  -3  -2    0.42    0.08
  25   3  -2    0.59    0.10
 -25  -3   1    0.02    0.06
 -25   3   1    0.05    0.09
 -25  -3   1    0.07    0.08
 -25   3   1    0.03    0.08
  25  -3  -1    0.03    0.06
  25   3  -1    0.08    0.09
 -25  -3   0   -0.01    0.06
 -25   3   0    0.02    0.09
 -25  -3   0   -0.03    0.10
 -25   3   0    0.05    0.08
  25  -3   0    0.00    0.06
  25   3   0    0.02    0.08
 -25  -3  -1    0.08    0.06
 -25   3  -1    0.12    0.11
 -25  -3  -1    0.08    0.11
 -25   3  -1    0.10    0.09
  25  -3   1    0.08    0.06
  25   3   1    0.13    0.09
 -25  -3  -2    6.88    0.22
 -25   3  -2    7.02    0.26
 -25  -3  -2    6.54    0.24
 -25   3  -2    6.96    0.24
  25   3   2    7.07    0.23
 -25  -3  -3   15.77    0.34
 -25   3  -3   16.82    0.38
 -25  -3  -3   16.43    0.38
 -25   3  -3   16.09    0.35
  25   3   3   16.88    0.34
 -25  -3  -4    0.32    0.08
 -25   3  -4    0.39    0.12
 -25  -3  -4    0.32    0.12
 -25   3  -4    0.33    0.10
  25   3   4    0.25    0.10
 -25   3  -5    1.14    0.13
 -25  -3  -5    1.06    0.14
 -25   3  -5    1.11    0.13
  25   3   5    1.17    0.12
 -25   3  -6    0.65    0.12
 -25  -3  -6    0.72    0.13
 -25   3  -6    0.74    0.12
  25   3   6    0.80    0.11
 -25   3  -7    2.41    0.17
 -25  -3  -7    2.19    0.17
 -25   3  -7    2.21    0.16
  25   3   7    2.19    0.15
 -25   3  -8    7.48    0.26
 -25  -3  -8    7.80    0.27
 -25   3  -8    7.64    0.24
  25   3   8    7.41    0.24
 -25   3  -9   17.99    0.39
 -25   3  -9   17.26    0.35
  25   3   9   17.58    0.36
 -25   3 -10    5.67    0.24
 -25   3 -10    5.71    0.22
 -25  -5  13    0.26    0.09
 -25   5  13    0.25    0.10
 -25  -5  13    0.28    0.10
  25  -5 -13    0.27    0.11
  25   5 -13    0.20    0.10
 -25  -5  12    1.77    0.13
 -25   5  12    1.82    0.15
 -25  -5  12    1.44    0.14
  25  -5 -12    1.55    0.13
  25   5 -12    1.71    0.13
 -25  -5  11    8.63    0.25
 -25   5  11    8.71    0.24
 -25  -5  11    8.63    0.26
  25  -5 -11    8.33    0.24
  25   5 -11    8.56    0.23
 -25  -5  10    0.11    0.08
 -25   5  10    0.14    0.09
 -25  -5  10    0.18    0.10
  25  -5 -10    0.17    0.09
  25   5 -10    0.09    0.09
 -25  -5   9    1.09    0.11
 -25   5   9    1.17    0.12
 -25  -5   9    1.24    0.13
  25  -5  -9    1.18    0.11
  25   5  -9    1.28    0.13
 -25  -5   8   13.96    0.31
 -25   5   8   13.89    0.31
  25  -5  -8   14.03    0.30
 -25  -5   7    1.23    0.11
 -25   5   7    1.34    0.13
  25  -5  -7    1.17    0.11
 -25  -5   6    2.57    0.14
 -25   5   6    2.53    0.17
  25  -5  -6    2.54    0.14
  25   5  -6    2.34    0.14
 -25   5   5    0.92    0.12
  25  -5  -5    0.92    0.10
 -25   5   4    0.33    0.10
 -25  -5   4    0.33    0.11
  25  -5  -4    0.32    0.08
 -25   5   3    0.24    0.11
 -25  -5   3    0.17    0.11
  25  -5  -3    0.16    0.07
  25   5  -3    0.32    0.11
 -25   5   2    5.81    0.23
 -25  -5   2    5.56    0.23
  25   5  -2    5.66    0.21
 -25   5   1    0.10    0.10
  25   5  -1    0.03    0.10
 -25   5   0   -0.01    0.10
 -25  -5   0    0.06    0.10
  25   5   0    0.07    0.09
 -25   5  -1    0.03    0.11
 -25  -5  -1    0.01    0.10
  25   5   1    0.00    0.09
 -25   5  -2   17.66    0.39
  25   5   2   18.05    0.36
 -25   5  -3    1.99    0.16
  25   5   3    2.02    0.16
  25   5   4    0.09    0.10
 -25  -5  -5    0.85    0.13
  25   5   5    0.80    0.12
 -25  -5  -6    0.00    0.11
  25   5   6   -0.01    0.09
 -25  -5  -7    0.39    0.12
  25   5   7    0.42    0.10
 -25   5  -8    9.36    0.29
 -25  -5  -8    9.79    0.30
  25   5   8    9.12    0.27
 -25   7   8    0.28    0.11
 -25  -7   8    0.23    0.11
  25  -7  -8    0.14    0.09
 -25   7   7    0.81    0.12
 -25  -7   7    0.77    0.13
  25   7  -7    0.83    0.11
 -25   7   6    0.43    0.12
  25   7  -6    0.58    0.12
 -25   7   5    7.37    0.25
  25   7  -5    7.41    0.24
 -25   7   4    1.28    0.14
  25   7  -4    1.20    0.14
 -25   7   3    1.27    0.15
  25   7  -3    1.29    0.14
 -25   7   2   11.80    0.32
 -25  -7   2   11.92    0.32
 -25   7   1    1.48    0.15
 -25  -7   1    1.49    0.15
 -25   7   0    0.22    0.10
 -25  -7   0    0.24    0.11
  25   7   0    0.26    0.12
 -25   7  -1    0.76    0.14
 -25  -7  -1    0.66    0.13
  25   7   1    0.83    0.14
 -25   7  -2    9.42    0.29
 -25  -7  -2    9.63    0.30
  25   7   2    9.41    0.27
 -25   7  -3    0.19    0.12
 -25  -7  -3    0.22    0.12
  25   7   3    0.19    0.11
 -26   0  16   14.58    0.32
  26   0 -16   14.42    0.31
 -26   0  15    0.06    0.10
 -26   0  14    0.01    0.08
  26   0 -14   -0.03    0.07
 -26   0  13   -0.05    0.08
  26   0 -13    0.04    0.08
 -26   0  12    0.30    0.09
  26   0 -12    0.35    0.10
 -26   0  11   -0.02    0.09
  26   0 -11   -0.02    0.08
 -26   0  10    0.22    0.09
 -26   0  10    0.27    0.08
  26   0 -10    0.23    0.09
 -26   0   9    0.00    0.09
 -26   0   9    0.01    0.08
  26   0  -9    0.03    0.07
 -26   0   8    5.34    0.20
  26   0  -8    5.08    0.19
 -26   0   7    0.03    0.08
  26   0  -7    0.01    0.08
 -26   0   6    1.56    0.13
 -26   0   6    1.34    0.12
  26   0  -6    1.43    0.11
 -26   0   5   -0.04    0.07
 -26   0   5   -0.02    0.07
  26   0  -5    0.03    0.07
 -26   0   4   48.04    0.60
 -26   0   4   48.59    0.62
  26   0  -4   48.88    0.54
 -26   0   3    0.05    0.08
 -26   0   3    0.06    0.10
  26   0  -3    0.01    0.07
 -26   0   2    0.66    0.11
 -26   0   2    0.71    0.10
  26   0  -2    0.75    0.10
 -26   0   1   -0.01    0.08
 -26   0   1   -0.07    0.09
  26   0  -1   -0.01    0.06
 -26   0   0    9.45    0.28
 -26   0   0   10.09    0.30
  26   0   0    9.97    0.26
 -26   0  -1    0.02    0.08
 -26   0  -1    0.02    0.08
  26   0   1   -0.01    0.06
 -26   0  -2    2.29    0.15
 -26   0  -2    2.42    0.16
 -26   0  -3    0.00    0.07
 -26   0  -3   -0.04    0.08
 -26   0  -4    0.25    0.08
 -26   0  -4    0.35    0.10
 -26   0  -5    0.05    0.08
 -26   0  -5   -0.06    0.08
  26   0   5    0.02    0.06
 -26   0  -6    3.93    0.19
 -26   0  -6    4.00    0.19
 -26   0  -7   -0.01    0.09
 -26   0  -7   -0.11    0.09
 -26   0  -8   20.85    0.41
 -26   0  -8   20.43    0.40
 -26   0  -9    0.00    0.09
 -26   0  -9    0.08    0.12
 -26   0 -10    1.45    0.14
 -26   0 -10    1.49    0.15
 -26   0 -11   -0.03    0.08
 -26   0 -11   -0.03    0.10
 -26  -2  15    5.34    0.21
 -26   2  15    5.26    0.20
  26   2 -15    5.36    0.21
  26  -2 -15    5.48    0.20
  26   2 -15    5.25    0.19
 -26  -2  14    0.23    0.10
 -26   2  14    0.22    0.10
  26   2 -14    0.15    0.09
  26  -2 -14    0.21    0.10
  26   2 -14    0.29    0.10
 -26  -2  13    3.98    0.18
 -26   2  13    3.92    0.18
 -26  -2  13    3.99    0.18
  26  -2 -13    4.07    0.18
  26   2 -13    4.19    0.18
 -26  -2  12    7.43    0.23
 -26   2  12    6.82    0.22
 -26  -2  12    6.73    0.23
  26  -2 -12    7.25    0.23
  26   2 -12    6.70    0.21
 -26  -2  11    0.28    0.09
 -26  -2  11    0.09    0.11
  26  -2 -11    0.34    0.09
 -26  -2  10    7.52    0.23
 -26  -2  10    7.14    0.23
  26  -2 -10    7.27    0.22
 -26  -2   9    0.04    0.08
  26  -2  -9    0.16    0.08
  26   2  -9    0.11    0.08
 -26  -2   8    1.93    0.13
  26  -2  -8    1.83    0.13
  26   2  -8    1.78    0.12
 -26  -2   7    9.51    0.25
  26  -2  -7    9.39    0.25
  26   2  -7    9.44    0.25
 -26  -2   6    3.55    0.16
 -26   2   6    3.43    0.17
 -26  -2   6    3.64    0.18
  26  -2  -6    3.62    0.16
  26   2  -6    3.97    0.17
 -26  -2   5    3.10    0.16
 -26   2   5    3.08    0.17
 -26  -2   5    3.11    0.17
  26  -2  -5    2.97    0.14
  26   2  -5    3.21    0.16
 -26  -2   4    1.52    0.12
 -26   2   4    1.49    0.14
 -26  -2   4    1.41    0.13
 -26   2   4    1.49    0.13
  26  -2  -4    1.32    0.11
 -26  -2   3    0.61    0.09
 -26   2   3    0.57    0.11
 -26  -2   3    0.56    0.10
 -26   2   3    0.64    0.10
  26  -2  -3    0.63    0.09
 -26  -2   2    0.27    0.08
 -26   2   2    0.31    0.10
 -26  -2   2    0.32    0.10
 -26   2   2    0.30    0.09
  26  -2  -2    0.29    0.08
 -26  -2   1    0.71    0.10
 -26   2   1    0.70    0.12
 -26  -2   1    0.64    0.11
 -26   2   1    0.74    0.11
  26  -2  -1    0.66    0.08
  26   2  -1    0.72    0.10
 -26  -2   0    2.24    0.14
 -26   2   0    2.10    0.15
 -26  -2   0    2.16    0.16
 -26   2   0    2.20    0.15
  26  -2   0    2.09    0.12
  26   2   0    2.06    0.13
 -26  -2  -1    0.83    0.10
 -26   2  -1    0.79    0.12
 -26  -2  -1    0.85    0.13
 -26   2  -1    0.81    0.11
  26  -2   1    0.71    0.08
  26   2   1    0.88    0.11
 -26  -2  -2    0.05    0.07
 -26   2  -2    0.17    0.10
 -26  -2  -2    0.07    0.11
 -26   2  -2    0.07    0.10
  26  -2   2    0.12    0.06
  26   2   2    0.07    0.08
 -26  -2  -3    0.09    0.08
 -26   2  -3    0.02    0.10
 -26  -2  -3    0.05    0.10
 -26   2  -3    0.11    0.09
  26   2   3    0.06    0.08
 -26  -2  -4    0.04    0.08
 -26   2  -4    0.08    0.10
 -26  -2  -4    0.06    0.10
 -26   2  -4    0.12    0.10
  26   2   4    0.17    0.08
 -26  -2  -5    0.48    0.10
 -26   2  -5    0.47    0.11
 -26  -2  -5    0.45    0.11
 -26   2  -5    0.47    0.10
  26   2   5    0.43    0.09
 -26  -2  -6    1.03    0.11
 -26   2  -6    1.31    0.15
 -26  -2  -6    1.12    0.13
 -26   2  -6    1.27    0.13
  26   2   6    1.21    0.12
 -26   2  -7    0.16    0.12
 -26  -2  -7    0.20    0.12
 -26   2  -7    0.20    0.10
  26   2   7    0.20    0.09
 -26   2  -8   10.17    0.30
 -26  -2  -8   10.18    0.30
 -26   2  -8   10.45    0.29
  26   2   8   10.18    0.27
 -26   2  -9   14.83    0.36
 -26  -2  -9   15.02    0.36
 -26   2  -9   14.88    0.34
 -26   2 -10    3.36    0.19
 -26  -2 -10    3.60    0.20
 -26   2 -10    3.21    0.18
 -26  -4  14    1.08    0.12
 -26   4  14    1.20    0.13
  26   4 -14    1.01    0.13
  26  -4 -14    1.01    0.13
  26   4 -14    1.08    0.12
 -26  -4  13    1.48    0.12
 -26   4  13    1.51    0.13
 -26  -4  13    1.45    0.14
  26  -4 -13    1.68    0.14
  26   4 -13    1.47    0.12
 -26  -4  12    3.32    0.16
 -26   4  12    3.10    0.17
 -26  -4  12    3.17    0.17
  26  -4 -12    3.19    0.16
  26   4 -12    3.37    0.17
 -26  -4  11    3.26    0.17
 -26   4  11    3.03    0.16
 -26  -4  11    3.08    0.17
  26  -4 -11    3.05    0.16
  26   4 -11    3.19    0.16
 -26  -4  10    4.30    0.18
 -26   4  10    4.23    0.19
 -26  -4  10    4.29    0.19
  26  -4 -10    4.21    0.18
  26   4 -10    4.24    0.18
 -26  -4   9    1.59    0.12
 -26   4   9    1.60    0.13
 -26  -4   9    1.60    0.15
  26  -4  -9    1.74    0.13
  26   4  -9    1.54    0.14
 -26  -4   8    3.32    0.16
 -26   4   8    3.25    0.17
  26  -4  -8    3.42    0.17
 -26  -4   7    0.56    0.09
 -26   4   7    0.54    0.10
  26  -4  -7    0.62    0.11
 -26  -4   6    0.08    0.07
 -26   4   6    0.04    0.09
  26  -4  -6    0.06    0.07
 -26  -4   5    7.86    0.23
 -26   4   5    7.28    0.24
 -26  -4   5    7.46    0.25
  26  -4  -5    7.49    0.22
 -26  -4   4    5.24    0.19
 -26   4   4    5.19    0.22
 -26  -4   4    5.23    0.22
  26  -4  -4    5.33    0.19
  26   4  -4    5.28    0.20
 -26  -4   3    3.81    0.16
 -26   4   3    3.93    0.20
 -26  -4   3    3.99    0.20
  26  -4  -3    3.73    0.16
  26   4  -3    3.80    0.18
 -26  -4   2    0.47    0.08
 -26   4   2    0.40    0.10
 -26  -4   2    0.47    0.10
  26  -4  -2    0.44    0.08
  26   4  -2    0.43    0.11
 -26  -4   1    3.77    0.20
  26   4  -1    3.70    0.18
 -26  -4   0    0.63    0.12
  26   4   0    0.60    0.12
 -26  -4  -1    0.73    0.13
  26   4   1    0.85    0.12
 -26  -4  -2    5.02    0.22
  26   4   2    5.04    0.20
 -26   4  -3    0.07    0.11
 -26  -4  -3    0.05    0.10
  26   4   3    0.10    0.10
 -26   4  -4    0.99    0.14
 -26  -4  -4    1.08    0.14
  26   4   4    1.02    0.12
 -26   4  -5   -0.04    0.10
 -26  -4  -5    0.00    0.12
  26   4   5    0.03    0.10
 -26   4  -6    0.29    0.11
 -26   4  -6    0.35    0.09
  26   4   6    0.19    0.09
 -26   4  -7    1.26    0.15
 -26   4  -7    1.32    0.13
  26   4   7    1.36    0.13
 -26   4  -8    2.45    0.18
 -26   4  -8    2.51    0.16
  26   4   8    2.58    0.16
 -26   6  10    1.11    0.12
 -26  -6  10    1.26    0.14
  26  -6 -10    1.32    0.12
  26   6 -10    1.48    0.14
 -26   6   9    0.79    0.11
 -26  -6   9    0.78    0.12
  26  -6  -9    0.72    0.11
 -26   6   8    1.86    0.14
 -26  -6   8    1.90    0.15
  26  -6  -8    2.15    0.13
 -26   6   7    4.94    0.21
  26  -6  -7    4.79    0.18
 -26   6   6    2.85    0.17
  26  -6  -6    2.95    0.16
  26   6  -6    2.93    0.16
 -26   6   5    0.15    0.11
  26   6  -5    0.09    0.10
 -26   6   4    1.56    0.14
 -26   6   3    2.53    0.17
 -26  -6   3    2.51    0.18
 -26   6   2   -0.03    0.09
  26   6  -2   -0.04    0.10
 -26   6   1   -0.02    0.10
  26   6  -1    0.03    0.10
 -26   6   0    4.17    0.21
  26   6   0    4.48    0.20
 -26   6  -1    2.97    0.18
  26   6   1    2.94    0.17
 -26   6  -2    1.40    0.15
 -26  -6  -2    1.56    0.15
  26   6   2    1.40    0.14
 -26   6  -3    0.19    0.11
 -26  -6  -3    0.13    0.12
  26   6   3    0.21    0.11
 -26   6  -4   -0.06    0.11
 -26  -6  -4    0.02    0.11
  26   6   4    0.00    0.10
 -26   6  -5    1.40    0.16
 -26  -6  -5    1.29    0.15
  26   6   5    1.31    0.14
 -27  -1  15    2.42    0.15
  27   1 -15    2.37    0.15
  27  -1 -15    2.45    0.16
  27   1 -15    2.50    0.16
 -27  -1  14    5.36    0.20
  27   1 -14    5.38    0.21
  27  -1 -14    5.19    0.20
 -27  -1  13   -0.02    0.09
 -27   1  13    0.05    0.08
  27  -1 -13    0.06    0.09
 -27  -1  12    0.94    0.11
 -27   1  12    0.77    0.11
 -27  -1  12    0.89    0.11
  27  -1 -12    0.99    0.11
 -27  -1  11    0.14    0.09
 -27   1  11    0.12    0.08
 -27  -1  11    0.10    0.08
  27  -1 -11    0.12    0.09
  27   1 -11    0.13    0.09
 -27  -1  10    4.96    0.19
 -27   1  10    5.11    0.19
 -27  -1  10    4.95    0.20
  27  -1 -10    4.73    0.19
  27   1 -10    4.84    0.18
 -27  -1   9    0.20    0.08
 -27   1   9    0.10    0.09
  27  -1  -9    0.11    0.08
  27   1  -9    0.15    0.08
 -27  -1   8    0.82    0.10
 -27   1   8    0.76    0.10
  27  -1  -8    0.86    0.10
  27   1  -8    0.76    0.10
 -27  -1   7    4.40    0.18
 -27   1   7    4.22    0.18
  27  -1  -7    4.00    0.17
  27   1  -7    4.16    0.17
 -27  -1   6    1.61    0.12
 -27   1   6    1.58    0.13
 -27   1   6    1.51    0.12
 -27  -1   6    1.60    0.14
  27  -1  -6    1.54    0.12
  27   1  -6    1.63    0.12
 -27  -1   5    2.37    0.14
 -27   1   5    2.25    0.15
 -27  -1   5    2.28    0.16
 -27   1   5    2.44    0.15
  27  -1  -5    2.38    0.13
  27   1  -5    2.37    0.14
 -27  -1   4    8.23    0.24
 -27   1   4    8.21    0.25
 -27  -1   4    8.05    0.26
 -27   1   4    8.19    0.26
  27  -1  -4    8.30    0.23
  27   1  -4    8.27    0.23
 -27  -1   3   27.80    0.44
 -27   1   3   28.22    0.47
 -27  -1   3   27.62    0.47
 -27   1   3   28.30    0.47
  27  -1  -3   28.52    0.41
  27   1  -3   29.89    0.46
 -27  -1   2    2.84    0.16
 -27   1   2    2.85    0.16
 -27  -1   2    2.66    0.16
 -27   1   2    2.86    0.16
  27  -1  -2    2.79    0.14
  27   1  -2    2.87    0.15
 -27  -1   1   28.78    0.46
 -27   1   1   30.38    0.50
 -27  -1   1   28.39    0.48
 -27   1   1   29.05    0.49
  27  -1  -1   29.56    0.42
 -27  -1   0    0.07    0.08
 -27   1   0    0.00    0.09
 -27  -1   0   -0.02    0.08
 -27   1   0    0.06    0.10
  27  -1   0    0.05    0.06
 -27  -1  -1    1.67    0.13
 -27   1  -1    1.64    0.14
 -27  -1  -1    1.71    0.15
 -27   1  -1    1.62    0.13
  27  -1   1    1.68    0.11
 -27  -1  -2    0.54    0.09
 -27   1  -2    0.47    0.10
 -27  -1  -2    0.56    0.12
 -27   1  -2    0.47    0.11
  27  -1   2    0.51    0.08
  27   1   2    0.48    0.09
 -27  -1  -3    4.33    0.20
 -27   1  -3    4.20    0.20
 -27  -1  -3    4.33    0.20
 -27   1  -3    4.53    0.21
  27  -1   3    4.28    0.16
  27   1   3    4.26    0.17
 -27  -1  -4    0.00    0.07
 -27   1  -4    0.03    0.09
 -27  -1  -4    0.00    0.09
 -27   1  -4    0.02    0.09
  27   1   4    0.04    0.07
 -27  -1  -5    3.37    0.17
 -27   1  -5    3.55    0.19
 -27  -1  -5    3.50    0.19
 -27   1  -5    3.52    0.18
  27   1   5    3.36    0.16
 -27  -1  -6   -0.01    0.08
 -27   1  -6    0.01    0.08
 -27  -1  -6   -0.01    0.09
 -27   1  -6   -0.04    0.09
  27   1   6   -0.02    0.07
 -27  -1  -7    0.44    0.10
 -27   1  -7    0.39    0.11
 -27  -1  -7    0.33    0.12
 -27   1  -7    0.34    0.11
 -27  -1  -8    1.48    0.13
 -27   1  -8    1.49    0.14
 -27  -1  -8    1.53    0.16
 -27   1  -8    1.46    0.14
 -27  -1  -9   19.98    0.40
 -27   1  -9   20.63    0.42
 -27  -1  -9   20.05    0.41
 -27   1  -9   20.64    0.40
 -27   1 -10    6.33    0.24
 -27  -1 -10    6.27    0.24
 -27   1 -10    6.33    0.23
 -27  -3  14    1.45    0.14
 -27   3  14    1.68    0.14
  27   3 -14    1.59    0.14
  27  -3 -14    1.55    0.14
  27   3 -14    1.36    0.13
 -27  -3  13    1.35    0.12
 -27   3  13    1.48    0.14
 -27  -3  13    1.34    0.13
  27  -3 -13    1.45    0.13
  27   3 -13    1.45    0.13
 -27  -3  12    0.85    0.11
 -27   3  12    0.79    0.11
 -27  -3  12    0.95    0.11
  27  -3 -12    0.72    0.10
  27   3 -12    0.87    0.12
 -27  -3  11    0.03    0.08
 -27   3  11   -0.01    0.10
 -27  -3  11   -0.05    0.09
  27  -3 -11   -0.03    0.08
  27   3 -11   -0.04    0.09
 -27  -3  10    8.07    0.24
 -27   3  10    7.94    0.23
 -27  -3  10    7.88    0.25
  27  -3 -10    7.89    0.24
 -27  -3   9    3.80    0.17
 -27   3   9    3.58    0.17
  27  -3  -9    3.75    0.17
 -27  -3   8   -0.02    0.07
 -27   3   8    0.00    0.09
  27  -3  -8    0.01    0.08
  27   3  -8    0.07    0.09
 -27  -3   7    5.17    0.19
  27  -3  -7    5.26    0.19
  27   3  -7    5.45    0.20
 -27  -3   6    5.99    0.20
 -27  -3   6    5.62    0.22
  27  -3  -6    5.94    0.21
  27   3  -6    6.43    0.22
 -27  -3   5    1.30    0.11
 -27  -3   5    1.25    0.14
  27  -3  -5    1.25    0.11
 -27  -3   4    5.45    0.19
 -27  -3   4    5.67    0.22
  27  -3  -4    5.49    0.19
 -27  -3   3    1.48    0.12
 -27   3   3    1.47    0.14
 -27  -3   3    1.48    0.14
  27  -3  -3    1.32    0.11
  27   3  -3    1.38    0.12
 -27  -3   2    0.01    0.07
 -27   3   2    0.02    0.09
 -27  -3   2    0.17    0.10
  27  -3  -2    0.00    0.07
  27   3  -2    0.08    0.08
 -27  -3   1    1.20    0.11
 -27   3   1    1.39    0.14
 -27  -3   1    1.15    0.14
  27  -3  -1    1.31    0.11
  27   3  -1    1.23    0.12
 -27  -3   0    0.03    0.07
 -27   3   0    0.08    0.10
 -27  -3   0    0.06    0.11
  27   3   0    0.04    0.09
 -27  -3  -1    0.13    0.07
 -27   3  -1    0.19    0.10
 -27  -3  -1    0.12    0.10
 -27   3  -1    0.13    0.08
  27   3   1    0.05    0.09
 -27  -3  -2    6.72    0.22
 -27   3  -2    7.42    0.26
 -27  -3  -2    7.54    0.27
 -27   3  -2    7.29    0.25
  27   3   2    7.16    0.23
 -27   3  -3    1.48    0.15
 -27  -3  -3    1.59    0.16
 -27   3  -3    1.38    0.14
  27   3   3    1.51    0.13
 -27   3  -4    0.26    0.11
 -27  -3  -4    0.22    0.11
 -27   3  -4    0.18    0.09
  27   3   4    0.21    0.11
 -27   3  -5   11.40    0.31
 -27  -3  -5   11.93    0.33
 -27   3  -5   11.57    0.30
  27   3   5   11.17    0.28
 -27   3  -6    2.48    0.16
 -27  -3  -6    2.39    0.17
 -27   3  -6    2.53    0.16
  27   3   6    2.30    0.15
 -27   3  -7    3.42    0.19
 -27  -3  -7    3.37    0.18
 -27   3  -7    3.55    0.18
  27   3   7    3.73    0.18
 -27   3  -8    4.63    0.22
 -27  -3  -8    4.47    0.21
 -27   3  -8    4.42    0.20
  27   3   8    4.73    0.20
 -27   3  -9    1.92    0.16
 -27  -3  -9    1.81    0.17
 -27   3  -9    1.83    0.15
 -27  -5  11    3.31    0.17
 -27   5  11    3.01    0.17
 -27  -5  11    3.44    0.19
  27  -5 -11    3.09    0.16
  27   5 -11    2.87    0.16
 -27  -5  10    2.86    0.15
 -27   5  10    2.97    0.17
 -27  -5  10    2.88    0.18
  27  -5 -10    3.03    0.16
  27   5 -10    2.72    0.15
 -27   5   9    0.32    0.11
 -27  -5   9    0.25    0.09
  27  -5  -9    0.24    0.09
  27   5  -9    0.37    0.11
 -27   5   8    0.86    0.12
  27  -5  -8    0.80    0.10
 -27   5   7    0.07    0.10
  27  -5  -7    0.06    0.07
 -27   5   6    0.01    0.10
  27  -5  -6    0.02    0.07
 -27   5   5    3.42    0.18
  27  -5  -5    3.44    0.16
 -27   5   4    0.04    0.10
 -27  -5   4   -0.02    0.10
  27   5  -4    0.08    0.09
 -27   5   3    0.07    0.09
 -27  -5   3    0.01    0.09
  27   5  -3   -0.01    0.09
 -27   5   2    0.31    0.10
 -27  -5   2    0.42    0.10
  27   5  -2    0.35    0.10
 -27   5   1   -0.02    0.10
 -27  -5   1    0.01    0.10
  27   5  -1    0.05    0.10
 -27   5   0    0.03    0.10
 -27  -5   0   -0.02    0.11
  27   5   0   -0.01    0.09
 -27   5  -1    1.51    0.15
 -27  -5  -1    1.45    0.15
  27   5   1    1.49    0.13
 -27  -5  -2    4.64    0.22
  27   5   2    5.01    0.20
  27   5   3    1.47    0.13
  27   5   4    0.57    0.11
  27   5   5    5.46    0.21
 -27   5  -6    2.22    0.17
 -27  -5  -6    2.07    0.16
  27   5   6    2.17    0.15
 -27   7   4    0.46    0.12
 -27   7   3    0.86    0.14
 -27   7   2    2.56    0.17
  27   7  -1    0.67    0.11
 -28   0  15    0.03    0.09
 -28   0  14    0.92    0.12
  28   0 -14    0.63    0.11
 -28   0  13    0.03    0.09
  28   0 -13    0.03    0.07
  28   0 -13   -0.01    0.08
 -28   0  12   -0.06    0.09
  28   0 -12    0.02    0.09
 -28   0  11    0.03    0.09
  28   0 -11    0.01    0.09
 -28   0  10    0.14    0.09
  28   0 -10    0.07    0.09
 -28   0   9    0.08    0.08
 -28   0   9    0.05    0.07
  28   0  -9   -0.04    0.07
 -28   0   8    0.46    0.10
  28   0  -8    0.47    0.10
 -28   0   7    0.00    0.07
  28   0  -7    0.00    0.07
 -28   0   6    1.15    0.11
 -28   0   6    1.08    0.12
  28   0  -6    1.07    0.10
 -28   0   5    0.01    0.08
 -28   0   5   -0.03    0.09
  28   0  -5    0.03    0.08
 -28   0   4   27.28    0.44
 -28   0   4   27.14    0.47
  28   0  -4   27.23    0.41
 -28   0   3   -0.05    0.07
 -28   0   3    0.00    0.09
  28   0  -3   -0.01    0.07
 -28   0   2   12.10    0.30
 -28   0   2   11.47    0.30
  28   0  -2   11.62    0.26
 -28   0   1   -0.03    0.08
 -28   0   1    0.01    0.07
  28   0  -1   -0.02    0.06
 -28   0   0   13.80    0.33
 -28   0   0   14.13    0.35
  28   0   0   13.69    0.30
 -28   0  -1    0.07    0.08
 -28   0  -1    0.06    0.10
  28   0   1    0.00    0.07
 -28   0  -2    6.11    0.23
 -28   0  -2    6.22    0.24
  28   0   2    6.18    0.20
 -28   0  -3   -0.02    0.07
 -28   0  -3   -0.05    0.09
 -28   0  -4    2.23    0.15
 -28   0  -4    2.10    0.15
 -28   0  -5    0.03    0.09
 -28   0  -5   -0.01    0.10
 -28   0  -6    0.59    0.11
 -28   0  -6    0.61    0.11
 -28   0  -7   -0.08    0.09
 -28   0  -7   -0.11    0.10
 -28   0  -8    2.57    0.17
 -28   0  -8    2.53    0.17
 -28   0  -9    0.01    0.09
 -28   0  -9   -0.03    0.12
 -28  -2  14    0.15    0.10
 -28   2  14    0.26    0.10
  28   2 -14    0.24    0.10
  28  -2 -14    0.15    0.10
  28   2 -14    0.10    0.09
 -28  -2  13   16.79    0.34
 -28  -2  13   17.10    0.35
  28  -2 -13   16.81    0.33
 -28  -2  12    0.69    0.11
 -28  -2  12    0.82    0.12
  28  -2 -12    0.80    0.11
 -28  -2  11    0.05    0.08
 -28  -2  11    0.06    0.09
  28  -2 -11    0.01    0.08
 -28  -2  10    7.83    0.23
 -28  -2  10    7.61    0.24
  28  -2 -10    7.84    0.23
  28   2 -10    7.78    0.22
 -28  -2   9    0.17    0.08
  28  -2  -9    0.16    0.08
  28   2  -9    0.21    0.08
 -28  -2   8    0.65    0.10
 -28   2   8    0.63    0.10
  28  -2  -8    0.71    0.09
  28   2  -8    0.69    0.10
 -28  -2   7    2.24    0.14
 -28   2   7    2.18    0.14
  28  -2  -7    2.25    0.14
  28   2  -7    2.36    0.14
 -28  -2   6    0.30    0.09
 -28   2   6    0.40    0.11
 -28  -2   6    0.39    0.10
  28  -2  -6    0.32    0.08
  28   2  -6    0.34    0.09
 -28  -2   5    1.28    0.11
 -28   2   5    1.25    0.13
 -28  -2   5    1.14    0.12
  28  -2  -5    1.41    0.12
  28   2  -5    1.34    0.12
 -28  -2   4    0.27    0.08
 -28   2   4    0.32    0.09
 -28  -2   4    0.33    0.10
  28  -2  -4    0.36    0.08
  28   2  -4    0.48    0.10
 -28  -2   3    2.08    0.13
 -28   2   3    2.09    0.15
 -28  -2   3    2.09    0.16
  28  -2  -3    2.05    0.12
 -28  -2   2    0.06    0.07
 -28   2   2    0.06    0.10
 -28  -2   2    0.04    0.09
 -28   2   2    0.06    0.08
  28  -2  -2    0.09    0.07
 -28  -2   1    1.02    0.10
 -28   2   1    1.00    0.13
 -28  -2   1    0.99    0.13
 -28   2   1    1.05    0.13
  28  -2  -1    0.98    0.10
 -28  -2   0    0.54    0.10
 -28   2   0    0.59    0.11
 -28  -2   0    0.55    0.12
 -28   2   0    0.58    0.11
  28  -2   0    0.66    0.09
  28   2   0    0.54    0.09
 -28  -2  -1    0.22    0.09
 -28   2  -1    0.32    0.11
 -28  -2  -1    0.34    0.12
 -28   2  -1    0.30    0.10
  28   2   1    0.32    0.09
 -28  -2  -2    1.12    0.12
 -28   2  -2    1.10    0.13
 -28  -2  -2    1.16    0.14
 -28   2  -2    1.11    0.13
  28   2   2    1.17    0.12
 -28  -2  -3    0.07    0.08
 -28   2  -3    0.18    0.10
 -28  -2  -3    0.09    0.11
 -28   2  -3    0.07    0.10
  28   2   3    0.13    0.09
 -28  -2  -4    0.22    0.08
 -28   2  -4    0.17    0.10
 -28  -2  -4    0.24    0.11
 -28   2  -4    0.05    0.10
  28   2   4    0.18    0.08
 -28  -2  -5    0.01    0.07
 -28   2  -5    0.05    0.10
 -28  -2  -5    0.05    0.10
 -28   2  -5    0.04    0.10
  28   2   5    0.09    0.08
 -28   2  -6    0.96    0.13
 -28  -2  -6    1.15    0.14
 -28   2  -6    1.11    0.13
  28   2   6    1.10    0.12
 -28   2  -7    2.51    0.17
 -28  -2  -7    2.64    0.17
 -28   2  -7    2.73    0.16
 -28   2  -8    0.08    0.10
 -28  -2  -8    0.14    0.12
 -28   2  -8    0.02    0.10
 -28   2  -9    0.12    0.11
 -28  -2  -9    0.07    0.10
 -28   2  -9    0.14    0.09
 -28  -4  12    4.85    0.19
 -28   4  12    5.37    0.21
 -28  -4  12    5.21    0.21
  28  -4 -12    4.73    0.19
  28   4 -12    4.86    0.19
 -28  -4  11    1.06    0.12
 -28   4  11    1.16    0.13
 -28  -4  11    1.26    0.14
  28  -4 -11    1.27    0.13
  28   4 -11    0.95    0.13
 -28  -4  10    1.39    0.12
 -28   4  10    1.43    0.14
 -28  -4  10    1.23    0.13
  28  -4 -10    1.37    0.12
  28   4 -10    1.35    0.13
 -28  -4   9   13.71    0.30
 -28   4   9   13.80    0.32
 -28  -4   9   14.46    0.33
  28  -4  -9   14.60    0.32
 -28  -4   8    0.08    0.08
 -28   4   8    0.10    0.10
  28  -4  -8    0.09    0.08
 -28  -4   7    0.18    0.07
 -28   4   7    0.21    0.10
  28  -4  -7    0.16    0.08
  28   4  -7    0.22    0.10
 -28  -4   6    0.19    0.08
 -28   4   6    0.24    0.10
  28  -4  -6    0.16    0.09
 -28  -4   5    0.03    0.07
 -28   4   5   -0.04    0.08
 -28  -4   5   -0.05    0.09
  28  -4  -5    0.03    0.08
 -28  -4   4    1.56    0.12
 -28   4   4    1.59    0.13
 -28  -4   4    1.49    0.15
  28  -4  -4    1.59    0.12
  28   4  -4    1.58    0.13
 -28  -4   3    0.07    0.10
  28  -4  -3    0.09    0.07
  28   4  -3    0.13    0.10
 -28  -4   2    3.27    0.19
  28   4  -2    3.38    0.17
 -28  -4   1    0.31    0.12
  28   4  -1    0.34    0.10
 -28  -4   0    0.60    0.12
  28   4   0    0.53    0.11
 -28   4  -1    0.62    0.12
 -28  -4  -1    0.58    0.12
  28   4   1    0.80    0.11
 -28   4  -2    0.03    0.11
 -28  -4  -2    0.16    0.12
  28   4   2    0.06    0.09
 -28   4  -3    0.77    0.13
 -28  -4  -3    0.64    0.12
  28   4   3    0.59    0.11
 -28   4  -4    0.32    0.12
 -28  -4  -4    0.30    0.12
  28   4   4    0.32    0.10
 -28   4  -5    2.32    0.17
 -28  -4  -5    2.16    0.17
  28   4   5    2.22    0.14
 -28   4  -6   -0.01    0.10
 -28  -4  -6   -0.01    0.11
  28   4   6    0.04    0.09
 -28   4  -7   -0.01    0.11
  28   4   7   -0.10    0.09
 -28   6   8    2.29    0.16
 -28  -6   8    2.39    0.16
 -28   6   7    0.25    0.09
 -28   6   6   -0.04    0.10
 -28   6   5    0.82    0.12
 -28   6   4    3.90    0.19
  28   6  -4    3.32    0.18
 -28   6   3    1.48    0.14
 -28  -6   3    1.46    0.15
  28   6  -3    1.47    0.14
 -28   6   2    3.27    0.18
 -28  -6   2    3.27    0.19
  28   6  -2    3.39    0.17
 -28   6   1    0.41    0.12
 -28  -6   1    0.42    0.13
  28   6  -1    0.40    0.11
 -28   6   0    2.70    0.18
  28   6   0    2.59    0.16
 -28   6  -1    0.39    0.12
  28   6   1    0.51    0.11
 -28   6  -2    0.15    0.11
  28   6   2    0.07    0.11
 -29  -1  14    0.69    0.11
 -29   1  14    0.61    0.11
  29   1 -14    0.72    0.10
  29  -1 -14    0.74    0.11
 -29  -1  13    0.13    0.08
 -29   1  13    0.09    0.09
  29  -1 -13    0.07    0.09
  29   1 -13    0.06    0.10
 -29  -1  12    0.28    0.09
 -29   1  12    0.32    0.10
  29  -1 -12    0.35    0.10
  29   1 -12    0.33    0.10
 -29  -1  11   12.77    0.29
 -29   1  11   12.40    0.29
 -29  -1  11   12.97    0.31
  29  -1 -11   12.23    0.28
  29   1 -11   12.68    0.28
 -29  -1  10    0.35    0.10
 -29   1  10    0.36    0.10
 -29  -1  10    0.40    0.10
  29  -1 -10    0.42    0.10
  29   1 -10    0.41    0.09
 -29  -1   9    3.81    0.17
 -29   1   9    3.83    0.18
  29  -1  -9    3.79    0.17
  29   1  -9    3.84    0.17
 -29  -1   8   -0.01    0.09
 -29   1   8   -0.02    0.08
  29  -1  -8    0.05    0.08
  29   1  -8    0.04    0.08
 -29  -1   7    2.00    0.14
 -29   1   7    1.91    0.14
  29  -1  -7    1.86    0.13
  29   1  -7    1.80    0.13
 -29  -1   6    0.31    0.08
 -29   1   6    0.36    0.09
 -29  -1   6    0.28    0.10
  29  -1  -6    0.29    0.08
  29   1  -6    0.29    0.08
 -29  -1   5    0.09    0.08
 -29   1   5    0.02    0.09
 -29  -1   5    0.10    0.08
 -29   1   5    0.08    0.09
  29  -1  -5    0.05    0.07
  29   1  -5    0.10    0.08
 -29  -1   4    0.04    0.07
 -29   1   4    0.04    0.09
 -29  -1   4    0.03    0.09
 -29   1   4    0.06    0.09
  29  -1  -4    0.04    0.07
  29   1  -4    0.01    0.07
 -29  -1   3    1.43    0.12
 -29   1   3    1.69    0.14
 -29  -1   3    1.61    0.14
 -29   1   3    1.57    0.13
  29  -1  -3    1.71    0.12
  29   1  -3    1.61    0.13
 -29  -1   2   -0.02    0.08
 -29   1   2   -0.03    0.09
 -29  -1   2    0.03    0.09
 -29   1   2    0.06    0.08
  29  -1  -2    0.01    0.07
  29   1  -2    0.04    0.08
 -29  -1   1   32.06    0.50
 -29   1   1   31.59    0.49
 -29  -1   1   31.63    0.50
 -29   1   1   31.99    0.51
  29  -1  -1   31.13    0.44
  29   1  -1   33.14    0.45
 -29  -1   0    0.67    0.10
 -29   1   0    0.69    0.11
 -29  -1   0    0.76    0.13
 -29   1   0    0.64    0.11
  29  -1   0    0.67    0.09
 -29  -1  -1    2.08    0.14
 -29   1  -1    2.06    0.15
 -29  -1  -1    1.98    0.15
 -29   1  -1    2.15    0.16
  29  -1   1    1.95    0.12
 -29  -1  -2    0.36    0.09
 -29   1  -2    0.24    0.10
 -29  -1  -2    0.18    0.11
 -29   1  -2    0.28    0.10
 -29  -1  -3    0.15    0.08
 -29   1  -3    0.17    0.09
 -29  -1  -3    0.36    0.11
 -29   1  -3    0.28    0.10
  29   1   3    0.22    0.09
 -29  -1  -4    1.13    0.12
 -29   1  -4    1.00    0.13
 -29  -1  -4    1.01    0.14
 -29   1  -4    1.11    0.13
  29   1   4    0.96    0.11
 -29  -1  -5    0.00    0.09
 -29   1  -5    0.04    0.09
 -29  -1  -5   -0.06    0.10
 -29   1  -5    0.05    0.10
 -29  -1  -6    0.04    0.09
 -29   1  -6   -0.05    0.10
 -29  -1  -6    0.09    0.10
 -29   1  -6    0.07    0.10
 -29  -1  -7    2.55    0.16
 -29   1  -7    2.59    0.17
 -29  -1  -7    2.66    0.18
 -29   1  -7    2.40    0.16
 -29   1  -8    0.01    0.09
 -29  -1  -8    0.17    0.11
 -29   1  -8   -0.04    0.10
 -29  -3  13    7.57    0.23
 -29  -3  13    7.35    0.24
  29  -3 -13    7.63    0.24
 -29  -3  12    3.84    0.18
 -29   3  12    3.70    0.18
 -29  -3  12    3.83    0.19
  29  -3 -12    3.68    0.17
 -29  -3  11    7.33    0.23
 -29   3  11    7.79    0.24
 -29  -3  11    8.07    0.25
  29  -3 -11    7.94    0.24
 -29  -3  10    1.83    0.13
 -29   3  10    2.16    0.15
 -29  -3  10    1.96    0.15
  29  -3 -10    2.06    0.14
 -29  -3   9    0.01    0.08
  29  -3  -9    0.09    0.09
  29   3  -9    0.03    0.08
 -29  -3   8    0.41    0.09
  29  -3  -8    0.46    0.09
  29   3  -8    0.48    0.11
 -29  -3   7    0.02    0.08
  29  -3  -7   -0.01    0.08
  29   3  -7   -0.03    0.08
 -29  -3   6    0.45    0.09
 -29  -3   6    0.54    0.11
  29  -3  -6    0.49    0.09
  29   3  -6    0.48    0.10
 -29  -3   5    0.00    0.07
 -29   3   5    0.09    0.10
 -29  -3   5    0.07    0.09
  29  -3  -5   -0.01    0.08
 -29  -3   4    0.00    0.07
 -29   3   4    0.05    0.09
 -29  -3   4    0.01    0.10
  29  -3  -4    0.00    0.08
 -29  -3   3    1.72    0.12
 -29   3   3    1.62    0.14
 -29  -3   3    1.67    0.15
  29  -3  -3    1.79    0.13
 -29  -3   2    0.23    0.08
 -29   3   2    0.22    0.10
 -29  -3   2    0.20    0.11
  29  -3  -2    0.19    0.08
  29   3  -2    0.15    0.10
 -29  -3   1    1.47    0.12
 -29   3   1    1.53    0.14
 -29  -3   1    1.33    0.14
  29   3  -1    1.56    0.13
 -29   3   0    6.03    0.24
 -29  -3   0    5.75    0.23
  29   3   0    5.70    0.20
 -29   3  -1   11.86    0.32
 -29  -3  -1   10.89    0.30
  29   3   1   11.06    0.27
 -29   3  -2    0.09    0.11
 -29  -3  -2    0.05    0.11
  29   3   2    0.15    0.09
 -29   3  -3    1.52    0.15
 -29  -3  -3    1.50    0.15
  29   3   3    1.38    0.12
 -29   3  -4   -0.02    0.10
 -29  -3  -4   -0.02    0.12
 -29   3  -4    0.09    0.08
  29   3   4   -0.01    0.08
 -29   3  -5    1.22    0.14
 -29  -3  -5    1.41    0.16
 -29   3  -5    1.31    0.14
  29   3   5    1.19    0.12
 -29   3  -6    2.23    0.17
 -29  -3  -6    2.50    0.18
 -29   3  -6    2.44    0.16
  29   3   6    2.41    0.14
 -29   3  -7    0.07    0.11
 -29  -3  -7    0.16    0.10
 -29   3  -7    0.04    0.09
 -29   5   9    3.32    0.18
 -29  -5   9    3.35    0.19
  29  -5  -9    3.17    0.16
  29   5  -9    3.51    0.17
 -29   5   8    4.06    0.19
  29  -5  -8    4.12    0.17
 -29   5   7    0.76    0.12
  29  -5  -7    0.63    0.10
 -29   5   6    0.04    0.09
 -29   5   5    1.79    0.15
 -29   5   4    0.06    0.11
 -29  -5   4    0.11    0.11
  29   5  -4    0.07    0.10
 -29   5   3    0.50    0.13
 -29  -5   3    0.51    0.12
  29   5  -3    0.46    0.11
 -29   5   2   -0.03    0.10
 -29  -5   2   -0.10    0.11
  29   5  -2   -0.01    0.09
 -29   5   1    2.40    0.17
 -29  -5   1    2.39    0.17
  29   5  -1    2.36    0.15
 -29  -5   0    5.09    0.22
  29   5   0    5.24    0.21
 -29  -5  -1    0.95    0.14
  29   5   1    0.83    0.11
 -29  -5  -2    0.09    0.12
  29   5   2    0.09    0.10
 -29  -5  -3    0.08    0.10
  29   5   3   -0.05    0.08
 -29   5  -4    0.95    0.13
  29   5   4    0.87    0.12
 -30   0  13    0.02    0.09
  30   0 -13    0.03    0.09
 -30   0  12    0.25    0.09
  30   0 -12    0.22    0.09
 -30   0  11   -0.02    0.09
  30   0 -11    0.03    0.09
 -30   0  10   59.81    0.65
  30   0 -10   57.35    0.63
 -30   0   9    0.02    0.09
  30   0  -9    0.02    0.09
 -30   0   8    2.15    0.14
  30   0  -8    2.22    0.14
 -30   0   7    0.01    0.08
  30   0  -7    0.01    0.07
 -30   0   6    0.13    0.08
 -30   0   6    0.18    0.08
  30   0  -6    0.12    0.08
 -30   0   5   -0.03    0.08
 -30   0   5    0.01    0.08
  30   0  -5    0.03    0.07
 -30   0   4    1.16    0.12
 -30   0   4    1.06    0.12
  30   0  -4    1.03    0.10
 -30   0   3    0.00    0.09
 -30   0   3   -0.02    0.09
  30   0  -3    0.02    0.07
 -30   0   2    2.75    0.16
 -30   0   2    2.79    0.17
  30   0  -2    2.89    0.14
 -30   0   1   -0.04    0.08
 -30   0   1   -0.07    0.09
  30   0  -1    0.03    0.07
 -30   0   0   14.19    0.33
 -30   0   0   14.24    0.34
  30   0   0   13.82    0.29
 -30   0  -1   -0.05    0.10
 -30   0  -1   -0.02    0.09
  30   0   1    0.02    0.07
 -30   0  -2   26.93    0.47
 -30   0  -2   28.15    0.49
  30   0   2   26.14    0.40
 -30   0  -3   -0.07    0.10
 -30   0  -3   -0.06    0.10
 -30   0  -4    1.36    0.13
 -30   0  -4    1.45    0.14
 -30   0  -5   -0.12    0.09
 -30   0  -5   -0.10    0.10
 -30   0  -6    0.06    0.09
 -30   0  -6    0.01    0.11
 -30   0  -7    0.10    0.10
 -30   0  -7   -0.05    0.10
 -30  -2  13    8.75    0.25
  30  -2 -13    9.61    0.26
 -30  -2  12    0.63    0.11
 -30  -2  12    0.72    0.11
  30  -2 -12    0.70    0.11
  30   2 -12    0.80    0.11
 -30  -2  11    3.95    0.18
 -30   2  11    4.13    0.19
 -30  -2  11    4.17    0.19
  30  -2 -11    4.35    0.18
  30   2 -11    4.08    0.18
 -30  -2  10   17.18    0.34
 -30   2  10   17.42    0.34
 -30  -2  10   17.27    0.35
  30  -2 -10   17.30    0.33
  30   2 -10   17.61    0.34
 -30  -2   9    1.89    0.13
 -30   2   9    1.92    0.14
  30  -2  -9    1.85    0.13
  30   2  -9    1.83    0.13
 -30  -2   8    0.01    0.08
 -30   2   8    0.06    0.08
  30  -2  -8    0.06    0.08
  30   2  -8    0.08    0.08
 -30  -2   7   -0.01    0.08
 -30   2   7    0.02    0.08
  30  -2  -7    0.07    0.08
  30   2  -7    0.01    0.09
 -30  -2   6    0.86    0.10
 -30   2   6    0.80    0.11
 -30  -2   6    0.84    0.12
  30  -2  -6    0.92    0.11
  30   2  -6    0.87    0.11
 -30  -2   5    0.05    0.07
 -30   2   5    0.08    0.10
 -30  -2   5   -0.02    0.09
  30  -2  -5    0.00    0.06
  30   2  -5    0.09    0.09
 -30  -2   4    0.06    0.08
 -30   2   4    0.04    0.09
 -30  -2   4    0.06    0.09
  30  -2  -4    0.03    0.07
  30   2  -4    0.03    0.09
 -30  -2   3    0.99    0.11
 -30   2   3    0.94    0.12
 -30  -2   3    1.04    0.12
  30  -2  -3    0.94    0.10
  30   2  -3    1.17    0.12
 -30  -2   2    0.11    0.07
 -30   2   2    0.13    0.09
 -30  -2   2    0.18    0.10
  30  -2  -2    0.08    0.07
 -30  -2   1    0.02    0.07
 -30   2   1    0.04    0.09
 -30  -2   1   -0.01    0.10
  30  -2  -1   -0.02    0.06
 -30  -2   0    1.08    0.11
 -30   2   0    0.95    0.13
 -30  -2   0    0.94    0.13
 -30   2   0    1.08    0.12
 -30  -2  -1    0.15    0.08
 -30   2  -1    0.19    0.11
 -30  -2  -1    0.21    0.10
 -30   2  -1    0.21    0.10
  30   2   1    0.20    0.08
 -30  -2  -2    9.30    0.26
 -30   2  -2    9.11    0.28
 -30  -2  -2    9.45    0.29
 -30   2  -2    9.31    0.28
  30   2   2    8.83    0.24
 -30   2  -3    5.92    0.23
 -30  -2  -3    5.77    0.23
 -30   2  -3    5.71    0.22
  30   2   3    5.49    0.20
 -30   2  -4    4.33    0.20
 -30  -2  -4    4.83    0.23
 -30   2  -4    4.32    0.20
  30   2   4    4.30    0.18
 -30   2  -5    0.01    0.11
 -30  -2  -5    0.01    0.12
 -30   2  -5   -0.01    0.10
  30   2   5   -0.05    0.07
 -30   2  -6    0.28    0.12
 -30  -2  -6    0.39    0.12
 -30   2  -6    0.44    0.12
 -30   2  -7    2.91    0.18
 -30  -2  -7    3.17    0.18
 -30   2  -7    3.28    0.18
 -30  -4  10    1.25    0.12
 -30   4  10    1.31    0.13
 -30  -4  10    1.35    0.14
  30  -4 -10    1.29    0.12
 -30  -4   9    2.40    0.15
 -30   4   9    2.50    0.15
 -30  -4   9    2.53    0.16
  30  -4  -9    2.49    0.15
 -30  -4   8    0.63    0.10
 -30   4   8    0.59    0.12
  30  -4  -8    0.72    0.10
  30   4  -8    0.56    0.11
 -30   4   7    0.00    0.10
  30  -4  -7    0.05    0.08
  30   4  -7    0.01    0.11
 -30   4   6    4.44    0.20
  30  -4  -6    4.63    0.18
 -30  -4   5    1.66    0.14
  30  -4  -5    1.67    0.12
 -30  -4   4    0.29    0.11
 -30  -4   3    2.18    0.16
  30   4  -3    2.03    0.14
 -30  -4   2    1.88    0.16
  30   4  -2    1.92    0.14
 -30   4   1    0.06    0.10
 -30  -4   1   -0.09    0.10
  30   4  -1   -0.07    0.08
 -30   4   0    0.95    0.14
 -30  -4   0    0.90    0.14
  30   4   0    0.85    0.11
 -30   4  -1    1.82    0.16
 -30  -4  -1    1.74    0.15
  30   4   1    1.74    0.14
 -30   4  -2    0.08    0.10
 -30  -4  -2    0.07    0.11
  30   4   2    0.10    0.09
 -30   4  -3    6.81    0.25
 -30  -4  -3    6.53    0.25
  30   4   3    6.34    0.22
 -30   4  -4   11.15    0.31
 -30  -4  -4   11.48    0.32
  30   4   4   11.02    0.28
 -31  -1  12   -0.03    0.09
 -31   1  12    0.00    0.09
  31  -1 -12    0.00    0.08
  31   1 -12   -0.07    0.09
 -31  -1  11    8.54    0.25
 -31   1  11    8.55    0.24
  31  -1 -11    8.53    0.24
  31   1 -11    8.73    0.24
 -31  -1  10    5.10    0.20
 -31   1  10    5.17    0.20
  31  -1 -10    4.97    0.19
  31   1 -10    5.10    0.19
 -31  -1   9   15.40    0.32
 -31   1   9   15.71    0.33
  31  -1  -9   15.24    0.31
  31   1  -9   15.59    0.32
 -31  -1   8    0.10    0.08
 -31   1   8    0.10    0.09
  31  -1  -8    0.14    0.08
  31   1  -8    0.07    0.08
 -31  -1   7   10.45    0.26
 -31   1   7   10.08    0.26
  31  -1  -7   10.54    0.26
  31   1  -7   10.14    0.25
 -31  -1   6    1.46    0.12
 -31   1   6    1.44    0.13
 -31  -1   6    1.45    0.13
  31  -1  -6    1.44    0.12
  31   1  -6    1.34    0.11
 -31  -1   5    2.96    0.15
 -31   1   5    2.84    0.16
 -31  -1   5    2.83    0.17
  31  -1  -5    2.76    0.14
  31   1  -5    2.78    0.15
 -31  -1   4    0.73    0.10
 -31   1   4    0.75    0.11
 -31  -1   4    0.63    0.11
  31  -1  -4    0.74    0.09
  31   1  -4    0.70    0.10
 -31  -1   3   12.02    0.29
 -31   1   3   12.56    0.30
 -31  -1   3   12.00    0.32
 -31   1   3   11.89    0.31
  31  -1  -3   12.12    0.28
  31   1  -3   12.36    0.28
 -31  -1   2    0.17    0.08
 -31   1   2    0.25    0.10
 -31  -1   2    0.32    0.11
 -31   1   2    0.36    0.10
  31  -1  -2    0.23    0.08
  31   1  -2    0.22    0.09
 -31  -1   1    0.72    0.10
 -31   1   1    0.83    0.12
 -31  -1   1    0.70    0.12
 -31   1   1    0.66    0.11
  31  -1  -1    0.65    0.09
  31   1  -1    0.80    0.10
 -31  -1   0    0.16    0.08
 -31   1   0    0.25    0.10
 -31  -1   0    0.13    0.09
 -31   1   0    0.20    0.11
  31  -1   0    0.14    0.07
  31   1   0    0.16    0.08
 -31  -1  -1    2.42    0.15
 -31   1  -1    2.47    0.17
 -31  -1  -1    2.32    0.16
 -31   1  -1    2.55    0.17
 -31  -1  -2    0.05    0.08
 -31   1  -2    0.12    0.10
 -31  -1  -2    0.05    0.11
 -31   1  -2    0.04    0.10
 -31  -1  -3    0.25    0.09
 -31   1  -3    0.15    0.11
 -31  -1  -3    0.26    0.11
 -31   1  -3    0.39    0.12
 -31  -1  -4    1.89    0.15
 -31   1  -4    1.80    0.15
 -31  -1  -4    1.88    0.16
 -31   1  -4    1.69    0.15
 -31  -1  -5    0.03    0.09
 -31   1  -5   -0.01    0.09
 -31  -1  -5   -0.01    0.10
 -31   1  -5   -0.04    0.09
 -31   1  -6    0.53    0.12
 -31  -1  -6    0.39    0.11
 -31   1  -6    0.40    0.11
 -31  -3  11    2.30    0.15
 -31  -3  11    2.46    0.16
  31  -3 -11    2.37    0.15
  31   3 -11    2.30    0.15
 -31  -3  10   11.28    0.27
 -31  -3  10   11.18    0.29
  31  -3 -10   11.42    0.28
  31   3 -10   10.97    0.26
 -31  -3   9    3.76    0.17
  31  -3  -9    3.56    0.17
  31   3  -9    3.38    0.16
 -31  -3   8    0.15    0.08
  31  -3  -8    0.19    0.09
  31   3  -8    0.10    0.10
 -31  -3   7    4.17    0.17
 -31   3   7    4.13    0.19
  31  -3  -7    4.37    0.18
  31   3  -7    4.20    0.17
 -31  -3   6    0.85    0.10
 -31   3   6    0.83    0.11
 -31  -3   6    0.79    0.11
  31  -3  -6    0.82    0.11
  31   3  -6    0.92    0.11
 -31  -3   5    2.15    0.14
 -31   3   5    2.41    0.15
 -31  -3   5    2.10    0.16
  31  -3  -5    2.23    0.14
  31   3  -5    2.32    0.15
 -31  -3   4    0.72    0.10
 -31   3   4    0.74    0.12
 -31  -3   4    0.77    0.12
  31  -3  -4    0.85    0.10
 -31  -3   3    0.19    0.08
 -31   3   3    0.14    0.10
 -31  -3   3    0.21    0.11
 -31   3   2    3.86    0.19
 -31  -3   2    3.69    0.19
 -31   3   1    0.65    0.13
 -31  -3   1    0.82    0.13
  31   3  -1    0.70    0.11
 -31   3   0    0.01    0.11
 -31  -3   0   -0.01    0.10
  31   3   0    0.02    0.08
 -31   3  -1    2.96    0.18
 -31  -3  -1    2.73    0.19
  31   3   1    2.76    0.15
 -31   3  -2    2.78    0.18
 -31  -3  -2    2.86    0.19
  31   3   2    2.86    0.16
 -31   3  -3    0.03    0.10
 -31  -3  -3   -0.02    0.11
  31   3   3    0.01    0.08
 -31   3  -4    0.22    0.12
 -31  -3  -4    0.11    0.11
  31   3   4    0.17    0.09
 -31   3  -5    0.54    0.13
 -31  -3  -5    0.60    0.12
  31   3   5    0.47    0.09
 -31   5   6    0.53    0.11
 -31   5   5    0.85    0.12
 -31   5   4    1.55    0.14
 -31  -5   4    1.65    0.16
 -31   5   3    0.23    0.12
 -31  -5   3    0.17    0.11
  31   5  -3    0.14    0.10
 -31   5   2    0.79    0.14
 -31  -5   2    1.02    0.14
  31   5  -2    1.02    0.12
 -31  -5   1    0.08    0.11
  31   5  -1    0.04    0.09
 -31  -5   0    0.08    0.11
  31   5   0    0.22    0.10
 -32   0  11    0.02    0.08
  32   0 -11    0.00    0.09
 -32   0  10    4.03    0.18
  32   0 -10    4.39    0.18
 -32   0   9    0.06    0.09
  32   0  -9    0.03    0.08
 -32   0   8    0.04    0.09
  32   0  -8    0.06    0.08
 -32   0   7    0.08    0.09
  32   0  -7    0.02    0.08
 -32   0   6    0.09    0.09
  32   0  -6    0.13    0.08
 -32   0   5    0.03    0.09
 -32   0   5   -0.02    0.09
  32   0  -5   -0.04    0.07
 -32   0   4    9.80    0.27
 -32   0   4    9.82    0.28
  32   0  -4    9.42    0.24
 -32   0   3   -0.06    0.09
 -32   0   3   -0.03    0.10
  32   0  -3   -0.05    0.08
 -32   0   2   28.97    0.46
 -32   0   2   28.69    0.47
  32   0  -2   29.17    0.43
 -32   0   1   -0.06    0.09
 -32   0   1    0.04    0.09
  32   0  -1   -0.05    0.07
 -32   0   0    9.25    0.27
 -32   0   0    9.46    0.29
  32   0   0    9.21    0.24
 -32   0  -1   -0.07    0.09
 -32   0  -1   -0.08    0.11
 -32   0  -2    1.82    0.15
 -32   0  -2    1.76    0.16
 -32   0  -3    0.02    0.09
 -32   0  -3   -0.04    0.11
 -32   0  -4    4.20    0.19
 -32   0  -4    4.57    0.22
 -32   0  -5    0.05    0.09
 -32   0  -5    0.01    0.11
 -32  -2  11    5.60    0.20
 -32   2  11    5.30    0.20
 -32  -2  11    5.22    0.21
  32  -2 -11    5.14    0.19
  32   2 -11    5.42    0.19
 -32  -2  10    4.00    0.18
 -32   2  10    4.13    0.18
 -32  -2  10    3.66    0.18
  32  -2 -10    4.27    0.18
  32   2 -10    3.79    0.17
 -32  -2   9    0.73    0.10
 -32   2   9    0.55    0.11
  32  -2  -9    0.79    0.11
  32   2  -9    0.61    0.10
 -32  -2   8    0.02    0.08
 -32   2   8    0.02    0.09
  32  -2  -8   -0.02    0.07
  32   2  -8   -0.01    0.08
 -32  -2   7    0.04    0.07
 -32   2   7    0.09    0.09
  32  -2  -7    0.06    0.08
  32   2  -7    0.00    0.09
 -32  -2   6    1.42    0.12
 -32   2   6    1.39    0.12
 -32  -2   6    1.27    0.13
  32  -2  -6    1.35    0.11
  32   2  -6    1.33    0.12
 -32  -2   5    0.54    0.09
 -32   2   5    0.54    0.11
 -32  -2   5    0.55    0.11
  32  -2  -5    0.59    0.09
  32   2  -5    0.58    0.10
 -32  -2   4   22.11    0.38
 -32   2   4   21.94    0.41
 -32  -2   4   22.42    0.42
  32  -2  -4   22.24    0.39
  32   2  -4   22.09    0.37
 -32  -2   3    8.48    0.24
 -32   2   3    8.48    0.26
 -32  -2   3    8.68    0.27
  32  -2  -3    8.48    0.24
  32   2  -3    9.20    0.26
 -32  -2   2   12.67    0.29
 -32   2   2   12.18    0.31
 -32  -2   2   12.39    0.32
  32   2  -2   12.59    0.29
 -32  -2   1    0.72    0.10
 -32   2   1    0.87    0.12
 -32  -2   1    0.69    0.12
 -32  -2   0    0.12    0.08
 -32   2   0    0.19    0.11
 -32  -2   0    0.17    0.12
 -32   2  -1    0.62    0.13
 -32  -2  -1    0.61    0.12
 -32   2  -2    0.03    0.11
 -32  -2  -2    0.06    0.11
 -32   2  -3    0.03    0.10
 -32  -2  -3    0.02    0.12
  32   2   3   -0.02    0.09
 -32   2  -4    0.94    0.13
 -32  -2  -4    1.11    0.15
 -32   2  -4    0.90    0.12
  32   4  -7    0.49    0.10
  32   4  -6    1.71    0.13
 -32  -4   5    2.57    0.17
 -32  -4   4   14.82    0.35
 -32   4   3   19.74    0.40
 -32  -4   3   20.09    0.41
 -32   4   2    1.10    0.13
 -32  -4   2    1.26    0.15
  32   4  -2    1.17    0.13
 -32   4   1    1.80    0.16
 -32  -4   1    1.95    0.16
  32   4  -1    1.95    0.14
 -32   4   0    2.04    0.16
 -32  -4   0    1.90    0.16
  32   4   0    1.78    0.14
 -32   4  -1    0.61    0.12
 -32  -4  -1    0.70    0.13
  32   4   1    0.62    0.11
 -33  -1  10    0.76    0.11
 -33   1  10    0.76    0.10
  33  -1 -10    0.81    0.11
  33   1 -10    0.78    0.11
 -33  -1   9    0.25    0.09
 -33   1   9    0.31    0.10
  33  -1  -9    0.27    0.09
  33   1  -9    0.28    0.10
 -33  -1   8    0.20    0.09
 -33   1   8    0.27    0.10
  33  -1  -8    0.21    0.09
  33   1  -8    0.17    0.09
 -33  -1   7    0.04    0.08
 -33   1   7    0.09    0.09
  33  -1  -7    0.16    0.08
  33   1  -7    0.11    0.08
 -33  -1   6    0.08    0.08
 -33   1   6    0.03    0.09
 -33  -1   6    0.05    0.09
  33  -1  -6    0.04    0.08
  33   1  -6    0.05    0.08
 -33  -1   5    2.98    0.16
 -33   1   5    2.99    0.16
 -33  -1   5    2.89    0.17
  33  -1  -5    2.96    0.15
  33   1  -5    2.92    0.15
 -33  -1   4    0.36    0.09
 -33   1   4    0.23    0.11
 -33  -1   4    0.31    0.11
  33  -1  -4    0.41    0.09
  33   1  -4    0.34    0.09
 -33  -1   3    3.62    0.17
 -33   1   3    3.62    0.18
 -33  -1   3    3.53    0.19
  33  -1  -3    3.57    0.16
  33   1  -3    3.37    0.16
 -33  -1   2   -0.03    0.08
 -33   1   2    0.01    0.09
 -33  -1   2    0.03    0.10
  33  -1  -2   -0.01    0.07
  33   1  -2    0.01    0.08
 -33  -1   1    3.47    0.17
 -33   1   1    3.44    0.17
 -33  -1   1    3.37    0.19
  33   1  -1    3.37    0.15
 -33  -1   0    1.35    0.12
 -33   1   0    1.24    0.14
 -33  -1   0    1.40    0.15
 -33   1   0    1.13    0.13
  33   1   0    1.32    0.12
 -33  -1  -1    1.16    0.12
 -33   1  -1    1.23    0.13
 -33  -1  -1    1.26    0.14
 -33   1  -1    1.24    0.14
  33   1   1    1.28    0.12
 -33  -1  -2    0.39    0.10
 -33   1  -2    0.40    0.12
 -33  -1  -2    0.34    0.12
 -33   1  -2    0.38    0.12
 -33  -1  -3    1.09    0.12
 -33   1  -3    1.13    0.14
 -33  -1  -3    1.13    0.14
 -33   1  -3    1.22    0.14
 -33   1  -4    2.00    0.16
 -33  -1  -4    2.38    0.18
 -33   1  -4    1.91    0.16
 -33  -3   8    0.32    0.08
 -33   3   8    0.38    0.11
  33  -3  -8    0.36    0.09
  33   3  -8    0.41    0.11
 -33  -3   7    0.06    0.08
 -33   3   7    0.04    0.08
  33  -3  -7    0.01    0.08
  33   3  -7    0.00    0.09
 -33   3   6    1.03    0.12
 -33  -3   6    1.02    0.12
  33  -3  -6    1.08    0.11
  33   3  -6    1.05    0.11
 -33   3   5    3.25    0.18
 -33  -3   5    3.67    0.19
  33   3  -5    3.51    0.17
 -33   3   4    8.54    0.26
 -33  -3   4    8.72    0.27
  33   3  -4    9.04    0.26
 -33   3   3   21.41    0.41
 -33  -3   3   22.09    0.43
 -33   3   2    0.58    0.12
 -33  -3   2    0.64    0.13
 -33   3   1    2.21    0.16
 -33  -3   1    2.17    0.15
 -33   3   0   -0.04    0.11
 -33  -3   0   -0.01    0.11
 -33   3  -1    1.95    0.15
 -33  -3  -1    1.81    0.16
  33   3   1    1.71    0.13
 -34   0   9    0.04    0.09
  34   0  -9    0.01    0.08
 -34   0   8    4.48    0.19
  34   0  -8    4.48    0.18
 -34   0   7   -0.01    0.08
  34   0  -7   -0.01    0.08
 -34   0   6    0.13    0.09
  34   0  -6    0.18    0.09
 -34   0   5    0.02    0.09
  34   0  -5    0.04    0.08
 -34   0   4   16.01    0.33
  34   0  -4   15.40    0.30
 -34   0   3    0.03    0.09
 -34   0   3   -0.05    0.09
  34   0  -3    0.00    0.08
 -34   0   2    1.62    0.13
 -34   0   2    1.48    0.14
  34   0  -2    1.55    0.12
 -34   0   1    0.04    0.09
 -34   0   1    0.05    0.11
 -34   0   0   40.43    0.54
 -34   0   0   39.16    0.56
 -34   0  -1    0.00    0.09
 -34   0  -1    0.07    0.11
 -34   0  -2   14.03    0.33
 -34   0  -2   14.48    0.35
 -34  -2   8    2.81    0.15
 -34   2   8    2.94    0.16
  34  -2  -8    2.81    0.15
  34   2  -8    2.83    0.15
 -34  -2   7    0.06    0.08
 -34   2   7    0.02    0.08
  34  -2  -7    0.07    0.08
  34   2  -7    0.08    0.09
 -34  -2   6    0.98    0.11
 -34   2   6    1.04    0.12
 -34  -2   6    1.08    0.13
  34  -2  -6    0.93    0.10
  34   2  -6    1.01    0.10
 -34  -2   5    1.95    0.13
 -34   2   5    1.97    0.15
 -34  -2   5    2.03    0.15
  34  -2  -5    2.09    0.14
  34   2  -5    1.94    0.13
 -34  -2   4    9.57    0.25
 -34   2   4    9.65    0.27
 -34  -2   4    9.73    0.29
  34   2  -4    9.48    0.25
 -34  -2   3    1.70    0.13
 -34   2   3    1.73    0.15
 -34  -2   3    1.70    0.15
  34   2  -3    1.61    0.13
 -34   2   2    0.71    0.12
 -34  -2   2    0.67    0.13
  34   2  -2    0.69    0.11
 -34   2   1    0.94    0.13
 -34  -2   1    0.77    0.13
  34   2  -1    0.93    0.12
 -34   2   0    0.74    0.12
 -34  -2   0    0.59    0.12
 -34   2  -1    2.82    0.17
 -34  -2  -1    2.77    0.18
 -35  -1   6    0.29    0.09
 -35   1   6    0.39    0.10
  35  -1  -6    0.32    0.09
  35   1  -6    0.37    0.09
 -35  -1   5    0.17    0.09
 -35   1   5    0.05    0.09
 -35  -1   5    0.16    0.10
  35  -1  -5    0.12    0.08
  35   1  -5    0.08    0.09
 -35  -1   4    1.00    0.11
 -35   1   4    0.95    0.12
 -35  -1   4    1.02    0.14
  35  -1  -4    1.07    0.11
  35   1  -4    0.99    0.11
 -35  -1   3    7.22    0.23
 -35   1   3    7.36    0.24
 -35  -1   3    7.52    0.25
  35   1  -3    7.32    0.22
 -35  -1   2    0.07    0.09
 -35   1   2   -0.07    0.09
 -35  -1   2    0.01    0.09
  35   1  -2   -0.01    0.07
 -35  -1   1    0.35    0.09
 -35   1   1    0.26    0.10
 -35  -1   1    0.40    0.10
  35   1  -1    0.30    0.09
   0   0   0    0.00    0.00
;
_shelx_hkl_checksum              52623
_shelx_shelxl_version_number     2014/8
_olex2_submission_special_instructions 'No special instructions were received'
loop_
_space_group_symop_operation_xyz
'x, y, z'
'-x, y, -z+1/2'
'x+1/2, y+1/2, z'
'-x+1/2, y+1/2, -z+1/2'
'-x, -y, -z'
'x, -y, z-1/2'
'-x+1/2, -y+1/2, -z'
'x+1/2, -y+1/2, z-1/2'
loop_
_atom_site_label
_atom_site_type_symbol
_atom_site_fract_x
_atom_site_fract_y
_atom_site_fract_z
_atom_site_U_iso_or_equiv
_atom_site_adp_type
_atom_site_occupancy
_atom_site_site_symmetry_order
_atom_site_calc_flag
_atom_site_refinement_flags_posn
_atom_site_refinement_flags_adp
_atom_site_refinement_flags_occupancy
_atom_site_disorder_assembly
_atom_site_disorder_group
N1 N 0.49025(6) 0.79620(18) 0.20394(10) 0.0170(4) Uani 0.5 1 d . . P . .
C1 C 0.49025(6) 0.79620(18) 0.20394(10) 0.0170(4) Uani 0.5 1 d . . P . .
C2 C 0.43660(6) 0.8027(2) 0.17382(12) 0.0186(4) Uani 1 1 d . . . . .
C3 C 0.41817(6) 0.8122(2) 0.08164(12) 0.0210(4) Uani 1 1 d . . . . .
H3 H 0.3821 0.8190 0.0610 0.025 Uiso 1 1 calc R . . . .
C4 C 0.45097(7) 0.8118(2) 0.01962(12) 0.0221(4) Uani 1 1 d . . . . .
H4 H 0.4377 0.8201 -0.0430 0.027 Uiso 1 1 calc R . . . .
C5 C 0.50340(7) 0.7992(2) 0.04928(12) 0.0209(4) Uani 1 1 d . . . . .
H5 H 0.5260 0.7961 0.0064 0.025 Uiso 1 1 calc R . . . .
C6 C 0.52373(6) 0.7911(2) 0.14071(12) 0.0185(4) Uani 1 1 d . . . . .
C7 C 0.57839(7) 0.7810(2) 0.17201(12) 0.0194(4) Uani 1 1 d . . . . .
C8 C 0.61298(6) 0.7585(2) 0.10406(11) 0.0198(4) Uani 1 1 d . . . . .
C9 C 0.61182(7) 0.6101(2) 0.05563(13) 0.0273(4) Uani 1 1 d . . . . .
H9 H 0.5888 0.5234 0.0656 0.033 Uiso 1 1 calc R . . . .
C10 C 0.64418(7) 0.5883(3) -0.00724(13) 0.0308(5) Uani 1 1 d . . . . .
H10 H 0.6432 0.4867 -0.0402 0.037 Uiso 1 1 calc R . . . .
C11 C 0.67789(7) 0.7138(3) -0.02192(13) 0.0286(5) Uani 1 1 d . . . . .
H11 H 0.7001 0.6985 -0.0647 0.034 Uiso 1 1 calc R . . . .
C12 C 0.67911(7) 0.8620(3) 0.02602(12) 0.0265(4) Uani 1 1 d . . . . .
H12 H 0.7021 0.9485 0.0159 0.032 Uiso 1 1 calc R . . . .
C13 C 0.64682(6) 0.8846(2) 0.08872(12) 0.0219(4) Uani 1 1 d . . . . .
H13 H 0.6478 0.9866 0.1213 0.026 Uiso 1 1 calc R . . . .
C14 C 0.59767(6) 0.7926(2) 0.26145(12) 0.0192(4) Uani 1 1 d . . . . .
C15 C 0.65435(7) 0.7856(2) 0.29507(11) 0.0216(4) Uani 1 1 d . . . . .
C16 C 0.68033(7) 0.6341(3) 0.29614(12) 0.0275(4) Uani 1 1 d . . . . .
H16 H 0.6620 0.5350 0.2760 0.033 Uiso 1 1 calc R . . . .
C17 C 0.73316(8) 0.6279(3) 0.32671(14) 0.0357(5) Uani 1 1 d . . . . .
H17 H 0.7509 0.5244 0.3274 0.043 Uiso 1 1 calc R . . . .
C18 C 0.75994(7) 0.7719(3) 0.35604(14) 0.0380(6) Uani 1 1 d . . . . .
H18 H 0.7960 0.7670 0.3770 0.046 Uiso 1 1 calc R . . . .
C19 C 0.73437(7) 0.9227(3) 0.35487(13) 0.0343(5) Uani 1 1 d . . . . .
H19 H 0.7528 1.0215 0.3748 0.041 Uiso 1 1 calc R . . . .
C20 C 0.68147(7) 0.9299(3) 0.32445(12) 0.0274(4) Uani 1 1 d . . . . .
H20 H 0.6639 1.0337 0.3238 0.033 Uiso 1 1 calc R . . . .
S1 S 0.46647(6) 0.27656(15) 0.22551(8) 0.0472(4) Uani 0.5 1 d D U P A -1
O1 O 0.43513(18) 0.1942(5) 0.2827(3) 0.0784(14) Uani 0.5 1 d D U P A -1
O2 O 0.4807(2) 0.1675(6) 0.1606(3) 0.0672(16) Uani 0.5 1 d D U P A -1
O3 O 0.4467(2) 0.4349(5) 0.1931(4) 0.088(2) Uani 0.5 1 d D U P A -1
F1 F 0.54874(17) 0.1833(5) 0.3369(3) 0.0681(13) Uani 0.5 1 d D U P A -1
F2 F 0.51948(18) 0.4219(4) 0.3673(2) 0.0790(12) Uani 0.5 1 d D U P A -1
F3 F 0.55846(18) 0.3997(6) 0.2547(3) 0.0900(15) Uani 0.5 1 d D U P A -1
C21 C 0.5202(2) 0.3274(6) 0.3010(3) 0.0472(4) Uani 0.5 1 d D U P A -1
loop_
_atom_site_aniso_label
_atom_site_aniso_U_11
_atom_site_aniso_U_22
_atom_site_aniso_U_33
_atom_site_aniso_U_23
_atom_site_aniso_U_13
_atom_site_aniso_U_12
N1 0.0185(8) 0.0142(8) 0.0185(8) -0.0001(6) 0.0041(6) -0.0005(6)
C1 0.0185(8) 0.0142(8) 0.0185(8) -0.0001(6) 0.0041(6) -0.0005(6)
C2 0.0184(8) 0.0149(8) 0.0228(9) 0.0008(7) 0.0043(7) -0.0011(6)
C3 0.0167(8) 0.0220(9) 0.0237(9) 0.0002(7) 0.0018(7) -0.0015(7)
C4 0.0233(9) 0.0235(9) 0.0191(8) 0.0009(7) 0.0025(7) -0.0015(7)
C5 0.0225(9) 0.0218(9) 0.0199(9) 0.0002(7) 0.0075(7) -0.0015(7)
C6 0.0187(8) 0.0154(8) 0.0222(9) 0.0003(6) 0.0058(7) -0.0012(6)
C7 0.0195(9) 0.0164(8) 0.0233(9) -0.0001(7) 0.0061(7) -0.0013(7)
C8 0.0151(8) 0.0252(9) 0.0188(8) 0.0009(7) 0.0022(6) 0.0015(7)
C9 0.0257(9) 0.0273(10) 0.0310(10) -0.0034(8) 0.0103(8) -0.0036(8)
C10 0.0304(10) 0.0331(11) 0.0305(10) -0.0087(8) 0.0099(8) 0.0020(8)
C11 0.0211(9) 0.0432(12) 0.0231(9) 0.0003(8) 0.0087(7) 0.0047(8)
C12 0.0189(9) 0.0377(11) 0.0233(9) 0.0037(8) 0.0044(7) -0.0044(8)
C13 0.0199(8) 0.0256(9) 0.0199(8) 0.0001(7) 0.0024(7) -0.0007(7)
C14 0.0187(9) 0.0164(8) 0.0232(9) -0.0004(7) 0.0054(7) -0.0003(7)
C15 0.0191(9) 0.0302(10) 0.0164(8) 0.0005(7) 0.0060(7) 0.0007(7)
C16 0.0250(9) 0.0334(11) 0.0240(9) 0.0010(8) 0.0040(7) 0.0050(8)
C17 0.0270(10) 0.0506(13) 0.0293(10) 0.0020(10) 0.0037(8) 0.0155(10)
C18 0.0177(9) 0.0676(16) 0.0278(10) -0.0021(10) 0.0014(8) 0.0046(10)
C19 0.0226(10) 0.0530(14) 0.0277(10) -0.0072(9) 0.0050(8) -0.0088(9)
C20 0.0226(9) 0.0347(11) 0.0256(9) -0.0038(8) 0.0065(7) -0.0018(8)
S1 0.0733(9) 0.0283(7) 0.0368(7) -0.0070(5) 0.0008(6) -0.0009(6)
O1 0.103(3) 0.073(3) 0.068(3) -0.012(2) 0.039(3) -0.035(3)
O2 0.129(5) 0.039(2) 0.033(2) -0.0090(17) 0.012(3) -0.003(3)
O3 0.137(5) 0.036(2) 0.071(4) -0.001(3) -0.039(4) 0.013(3)
F1 0.091(3) 0.0308(19) 0.074(3) 0.0112(17) -0.009(3) 0.015(2)
F2 0.143(4) 0.0376(17) 0.0445(18) -0.0101(14) -0.019(2) 0.000(2)
F3 0.102(3) 0.072(3) 0.100(4) 0.007(3) 0.029(3) -0.045(2)
C21 0.0733(9) 0.0283(7) 0.0368(7) -0.0070(5) 0.0008(6) -0.0009(6)
loop_
_atom_type_symbol
_atom_type_description
_atom_type_scat_dispersion_real
_atom_type_scat_dispersion_imag
_atom_type_scat_source
C C 0.0033 0.0016 'International Tables Vol C Tables 4.2.6.8 and 6.1.1.4'
H H 0.0000 0.0000 'International Tables Vol C Tables 4.2.6.8 and 6.1.1.4'
N N 0.0061 0.0033 'International Tables Vol C Tables 4.2.6.8 and 6.1.1.4'
O O 0.0106 0.0060 'International Tables Vol C Tables 4.2.6.8 and 6.1.1.4'
F F 0.0171 0.0103 'International Tables Vol C Tables 4.2.6.8 and 6.1.1.4'
S S 0.1246 0.1234 'International Tables Vol C Tables 4.2.6.8 and 6.1.1.4'
loop_
_geom_angle_atom_site_label_1
_geom_angle_atom_site_label_2
_geom_angle_atom_site_label_3
_geom_angle
_geom_angle_site_symmetry_1
_geom_angle_site_symmetry_3
N1 N1 C2 119.90(18) 2_655 .
N1 N1 C6 120.42(18) 2_655 .
C1 N1 N1 0.0 2_655 2_655
C1 N1 C2 119.90(18) 2_655 .
C1 N1 C6 120.42(18) 2_655 .
C6 N1 C2 119.68(15) . .
N1 C2 C14 119.43(15) . 2_655
C3 C2 N1 118.84(15) . .
C3 C2 C14 121.69(16) . 2_655
C2 C3 H3 119.2 . .
C4 C3 C2 121.56(16) . .
C4 C3 H3 119.2 . .
C3 C4 H4 120.3 . .
C3 C4 C5 119.39(16) . .
C5 C4 H4 120.3 . .
C4 C5 H5 119.4 . .
C4 C5 C6 121.21(16) . .
C6 C5 H5 119.4 . .
N1 C6 C7 119.32(15) . .
C5 C6 N1 119.25(15) . .
C5 C6 C7 121.41(16) . .
C6 C7 C8 118.50(15) . .
C14 C7 C6 120.28(16) . .
C14 C7 C8 121.22(15) . .
C9 C8 C7 120.05(16) . .
C9 C8 C13 119.25(16) . .
C13 C8 C7 120.70(16) . .
C8 C9 H9 119.9 . .
C10 C9 C8 120.23(18) . .
C10 C9 H9 119.9 . .
C9 C10 H10 119.9 . .
C11 C10 C9 120.25(18) . .
C11 C10 H10 119.9 . .
C10 C11 H11 120.1 . .
C10 C11 C12 119.73(17) . .
C12 C11 H11 120.1 . .
C11 C12 H12 119.9 . .
C11 C12 C13 120.26(17) . .
C13 C12 H12 119.9 . .
C8 C13 H13 119.9 . .
C12 C13 C8 120.28(17) . .
C12 C13 H13 119.9 . .
C2 C14 C15 118.67(15) 2_655 .
C7 C14 C2 120.18(16) . 2_655
C7 C14 C15 121.06(15) . .
C16 C15 C14 119.91(16) . .
C20 C15 C14 120.48(16) . .
C20 C15 C16 119.61(17) . .
C15 C16 H16 120.1 . .
C15 C16 C17 119.89(19) . .
C17 C16 H16 120.1 . .
C16 C17 H17 119.9 . .
C18 C17 C16 120.3(2) . .
C18 C17 H17 119.9 . .
C17 C18 H18 119.9 . .
C19 C18 C17 120.10(18) . .
C19 C18 H18 119.9 . .
C18 C19 H19 120.0 . .
C18 C19 C20 120.0(2) . .
C20 C19 H19 120.0 . .
C15 C20 C19 120.15(19) . .
C15 C20 H20 119.9 . .
C19 C20 H20 119.9 . .
O1 S1 C21 101.9(2) . .
O2 S1 O1 112.2(3) . .
O2 S1 O3 116.0(3) . .
O2 S1 C21 108.7(3) . .
O3 S1 O1 113.2(3) . .
O3 S1 C21 103.3(2) . .
F1 C21 S1 112.5(4) . .
F1 C21 F3 98.1(4) . .
F2 C21 S1 123.3(4) . .
F2 C21 F1 105.3(4) . .
F2 C21 F3 104.5(5) . .
F3 C21 S1 110.1(4) . .
loop_
_geom_bond_atom_site_label_1
_geom_bond_atom_site_label_2
_geom_bond_distance
_geom_bond_site_symmetry_2
N1 N1 1.395(3) 2_655
N1 C1 1.395(3) 2_655
N1 C2 1.411(2) .
N1 C6 1.406(2) .
C2 C3 1.392(2) .
C2 C14 1.441(2) 2_655
C3 H3 0.9500 .
C3 C4 1.377(2) .
C4 H4 0.9500 .
C4 C5 1.382(2) .
C5 H5 0.9500 .
C5 C6 1.391(2) .
C6 C7 1.440(2) .
C7 C8 1.494(2) .
C7 C14 1.359(3) .
C8 C9 1.391(3) .
C8 C13 1.392(3) .
C9 H9 0.9500 .
C9 C10 1.390(3) .
C10 H10 0.9500 .
C10 C11 1.384(3) .
C11 H11 0.9500 .
C11 C12 1.385(3) .
C12 H12 0.9500 .
C12 C13 1.387(2) .
C13 H13 0.9500 .
C14 C2 1.441(2) 2_655
C14 C15 1.495(2) .
C15 C16 1.391(3) .
C15 C20 1.389(3) .
C16 H16 0.9500 .
C16 C17 1.392(3) .
C17 H17 0.9500 .
C17 C18 1.383(3) .
C18 H18 0.9500 .
C18 C19 1.381(3) .
C19 H19 0.9500 .
C19 C20 1.393(3) .
C20 H20 0.9500 .
S1 O1 1.450(4) .
S1 O2 1.408(4) .
S1 O3 1.423(4) .
S1 C21 1.708(5) .
F1 C21 1.431(6) .
F2 C21 1.255(5) .
F3 C21 1.441(6) .
loop_
_geom_torsion_atom_site_label_1
_geom_torsion_atom_site_label_2
_geom_torsion_atom_site_label_3
_geom_torsion_atom_site_label_4
_geom_torsion
_geom_torsion_site_symmetry_1
_geom_torsion_site_symmetry_4
N1 N1 C2 C3 176.39(11) 2_655 .
N1 N1 C2 C14 -6.14(18) 2_655 2_655
N1 N1 C6 C5 -176.95(11) 2_655 .
N1 N1 C6 C7 1.75(18) 2_655 .
N1 C2 C3 C4 1.3(3) . .
N1 C6 C7 C8 174.00(15) . .
N1 C6 C7 C14 -6.3(2) . .
C1 N1 C2 C3 176.39(11) 2_655 .
C1 N1 C2 C14 -6.14(18) 2_655 2_655
C1 N1 C6 C5 -176.95(11) 2_655 .
C1 N1 C6 C7 1.75(18) 2_655 .
C2 N1 C6 C5 2.6(2) . .
C2 N1 C6 C7 -178.75(15) . .
C2 C3 C4 C5 1.0(3) . .
C2 C14 C15 C16 102.70(19) 2_655 .
C2 C14 C15 C20 -78.0(2) 2_655 .
C3 C4 C5 C6 -1.6(3) . .
C4 C5 C6 N1 -0.2(3) . .
C4 C5 C6 C7 -178.86(16) . .
C5 C6 C7 C8 -7.3(2) . .
C5 C6 C7 C14 172.39(16) . .
C6 N1 C2 C3 -3.1(2) . .
C6 N1 C2 C14 174.36(15) . 2_655
C6 C7 C8 C9 -67.3(2) . .
C6 C7 C8 C13 113.05(18) . .
C6 C7 C14 C2 4.5(2) . 2_655
C6 C7 C14 C15 -178.85(15) . .
C7 C8 C9 C10 -179.58(17) . .
C7 C8 C13 C12 179.45(16) . .
C7 C14 C15 C16 -74.0(2) . .
C7 C14 C15 C20 105.3(2) . .
C8 C7 C14 C2 -175.76(15) . 2_655
C8 C7 C14 C15 0.9(3) . .
C8 C9 C10 C11 0.2(3) . .
C9 C8 C13 C12 -0.2(3) . .
C9 C10 C11 C12 -0.3(3) . .
C10 C11 C12 C13 0.2(3) . .
C11 C12 C13 C8 0.1(3) . .
C13 C8 C9 C10 0.1(3) . .
C14 C2 C3 C4 -176.06(16) 2_655 .
C14 C7 C8 C9 113.0(2) . .
C14 C7 C8 C13 -66.7(2) . .
C14 C15 C16 C17 179.44(17) . .
C14 C15 C20 C19 -179.38(16) . .
C15 C16 C17 C18 0.0(3) . .
C16 C15 C20 C19 -0.1(3) . .
C16 C17 C18 C19 -0.2(3) . .
C17 C18 C19 C20 0.3(3) . .
C18 C19 C20 C15 -0.1(3) . .
C20 C15 C16 C17 0.1(3) . .
O1 S1 C21 F1 67.0(4) . .
O1 S1 C21 F2 -60.7(5) . .
O1 S1 C21 F3 175.2(4) . .
O2 S1 C21 F1 -51.6(4) . .
O2 S1 C21 F2 -179.3(4) . .
O2 S1 C21 F3 56.7(4) . .
O3 S1 C21 F1 -175.4(4) . .
O3 S1 C21 F2 56.9(5) . .
O3 S1 C21 F3 -67.1(5) . .
