#------------------------------------------------------------------------------
#$Date: 2016-08-07 10:56:50 +0300 (Sun, 07 Aug 2016) $
#$Revision: 185110 $
#$URL: file:///home/coder/svn-repositories/cod/cif/1/54/30/1543073.cif $
#------------------------------------------------------------------------------
#
# This file is available in the Crystallography Open Database (COD),
# http://www.crystallography.net/
#
# All data on this site have been placed in the public domain by the
# contributors.
#
data_1543073
loop_
_publ_author_name
'Delgado, I. Hern\'andez'
'Pascal, S.'
'Wallabregue, A.'
'Duwald, R.'
'Besnard, C.'
'Gu\'en\'ee, L.'
'Nan\,coz, C.'
'Vauthey, E.'
'Tovar, R. C.'
'Lunkley, J. L.'
'Muller, G.'
'Lacour, J.'
_publ_section_title
;
 Functionalized cationic [4]helicenes with unique tuning of absorption,
 fluorescence and chiroptical properties up to the far-red range
;
_journal_issue                   7
_journal_name_full               'Chem. Sci.'
_journal_page_first              4685
_journal_paper_doi               10.1039/C6SC00614K
_journal_volume                  7
_journal_year                    2016
_chemical_formula_moiety         'C30 H33 N2 O3 S, C H2 Cl2, B F4'
_chemical_formula_sum            'C31 H35 B Cl2 F4 N2 O3 S'
_chemical_formula_weight         673.38
_space_group_crystal_system      triclinic
_space_group_IT_number           2
_space_group_name_Hall           '-P 1'
_space_group_name_H-M_alt        'P -1'
_symmetry_space_group_name_Hall  '-P 1'
_symmetry_space_group_name_H-M   'P -1'
_atom_sites_solution_hydrogens   geom
_atom_sites_solution_primary     direct
_audit_creation_date             2015-03-31
_audit_creation_method
;
Olex2 1.2
(compiled 2015.01.26 svn.r3150 for OlexSys, GUI svn.r4998)
;
_audit_update_record
;
2015-12-21 deposited with the CCDC.
2016-04-08 downloaded from the CCDC.
;
_cell_angle_alpha                84.422(4)
_cell_angle_beta                 65.830(5)
_cell_angle_gamma                79.905(4)
_cell_formula_units_Z            2
_cell_length_a                   11.1714(6)
_cell_length_b                   11.8849(6)
_cell_length_c                   13.3323(7)
_cell_measurement_reflns_used    14776
_cell_measurement_temperature    180(2)
_cell_measurement_theta_max      73.5010
_cell_measurement_theta_min      4.3570
_cell_volume                     1589.32(16)
_computing_cell_refinement
;
CrysAlisPro, Agilent Technologies,
Version 1.171.37.35 (release 13-08-2014 CrysAlis171 .NET)
(compiled Aug 13 2014,18:06:01)
;
_computing_data_collection
;
CrysAlisPro, Agilent Technologies,
Version 1.171.37.35 (release 13-08-2014 CrysAlis171 .NET)
(compiled Aug 13 2014,18:06:01)
;
_computing_data_reduction
;
CrysAlisPro, Agilent Technologies,
Version 1.171.37.35 (release 13-08-2014 CrysAlis171 .NET)
(compiled Aug 13 2014,18:06:01)
;
_computing_molecular_graphics    'Olex2 (Dolomanov et al., 2009)'
_computing_publication_material  'Olex2 (Dolomanov et al., 2009)'
_computing_structure_refinement  'ShelXL (Sheldrick, 2008)'
_computing_structure_solution    'SIR2004 (Burla et al., 2007)'
_diffrn_ambient_temperature      180.15
_diffrn_detector                 'CCD plate'
_diffrn_detector_area_resol_mean 10.4679
_diffrn_detector_type            Atlas
_diffrn_measured_fraction_theta_full 0.999
_diffrn_measured_fraction_theta_max 0.980
_diffrn_measurement_details
;
  1 omega -129.00   53.00   0.5000    0.5000
omega____ theta____ kappa____ phi______ frames
    -      -37.5615    0.0000  -90.0000 364

  2 omega  -67.00   -4.00   0.5000    0.5000
omega____ theta____ kappa____ phi______ frames
    -      -37.5615   57.0000  -90.0000 126

  3 omega   73.00   99.00   0.5000    0.5000
omega____ theta____ kappa____ phi______ frames
    -       37.5615  178.0000   90.0000 52

  4 omega   68.00  124.00   0.5000    0.5000
omega____ theta____ kappa____ phi______ frames
    -       37.5615  178.0000 -120.0000 112

  5 omega   66.00  105.00   0.5000    0.5000
omega____ theta____ kappa____ phi______ frames
    -       37.5615 -178.0000  150.0000 78

  6 omega   74.00  130.00   0.5000    0.5000
omega____ theta____ kappa____ phi______ frames
    -       37.5615  178.0000   60.0000 112

  7 omega   75.00  168.00   0.5000    2.0000
omega____ theta____ kappa____ phi______ frames
    -      110.3999   30.0000  -30.0000 186

  8 omega   73.00  175.00   0.5000    2.0000
omega____ theta____ kappa____ phi______ frames
    -      110.3999   30.0000 -120.0000 204

  9 omega   32.00   78.00   0.5000    2.0000
omega____ theta____ kappa____ phi______ frames
    -      110.3999  -77.0000 -150.0000 92

 10 omega   47.00   87.00   0.5000    2.0000
omega____ theta____ kappa____ phi______ frames
    -      110.3999  -30.0000 -180.0000 80

 11 omega   42.00   90.00   0.5000    2.0000
omega____ theta____ kappa____ phi______ frames
    -      110.3999  -45.0000   30.0000 96

 12 omega   30.00   99.00   0.5000    2.0000
omega____ theta____ kappa____ phi______ frames
    -      110.3999 -111.0000   30.0000 138

 13 omega   83.00  109.00   0.5000    2.0000
omega____ theta____ kappa____ phi______ frames
    -      110.3999  -94.0000 -150.0000 52

 14 omega   34.00   83.00   0.5000    2.0000
omega____ theta____ kappa____ phi______ frames
    -      110.3999  -30.0000   60.0000 98

 15 omega   32.00  109.00   0.5000    2.0000
omega____ theta____ kappa____ phi______ frames
    -      110.3999 -111.0000 -150.0000 154

 16 omega   35.00   75.00   0.5000    2.0000
omega____ theta____ kappa____ phi______ frames
    -      110.3999  -29.0000  -18.0000 80

 17 omega  142.00  178.00   0.5000    2.0000
omega____ theta____ kappa____ phi______ frames
    -      110.3999  111.0000  -90.0000 72

 18 omega  102.00  136.00   0.5000    2.0000
omega____ theta____ kappa____ phi______ frames
    -      110.3999  111.0000  150.0000 68

 19 omega   81.00  143.00   0.5000    2.0000
omega____ theta____ kappa____ phi______ frames
    -      110.3999  -77.0000 -150.0000 124

 20 omega   39.00  108.00   0.5000    2.0000
omega____ theta____ kappa____ phi______ frames
    -      110.3999  -94.0000   60.0000 138

 21 omega  -35.00   35.00   0.5000    0.5000
omega____ theta____ kappa____ phi______ frames
    -       37.5615  -29.0000  -18.0000 140

 22 omega -111.00   -6.00   0.5000    0.5000
omega____ theta____ kappa____ phi______ frames
    -      -37.5615  -37.0000   90.0000 210

 23 omega  -34.00   -7.00   0.5000    0.5000
omega____ theta____ kappa____ phi______ frames
    -      -37.5615  -37.0000 -150.0000 54

 24 omega -116.00  -43.00   0.5000    0.5000
omega____ theta____ kappa____ phi______ frames
    -      -37.5615  -37.0000 -150.0000 146

 25 omega   -6.00   19.00   0.5000    0.5000
omega____ theta____ kappa____ phi______ frames
    -       37.5615   99.0000   -9.8211 50

 26 omega    8.00   33.00   0.5000    0.5000
omega____ theta____ kappa____ phi______ frames
    -       44.0000   79.0000 -122.4482 50

 27 omega   11.00   36.00   0.5000    0.5000
omega____ theta____ kappa____ phi______ frames
    -       48.0000   83.0000 -160.9728 50

 28 omega   15.00   40.00   0.5000    0.5000
omega____ theta____ kappa____ phi______ frames
    -       52.0000   82.0000  103.9847 50

 29 omega   19.00   44.00   0.5000    0.5000
omega____ theta____ kappa____ phi______ frames
    -       56.0000   82.0000    7.3363 50

 30 omega   19.00   44.00   0.5000    0.5000
omega____ theta____ kappa____ phi______ frames
    -       56.0000   80.0000  -39.6015 50

 31 omega   20.00   45.00   0.5000    0.5000
omega____ theta____ kappa____ phi______ frames
    -       56.0000   82.0000  124.6415 50

 32 omega   19.00   44.00   0.5000    0.5000
omega____ theta____ kappa____ phi______ frames
    -       56.0000   80.0000  -79.0478 50

 33 omega  106.00  132.00   0.5000    0.5000
omega____ theta____ kappa____ phi______ frames
    -       64.0000   75.0000 -131.8461 52

 34 omega   28.00   60.00   0.5000    0.5000
omega____ theta____ kappa____ phi______ frames
    -       64.0000   75.0000 -131.8461 64

 35 omega   29.00   67.00   0.5000    0.5000
omega____ theta____ kappa____ phi______ frames
    -       64.0000   74.0000  169.6332 76

 36 omega   32.00   58.00   0.5000    0.5000
omega____ theta____ kappa____ phi______ frames
    -       64.0000   77.0000   15.9472 52

 37 omega   33.00   74.00   0.5000    0.5000
omega____ theta____ kappa____ phi______ frames
    -       68.0000   77.0000  -35.1868 82

 38 omega  113.00  139.00   0.5000    0.5000
omega____ theta____ kappa____ phi______ frames
    -       68.0000   76.0000   43.4916 52

 39 omega   32.00   69.00   0.5000    0.5000
omega____ theta____ kappa____ phi______ frames
    -       68.0000   76.0000   43.4916 74

 40 omega  107.00  133.00   0.5000    0.5000
omega____ theta____ kappa____ phi______ frames
    -       72.0000   77.0000   96.1352 52

 41 omega   36.00   73.00   0.5000    0.5000
omega____ theta____ kappa____ phi______ frames
    -       72.0000   77.0000  -94.5232 74

 42 omega   36.00   72.00   0.5000    0.5000
omega____ theta____ kappa____ phi______ frames
    -       72.0000   77.0000   96.1352 72

 43 omega   77.00  110.00   0.5000    2.0000
omega____ theta____ kappa____ phi______ frames
    -      110.3999   61.0000 -180.0000 66

 44 omega   79.00  106.00   0.5000    2.0000
omega____ theta____ kappa____ phi______ frames
    -      110.3999   61.0000    0.0000 54

 45 omega   74.00  100.00   0.5000    2.0000
omega____ theta____ kappa____ phi______ frames
    -      110.3999   77.0000 -180.0000 52

 46 omega   78.00  110.00   0.5000    2.0000
omega____ theta____ kappa____ phi______ frames
    -      110.3999   61.0000   60.0000 64

 47 omega   74.00  102.00   0.5000    2.0000
omega____ theta____ kappa____ phi______ frames
    -      110.3999   77.0000  -90.0000 56

 48 omega   74.00  100.00   0.5000    2.0000
omega____ theta____ kappa____ phi______ frames
    -      110.3999   77.0000 -120.0000 52

 49 omega   74.00  100.00   0.5000    2.0000
omega____ theta____ kappa____ phi______ frames
    -      110.3999   77.0000 -150.0000 52

 50 omega   75.00  101.00   0.5000    2.0000
omega____ theta____ kappa____ phi______ frames
    -      110.3999   77.0000  -60.0000 52

 51 omega   74.00  170.00   0.5000    2.0000
omega____ theta____ kappa____ phi______ frames
    -      110.3999   77.0000   60.0000 192

 52 omega  116.00  142.00   0.5000    2.0000
omega____ theta____ kappa____ phi______ frames
    -      110.3999   77.0000  120.0000 52

 53 omega   74.00  170.00   0.5000    2.0000
omega____ theta____ kappa____ phi______ frames
    -      110.3999   77.0000   90.0000 192

 54 omega   77.00  104.00   0.5000    2.0000
omega____ theta____ kappa____ phi______ frames
    -      110.3999   61.0000  -60.0000 54

 55 omega   74.00  101.00   0.5000    2.0000
omega____ theta____ kappa____ phi______ frames
    -      110.3999   77.0000  120.0000 54

 56 omega   79.00  105.00   0.5000    2.0000
omega____ theta____ kappa____ phi______ frames
    -      110.3999   61.0000 -150.0000 52

 57 omega   78.00  104.00   0.5000    2.0000
omega____ theta____ kappa____ phi______ frames
    -      110.3999   61.0000  120.0000 52

 58 omega   77.00  151.00   0.5000    2.0000
omega____ theta____ kappa____ phi______ frames
    -      110.3999   61.0000   30.0000 148

 59 omega   74.00  100.00   0.5000    2.0000
omega____ theta____ kappa____ phi______ frames
    -      110.3999   77.0000   30.0000 52

 60 omega   74.00  103.00   0.5000    2.0000
omega____ theta____ kappa____ phi______ frames
    -      110.3999   77.0000    0.0000 58

 61 omega  121.00  165.00   0.5000    2.0000
omega____ theta____ kappa____ phi______ frames
    -      110.3999   77.0000  -30.0000 88

 62 omega   74.00  100.00   0.5000    2.0000
omega____ theta____ kappa____ phi______ frames
    -      110.3999   77.0000  -30.0000 52

 63 omega   74.00  100.00   0.5000    2.0000
omega____ theta____ kappa____ phi______ frames
    -      110.3999   77.0000  150.0000 52

 64 omega  122.00  147.00   0.5000    2.0000
omega____ theta____ kappa____ phi______ frames
    -      110.3999   61.0000    0.0000 50

 65 omega   79.00  146.00   0.5000    2.0000
omega____ theta____ kappa____ phi______ frames
    -      110.3999   61.0000  150.0000 134
;
_diffrn_measurement_device       'four-circle diffractometer'
_diffrn_measurement_device_type  'SuperNova, Dual, Cu at zero, Atlas'
_diffrn_measurement_method       '\w scans'
_diffrn_orient_matrix_UB_11      -0.0778074000
_diffrn_orient_matrix_UB_12      -0.1012608000
_diffrn_orient_matrix_UB_13      0.0232992000
_diffrn_orient_matrix_UB_21      -0.1315642000
_diffrn_orient_matrix_UB_22      0.0829607000
_diffrn_orient_matrix_UB_23      0.0432666000
_diffrn_orient_matrix_UB_31      0.0021552000
_diffrn_orient_matrix_UB_32      0.0145788000
_diffrn_orient_matrix_UB_33      -0.1167883000
_diffrn_radiation_monochromator  mirror
_diffrn_radiation_probe          x-ray
_diffrn_radiation_type           CuK\a
_diffrn_radiation_wavelength     1.54184
_diffrn_reflns_av_R_equivalents  0.0233
_diffrn_reflns_av_unetI/netI     0.0154
_diffrn_reflns_Laue_measured_fraction_full 0.999
_diffrn_reflns_Laue_measured_fraction_max 0.980
_diffrn_reflns_limit_h_max       13
_diffrn_reflns_limit_h_min       -13
_diffrn_reflns_limit_k_max       14
_diffrn_reflns_limit_k_min       -14
_diffrn_reflns_limit_l_max       14
_diffrn_reflns_limit_l_min       -16
_diffrn_reflns_number            24488
_diffrn_reflns_point_group_measured_fraction_full 0.999
_diffrn_reflns_point_group_measured_fraction_max 0.980
_diffrn_reflns_theta_full        67.684
_diffrn_reflns_theta_max         73.778
_diffrn_reflns_theta_min         3.635
_diffrn_source                   'sealed X-ray tube'
_diffrn_source_type              'SuperNova (Cu) X-ray Source'
_exptl_absorpt_coefficient_mu    2.964
_exptl_absorpt_correction_T_max  0.789
_exptl_absorpt_correction_T_min  0.486
_exptl_absorpt_correction_type   gaussian
_exptl_absorpt_process_details
;
CrysAlisPro, Agilent Technologies,
Version 1.171.37.35 (release 13-08-2014 CrysAlis171 .NET)
(compiled Aug 13 2014,18:06:01)
Numerical absorption correction based on gaussian integration over
            a multifaceted crystal model
Empirical absorption correction using spherical harmonics,
 implemented in SCALE3 ABSPACK scaling algorithm.
;
_exptl_crystal_colour            red
_exptl_crystal_colour_primary    red
_exptl_crystal_density_diffrn    1.407
_exptl_crystal_description       plate
_exptl_crystal_F_000             700
_exptl_crystal_size_max          0.441
_exptl_crystal_size_mid          0.2389
_exptl_crystal_size_min          0.1055
_refine_diff_density_max         0.835
_refine_diff_density_min         -1.018
_refine_diff_density_rms         0.068
_refine_ls_extinction_method     none
_refine_ls_goodness_of_fit_ref   1.066
_refine_ls_hydrogen_treatment    constr
_refine_ls_matrix_type           full
_refine_ls_number_parameters     402
_refine_ls_number_reflns         6301
_refine_ls_number_restraints     0
_refine_ls_restrained_S_all      1.066
_refine_ls_R_factor_all          0.0643
_refine_ls_R_factor_gt           0.0610
_refine_ls_shift/su_max          0.000
_refine_ls_shift/su_mean         0.000
_refine_ls_structure_factor_coef Fsqd
_refine_ls_weighting_details
'w=1/[\s^2^(Fo^2^)+(0.0980P)^2^+1.5035P] where P=(Fo^2^+2Fc^2^)/3'
_refine_ls_weighting_scheme      calc
_refine_ls_wR_factor_gt          0.1750
_refine_ls_wR_factor_ref         0.1786
_reflns_Friedel_coverage         0.000
_reflns_number_gt                5791
_reflns_number_total             6301
_reflns_threshold_expression     'I > 2\s(I)'
_iucr_refine_instructions_details
;

    spa065b.res created by SHELXL-2014/7

TITL spa065b in P-1 #2
REM reset to P-1 #2
CELL 1.54184 11.171391 11.884905 13.332272 84.4219 65.8296 79.9045
ZERR 2 0.00056 0.000634 0.000702 0.0044 0.005 0.0043
LATT 1
SFAC C H B Cl F N O S
UNIT 62 70 2 4 8 4 6 2
 
L.S. 10
PLAN  5
TEMP -93
BOND
fmap 2
MORE -1
BOND $H
CONF
ACTA
REM <olex2.extras>
REM <HklSrc "%.\\spa065b.hkl">
REM </olex2.extras>
 
WGHT    0.098000    1.503500
FVAR       5.67945
S11   8    1.145664    0.085194   -0.110834    11.00000    0.05325    0.04135 =
         0.04462   -0.01251   -0.01693   -0.00071
O26   7    0.520003    0.586188    0.354359    11.00000    0.02654    0.04214 =
         0.02094   -0.00711   -0.00318   -0.00107
O29   7    0.728511    0.699474    0.287145    11.00000    0.03936    0.03753 =
         0.03403   -0.01307   -0.01478   -0.00599
O10   7    1.172032    0.223494    0.016709    11.00000    0.02908    0.05835 =
         0.04228   -0.01290   -0.01135   -0.00217
N16   6    0.909059    0.315871    0.175174    11.00000    0.02594    0.03531 =
         0.02181   -0.00383   -0.00639   -0.00253
N4    6    0.707854    0.567408   -0.035381    11.00000    0.02800    0.03394 =
         0.01967   -0.00291   -0.00804   -0.00680
C19   1    0.743069    0.515685    0.160219    11.00000    0.02163    0.03071 =
         0.02070   -0.00431   -0.00413   -0.00835
C18   1    0.798148    0.505285    0.241446    11.00000    0.02101    0.03770 =
         0.01975   -0.00621   -0.00454   -0.00723
C15   1    0.811280    0.443617    0.069040    11.00000    0.02141    0.03232 =
         0.02000   -0.00510   -0.00404   -0.00648
C14   1    0.902659    0.345475    0.075060    11.00000    0.02232    0.03417 =
         0.02127   -0.00441   -0.00419   -0.00570
C20   1    0.628766    0.591786    0.160730    11.00000    0.02366    0.02994 =
         0.02311   -0.00562   -0.00673   -0.00613
C25   1    0.520337    0.636128    0.258593    11.00000    0.02396    0.03359 =
         0.02553   -0.00697   -0.00612   -0.00557
C21   1    0.617766    0.622557    0.058881    11.00000    0.02529    0.03101 =
         0.02580   -0.00460   -0.00874   -0.00682
C17   1    0.877106    0.400625    0.250602    11.00000    0.02156    0.03972 =
         0.02136   -0.00411   -0.00459   -0.00771
C5    1    0.790118    0.469342   -0.029640    11.00000    0.02403    0.03298 =
         0.02081   -0.00465   -0.00486   -0.00750
C32   1    0.901487    0.469646    0.402246    11.00000    0.03227    0.05970 =
         0.02739   -0.00334   -0.01397   -0.01458
AFIX  43
H32   2    0.932673    0.457034    0.459449    11.00000   -1.20000
AFIX   0
C28   1    0.784504    0.595453    0.310634    11.00000    0.02626    0.03955 =
         0.02530   -0.00845   -0.00633   -0.01031
C8    1    0.978080    0.279686   -0.018818    11.00000    0.02827    0.03494 =
         0.02360   -0.00636   -0.00315   -0.00374
C24   1    0.420449    0.718151    0.252389    11.00000    0.03004    0.03753 =
         0.03357   -0.01137   -0.00716    0.00064
AFIX  43
H24   2    0.351474    0.749582    0.317582    11.00000   -1.20000
AFIX   0
C2    1    0.622713    0.572928   -0.184578    11.00000    0.03662    0.04444 =
         0.02989   -0.00132   -0.01607   -0.01046
AFIX  23
H2A   2    0.638144    0.488328   -0.184823    11.00000   -1.20000
H2B   2    0.529646    0.597970   -0.134074    11.00000   -1.20000
AFIX   0
C33   1    0.924530    0.381683    0.334325    11.00000    0.02710    0.04930 =
         0.02656    0.00004   -0.01115   -0.00788
AFIX  43
H33   2    0.971549    0.309492    0.343688    11.00000   -1.20000
AFIX   0
C6    1    0.857587    0.396495   -0.118782    11.00000    0.03300    0.04229 =
         0.02053   -0.00814   -0.00781   -0.00413
AFIX  43
H6    2    0.840170    0.409889   -0.183294    11.00000   -1.20000
AFIX   0
C23   1    0.420793    0.755043    0.149949    11.00000    0.03758    0.03602 =
         0.04298   -0.00617   -0.01612    0.00539
AFIX  43
H23   2    0.353652    0.814482    0.146160    11.00000   -1.20000
AFIX   0
C7    1    0.949384    0.305293   -0.112041    11.00000    0.03275    0.03983 =
         0.02287   -0.01104   -0.00361   -0.00340
AFIX  43
H7    2    0.995340    0.257566   -0.173613    11.00000   -1.20000
AFIX   0
C31   1    0.834379    0.576225    0.390452    11.00000    0.03515    0.05258 =
         0.02664   -0.00850   -0.01110   -0.01533
AFIX  43
H31   2    0.822815    0.636003    0.437472    11.00000   -1.20000
AFIX   0
C22   1    0.515265    0.708058    0.054327    11.00000    0.03805    0.03516 =
         0.03244   -0.00217   -0.01460   -0.00183
AFIX  43
H22   2    0.511612    0.732960   -0.014400    11.00000   -1.20000
AFIX   0
C34   1    0.934176    0.194298    0.208750    11.00000    0.03758    0.03576 =
         0.02909   -0.00182   -0.01046   -0.00038
AFIX  23
H34A  2    1.014810    0.181554    0.224549    11.00000   -1.20000
H34B  2    0.950732    0.145096    0.147224    11.00000   -1.20000
AFIX   0
C9    1    1.103270    0.204016   -0.027125    11.00000    0.03337    0.03694 =
         0.02648   -0.00751    0.00074   -0.00524
C3    1    0.716448    0.614819   -0.144455    11.00000    0.03312    0.03810 =
         0.02143    0.00222   -0.01049   -0.01087
AFIX  23
H3A   2    0.808638    0.594599   -0.198880    11.00000   -1.20000
H3B   2    0.696822    0.699235   -0.141179    11.00000   -1.20000
AFIX   0
C30   1    0.698089    0.787806    0.363690    11.00000    0.05091    0.04547 =
         0.04185   -0.02179   -0.01481   -0.00236
AFIX 137
H30A  2    0.643913    0.761158    0.437846    11.00000   -1.50000
H30B  2    0.648895    0.856062    0.343011    11.00000   -1.50000
H30C  2    0.780679    0.806537    0.362498    11.00000   -1.50000
AFIX   0
C35   1    0.817431    0.159960    0.310437    11.00000    0.05373    0.04264 =
         0.02908    0.00076   -0.00979   -0.01391
AFIX  23
H35A  2    0.832667    0.076174    0.322994    11.00000   -1.20000
H35B  2    0.813179    0.197029    0.375420    11.00000   -1.20000
AFIX   0
C27   1    0.413702    0.630469    0.453044    11.00000    0.04010    0.05538 =
         0.02485   -0.00811    0.00206    0.00469
AFIX 137
H27A  2    0.424857    0.590109    0.517052    11.00000   -1.50000
H27B  2    0.328850    0.619310    0.453025    11.00000   -1.50000
H27C  2    0.414716    0.712264    0.456531    11.00000   -1.50000
AFIX   0
C36   1    0.685855    0.193202    0.299579    11.00000    0.04901    0.07712 =
         0.04337   -0.00719   -0.00810   -0.02883
AFIX 137
H36A  2    0.616787    0.159026    0.361137    11.00000   -1.50000
H36B  2    0.693207    0.165445    0.230134    11.00000   -1.50000
H36C  2    0.662496    0.276629    0.300445    11.00000   -1.50000
AFIX   0
C12   1    1.312730    0.039804   -0.119345    11.00000    0.05865    0.05122 =
         0.05058   -0.01048   -0.01661    0.00478
AFIX  23
H12A  2    1.367357    0.001994   -0.190152    11.00000   -1.20000
H12B  2    1.352037    0.107785   -0.117928    11.00000   -1.20000
AFIX   0
C13   1    1.316269   -0.041468   -0.026361    11.00000    0.11247    0.08197 =
         0.06710   -0.00072   -0.04108    0.01892
AFIX 137
H13A  2    1.265222   -0.003352    0.043801    11.00000   -1.50000
H13B  2    1.408419   -0.065029   -0.034886    11.00000   -1.50000
H13C  2    1.277470   -0.108939   -0.027454    11.00000   -1.50000
AFIX   0
C1    1    0.645588    0.620280   -0.299465    11.00000    0.07460    0.07471 =
         0.04028    0.01030   -0.03693   -0.02721
AFIX 137
H1A   2    0.626550    0.703949   -0.298384    11.00000   -1.50000
H1B   2    0.586840    0.591035   -0.325407    11.00000   -1.50000
H1C   2    0.738189    0.596518   -0.348997    11.00000   -1.50000
AFIX   0
 
CL2   4    0.382894    0.005746    0.424357    11.00000    0.06344    0.08041 =
         0.07012   -0.01335   -0.02030   -0.00359
CL1   4    0.301707    0.063751    0.241314    11.00000    0.15949    0.06379 =
         0.08142   -0.00362   -0.05776   -0.00945
C50   1    0.249558    0.038118    0.383372    11.00000    0.06075    0.04939 =
         0.07622   -0.00820   -0.01857   -0.00454
AFIX  23
H50A  2    0.197840   -0.026374    0.405357    11.00000   -1.20000
H50B  2    0.190291    0.106577    0.422132    11.00000   -1.20000
AFIX   0
 
F2    5    1.064716    0.259599    0.496601    11.00000    0.03669    0.07285 =
         0.05067   -0.02241   -0.00938   -0.01036
F3    5    0.870982    0.191897    0.548526    11.00000    0.04460    0.06394 =
         0.05067   -0.01546   -0.01923   -0.01585
F4    5    0.884941    0.334665    0.641676    11.00000    0.05445    0.08982 =
         0.05159   -0.03943   -0.00540   -0.01513
F5    5    0.989750    0.156090    0.654563    11.00000    0.11572    0.11884 =
         0.09685    0.03415   -0.07163   -0.02295
B1    3    0.952312    0.233107    0.587267    11.00000    0.03771    0.06454 =
         0.03834   -0.00917   -0.01917   -0.00903
HKLF 4
 
REM  spa065b in P-1 #2
REM R1 =  0.0610 for    5791 Fo > 4sig(Fo)  and  0.0643 for all    6301 data
REM    402 parameters refined using      0 restraints
 
END  
     
WGHT      0.0980      1.5035 

REM Highest difference peak  0.835,  deepest hole -1.018,  1-sigma level  0.068
Q1    1   1.1040  0.0428 -0.0478  11.00000  0.05    0.83
Q2    1   0.9148  0.2644  0.6740  11.00000  0.05    0.70
Q3    1   1.0793  0.1484 -0.0469  11.00000  0.05    0.68
Q4    1   1.1682  0.1615  0.0047  11.00000  0.05    0.63
Q5    1   1.0138  0.0939  0.6049  11.00000  0.05    0.62

REM The information below was added by Olex2.
REM
REM R1 = 0.0610 for 5791 Fo > 4sig(Fo) and 0.0643 for all 24488 data
REM n/a parameters refined using n/a restraints
REM Highest difference peak 0.83, deepest hole -1.02
REM Mean Shift 0, Max Shift 0.000.

REM +++ Tabular Listing of Refinement Information +++
REM R1_all = 0.0643
REM R1_gt = 0.0610
REM wR_ref = 0.1786
REM GOOF = 1.066
REM Shift_max = 0.000
REM Shift_mean = 0
REM Reflections_all = 24488
REM Reflections_gt = 5791
REM Parameters = n/a
REM Hole = -1.02
REM Peak = 0.83
REM Flack = n/a

;
_cod_data_source_file            c6sc00614k2.cif
_cod_data_source_block           spa065b
_cod_depositor_comments
'Adding full bibliography for 1543067--1543076.cif.'
_cod_original_cell_volume        1589.31(16)
_cod_database_code               1543073
_chemical_oxdiff_formula         'C31 H35 B1 Cl2 F4 N2 O5'
_shelx_space_group_comment
;
The symmetry employed for this shelxl refinement is uniquely defined
by the following loop, which should always be used as a source of
symmetry information in preference to the above space-group names.
They are only intended as comments.
;
_reflns_odcompleteness_completeness 99.95
_reflns_odcompleteness_iscentric 1
_reflns_odcompleteness_theta     66.97
_olex2_refinement_description
;
1. Fixed Uiso
 At 1.2 times of:
  All C(H) groups, All C(H,H) groups
 At 1.5 times of:
  All C(H,H,H) groups
2.a Secondary CH2 refined with riding coordinates:
 C2(H2A,H2B), C34(H34A,H34B), C3(H3A,H3B), C35(H35A,H35B), C12(H12A,H12B),
 C50(H50A,H50B)
2.b Aromatic/amide H refined with riding coordinates:
 C32(H32), C24(H24), C33(H33), C6(H6), C23(H23), C7(H7), C31(H31), C22(H22)
2.c Idealised Me refined as rotating group:
 C30(H30A,H30B,H30C), C27(H27A,H27B,H27C), C36(H36A,H36B,H36C), C13(H13A,H13B,
 H13C), C1(H1A,H1B,H1C)
;
_shelx_shelxl_version_number     2014/7
_olex2_submission_special_instructions 'No special instructions were received'
loop_
_space_group_symop_operation_xyz
'x, y, z'
'-x, -y, -z'
loop_
_atom_site_label
_atom_site_type_symbol
_atom_site_fract_x
_atom_site_fract_y
_atom_site_fract_z
_atom_site_U_iso_or_equiv
_atom_site_adp_type
_atom_site_occupancy
_atom_site_site_symmetry_order
_atom_site_calc_flag
_atom_site_refinement_flags_posn
S11 S 1.14566(7) 0.08519(6) -0.11083(6) 0.0473(2) Uani 1 1 d .
O26 O 0.52000(15) 0.58619(14) 0.35436(12) 0.0321(4) Uani 1 1 d .
O29 O 0.72851(17) 0.69947(14) 0.28715(14) 0.0360(4) Uani 1 1 d .
O10 O 1.17203(17) 0.22349(17) 0.01671(16) 0.0440(4) Uani 1 1 d .
N16 N 0.90906(18) 0.31587(16) 0.17517(15) 0.0288(4) Uani 1 1 d .
N4 N 0.70785(18) 0.56741(16) -0.03538(14) 0.0273(4) Uani 1 1 d .
C19 C 0.7431(2) 0.51569(18) 0.16022(17) 0.0249(4) Uani 1 1 d .
C18 C 0.7981(2) 0.50528(19) 0.24145(17) 0.0266(4) Uani 1 1 d .
C15 C 0.8113(2) 0.44362(18) 0.06904(17) 0.0253(4) Uani 1 1 d .
C14 C 0.9027(2) 0.34548(19) 0.07506(17) 0.0270(4) Uani 1 1 d .
C20 C 0.6288(2) 0.59179(18) 0.16073(17) 0.0258(4) Uani 1 1 d .
C25 C 0.5203(2) 0.63613(19) 0.25859(18) 0.0283(4) Uani 1 1 d .
C21 C 0.6178(2) 0.62256(18) 0.05888(18) 0.0272(4) Uani 1 1 d .
C17 C 0.8771(2) 0.4006(2) 0.25060(17) 0.0282(4) Uani 1 1 d .
C5 C 0.7901(2) 0.46934(19) -0.02964(17) 0.0266(4) Uani 1 1 d .
C32 C 0.9015(2) 0.4696(2) 0.4022(2) 0.0379(5) Uani 1 1 d .
H32 H 0.9327 0.4570 0.4594 0.046 Uiso 1 1 calc R
C28 C 0.7845(2) 0.5955(2) 0.31063(18) 0.0304(5) Uani 1 1 d .
C8 C 0.9781(2) 0.2797(2) -0.01882(18) 0.0311(5) Uani 1 1 d .
C24 C 0.4204(2) 0.7182(2) 0.2524(2) 0.0356(5) Uani 1 1 d .
H24 H 0.3515 0.7496 0.3176 0.043 Uiso 1 1 calc R
C2 C 0.6227(2) 0.5729(2) -0.1846(2) 0.0355(5) Uani 1 1 d .
H2A H 0.6381 0.4883 -0.1848 0.043 Uiso 1 1 calc R
H2B H 0.5296 0.5980 -0.1341 0.043 Uiso 1 1 calc R
C33 C 0.9245(2) 0.3817(2) 0.33433(19) 0.0340(5) Uani 1 1 d .
H33 H 0.9715 0.3095 0.3437 0.041 Uiso 1 1 calc R
C6 C 0.8576(2) 0.3965(2) -0.11878(18) 0.0326(5) Uani 1 1 d .
H6 H 0.8402 0.4099 -0.1833 0.039 Uiso 1 1 calc R
C23 C 0.4208(3) 0.7550(2) 0.1499(2) 0.0399(6) Uani 1 1 d .
H23 H 0.3537 0.8145 0.1462 0.048 Uiso 1 1 calc R
C7 C 0.9494(2) 0.3053(2) -0.11204(18) 0.0338(5) Uani 1 1 d .
H7 H 0.9953 0.2576 -0.1736 0.041 Uiso 1 1 calc R
C31 C 0.8344(2) 0.5762(2) 0.3905(2) 0.0369(5) Uani 1 1 d .
H31 H 0.8228 0.6360 0.4375 0.044 Uiso 1 1 calc R
C22 C 0.5153(2) 0.7081(2) 0.0543(2) 0.0354(5) Uani 1 1 d .
H22 H 0.5116 0.7330 -0.0144 0.043 Uiso 1 1 calc R
C34 C 0.9342(2) 0.1943(2) 0.2087(2) 0.0357(5) Uani 1 1 d .
H34A H 1.0148 0.1816 0.2245 0.043 Uiso 1 1 calc R
H34B H 0.9507 0.1451 0.1472 0.043 Uiso 1 1 calc R
C9 C 1.1033(2) 0.2040(2) -0.02713(19) 0.0360(5) Uani 1 1 d .
C3 C 0.7164(2) 0.6148(2) -0.14446(18) 0.0305(5) Uani 1 1 d .
H3A H 0.8086 0.5946 -0.1989 0.037 Uiso 1 1 calc R
H3B H 0.6968 0.6992 -0.1412 0.037 Uiso 1 1 calc R
C30 C 0.6981(3) 0.7878(2) 0.3637(2) 0.0465(6) Uani 1 1 d .
H30A H 0.6439 0.7612 0.4378 0.070 Uiso 1 1 calc GR
H30B H 0.6489 0.8561 0.3430 0.070 Uiso 1 1 calc GR
H30C H 0.7807 0.8065 0.3625 0.070 Uiso 1 1 calc GR
C35 C 0.8174(3) 0.1600(2) 0.3104(2) 0.0433(6) Uani 1 1 d .
H35A H 0.8327 0.0762 0.3230 0.052 Uiso 1 1 calc R
H35B H 0.8132 0.1970 0.3754 0.052 Uiso 1 1 calc R
C27 C 0.4137(3) 0.6305(3) 0.4530(2) 0.0462(6) Uani 1 1 d .
H27A H 0.4249 0.5901 0.5171 0.069 Uiso 1 1 calc GR
H27B H 0.3289 0.6193 0.4530 0.069 Uiso 1 1 calc GR
H27C H 0.4147 0.7123 0.4565 0.069 Uiso 1 1 calc GR
C36 C 0.6859(3) 0.1932(3) 0.2996(3) 0.0570(8) Uani 1 1 d .
H36A H 0.6168 0.1590 0.3611 0.085 Uiso 1 1 calc GR
H36B H 0.6932 0.1654 0.2301 0.085 Uiso 1 1 calc GR
H36C H 0.6625 0.2766 0.3004 0.085 Uiso 1 1 calc GR
C12 C 1.3127(3) 0.0398(3) -0.1193(3) 0.0563(8) Uani 1 1 d .
H12A H 1.3674 0.0020 -0.1902 0.068 Uiso 1 1 calc R
H12B H 1.3520 0.1078 -0.1179 0.068 Uiso 1 1 calc R
C13 C 1.3163(6) -0.0415(4) -0.0264(4) 0.0900(14) Uani 1 1 d .
H13A H 1.2652 -0.0034 0.0438 0.135 Uiso 1 1 calc GR
H13B H 1.4084 -0.0650 -0.0349 0.135 Uiso 1 1 calc GR
H13C H 1.2775 -0.1089 -0.0275 0.135 Uiso 1 1 calc GR
C1 C 0.6456(4) 0.6203(3) -0.2995(3) 0.0573(8) Uani 1 1 d .
H1A H 0.6266 0.7039 -0.2984 0.086 Uiso 1 1 calc GR
H1B H 0.5868 0.5910 -0.3254 0.086 Uiso 1 1 calc GR
H1C H 0.7382 0.5965 -0.3490 0.086 Uiso 1 1 calc GR
Cl2 Cl 0.38289(10) 0.00575(9) 0.42436(8) 0.0736(3) Uani 1 1 d .
Cl1 Cl 0.30171(17) 0.06375(9) 0.24131(10) 0.0992(4) Uani 1 1 d .
C50 C 0.2496(4) 0.0381(3) 0.3834(3) 0.0651(9) Uani 1 1 d .
H50A H 0.1978 -0.0264 0.4054 0.078 Uiso 1 1 calc R
H50B H 0.1903 0.1066 0.4221 0.078 Uiso 1 1 calc R
F2 F 1.06472(16) 0.25960(16) 0.49660(15) 0.0543(4) Uani 1 1 d .
F3 F 0.87098(16) 0.19190(15) 0.54853(14) 0.0510(4) Uani 1 1 d .
F4 F 0.88494(19) 0.33467(19) 0.64168(16) 0.0673(6) Uani 1 1 d .
F5 F 0.9898(3) 0.1561(3) 0.6546(2) 0.1028(9) Uani 1 1 d .
B1 B 0.9523(3) 0.2331(3) 0.5873(3) 0.0448(7) Uani 1 1 d .
loop_
_atom_site_aniso_label
_atom_site_aniso_U_11
_atom_site_aniso_U_22
_atom_site_aniso_U_33
_atom_site_aniso_U_23
_atom_site_aniso_U_13
_atom_site_aniso_U_12
S11 0.0532(4) 0.0413(4) 0.0446(4) -0.0125(3) -0.0169(3) -0.0007(3)
O26 0.0265(8) 0.0421(9) 0.0209(7) -0.0071(6) -0.0032(6) -0.0011(6)
O29 0.0394(9) 0.0375(9) 0.0340(9) -0.0131(7) -0.0148(7) -0.0060(7)
O10 0.0291(8) 0.0583(11) 0.0423(10) -0.0129(8) -0.0114(8) -0.0022(8)
N16 0.0259(9) 0.0353(10) 0.0218(9) -0.0038(7) -0.0064(7) -0.0025(7)
N4 0.0280(9) 0.0339(9) 0.0197(8) -0.0029(7) -0.0080(7) -0.0068(7)
C19 0.0216(9) 0.0307(10) 0.0207(10) -0.0043(8) -0.0041(8) -0.0083(8)
C18 0.0210(9) 0.0377(11) 0.0198(9) -0.0062(8) -0.0045(8) -0.0072(8)
C15 0.0214(9) 0.0323(10) 0.0200(10) -0.0051(8) -0.0040(8) -0.0065(8)
C14 0.0223(9) 0.0342(11) 0.0213(10) -0.0044(8) -0.0042(8) -0.0057(8)
C20 0.0237(10) 0.0299(10) 0.0231(10) -0.0056(8) -0.0067(8) -0.0061(8)
C25 0.0240(10) 0.0336(11) 0.0255(10) -0.0070(8) -0.0061(8) -0.0056(8)
C21 0.0253(10) 0.0310(10) 0.0258(10) -0.0046(8) -0.0087(8) -0.0068(8)
C17 0.0216(9) 0.0397(12) 0.0214(10) -0.0041(8) -0.0046(8) -0.0077(8)
C5 0.0240(10) 0.0330(11) 0.0208(10) -0.0047(8) -0.0049(8) -0.0075(8)
C32 0.0323(12) 0.0597(15) 0.0274(11) -0.0033(10) -0.0140(9) -0.0146(11)
C28 0.0263(10) 0.0395(12) 0.0253(10) -0.0085(9) -0.0063(8) -0.0103(9)
C8 0.0283(11) 0.0349(11) 0.0236(10) -0.0064(8) -0.0031(8) -0.0037(9)
C24 0.0300(11) 0.0375(12) 0.0336(12) -0.0114(9) -0.0072(9) 0.0006(9)
C2 0.0366(12) 0.0444(13) 0.0299(12) -0.0013(10) -0.0161(10) -0.0105(10)
C33 0.0271(11) 0.0493(13) 0.0266(11) 0.0000(9) -0.0111(9) -0.0079(9)
C6 0.0330(11) 0.0423(12) 0.0205(10) -0.0081(9) -0.0078(9) -0.0041(9)
C23 0.0376(13) 0.0360(12) 0.0430(14) -0.0062(10) -0.0161(11) 0.0054(10)
C7 0.0327(11) 0.0398(12) 0.0229(11) -0.0110(9) -0.0036(9) -0.0034(9)
C31 0.0352(12) 0.0526(14) 0.0266(11) -0.0085(10) -0.0111(9) -0.0153(10)
C22 0.0380(12) 0.0352(12) 0.0324(12) -0.0022(9) -0.0146(10) -0.0018(9)
C34 0.0376(12) 0.0358(12) 0.0291(11) -0.0018(9) -0.0105(10) -0.0004(9)
C9 0.0334(12) 0.0369(12) 0.0265(11) -0.0075(9) 0.0007(9) -0.0052(9)
C3 0.0331(11) 0.0381(11) 0.0214(10) 0.0022(8) -0.0105(9) -0.0109(9)
C30 0.0509(15) 0.0455(14) 0.0418(14) -0.0218(12) -0.0148(12) -0.0024(12)
C35 0.0537(16) 0.0426(13) 0.0291(12) 0.0008(10) -0.0098(11) -0.0139(12)
C27 0.0401(14) 0.0554(16) 0.0249(12) -0.0081(11) 0.0021(10) 0.0047(12)
C36 0.0490(16) 0.077(2) 0.0434(16) -0.0072(15) -0.0081(13) -0.0288(15)
C12 0.0587(18) 0.0512(16) 0.0506(17) -0.0105(13) -0.0166(14) 0.0048(14)
C13 0.112(4) 0.082(3) 0.067(3) -0.001(2) -0.041(3) 0.019(3)
C1 0.075(2) 0.075(2) 0.0403(16) 0.0103(14) -0.0369(15) -0.0272(17)
Cl2 0.0634(5) 0.0804(6) 0.0701(6) -0.0133(5) -0.0203(4) -0.0036(4)
Cl1 0.1595(13) 0.0638(6) 0.0814(7) -0.0036(5) -0.0578(8) -0.0094(7)
C50 0.061(2) 0.0494(17) 0.076(2) -0.0082(16) -0.0186(18) -0.0045(15)
F2 0.0367(8) 0.0729(11) 0.0507(10) -0.0224(8) -0.0094(7) -0.0104(8)
F3 0.0446(9) 0.0639(10) 0.0507(9) -0.0155(8) -0.0192(7) -0.0159(7)
F4 0.0544(10) 0.0898(14) 0.0516(11) -0.0394(10) -0.0054(8) -0.0151(10)
F5 0.116(2) 0.119(2) 0.0969(19) 0.0342(17) -0.0716(18) -0.0229(17)
B1 0.0377(15) 0.0645(19) 0.0383(15) -0.0092(14) -0.0192(13) -0.0090(13)
loop_
_atom_type_symbol
_atom_type_description
_atom_type_scat_dispersion_real
_atom_type_scat_dispersion_imag
_atom_type_scat_source
C C 0.0181 0.0091 'International Tables Vol C Tables 4.2.6.8 and 6.1.1.4'
H H 0.0000 0.0000 'International Tables Vol C Tables 4.2.6.8 and 6.1.1.4'
B B 0.0090 0.0039 'International Tables Vol C Tables 4.2.6.8 and 6.1.1.4'
Cl Cl 0.3639 0.7018 'International Tables Vol C Tables 4.2.6.8 and 6.1.1.4'
F F 0.0727 0.0534 'International Tables Vol C Tables 4.2.6.8 and 6.1.1.4'
N N 0.0311 0.0180 'International Tables Vol C Tables 4.2.6.8 and 6.1.1.4'
O O 0.0492 0.0322 'International Tables Vol C Tables 4.2.6.8 and 6.1.1.4'
S S 0.3331 0.5567 'International Tables Vol C Tables 4.2.6.8 and 6.1.1.4'
loop_
_exptl_crystal_face_index_h
_exptl_crystal_face_index_k
_exptl_crystal_face_index_l
_exptl_crystal_face_perp_dist
_exptl_oxdiff_crystal_face_indexfrac_h
_exptl_oxdiff_crystal_face_indexfrac_k
_exptl_oxdiff_crystal_face_indexfrac_l
_exptl_oxdiff_crystal_face_x
_exptl_oxdiff_crystal_face_y
_exptl_oxdiff_crystal_face_z
0 1 0 0.0968 -0.0000 1.0000 0.0000 -0.1013 0.0830 0.0146
0 -1 0 0.0088 0.0000 -1.0000 -0.0000 0.1013 -0.0830 -0.0146
0 0 -1 0.2019 -0.0000 0.0000 -1.0000 -0.0233 -0.0433 0.1168
0 0 1 0.1029 0.0000 -0.0000 1.0000 0.0233 0.0433 -0.1168
1 0 1 0.1210 1.0000 0.0000 1.0000 -0.0545 -0.0883 -0.1146
-1 0 -1 0.1200 -1.0000 -0.0000 -1.0000 0.0545 0.0883 0.1146
-2 0 -1 0.1312 -2.0000 -0.0000 -1.0000 0.1323 0.2199 0.1125
1 0 0 0.2377 1.0000 0.0000 0.0000 -0.0778 -0.1316 0.0022
-1 0 -2 0.0902 -1.0000 -0.0000 -2.0000 0.0312 0.0450 0.2314
loop_
_geom_angle_atom_site_label_1
_geom_angle_atom_site_label_2
_geom_angle_atom_site_label_3
_geom_angle
C9 S11 C12 98.39(14)
C25 O26 C27 116.37(19)
C28 O29 C30 116.8(2)
C14 N16 C17 119.07(19)
C14 N16 C34 121.13(19)
C17 N16 C34 119.42(19)
C21 N4 C3 119.85(18)
C5 N4 C21 121.07(18)
C5 N4 C3 119.08(18)
C15 C19 C18 116.10(19)
C15 C19 C20 116.84(19)
C20 C19 C18 127.05(19)
C17 C18 C19 118.28(19)
C17 C18 C28 117.3(2)
C28 C18 C19 124.4(2)
C19 C15 C14 120.21(19)
C19 C15 C5 120.2(2)
C5 C15 C14 119.63(19)
N16 C14 C15 117.92(19)
N16 C14 C8 122.2(2)
C8 C14 C15 119.8(2)
C19 C20 C25 124.2(2)
C21 C20 C19 118.51(19)
C21 C20 C25 117.3(2)
O26 C25 C20 115.54(19)
O26 C25 C24 123.4(2)
C24 C25 C20 120.9(2)
N4 C21 C20 119.48(19)
N4 C21 C22 120.4(2)
C22 C21 C20 120.1(2)
N16 C17 C18 119.66(19)
N16 C17 C33 119.4(2)
C33 C17 C18 121.0(2)
N4 C5 C15 118.40(18)
N4 C5 C6 122.2(2)
C6 C5 C15 119.4(2)
C33 C32 H32 118.8
C33 C32 C31 122.3(2)
C31 C32 H32 118.8
O29 C28 C18 115.8(2)
O29 C28 C31 123.5(2)
C31 C28 C18 120.5(2)
C14 C8 C9 120.2(2)
C7 C8 C14 118.1(2)
C7 C8 C9 120.2(2)
C25 C24 H24 120.2
C25 C24 C23 119.6(2)
C23 C24 H24 120.2
H2A C2 H2B 108.2
C3 C2 H2A 109.6
C3 C2 H2B 109.6
C1 C2 H2A 109.6
C1 C2 H2B 109.6
C1 C2 C3 110.1(2)
C17 C33 H33 120.7
C32 C33 C17 118.5(2)
C32 C33 H33 120.7
C5 C6 H6 120.3
C7 C6 C5 119.5(2)
C7 C6 H6 120.3
C24 C23 H23 119.1
C22 C23 C24 121.9(2)
C22 C23 H23 119.1
C8 C7 H7 118.4
C6 C7 C8 123.1(2)
C6 C7 H7 118.4
C32 C31 H31 120.0
C28 C31 C32 119.9(2)
C28 C31 H31 120.0
C21 C22 H22 120.3
C23 C22 C21 119.4(2)
C23 C22 H22 120.3
N16 C34 H34A 109.2
N16 C34 H34B 109.2
N16 C34 C35 112.0(2)
H34A C34 H34B 107.9
C35 C34 H34A 109.2
C35 C34 H34B 109.2
O10 C9 S11 122.3(2)
O10 C9 C8 123.3(2)
C8 C9 S11 114.42(18)
N4 C3 C2 114.33(18)
N4 C3 H3A 108.7
N4 C3 H3B 108.7
C2 C3 H3A 108.7
C2 C3 H3B 108.7
H3A C3 H3B 107.6
O29 C30 H30A 109.5
O29 C30 H30B 109.5
O29 C30 H30C 109.5
H30A C30 H30B 109.5
H30A C30 H30C 109.5
H30B C30 H30C 109.5
C34 C35 H35A 109.1
C34 C35 H35B 109.1
H35A C35 H35B 107.8
C36 C35 C34 112.7(2)
C36 C35 H35A 109.1
C36 C35 H35B 109.1
O26 C27 H27A 109.5
O26 C27 H27B 109.5
O26 C27 H27C 109.5
H27A C27 H27B 109.5
H27A C27 H27C 109.5
H27B C27 H27C 109.5
C35 C36 H36A 109.5
C35 C36 H36B 109.5
C35 C36 H36C 109.5
H36A C36 H36B 109.5
H36A C36 H36C 109.5
H36B C36 H36C 109.5
S11 C12 H12A 109.2
S11 C12 H12B 109.2
H12A C12 H12B 107.9
C13 C12 S11 112.1(3)
C13 C12 H12A 109.2
C13 C12 H12B 109.2
C12 C13 H13A 109.5
C12 C13 H13B 109.5
C12 C13 H13C 109.5
H13A C13 H13B 109.5
H13A C13 H13C 109.5
H13B C13 H13C 109.5
C2 C1 H1A 109.5
C2 C1 H1B 109.5
C2 C1 H1C 109.5
H1A C1 H1B 109.5
H1A C1 H1C 109.5
H1B C1 H1C 109.5
Cl2 C50 H50A 109.1
Cl2 C50 H50B 109.1
Cl1 C50 Cl2 112.6(2)
Cl1 C50 H50A 109.1
Cl1 C50 H50B 109.1
H50A C50 H50B 107.8
F3 B1 F2 108.1(2)
F3 B1 F4 108.5(2)
F4 B1 F2 107.6(3)
F5 B1 F2 109.6(3)
F5 B1 F3 112.0(3)
F5 B1 F4 110.8(3)
loop_
_geom_bond_atom_site_label_1
_geom_bond_atom_site_label_2
_geom_bond_distance
S11 C9 1.762(2)
S11 C12 1.809(4)
O26 C25 1.354(3)
O26 C27 1.433(3)
O29 C28 1.353(3)
O29 C30 1.435(3)
O10 C9 1.201(3)
N16 C14 1.374(3)
N16 C17 1.389(3)
N16 C34 1.484(3)
N4 C21 1.384(3)
N4 C5 1.369(3)
N4 C3 1.479(3)
C19 C18 1.435(3)
C19 C15 1.417(3)
C19 C20 1.428(3)
C18 C17 1.419(3)
C18 C28 1.429(3)
C15 C14 1.428(3)
C15 C5 1.425(3)
C14 C8 1.408(3)
C20 C25 1.436(3)
C20 C21 1.420(3)
C25 C24 1.371(3)
C21 C22 1.409(3)
C17 C33 1.404(3)
C5 C6 1.403(3)
C32 H32 0.9500
C32 C33 1.370(4)
C32 C31 1.384(4)
C28 C31 1.374(3)
C8 C7 1.400(3)
C8 C9 1.493(3)
C24 H24 0.9500
C24 C23 1.392(4)
C2 H2A 0.9900
C2 H2B 0.9900
C2 C3 1.524(3)
C2 C1 1.513(4)
C33 H33 0.9500
C6 H6 0.9500
C6 C7 1.379(3)
C23 H23 0.9500
C23 C22 1.371(4)
C7 H7 0.9500
C31 H31 0.9500
C22 H22 0.9500
C34 H34A 0.9900
C34 H34B 0.9900
C34 C35 1.529(3)
C3 H3A 0.9900
C3 H3B 0.9900
C30 H30A 0.9800
C30 H30B 0.9800
C30 H30C 0.9800
C35 H35A 0.9900
C35 H35B 0.9900
C35 C36 1.516(5)
C27 H27A 0.9800
C27 H27B 0.9800
C27 H27C 0.9800
C36 H36A 0.9800
C36 H36B 0.9800
C36 H36C 0.9800
C12 H12A 0.9900
C12 H12B 0.9900
C12 C13 1.505(5)
C13 H13A 0.9800
C13 H13B 0.9800
C13 H13C 0.9800
C1 H1A 0.9800
C1 H1B 0.9800
C1 H1C 0.9800
Cl2 C50 1.758(4)
Cl1 C50 1.751(4)
C50 H50A 0.9900
C50 H50B 0.9900
F2 B1 1.400(4)
F3 B1 1.386(3)
F4 B1 1.398(4)
F5 B1 1.353(4)
loop_
_geom_torsion_atom_site_label_1
_geom_torsion_atom_site_label_2
_geom_torsion_atom_site_label_3
_geom_torsion_atom_site_label_4
_geom_torsion
O26 C25 C24 C23 -172.3(2)
O29 C28 C31 C32 -173.8(2)
N16 C14 C8 C7 169.6(2)
N16 C14 C8 C9 -24.0(3)
N16 C17 C33 C32 174.6(2)
N16 C34 C35 C36 50.3(3)
N4 C21 C22 C23 174.7(2)
N4 C5 C6 C7 173.4(2)
C19 C18 C17 N16 5.9(3)
C19 C18 C17 C33 -174.63(19)
C19 C18 C28 O29 -7.7(3)
C19 C18 C28 C31 176.4(2)
C19 C15 C14 N16 8.1(3)
C19 C15 C14 C8 -174.78(19)
C19 C15 C5 N4 3.0(3)
C19 C15 C5 C6 -179.4(2)
C19 C20 C25 O26 -11.2(3)
C19 C20 C25 C24 173.1(2)
C19 C20 C21 N4 8.3(3)
C19 C20 C21 C22 -172.1(2)
C18 C19 C15 C14 17.8(3)
C18 C19 C15 C5 -161.49(19)
C18 C19 C20 C25 -26.8(3)
C18 C19 C20 C21 155.9(2)
C18 C17 C33 C32 -4.9(3)
C18 C28 C31 C32 1.7(3)
C15 C19 C18 C17 -24.6(3)
C15 C19 C18 C28 152.1(2)
C15 C19 C20 C25 154.3(2)
C15 C19 C20 C21 -23.0(3)
C15 C14 C8 C7 -7.4(3)
C15 C14 C8 C9 159.0(2)
C15 C5 C6 C7 -4.0(3)
C14 N16 C17 C18 21.0(3)
C14 N16 C17 C33 -158.4(2)
C14 N16 C34 C35 -117.0(2)
C14 C15 C5 N4 -176.31(18)
C14 C15 C5 C6 1.2(3)
C14 C8 C7 C6 4.7(4)
C14 C8 C9 S11 153.00(18)
C14 C8 C9 O10 -29.0(4)
C20 C19 C18 C17 156.5(2)
C20 C19 C18 C28 -26.8(3)
C20 C19 C15 C14 -163.12(19)
C20 C19 C15 C5 17.5(3)
C20 C25 C24 C23 3.1(4)
C20 C21 C22 C23 -4.8(3)
C25 C20 C21 N4 -169.15(19)
C25 C20 C21 C22 10.4(3)
C25 C24 C23 C22 3.0(4)
C21 N4 C5 C15 -18.9(3)
C21 N4 C5 C6 163.7(2)
C21 N4 C3 C2 -88.6(2)
C21 C20 C25 O26 166.09(18)
C21 C20 C25 C24 -9.6(3)
C17 N16 C14 C15 -27.9(3)
C17 N16 C14 C8 155.0(2)
C17 N16 C34 C35 55.9(3)
C17 C18 C28 O29 169.02(18)
C17 C18 C28 C31 -6.8(3)
C5 N4 C21 C20 13.2(3)
C5 N4 C21 C22 -166.4(2)
C5 N4 C3 C2 91.7(2)
C5 C15 C14 N16 -172.57(19)
C5 C15 C14 C8 4.6(3)
C5 C6 C7 C8 1.1(4)
C28 C18 C17 N16 -171.03(19)
C28 C18 C17 C33 8.4(3)
C24 C23 C22 C21 -2.1(4)
C33 C32 C31 C28 2.1(4)
C7 C8 C9 S11 -40.9(3)
C7 C8 C9 O10 137.1(3)
C31 C32 C33 C17 -0.6(4)
C34 N16 C14 C15 145.0(2)
C34 N16 C14 C8 -32.1(3)
C34 N16 C17 C18 -152.0(2)
C34 N16 C17 C33 28.5(3)
C9 S11 C12 C13 88.1(3)
C9 C8 C7 C6 -161.7(2)
C3 N4 C21 C20 -166.55(19)
C3 N4 C21 C22 13.9(3)
C3 N4 C5 C15 160.90(19)
C3 N4 C5 C6 -16.6(3)
C30 O29 C28 C18 172.2(2)
C30 O29 C28 C31 -12.1(3)
C27 O26 C25 C20 179.1(2)
C27 O26 C25 C24 -5.3(3)
C12 S11 C9 O10 -9.4(3)
C12 S11 C9 C8 168.60(19)
C1 C2 C3 N4 -176.4(2)
loop_
_refln_index_h
_refln_index_k
_refln_index_l
_refln_F_squared_meas
_refln_F_squared_sigma
_refln_scale_group_code
0 0 -1 24388.7 209.164 2
0 0 1 26492.5 201.425 23
0 0 2 3856.45 109.762 23
0 0 -2 4057.13 123.517 4
0 0 3 92946.1 660.629 23
0 0 -3 92659.1 451.996 1
0 0 -4 8477.29 294.853 6
0 0 -4 8364.88 256.033 2
0 0 4 8234.36 263.466 26
0 0 -4 8205.28 150.896 1
0 0 4 8414.34 234.373 23
0 0 -4 8704.02 267.135 4
0 0 4 7616.82 235.231 27
0 0 -5 1241.36 133.42 6
0 0 5 1016.05 99.4884 27
0 0 5 1130.46 114.914 26
0 0 -5 1108.83 109.049 2
0 0 -5 1198.02 117.136 4
0 0 -6 936.659 114.82 2
0 0 -6 819.923 126.524 6
0 0 6 897.564 118.603 26
0 0 6 830.923 101.119 27
0 0 -6 1067.64 127.376 4
0 0 -7 7421.45 351.349 2
0 0 7 7338.38 360.449 26
0 0 -7 7460.31 396.504 6
0 0 7 7364.06 332.472 27
0 0 7 8114.22 319.399 24
0 0 7 7674.24 353.889 34
0 0 -8 5663.29 340.124 2
0 0 8 5210.33 336.235 26
0 0 -8 5166.36 366.915 6
0 0 8 5282.89 321.251 34
0 0 8 5384.34 314.996 27
0 0 9 694.974 126.474 34
0 0 -9 859.432 165.839 6
0 0 -9 583.31 127.25 2
0 0 10 6181.46 437.042 32
0 0 -10 6783.17 238.155 9
0 0 10 6280.04 398.927 34
0 0 -10 6071.08 235.701 15
0 0 11 1404.49 228.616 32
0 0 -11 1353.17 119.798 15
0 0 -11 1416.8 117.066 9
0 0 -12 51.368 42.3275 9
0 0 -12 96.4109 51.339 15
0 0 -13 1370.96 113.684 15
0 0 -13 1269.57 104.614 9
0 0 -14 3647.59 156.932 15
0 0 -14 3504.02 156.881 13
0 0 -15 2506.99 105.62 13
0 1 -15 94.4357 28.5641 13
0 1 -14 859.69 81.9613 15
0 1 -14 798.576 78.5172 13
0 1 -13 255.996 56.9148 9
0 1 -13 261.066 60.5218 15
0 1 -12 11160.5 309.322 9
0 1 -12 12098.2 339.949 15
0 1 -11 443.223 70.2207 9
0 1 -11 436.707 74.375 15
0 -1 11 548.509 138.097 34
0 1 -10 8682.81 263.729 9
0 1 -10 8676.61 277.667 15
0 -1 10 8450.06 481.839 34
0 1 -9 2182.75 241.942 2
0 -1 9 2283.77 235.813 34
0 -1 9 2379.76 248.641 26
0 -1 8 8419.73 434.49 26
0 -1 8 8209.29 408.559 27
0 1 -8 7979.26 415.414 2
0 1 -8 7715.68 408.914 4
0 -1 7 21825.9 638.026 26
0 1 -7 22656.4 697.141 6
0 1 -7 20788.2 605.712 2
0 -1 7 21518 600.238 27
0 1 -7 20570.9 602.277 4
0 -1 7 21440.7 556.837 35
0 -1 6 9479.63 347.968 35
0 -1 6 9687.86 365.059 27
0 1 -6 9868.29 375.351 4
0 1 -6 10560.2 386.703 2
0 -1 6 10439.5 306.848 24
0 -1 6 10256.3 393.154 26
0 -1 6 10213.7 350.868 31
0 1 -6 10601.6 430.28 6
0 1 -5 3710.11 228.6 6
0 -1 5 3316.91 193.37 27
0 1 -5 3658.25 203.819 4
0 1 -5 3673.35 203.465 2
0 -1 5 3761.86 166.294 24
0 1 -4 1534.74 118.087 2
0 -1 4 1635.07 95.1793 24
0 1 -4 1558.44 132.084 6
0 1 -4 1757.54 125.15 4
0 1 -4 1534.34 72.36 1
0 1 -3 238949 1247.1 2
0 1 -3 236562 1245.26 4
0 -1 2 86111 467.71 24
0 1 -2 85764.9 480.096 1
0 1 -1 175370 761.084 2
0 -1 1 174233 538.96 24
0 1 -1 176328 668.513 1
0 -1 0 126168 534.631 22
0 1 0 131527 605.6 1
0 -1 -1 276.599 23.6082 22
0 1 1 291.775 29.3291 1
0 -1 -2 746.763 44.9147 22
0 1 2 748.271 53.0004 26
0 1 2 852.328 51.8126 1
0 1 3 156855 938.729 26
0 1 3 159863 813.539 27
0 1 4 6337.91 226.792 23
0 1 4 6369.2 169.139 1
0 1 4 5868.48 189.806 27
0 1 4 6265.5 222.281 26
0 -1 -4 6136.97 259.492 6
0 1 5 88.536 31.3982 27
0 1 5 73.9575 28.5652 34
0 -1 -5 -10.4245 37.8123 6
0 1 5 131.204 40.5814 26
0 1 5 23.4979 32.5994 23
0 -1 -5 76.4039 39.3705 2
0 -1 -5 25.2277 11.0971 1
0 1 6 102537 1042.57 27
0 1 6 97440.2 1088.13 34
0 1 6 99529.2 1149.91 26
0 -1 -6 101424 1148.63 2
0 -1 -6 108618 1380.42 6
0 1 6 108534 1153.6 23
0 -1 -7 184.127 73.5386 6
0 1 7 82.9352 46.4002 34
0 -1 -7 130.501 56.5481 2
0 1 7 148.66 60.5833 26
0 1 8 631.211 120.163 32
0 1 8 637.005 107.968 34
0 -1 -8 548.572 128.723 6
0 -1 -8 438.824 98.2116 2
0 -1 -9 106086 1826.55 6
0 1 9 107125 1487.75 34
0 1 9 104006 1640.45 32
0 -1 -10 13556.2 349.572 15
0 1 10 13125.6 624.831 32
0 -1 -10 13294.3 336.891 9
0 1 11 57.5169 47.7153 41
0 -1 -11 15.8247 40.8443 9
0 -1 -11 38.2675 43.8854 15
0 1 11 -17.4955 71.2175 32
0 -1 -12 2948.7 169.503 9
0 -1 -12 2858.42 166.091 15
0 1 12 2600.92 277.23 41
0 -1 -13 6329.47 236.087 13
0 -1 -13 6209.33 226.709 15
0 -1 -13 5568.99 216.532 9
0 -1 -14 -10.982 33.0902 15
0 -1 -14 24.3942 29.7682 19
0 -1 -14 9.43128 32.9091 13
0 -1 -15 1355.61 79.2643 13
0 2 -14 309.179 55.7786 13
0 2 -14 256.525 52.1339 15
0 2 -13 1774.67 126.818 15
0 2 -13 1483.14 103.53 9
0 2 -12 36.4969 45.705 15
0 2 -12 54.8227 34.5506 9
0 2 -11 1930.9 131.157 9
0 2 -11 1956.1 140.786 15
0 -2 11 1922.05 239.895 34
0 -2 10 1490.92 213.02 34
0 2 -10 1732.21 129.885 20
0 2 -10 1574.23 119.292 17
0 2 -10 1467.59 110.178 9
0 -2 10 1618.85 225.125 26
0 2 -10 1420.22 118.691 15
0 -2 9 4790.95 357.782 34
0 2 -9 4785.26 374.684 2
0 -2 9 5073.92 368.305 27
0 2 -9 4660.41 188.141 17
0 2 -9 4652.39 195.049 15
0 -2 9 4914.64 374.351 26
0 -2 8 3012.34 269.805 26
0 -2 8 3020.35 266.523 27
0 2 -8 3075.86 272.345 4
0 -2 8 3414.82 259.392 35
0 -2 7 645.357 89.8825 22
0 -2 7 625.428 112.847 27
0 -2 7 685.07 109.949 35
0 2 -7 517.178 110.392 4
0 2 -7 658.532 116.446 2
0 -2 7 585.237 117.767 26
0 -2 6 35386.7 734.693 31
0 -2 6 37064.1 745.254 35
0 -2 6 36760.6 765.546 27
0 2 -6 36505.1 756.326 4
0 2 -6 35159.6 749.362 2
0 -2 5 89283.3 1055.31 35
0 -2 5 86668 1060.94 31
0 -2 5 87123.1 954.344 28
0 -2 5 89682.6 1084.39 27
0 2 -5 87897.7 1070.13 2
0 2 -5 87355.6 1060 4
0 2 -4 35159.2 447.954 1
0 -2 4 33157.2 607.034 31
0 -2 4 34806.4 421.936 24
0 2 -4 33913.9 598.603 2
0 -2 4 34654 556.297 28
0 2 -4 35206.6 595.494 4
0 -2 3 98023.6 873.717 28
0 2 -3 102202 900.889 4
0 -2 3 95705.2 946.037 31
0 2 -3 101603 941.563 2
0 -2 3 102645 642.082 24
0 2 -3 99975 742.547 1
0 -2 2 85243.5 531.089 24
0 2 -2 84572.8 672.325 1
0 -2 1 58438.3 505.627 22
0 2 -1 59304.1 565.616 1
0 -2 0 276.247 37.7486 22
0 2 0 317.196 45.0065 1
0 2 1 16837.5 308.24 1
0 2 1 16241.1 238.953 25
0 -2 -2 42015.3 406.32 22
0 2 2 40114.3 477.834 1
0 2 3 12232.9 265.694 1
0 -2 -3 12390.1 320.724 3
0 -2 -3 12673.5 237.589 22
0 2 3 12318.3 311.757 32
0 -2 -4 58078.3 789.314 3
0 2 4 59697.4 759.438 32
0 2 4 58089.5 604.677 1
0 2 5 4776.41 185.496 1
0 2 5 4182.5 227.37 23
0 -2 -5 4591.16 270.77 6
0 2 5 4472.2 197.175 34
0 2 5 4331.04 233.49 32
0 2 6 130972 1375.03 23
0 2 6 120195 1152.61 34
0 -2 -6 129844 1574.15 6
0 2 6 131455 1416.71 32
0 -2 -6 121879 1284.81 2
0 2 7 3328.86 237.507 23
0 2 7 3376.7 260.21 32
0 -2 -7 3514.37 245.262 2
0 2 7 3347.36 215.287 34
0 -2 -7 3470.63 284.819 6
0 -2 -8 1164.27 153.429 2
0 2 8 1032.52 156.393 32
0 2 8 1002.7 154.294 41
0 -2 -8 1135.42 178.734 6
0 2 9 1290.44 181.987 41
0 2 9 1205.68 184.434 32
0 -2 -9 1438.37 109.305 9
0 -2 -9 1170.04 200.926 6
0 2 10 796.502 154.053 41
0 -2 -10 571.624 74.8824 15
0 -2 -10 655.465 84.2186 9
0 2 10 384.817 116.431 32
0 -2 -11 5070.42 221.535 9
0 -2 -11 4569.52 210.311 15
0 2 11 4676.81 383.705 32
0 2 11 4673.22 386.768 30
0 2 11 4924.73 375.388 41
0 -2 -12 2855.85 168.058 9
0 -2 -12 2763.31 162.701 15
0 -2 -12 2872.69 169.546 13
0 2 12 2725.27 280.947 41
0 -2 -13 955.33 91.7263 15
0 -2 -13 1078.37 102.011 13
0 -2 -14 5960.01 202.942 19
0 -2 -14 5758.22 194.997 13
0 -2 -15 133.54 29.1168 13
0 3 -14 593.668 66.6159 15
0 3 -13 323.525 62.0695 15
0 3 -12 394.746 60.2879 9
0 3 -12 332.961 67.005 15
0 -3 11 2796.2 301.28 34
0 3 -11 2531.05 161.271 15
0 3 -11 2342.52 136.876 9
0 3 -11 2732.66 162.127 17
0 3 -10 387.24 67.5903 20
0 3 -10 299.417 54.3652 9
0 3 -10 345.942 67.5698 15
0 -3 10 390.876 119.722 34
0 3 -10 246.008 52.7274 17
0 -3 9 165.766 81.6361 27
0 3 -9 61.2254 70.72 2
0 3 -9 130.638 37.2323 9
0 3 -9 107.084 42.7272 17
0 3 -9 58.6044 34.2167 15
0 3 -9 253.164 54.0829 20
0 -3 9 143.857 82.0609 26
0 -3 8 10644.5 531.405 27
0 3 -8 9004.94 497.539 2
0 -3 8 10278.5 491.002 35
0 3 -8 9822.78 504.306 4
0 -3 8 10243.2 515.174 26
0 -3 7 7234.74 406.598 27
0 -3 7 6723.33 317.395 22
0 3 -7 6582.83 378.943 4
0 -3 7 6539.32 364.88 35
0 3 -7 6123.76 376.551 2
0 -3 6 2372.75 214.778 31
0 3 -6 2508.3 221.71 2
0 -3 6 2561.97 224.067 27
0 3 -6 2552.82 218.457 4
0 -3 6 2569.64 183.96 22
0 -3 6 2324.65 203.995 35
0 -3 5 22221.3 612.91 31
0 -3 5 24258.4 509.388 22
0 -3 5 23031.9 586.43 35
0 3 -5 22939.8 587.348 4
0 3 -5 23831.3 616.82 2
0 -3 5 24424.3 607.333 27
0 3 -4 6058.51 226.86 1
0 -3 4 6455.76 189.694 24
0 3 -4 6369.91 282.272 4
0 3 -4 5956.71 285.699 2
0 -3 4 5513.73 291.466 31
0 -3 4 5882.33 274.096 35
0 -3 4 5879.68 234.55 22
0 -3 3 52047.4 508.945 24
0 3 -3 51566.6 783.546 2
0 -3 3 50984.2 633.999 22
0 3 -3 50392 652.401 1
0 3 -2 10699.2 296.759 1
0 -3 2 10818.6 278.248 22
0 -3 2 11176.5 362.007 31
0 3 -2 10776.7 338.731 2
0 3 -1 37823.4 553.648 1
0 -3 1 38935 508.009 22
0 -3 0 87790.3 754.222 22
0 3 0 84292.9 824.919 1
0 -3 -1 44270.8 545.869 22
0 3 1 42914.7 449.889 25
0 3 1 43446.5 608.059 1
0 3 2 9571.45 274.605 30
0 3 2 8895.77 233.127 25
0 3 2 9337.92 287.877 1
0 3 3 14121 354.037 1
0 -3 -3 15128 399.357 3
0 3 3 15096.2 369.439 30
0 -3 -3 15267.5 466.639 38
0 -3 -3 14627 306.11 22
0 -3 -4 3548.63 213.15 3
0 3 4 3119.2 181.617 41
0 3 4 3438.04 195.816 32
0 -3 -4 3270.75 147.577 22
0 3 4 3348.34 174.48 1
0 -3 -4 3231.32 214.983 40
0 3 5 153732 1202.89 1
0 3 5 151136 1417.52 32
0 3 5 151922 1383.82 41
0 -3 -5 148607 1542.23 40
0 3 6 73509.8 1104.72 32
0 3 6 69686 1080.38 23
0 -3 -6 72540.8 1249.83 6
0 3 6 73017.9 1067.42 41
0 3 7 8.3095 37.9152 41
0 3 7 6.4127 36.5625 32
0 -3 -7 -42.313 43.5244 2
0 3 8 9288.96 457.086 23
0 -3 -8 9533.03 541.367 6
0 3 8 9140.55 446.74 41
0 3 8 9027.36 461.182 32
0 -3 -9 3517.03 174.086 15
0 -3 -9 3282.74 339.311 6
0 -3 -9 3637.07 178.354 9
0 3 9 3118.84 279.694 41
0 -3 -9 3553.71 178.468 51
0 3 9 3357.6 303.734 30
0 3 9 3367.73 301.695 32
0 -3 -10 1382.43 115.935 51
0 3 10 1129.39 177.297 41
0 3 10 1249.77 193.409 30
0 -3 -10 1568.61 125.406 9
0 3 10 1442.12 206.337 32
0 -3 -10 1341.01 115.734 15
0 -3 -11 16811.2 399.092 15
0 -3 -11 16783.5 409.618 9
0 3 11 15461.5 649.99 41
0 3 11 16971 717.467 30
0 -3 -11 17081.3 405.676 13
0 -3 -12 5212.3 214.726 15
0 3 12 4884.16 352.206 41
0 -3 -12 5562.7 230.161 13
0 -3 -13 4133.01 184.137 13
0 -3 -13 4435.24 200.162 19
0 -3 -14 196.508 47.0612 19
0 -3 -14 232.102 46.6821 13
0 4 -14 3663.49 138.956 15
0 4 -14 3345.31 121.455 13
0 4 -13 67.1813 47.261 15
0 4 -12 101.717 52.0065 15
0 -4 11 16541.2 725.699 34
0 4 -11 15240.1 379.033 17
0 4 -11 15547.9 387.084 15
0 4 -10 28.2294 35.9609 17
0 4 -10 -8.86789 37.9956 15
0 4 -10 29.3873 34.1014 20
0 -4 9 344.818 115.111 27
0 4 -9 357.122 62.8719 15
0 -4 9 313.125 122.522 26
0 4 -9 320.646 60.5162 17
0 -4 9 128.747 77.6631 35
0 4 -9 354.846 64.2986 20
0 -4 8 547.239 129.842 35
0 4 -8 569.767 149.169 2
0 -4 8 515.916 132.23 27
0 -4 8 614.217 138.478 26
0 4 -8 721.834 160.266 4
0 4 -7 20652.8 721.756 4
0 4 -7 21206.4 767.171 2
0 -4 7 22944.5 745.716 27
0 -4 7 22519.6 722.878 35
0 -4 7 24153.8 652.031 22
0 -4 6 2932.6 244.06 35
0 4 -6 3026.02 271.273 2
0 -4 6 3242.92 228.132 22
0 4 -6 3008.92 256.767 4
0 -4 6 3099.51 255.089 27
0 -4 5 36688.3 805.595 35
0 -4 5 40145.5 736.134 22
0 4 -5 36638.5 813.084 4
0 -4 5 39027.8 815.328 27
0 4 -5 37447.9 878.904 2
0 -4 4 83.84 52.6523 35
0 -4 4 53.8521 40.0951 22
0 4 -4 93.6273 38.9853 1
0 4 -4 106.94 53.8108 4
0 4 -4 75.2465 60.0536 2
0 4 -3 7010.32 280.106 1
0 -4 3 7094.09 303.684 35
0 -4 3 7688.42 286.439 22
0 -4 2 4294.76 219.265 35
0 4 -2 4298.57 220.027 1
0 -4 2 4493.53 206.816 22
0 -4 1 3965.93 192.561 35
0 -4 1 3859.69 183.235 22
0 4 -1 3857.59 207.201 1
0 4 0 395.086 69.2908 1
0 -4 0 408.491 59.5673 35
0 -4 -1 428.102 68.5002 22
0 4 1 457.32 68.9039 37
0 4 1 434.487 77.9062 1
0 4 2 290291 1443.92 25
0 4 2 298624 1737.19 37
0 4 2 287835 1839.6 1
0 -4 -2 303978 1669.47 22
0 -4 -3 8952.56 284.43 22
0 4 3 8916.94 314.838 30
0 4 3 8042.97 269.621 25
0 4 3 8538.45 299.405 41
0 4 3 8637.26 310.397 37
0 4 3 8460.01 324.889 1
0 -4 -4 209858 1356.79 22
0 4 4 199628 1523.23 25
0 -4 -4 211197 1916.38 40
0 4 4 214404 1665.75 30
0 4 4 210219 1592.63 41
0 -4 -4 219184 1821.52 3
0 4 4 203677 1567.76 1
0 4 5 112748 1246.65 41
0 4 5 116605 1319.23 30
0 4 5 108559 1156.33 1
0 -4 -5 110207 1470.83 40
0 -4 -5 120986 1470.43 3
0 4 6 17937.6 547.255 41
0 -4 -6 17355.1 659.371 6
0 4 6 17085.4 584.9 23
0 -4 -6 16891.7 597.813 40
0 4 7 1462.51 181.2 23
0 4 7 1341.06 170.57 41
0 4 7 1461.39 180.756 30
0 -4 -7 1589.66 215.602 6
0 4 8 652.914 121.674 41
0 -4 -8 679.277 149.485 6
0 4 8 777.163 139.173 23
0 4 8 698.72 136.846 25
0 4 8 687.404 140.831 30
0 -4 -9 16420 382.509 9
0 4 9 15340.2 617.203 41
0 4 9 16006.6 664.416 30
0 -4 -9 15840.3 373.89 15
0 -4 -9 15830 391.954 51
0 4 9 14883.7 641.725 23
0 -4 -10 7400.35 268.59 13
0 -4 -10 7502.82 271.177 51
0 4 10 6745.95 419.376 41
0 -4 -10 7336.5 267.789 9
0 -4 -10 7486.63 263.031 15
0 4 10 7031.95 456.841 30
0 -4 -11 2307.63 153.868 13
0 4 11 2053 224.603 41
0 -4 -12 7873.52 264.656 13
0 -4 -12 8443.69 291.209 19
0 -4 -13 1613.97 120.764 19
0 -4 -13 1454.66 107.574 13
0 -4 -14 1032.24 75.5491 13
0 -4 -14 1189.56 88.1214 19
0 5 -14 131.764 31.6426 15
0 5 -13 198.838 49.5404 15
0 5 -12 12.8577 43.9603 15
0 5 -11 1471.46 122.549 15
0 5 -11 1360.86 117.149 17
0 -5 10 4188.28 343.173 35
0 5 -10 3593.99 189.656 15
0 -5 10 3606.38 351.031 34
0 5 -10 3719.46 192.606 17
0 -5 9 5235.39 408.911 27
0 5 -9 4962.11 219.144 17
0 -5 9 4987.9 384.152 35
0 5 -9 4928.71 214.368 20
0 5 -9 4958.98 215.879 15
0 -5 8 20342.1 760.396 35
0 -5 8 20540.9 778.492 27
0 -5 8 21122.2 807.534 26
0 5 -8 18792.9 404.755 17
0 5 -8 18635.9 397.879 15
0 5 -8 18987.3 796.738 4
0 5 -8 19130.1 401.308 20
0 -5 8 19869 655.291 22
0 5 -7 908.463 174.603 4
0 -5 7 623.019 132.378 27
0 -5 7 797.86 129.321 22
0 -5 7 618.788 131.734 35
0 -5 6 36921.9 810.538 22
0 5 -6 35839.3 955.067 4
0 -5 6 37202.8 909.78 27
0 -5 6 35768.9 915.908 35
0 -5 5 91033.9 1367.07 35
0 -5 5 93153.3 1316.05 27
0 5 -5 88130.7 1381.61 4
0 -5 5 91750.2 1208.16 22
0 -5 4 7156.23 319.968 22
0 -5 4 7038.87 334.945 27
0 5 -4 6717.21 309.675 1
0 -5 4 6874.82 354.138 35
0 5 -3 7928.14 339.534 1
0 -5 3 8475.54 366.824 35
0 -5 3 8705.66 332.323 22
0 -5 2 4515.36 251.106 35
0 -5 2 4653.68 231.743 22
0 5 -2 4339.58 248.049 1
0 -5 1 53567.5 795.931 35
0 -5 1 52965.2 754.162 22
0 -5 0 91776 982.281 22
0 -5 0 93099.2 972.857 35
0 5 0 91421.2 1124.23 1
0 5 1 59294.8 918.087 1
0 -5 -1 61384.3 727.676 35
0 5 1 60216 884.465 37
0 5 2 73855.4 989.093 37
0 -5 -2 72379.6 939.283 22
0 -5 -3 19582.5 486.52 22
0 5 3 18969.6 439.828 25
0 5 3 18820.6 508.033 37
0 5 3 19506.2 552.831 1
0 5 4 2709.28 205.067 37
0 -5 -4 2594.53 239.43 40
0 5 4 3257.79 218.331 41
0 5 4 2397.34 197.564 30
0 5 4 2435.84 202.033 1
0 5 4 2485.4 178.244 25
0 -5 -4 2250.13 165.44 22
0 -5 -4 2554.79 215.181 3
0 5 5 3515.88 236.383 41
0 -5 -5 3445.95 269.718 3
0 5 5 3473.62 238.908 1
0 5 5 3204.16 224.722 25
0 5 5 3430.07 247.399 37
0 5 5 3686.66 256.848 30
0 -5 -5 3458.63 285.718 40
0 5 6 2312.75 206.241 41
0 -5 -6 2061.81 231.355 40
0 5 6 2226.87 235.775 23
0 5 6 2200.9 192.659 1
0 5 6 2183.28 204.908 25
0 5 6 2405.23 224.265 30
0 -5 -6 1861.95 233.016 6
0 5 7 3416.15 302.293 23
0 5 7 3552.63 289.522 30
0 -5 -7 3386.45 340.061 6
0 5 7 3552.18 273.118 41
0 5 7 3460.51 280.828 25
0 5 8 7530.17 444.27 25
0 5 8 7790.04 475.314 23
0 5 8 8687.33 482.465 30
0 -5 -8 8822.17 272.081 13
0 5 8 8405.51 442.27 41
0 -5 -8 8441.93 564.438 6
0 -5 -8 8954.23 295.074 51
0 5 9 764.884 158.297 30
0 -5 -9 787.172 92.9251 51
0 5 9 588.573 127.098 41
0 -5 -9 882.763 94.5941 13
0 5 10 1295.98 201.757 30
0 -5 -10 1562.35 137.324 19
0 -5 -10 1349.99 121.719 51
0 5 10 1222.97 177.328 41
0 -5 -10 1222.18 113.233 13
0 5 10 1165.93 192.894 37
0 -5 -11 89.9626 46.8588 13
0 5 11 156.028 80.8527 37
0 -5 -11 75.8291 56.6864 19
0 -5 -11 36.2195 33.143 51
0 -5 -12 1056.11 108.533 19
0 -5 -12 938.413 92.3485 13
0 -5 -13 1698.31 106.443 13
0 5 13 1840.52 83.6125 47
0 -5 -13 1891.8 122.408 19
0 -5 -14 4274.84 144.622 19
0 6 -13 1257.18 84.6632 15
0 6 -12 62.9671 40.5099 15
0 6 -11 1579.2 122.291 15
0 6 -11 1371.83 115.144 17
0 -6 10 1385.89 214.258 34
0 6 -10 1212.26 114.275 17
0 6 -10 1307.3 115.431 15
0 -6 10 1059.59 184.692 35
0 -6 9 378.717 123.225 35
0 6 -9 363.044 70.3852 17
0 6 -9 394.037 69.6856 15
0 -6 8 10189.1 559.133 35
0 -6 8 10241.7 561.026 27
0 6 -8 9783.2 296.649 15
0 6 -8 10300.7 315.104 17
0 6 -8 10091 296.337 20
0 -6 8 10347.6 582.735 26
0 -6 7 286.698 108.435 27
0 6 -7 14.723 27.6861 15
0 -6 7 53.1362 65.2635 35
0 6 -7 177.204 44.2838 20
0 -6 7 223.326 69.7166 22
0 -6 6 93.5146 67.7776 35
0 -6 6 -85.3382 53.2353 22
0 6 -6 -104.68 84.0419 4
0 -6 5 7504.56 374.101 22
0 -6 5 7962.43 411.828 27
0 6 -5 7850.8 458.507 4
0 -6 5 7907.61 438.804 35
0 6 -4 7482.96 366.016 1
0 -6 4 7397.41 351.193 22
0 -6 4 8016.18 378.472 27
0 -6 4 7420.57 397.798 35
0 6 -3 12986.2 484.174 1
0 -6 3 13288.9 447.758 22
0 -6 3 13427.1 447.599 27
0 -6 3 13595.6 504.681 35
0 -6 2 95.1628 38.5016 27
0 -6 2 34.7927 39.3346 22
0 6 -2 149.65 64.6087 1
0 -6 2 101.753 51.2757 35
0 -6 1 1012.64 126.577 35
0 -6 1 900.245 96.2307 27
0 -6 1 953.982 116.398 22
0 6 -1 982.277 137.441 1
0 -6 0 16435.5 464.687 22
0 -6 0 17221.8 467.505 35
0 6 0 16449.8 535.122 1
0 6 1 102061 1342.25 1
0 -6 -1 104113 1196.76 22
0 -6 -1 103389 1068.39 35
0 -6 -2 264.775 75.5123 22
0 6 2 217.425 72.3773 37
0 6 2 304.415 86.5515 1
0 6 3 60427.1 1071.88 1
0 -6 -3 61405.8 976.605 22
0 -6 -3 61046.9 1194.84 40
0 6 3 63343.2 1045.61 37
0 6 4 15329.3 551.609 1
0 -6 -4 16793.2 592.579 3
0 6 4 15841.3 538.953 37
0 -6 -4 14800 620.619 40
0 -6 -5 2642 273.299 40
0 -6 -5 3126.79 272.69 3
0 6 5 2957.47 247.888 37
0 6 5 2791.14 241.113 1
0 6 6 7011.1 382.808 1
0 6 6 6979.86 452.146 23
0 -6 -6 6755.21 489.885 6
0 6 6 7026.26 407.486 30
0 6 6 7526.54 412.117 37
0 -6 -6 7017.49 456.674 40
0 6 7 6269.25 446.924 23
0 6 7 6506.82 407.524 37
0 -6 -7 6885.21 510.769 6
0 -6 -7 6773.33 254.795 51
0 6 7 6499.62 411.925 30
0 -6 -8 38906.5 590.399 53
0 -6 -8 43000.6 660.336 19
0 -6 -8 39122.6 565.132 10
0 -6 -8 40616.6 641.682 51
0 -6 -8 41230.6 605.869 13
0 6 8 42991 1103.11 30
0 6 8 40988.6 1072.33 37
0 6 9 467.463 119.544 30
0 -6 -9 654.575 76.6318 53
0 -6 -9 595.595 72.9521 10
0 -6 -9 717.953 92.3504 51
0 -6 -9 733.117 95.9682 19
0 -6 -9 552.177 79.0487 13
0 6 9 561.347 151.555 37
0 6 10 9237.45 525.267 37
0 -6 -10 8966.75 290.838 13
0 -6 -10 9780.62 322.437 19
0 -6 -10 9396.67 309.518 51
0 6 11 182.846 95.2365 37
0 -6 -11 141.167 50.3836 13
0 -6 -11 196.602 62.2428 19
0 6 11 76.6146 28.519 47
0 -6 -12 101.197 46.9133 19
0 6 12 101.518 32.532 47
0 -6 -13 17.6999 29.1571 19
0 6 13 7.82819 18.6112 54
0 7 -13 404.58 43.1533 15
0 7 -12 85.7195 36.5026 15
0 7 -11 19.3573 35.1455 17
0 7 -11 36.9663 37.6826 15
0 7 -10 27.4145 42.0742 17
0 7 -10 24.3466 40.0261 15
0 7 -9 15635.6 394.826 17
0 -7 9 15940.5 698.607 35
0 7 -9 15320.6 373.998 15
0 7 -8 5584.15 225.874 15
0 -7 8 5736.64 432.903 35
0 7 -8 5621.62 241.02 17
0 -7 7 447.367 126.356 27
0 7 -7 440.211 68.9545 15
0 -7 7 537.551 136.222 35
0 7 -7 239.657 50.9651 14
0 7 -6 9513.98 579.116 4
0 7 -6 9217 262.637 20
0 7 -6 8625.79 274.242 14
0 -7 6 9177.13 490.3 27
0 7 -6 9458.62 276.625 15
0 -7 6 9624.83 537.58 35
0 -7 6 9295.72 465.471 22
0 -7 5 -27.0442 46.6601 35
0 -7 5 122.622 69.731 27
0 -7 5 43.2098 49.8802 22
0 -7 4 6545.11 401.75 35
0 -7 4 6640.7 363.166 22
0 7 -4 6857.49 387.14 1
0 -7 4 6791.05 370.048 27
0 7 -3 16198.3 594.124 1
0 -7 3 16938.7 611.25 35
0 -7 3 16809.5 533.79 27
0 -7 3 16763.9 554.726 22
0 -7 2 9458.83 429.412 35
0 7 -2 8974.81 442.176 1
0 -7 2 9470.14 400.96 22
0 -7 2 8980.28 355.278 27
0 -7 1 569.653 104.408 35
0 -7 1 528.853 93.417 22
0 -7 0 574.4 96.2985 35
0 -7 0 423.258 90.9626 22
0 7 0 455.219 103.96 1
0 -7 -1 30909.5 713.595 22
0 7 1 30874.8 820.934 1
0 7 2 299.381 84.4099 37
0 -7 -2 295.904 80.4974 22
0 7 2 239.178 80.1818 1
0 -7 -3 -30.9005 54.9314 40
0 -7 -3 45.3952 39.2962 22
0 7 3 -3.8109 48.7332 37
0 7 3 -36.7875 35.6992 1
0 7 4 181.862 76.0901 1
0 -7 -4 212.991 93.3355 40
0 7 4 253.416 88.4 37
0 7 5 353.958 99.2299 37
0 -7 -5 522.545 131.927 40
0 7 5 448.963 103.426 1
0 -7 -6 1582.21 114.469 10
0 -7 -6 1745.38 130.91 51
0 -7 -6 1409.7 222.743 40
0 7 6 1601.47 105.158 7
0 7 6 1446.35 199.156 37
0 7 6 1446.86 217.629 23
0 -7 -6 1855.64 134.381 53
0 -7 -6 1945.89 276.346 6
0 -7 -7 5629.73 216.68 10
0 -7 -7 5633.69 239.74 51
0 -7 -7 5945.91 238.648 53
0 7 7 5420.3 391.615 37
0 -7 -7 5649.74 237.934 19
0 7 7 5938.14 195.017 47
0 7 7 5492.97 194.047 7
0 -7 -8 13982.4 382.609 19
0 7 8 13643 637.293 37
0 -7 -8 12997.8 368.437 51
0 7 8 13136.5 293.39 47
0 7 8 13946.9 307.587 7
0 -7 -8 13367.6 357.556 53
0 7 9 68.8482 31.6029 47
0 -7 -9 70.1203 37.9641 51
0 -7 -9 83.5081 49.632 19
0 -7 -9 9.7084 25.5974 53
0 7 9 42.0807 80.5075 37
0 7 9 135.646 36.4431 7
0 -7 -10 1202.6 117.693 19
0 7 10 1241.65 88.7931 47
0 -7 -10 1252.97 114.865 51
0 7 10 1136.67 189.509 37
0 -7 -10 1057.78 92.7055 53
0 7 11 895.966 74.4579 54
0 -7 -11 949.274 99.984 19
0 7 11 894.026 70.1238 47
0 7 12 2362.08 100.639 54
0 -7 -12 2386.52 131.927 19
0 -7 -13 934.932 68.4708 19
0 -8 12 4041.72 108.347 45
0 8 -12 4305.08 134.482 15
0 8 -11 63.9119 35.8357 17
0 8 -11 66.9128 36.6246 15
0 8 -10 206.895 53.8839 15
0 -8 10 200.534 40.2208 63
0 8 -10 198.267 51.6934 17
0 8 -9 585.547 76.8415 15
0 8 -9 765.8 91.9228 17
0 8 -8 53.2343 33.478 14
0 -8 8 36.124 50.6827 35
0 8 -8 36.1686 43.1942 17
0 8 -8 92.5691 40.6917 15
0 -8 7 2183.82 130.141 65
0 8 -7 2162.09 141.664 14
0 -8 7 2258.03 275.036 35
0 8 -7 2351.02 146.829 15
0 -8 6 423.283 133.551 35
0 8 -6 349.995 63.4906 14
0 -8 6 356.203 117.4 27
0 8 -6 359.796 63.8761 15
0 -8 5 301.102 86.1357 22
0 -8 5 201.949 96.4514 35
0 8 -5 283.616 55.3845 14
0 -8 5 368.073 60.872 55
0 -8 5 284.776 97.5799 27
0 -8 4 4159.45 342.486 35
0 -8 4 4199.49 306.024 27
0 8 -4 4375.86 189.452 14
0 -8 4 4155.96 309.318 22
0 8 -3 711.323 140.779 1
0 -8 3 731.253 138.84 35
0 -8 3 833.457 139.792 22
0 -8 2 4061.11 288.432 22
0 8 -2 4322.96 341.2 1
0 -8 2 4228.47 312.208 35
0 -8 1 7823.12 392.499 22
0 8 -1 7862.63 456.363 1
0 -8 1 7949.74 400.194 35
0 8 0 8859.38 484.07 1
0 -8 0 9559.04 427.934 22
0 8 1 11193.8 545.27 1
0 -8 -1 11208 465.769 22
0 -8 -2 4711.89 381.804 40
0 8 2 3993.32 329.329 1
0 -8 -2 4696.93 309.391 22
0 8 2 4474.5 332.605 37
0 -8 -3 7505.35 493.747 40
0 8 3 6781.92 430.876 1
0 8 3 7507.05 433.895 37
0 -8 -4 2895.38 312.14 40
0 8 4 2728.76 270.926 1
0 8 4 2577.24 263.766 37
0 8 5 211.188 91.4069 37
0 -8 -5 -6.51139 53.1003 40
0 8 5 162.977 38.5254 47
0 8 5 88.7735 37.615 54
0 8 5 186.549 73.3124 1
0 -8 -5 115.288 39.7272 19
0 -8 -5 56.2092 34.3691 51
0 -8 -5 91.2267 39.3473 53
0 -8 -6 1126.28 106.622 19
0 -8 -6 1031.78 104.496 51
0 8 6 1004.41 86.7608 7
0 8 6 1164.95 186.197 37
0 -8 -6 991.47 102.773 53
0 8 6 1012.94 84.8897 47
0 8 6 998.386 88.4917 54
0 -8 -6 1144.05 212.357 40
0 8 7 11610.6 278.365 47
0 -8 -7 10971.3 330.689 53
0 8 7 10838.7 571.3 37
0 8 7 10690.7 276.251 7
0 8 7 11147.1 287.358 54
0 -8 -7 10966.5 335.044 51
0 -8 -7 10775.7 324.412 19
0 8 8 116.515 41.3922 54
0 8 8 81.6919 33.7446 7
0 -8 -8 137.291 49.0489 51
0 8 8 214.37 42.8701 47
0 -8 -8 45.1363 38.266 19
0 8 8 50.1833 54.1186 37
0 -8 -8 144.566 45.1257 53
0 -8 -9 3769 192.097 19
0 -8 -9 4043.11 187.716 53
0 8 9 4245.6 160.967 47
0 -8 -9 4032.06 200.143 51
0 8 9 3508.47 326 37
0 8 9 3863.44 155.323 7
0 8 9 3999.57 167.013 54
0 8 10 4492.14 151.855 47
0 -8 -10 4074.25 188.33 19
0 -8 -10 3956.02 171.424 53
0 8 10 4360.2 161.869 54
0 -8 -10 4514.74 200.68 51
0 -8 -11 3994.05 168.834 19
0 8 11 3958.56 137.998 54
0 -8 -12 986.048 72.5389 19
0 8 12 955.859 58.5459 54
0 8 12 951.863 69.006 50
0 9 -11 6296.36 163.568 15
0 9 -11 6771.84 167.424 17
0 9 -10 2523.33 123.064 15
0 -9 10 2540.72 109.124 63
0 -9 10 2484.66 105.354 43
0 9 -10 2723.21 130.827 17
0 9 -9 1514.21 110.259 17
0 9 -9 1574.58 109.818 15
0 -9 9 1526.17 100.826 63
0 9 -8 4572.18 201.557 17
0 -9 8 4140.58 162.54 65
0 9 -8 4417.9 188.858 15
0 -9 7 3037.83 306.353 35
0 9 -7 2944.04 158.252 15
0 -9 7 2713.06 144.755 65
0 9 -7 2551.07 148.761 14
0 9 -6 6259.74 236.838 14
0 -9 6 5899.35 218.652 55
0 -9 6 6251.69 450.383 35
0 9 -6 6257.7 229.618 15
0 -9 6 6101.34 224.431 65
0 -9 5 1005.57 97.4205 55
0 -9 5 699.493 157.655 35
0 9 -5 912.265 93.6572 14
0 9 -4 17.9224 25.5852 14
0 -9 4 -39.8901 47.6155 57
0 -9 4 -4.20497 35.6604 55
0 -9 4 -67.0977 67.3997 35
0 9 -3 18803.8 373.797 7
0 9 -3 19535.2 765.68 1
0 -9 3 20538.7 749.315 35
0 9 -3 20035.1 407.015 14
0 -9 3 19587.3 407.468 57
0 -9 3 19834.3 423.917 55
0 -9 2 8958.11 276.741 57
0 -9 2 8851.23 454.482 22
0 9 -2 8826.54 256.519 7
0 -9 2 8893.3 282.385 55
0 -9 2 8598.99 465.687 35
0 9 -2 8985.79 264.313 14
0 9 -2 8728.33 518.392 1
0 9 -1 72.0017 32.2965 14
0 -9 1 38.3991 31.003 57
0 9 -1 86.277 30.637 7
0 -9 1 88.8026 37.3718 55
0 -9 1 61.0237 51.0451 35
0 -9 1 101.81 70.0898 22
0 9 -1 -5.65745 55.4817 1
0 9 0 11517.5 288.471 7
0 9 0 11722.3 285.842 14
0 -9 0 10813.1 492.979 22
0 9 0 11668.3 603.697 1
0 -9 0 11604.8 293.459 65
0 -9 0 11912.4 320.261 57
0 -9 0 11872.4 323.507 55
0 9 1 1134.23 89.2593 14
0 -9 -1 1244.38 96.0764 65
0 -9 -1 1194.8 164.997 22
0 -9 -1 1250.48 109.07 53
0 9 1 1267.18 207.065 1
0 -9 -1 1279.05 106.927 55
0 -9 -1 1144.15 200.959 40
0 9 1 1315.39 100.291 7
0 9 2 43850.3 581.389 50
0 -9 -2 44297.7 617.299 55
0 -9 -2 43057.3 631.371 53
0 -9 -2 42019.1 1199.89 40
0 9 2 43119 560.657 54
0 9 2 41880.8 548.24 7
0 9 2 40739.3 1127.2 1
0 -9 -3 18256.8 419.17 53
0 9 3 17852.5 361.058 54
0 9 3 18788.4 384.117 50
0 -9 -3 17670.5 804.051 40
0 9 3 16576 723.476 1
0 9 3 18310.8 363.188 7
0 -9 -4 28012.1 525.11 53
0 9 4 27339.2 444.929 7
0 9 4 26023.6 865.562 37
0 -9 -4 27910.3 487.716 51
0 9 4 27353.3 467.974 50
0 -9 -4 27739.8 1016.1 40
0 9 4 27395.5 448.96 54
0 -9 -5 22323.7 475.913 53
0 -9 -5 22357.1 454.33 51
0 9 5 21815.6 423.091 50
0 -9 -5 21127.4 896.05 40
0 9 5 21803.5 404.616 54
0 9 5 21747.9 401.878 7
0 9 5 21542.4 377.536 47
0 9 5 21056.1 788.33 37
0 -9 -5 22018.7 425.973 52
0 9 6 3940.12 348.776 37
0 -9 -6 4254.6 196.634 19
0 -9 -6 3823.42 378.238 40
0 9 6 4050.73 177.185 54
0 -9 -6 4185.97 208.256 53
0 9 6 4036.34 174.914 7
0 9 6 4398.92 192.617 50
0 9 6 4132.13 167.083 47
0 -9 -6 4215.28 203.19 51
0 -9 -7 2654.16 163.682 51
0 -9 -7 2723.87 159.3 19
0 -9 -7 2751.22 165.59 53
0 9 7 2784.59 135.841 47
0 9 7 2654.42 138.923 7
0 9 7 2680.78 152.853 50
0 9 7 2684.21 143.434 54
0 9 7 2439.49 274.514 37
0 9 8 112.598 56.8814 37
0 9 8 330.251 52.4711 7
0 -9 -8 323.884 60.0683 53
0 -9 -8 287.998 62.2787 51
0 -9 -8 294.414 57.7596 19
0 9 8 313.28 62.2073 50
0 9 8 292.046 53.5704 54
0 9 8 291.008 47.9442 47
0 -9 -9 57.3049 31.0682 53
0 9 9 -32.2695 25.0325 7
0 9 9 56.5036 44.2555 50
0 -9 -9 40.9502 38.4347 51
0 9 9 1.12194 30.1254 54
0 -9 -9 -45.0786 38.7982 19
0 9 9 -6.65818 29.7088 47
0 -9 -10 125.208 38.1974 19
0 -9 -10 138.43 34.3065 53
0 9 10 157.684 37.07 54
0 9 10 173.915 45.5486 50
0 9 11 157.029 30.0792 54
0 9 11 163.996 40.6015 50
0 -9 -11 102.801 31.0474 19
0 9 12 1538.84 69.0149 50
0 -10 10 3.02742 18.7401 63
0 10 -10 -0.47906 17.2318 15
0 -10 10 3.09318 17.4968 43
0 10 -10 -21.2734 23.499 17
0 -10 9 2070.3 104.615 63
0 10 -9 2178.15 110.43 15
0 10 -9 2173.14 114.349 17
0 -10 9 2146.38 102.542 43
0 10 -8 663.461 75.3547 17
0 10 -8 713.447 74.6728 15
0 -10 8 738.465 75.56 63
0 -10 8 685.833 64.2077 65
0 -10 7 8203.58 250.01 63
0 10 -7 7799.73 239.249 14
0 10 -7 8234.78 244.534 15
0 -10 7 7692 228.753 65
0 -10 6 266.755 52.8419 65
0 10 -6 370.82 61.5369 15
0 10 -6 295.984 58.4569 14
0 -10 6 246.529 48.3245 55
0 -10 5 4250.92 191.379 55
0 -10 5 4046.45 184.534 65
0 10 -5 4486.82 189.704 15
0 -10 5 3875.26 347.536 35
0 10 -5 4214.77 193.032 14
0 -10 4 316.186 59.2313 55
0 10 -4 197.919 50.1825 14
0 -10 4 249.566 54.0441 65
0 10 -3 1536.36 117.689 14
0 10 -3 1472.32 107.094 7
0 -10 3 1374.93 115.611 55
0 -10 3 1435.46 198.637 35
0 -10 3 1513.5 117.15 65
0 -10 2 5697.23 387.505 35
0 -10 2 5692.04 234.054 55
0 -10 2 5810.3 222.398 65
0 10 -2 5936.76 220.644 14
0 -10 2 5821.7 218.455 63
0 10 -2 6151.18 217.546 7
0 -10 2 5639.27 426.79 40
0 -10 1 38.5048 71.1065 40
0 -10 1 70.5456 33.5081 65
0 10 -1 -13.338 30.8023 14
0 -10 1 106.609 42.837 55
0 -10 1 143.374 43.1009 63
0 10 -1 135.214 39.5331 7
0 -10 0 13867.7 692.823 40
0 -10 0 13826.6 351.854 53
0 -10 0 13640.7 313.367 63
0 10 0 14292.4 327.257 14
0 -10 0 14554.8 371.374 55
0 -10 0 14450.8 337.84 65
0 10 0 14221.9 330.557 7
0 10 1 50.8589 28.649 14
0 -10 -1 51.4477 37.4198 53
0 -10 -1 35.1566 36.7911 55
0 10 1 89.1555 38.8601 7
0 10 2 24016.5 445.434 50
0 10 2 23944.1 427.876 7
0 -10 -2 24276.3 485.043 53
0 -10 -2 24623.3 959.546 40
0 -10 -3 9906.42 313.563 53
0 -10 -3 9964.2 615.321 40
0 10 3 9632.37 275.702 54
0 10 3 9630.92 273.67 7
0 10 3 10105.2 290.448 50
0 10 4 3671.32 171.349 54
0 -10 -4 3909.11 199.172 53
0 10 4 3845.51 173.409 7
0 10 4 3864.9 182.495 50
0 -10 -4 3978.42 395.164 40
0 -10 -5 13387.8 363.719 53
0 -10 -5 12706.5 697.509 40
0 -10 -5 13147.1 325.682 52
0 10 5 12682.9 311.138 54
0 -10 -5 13963.3 343.895 51
0 10 5 13220.5 330.184 50
0 10 5 13100.9 315.364 7
0 10 6 72.0726 38.979 54
0 -10 -6 -86.2826 38.8497 51
0 10 6 46.6789 33.7977 7
0 10 6 58.94 42.8582 50
0 -10 -6 35.9595 34.1719 53
0 10 6 73.2774 60.4179 37
0 10 7 1133.82 90.946 7
0 10 7 1153.07 94.7441 54
0 -10 -7 1073.43 97.9695 51
0 10 7 1227.86 103.46 50
0 -10 -7 1154.76 94.1053 19
0 10 7 1318.1 192.223 37
0 -10 -7 1174.66 107.041 53
0 10 8 1155.37 97.9692 50
0 10 8 1153.04 90.003 54
0 -10 -8 1130.18 90.1695 19
0 -10 -8 1141.09 99.778 53
0 10 8 1135.31 83.9474 7
0 -10 -8 1078.29 96.4849 51
0 -10 -9 1077.09 80.9511 19
0 -10 -9 1113.83 86.9349 53
0 10 9 1192.89 76.0115 7
0 10 9 1190.92 82.5615 54
0 10 9 1221.89 90.1105 50
0 10 10 58.807 33.5241 50
0 10 10 52.2475 25.451 54
0 -10 -10 50.7617 22.1411 53
0 10 11 14.6931 19.4569 50
0 11 -9 170.026 30.1161 17
0 -11 9 138.37 25.5141 45
0 -11 9 194.374 31.7081 63
0 -11 9 129.389 27.1779 43
0 11 -8 993.006 74.7032 17
0 -11 8 861.035 69.9267 63
0 11 -8 911.855 67.4795 15
0 -11 8 958.858 69.267 43
0 -11 8 858.861 59.7778 65
0 11 -7 1367.98 96.7738 17
0 11 -7 1238.42 86.5868 15
0 -11 7 1282.82 93.8334 63
0 -11 7 1245.59 86.0069 65
0 11 -6 6327.47 206.997 14
0 -11 6 6563.9 208.392 65
0 11 -6 6570.5 203.719 15
0 -11 6 6516.54 215.032 63
0 11 -5 16978.5 338.138 15
0 -11 5 16686.1 354.919 63
0 -11 5 16038.5 344.572 55
0 -11 5 16634.2 350.544 65
0 11 -5 16627.6 352.986 14
0 11 -4 445.703 67.0394 14
0 -11 4 394.434 62.078 55
0 -11 4 441.99 68.9957 65
0 -11 4 425.86 64.4437 63
0 -11 3 11.6092 34.1269 65
0 -11 3 27.7537 34.1806 63
0 -11 3 -2.15839 35.2665 55
0 11 -3 -34.8109 30.9346 7
0 11 -3 -14.0724 38.582 14
0 -11 2 104.196 47.238 65
0 11 -2 92.2361 33.6235 7
0 -11 2 69.3214 41.688 55
0 -11 2 161.745 48.1802 63
0 11 -2 103.756 40.7947 14
0 11 -1 1420.68 108.319 14
0 -11 1 1367.55 102.877 63
0 -11 1 1185.12 194.541 40
0 11 -1 1376.4 104.915 7
0 -11 1 1392.82 118.271 55
0 -11 1 1405.52 110.465 65
0 -11 0 209.509 51.1976 53
0 -11 0 192.403 47.5263 65
0 11 0 171.339 45.6946 14
0 11 0 120.537 40.6092 7
0 11 1 1314.43 102.822 7
0 -11 -1 1405.68 228.215 40
0 -11 -1 1307.33 100.746 65
0 11 1 1318.05 97.0606 14
0 -11 -1 1439.13 117.321 53
0 11 2 20517.2 394.088 7
0 -11 -2 20382.3 433.072 53
0 -11 -2 20021.7 856.343 40
0 -11 -3 477.416 76.9614 53
0 11 3 495.679 71.2387 50
0 11 3 547.284 71.7608 7
0 -11 -4 8294.14 257.237 52
0 11 4 8231.76 246.454 7
0 11 4 8108.75 252.516 50
0 -11 -4 8426.96 554.425 40
0 -11 -4 8254.45 276.449 53
0 -11 -5 3037.29 168.379 53
0 11 5 2862.49 151.151 50
0 -11 -5 3008.08 146.772 52
0 11 6 2650.05 140.714 50
0 -11 -6 2715.75 154.241 53
0 11 6 2633.35 135.909 54
0 -11 -6 2701.99 138.09 51
0 11 6 2648.76 133.341 7
0 11 7 2438.37 122.975 54
0 11 7 2458.1 119.26 7
0 -11 -7 2454.1 128.67 51
0 -11 -7 2468.21 137.329 53
0 11 7 2492.74 131.227 50
0 11 8 88.0461 28.1749 7
0 11 8 117.673 38.1964 50
0 11 8 13.2932 30.472 62
0 -11 -8 71.5667 34.6875 53
0 -11 -9 3350.84 124.869 53
0 11 9 3617.27 127.439 50
0 11 9 3590.56 109.852 7
0 11 10 105.439 24.7517 50
0 -12 8 136.136 23.6921 43
0 -12 8 141.237 25.8668 63
0 -12 7 836.946 59.2091 43
0 -12 7 675.011 45.2259 45
0 -12 7 800.864 56.1194 65
0 -12 7 786.811 61.2677 63
0 12 -7 833.39 62.7279 17
0 -12 6 237.106 43.7315 63
0 12 -6 230.603 43.7139 17
0 -12 6 201.373 36.961 43
0 -12 6 238.372 42.4146 65
0 -12 6 239.394 32.2338 45
0 -12 5 798.347 73.5481 63
0 12 -5 813.916 75.0985 14
0 -12 5 895.488 77.992 65
0 -12 4 952.864 82.3809 63
0 12 -4 1007.89 84.7026 14
0 -12 4 950.849 84.9486 65
0 -12 3 87.3067 37.0716 63
0 -12 3 62.4813 38.3862 65
0 12 -3 68.8865 38.8947 14
0 -12 2 25.6709 27.969 63
0 12 -2 -4.1791 29.6532 14
0 -12 2 17.4384 29.3101 65
0 12 -2 -25.2635 26.4823 7
0 -12 1 400.734 54.1154 63
0 -12 1 414.977 60.0866 65
0 12 -1 497.447 63.5133 14
0 12 -1 554.376 65.6512 7
0 12 0 366.384 55.2447 14
0 -12 0 296.131 51.6916 53
0 12 0 418.721 58.8591 7
0 -12 0 353.06 54.988 65
0 -12 -1 394.022 54.7713 65
0 12 1 459.997 54.7659 14
0 12 1 500.902 65.1729 7
0 -12 -1 376.921 58.8489 53
0 12 2 3570.26 157.303 7
0 -12 -2 3583.48 169.436 53
0 -12 -2 3596.64 339.267 40
0 -12 -3 14009.5 330.3 53
0 12 3 14658.6 311.063 7
0 -12 -3 13795.5 316.954 52
0 -12 -3 13169.9 651.628 40
0 -12 -4 9727.41 251.322 52
0 12 4 10370.2 256.767 7
0 -12 -4 9977.37 276.785 53
0 -12 -5 16.771 24.3492 52
0 12 5 91.4097 36.7537 7
0 -12 -5 73.6383 38.754 53
0 12 6 84.0056 32.9735 7
0 -12 -6 34.9975 30.5629 53
0 12 7 782.329 60.8331 7
0 -12 -7 844.339 70.896 53
0 12 8 45.3356 19.7381 7
0 -12 -8 42.0269 23.958 53
0 -13 6 14.5612 19.7102 63
0 -13 6 5.72625 14.867 43
0 13 -6 -34.1595 17.1557 17
0 -13 6 -27.1948 17.3414 65
0 -13 5 6.04821 18.9434 63
0 -13 5 32.9049 24.6991 65
0 -13 5 12.591 17.5659 43
0 13 -5 23.8348 22.2243 17
0 -13 4 496.789 52.5287 65
0 -13 4 557.073 53.8294 63
0 13 -4 560.628 53.8067 14
0 -13 4 545.104 45.9824 43
0 -13 3 361.543 44.7315 63
0 13 -3 462.886 54.0077 14
0 -13 3 419.765 52.0704 65
0 13 -2 1770.94 88.0503 7
0 -13 2 1911.15 102.41 65
0 -13 2 1812.37 92.0465 63
0 13 -2 1951.53 102.862 14
0 13 -1 157.414 36.3023 7
0 13 -1 153.637 36.8996 14
0 -13 1 119.65 33.9275 65
0 -13 0 963.685 73.1147 65
0 13 0 1103.84 78.8941 7
0 13 0 1101.88 76.0579 14
0 -13 -1 2431.01 126.075 52
0 -13 -1 2400.83 113.331 53
0 -13 -1 2158.73 100.023 65
0 13 1 2433.97 115.339 7
0 13 1 2331.62 102.096 14
0 -13 -2 2044.19 112.704 52
0 13 2 2261.71 111.957 7
0 -13 -2 2112.17 110.596 53
0 -13 -3 30.8796 27.6555 53
0 13 3 101.106 35.2133 7
0 -13 -3 162.548 37.1274 52
0 13 4 1235.24 80.5363 7
0 -13 -4 1242.39 84.1421 53
0 -13 -4 1155.92 74.2169 52
0 -13 -5 9738.77 217.886 53
0 13 5 10071.9 205.261 7
0 -13 -6 921.088 63.3568 53
0 13 6 918.684 58.7311 7
0 -13 -7 2284.65 84.8023 53
0 -14 3 324.601 33.3951 65
0 -14 3 317.855 34.5955 52
0 -14 2 493.417 44.6085 52
0 -14 2 496.081 41.5782 65
0 -14 1 3.71062 15.2375 65
0 -14 1 13.2626 20.2831 52
0 14 0 920.341 55.6434 7
0 -14 0 822.559 48.8626 65
0 14 1 254.254 34.4338 7
0 -14 -1 281.33 38.8602 52
0 14 2 1104.15 62.9969 7
0 -14 -2 1127.57 65.663 52
0 14 3 622.336 47.0749 7
0 -14 -3 574.077 41.9131 53
0 -14 -3 641.267 45.4667 52
0 14 4 1860.49 73.7361 7
-1 14 2 2418.8 79.0634 7
-1 14 1 2347.76 77.339 7
1 -14 -1 2272.57 85.1537 52
1 -14 0 226.951 32.282 52
1 -14 1 730.645 53.7494 52
-1 14 -2 643.64 43.1506 14
1 -14 2 654.657 49.4951 52
1 -14 3 474.736 39.383 52
-1 13 6 38.741 17.055 7
1 -13 -6 0.06437 18.7351 53
1 -13 -5 138.948 29.2482 53
-1 13 5 140.992 28.8422 7
1 -13 -4 4428.7 145.887 53
-1 13 4 4538.57 136.238 7
1 -13 -3 525.2 48.651 52
-1 13 3 435.264 49.7713 7
1 -13 -3 522.185 56.4677 53
1 -13 -2 77.8338 29.1743 52
-1 13 2 82.7659 30.4734 7
1 -13 -2 107.341 31.8941 53
1 -13 -1 326.233 47.0833 52
1 -13 -1 415.516 51.1021 53
-1 13 1 401.345 48.2379 7
1 -13 0 -5.29406 25.1682 53
1 -13 0 -45.9753 23.2766 65
-1 13 0 1.88091 17.8928 14
-1 13 0 -6.82966 26.3546 7
1 -13 1 9.91619 23.2144 65
-1 13 -1 52.4543 29.3286 14
-1 13 -1 16.5071 23.0192 7
-1 13 -2 326.562 44.843 14
1 -13 2 429.048 51.805 65
1 -13 3 1043.11 64.9238 63
1 -13 3 1138.52 76.2494 65
-1 13 -3 1151.88 76.0388 14
1 -13 4 3582.8 116.625 63
-1 13 -4 3941.74 131.447 14
1 -13 4 3861.27 131.715 65
-1 13 -5 4003.2 121.68 14
1 -13 5 3716.43 114.115 63
1 -13 5 3639.32 98.7551 43
1 -13 5 3960.77 125.085 65
-1 13 -5 4218.29 131.924 17
-1 13 -6 794.739 52.4316 17
1 -13 6 802.592 52.138 65
1 -13 6 652.582 45.4634 63
1 -12 -7 2751.76 109.812 53
-1 12 7 2834.89 100.325 7
-1 12 6 50.8636 25.8245 7
1 -12 -6 26.1696 24.3915 53
1 -12 -5 2337.92 125.496 53
-1 12 5 2514.7 116.123 7
1 -12 -4 721.738 78.1781 53
1 -12 -4 696.589 62.0373 52
-1 12 4 805.201 73.8075 7
1 -12 -3 82.8677 43.8687 53
-1 12 3 56.517 34.7835 7
1 -12 -3 64.9993 29.041 52
1 -12 -2 210.66 53.7434 53
-1 12 2 220.646 48.503 7
1 -12 -1 90.3939 38.0597 53
-1 12 1 96.6755 36.5013 7
1 -12 0 89.9363 36.6438 53
1 -12 0 247.048 87.2599 40
-1 12 0 109.878 36.4658 7
-1 12 0 224.172 44.6056 14
1 -12 0 90.4311 35.3128 65
1 -12 1 1387.35 99.4692 53
1 -12 1 1384.12 98.8534 65
-1 12 -1 1325.95 95.2482 14
-1 12 -1 1357.68 92.4073 7
-1 12 -2 4350.37 169.641 14
1 -12 2 4223.74 156.806 63
1 -12 2 4164.88 168.922 65
-1 12 -2 3969.33 146.993 7
1 -12 3 36.5025 32.4829 65
1 -12 3 69.137 32.7574 63
-1 12 -3 92.4747 40.2965 14
1 -12 4 20.9287 28.128 63
1 -12 4 40.8279 35.8725 65
-1 12 -4 21.8188 31.2494 14
1 -12 5 1439.04 92.9888 63
1 -12 5 1634.14 101.49 65
-1 12 -5 1437.03 94.0137 14
1 -12 6 4238.73 148.704 65
-1 12 -6 4655.69 161.023 17
1 -12 6 4167.94 146.405 63
-1 12 -6 4092.99 141.914 14
1 -12 7 2851.76 109.643 65
1 -12 7 2606.77 107.851 63
1 -12 7 2805.1 103.654 43
-1 12 -8 314.663 35.6998 17
1 -12 8 316.075 34.1518 43
1 -12 8 335.231 36.5175 63
-1 11 9 16.346 19.5084 50
-1 11 8 886.025 67.1098 50
1 -11 -8 927.333 69.4749 53
-1 11 8 897.728 60.7164 7
1 -11 -7 1505.1 96.575 51
-1 11 7 1484.81 91.9363 54
1 -11 -7 1412.04 97.6633 53
-1 11 7 1364.75 85.2711 7
-1 11 7 1315.81 88.4101 50
-1 11 6 1085.64 83.7066 7
1 -11 -6 1059.13 94.2271 53
-1 11 6 1063.44 87.3131 54
1 -11 -6 1074.94 87.5359 51
-1 11 6 938.407 82.066 50
-1 11 5 1178.83 94.6316 50
-1 11 5 1180.45 92.2387 7
1 -11 -5 1265.12 96.2327 51
1 -11 -5 1228.59 214.926 40
-1 11 5 1219.93 95.6045 54
1 -11 -5 1244.12 108.159 53
1 -11 -4 12950.7 298.906 52
-1 11 4 13666.4 312.495 50
1 -11 -4 12960 675.522 40
-1 11 4 13630.2 308.567 7
1 -11 -4 13554.5 349.692 53
-1 11 3 54.3318 38.8199 50
1 -11 -3 -9.31175 38.7746 53
1 -11 -3 96.9733 64.1833 40
-1 11 3 71.9974 34.6 7
1 -11 -2 537.321 142.69 40
-1 11 2 419.473 60.549 7
1 -11 -2 487.823 75.3166 53
-1 11 1 -42.2502 28.2473 14
-1 11 1 31.5362 32.4942 7
1 -11 -1 -44.3513 33.8818 53
-1 11 0 49.2454 34.7589 7
1 -11 0 37.8357 34.1368 53
1 -11 0 64.6993 37.7394 65
1 -11 0 83.5202 66.54 40
1 -11 0 29.6525 33.6407 55
-1 11 0 66.1197 33.3244 14
1 -11 1 1306.51 115.728 55
1 -11 1 1067.73 188.749 40
1 -11 1 1275.61 107.66 53
-1 11 -1 1458.25 103.225 7
-1 11 -1 1448.03 107.04 14
1 -11 1 1412.6 106.807 65
1 -11 2 1512.9 120.912 55
-1 11 -2 1568.85 105.608 7
1 -11 2 1539.49 227.238 40
1 -11 2 1610.95 108.997 63
-1 11 -2 1626.89 115.051 14
1 -11 2 1540.27 115.165 65
1 -11 3 549.823 69.2464 63
1 -11 3 509.934 69.2389 65
-1 11 -3 411.867 62.0665 14
1 -11 3 531.02 77.1187 55
1 -11 4 2214.04 140.359 55
1 -11 4 2145.34 132.474 65
-1 11 -4 2253.47 133.779 14
1 -11 4 2091.25 128.792 63
1 -11 5 1346.73 106.964 55
1 -11 5 1392.99 105.042 63
-1 11 -5 1480.77 107.858 14
1 -11 5 1468.89 108.729 65
-1 11 -6 9614.69 251.516 14
1 -11 6 9475.19 254.823 55
1 -11 6 9894.54 262.676 63
1 -11 6 9537.41 255.377 65
1 -11 7 2022.66 111.882 65
-1 11 -7 1974.62 106.892 14
1 -11 7 1947.46 114.064 63
1 -11 7 2005.1 106.045 55
-1 11 -7 2283.67 126.186 17
-1 11 -8 3211.65 133.489 17
1 -11 8 3258.72 132.717 63
1 -11 8 3086.4 119.032 65
1 -11 9 1133.15 70.1877 63
-1 11 -9 1071.29 68.8921 17
1 -11 9 1213.38 67.9462 43
-1 10 10 154.653 30.7723 50
-1 10 10 130.601 26.6914 54
-1 10 9 37.2948 22.2462 7
1 -10 -9 35.3809 23.8988 53
-1 10 9 37.7027 27.7537 54
-1 10 9 27.8209 30.0218 50
1 -10 -8 563.592 65.5677 53
-1 10 8 660.871 62.287 7
-1 10 8 640.724 65.7941 54
1 -10 -8 657.087 73.8366 51
-1 10 8 663.454 70.1532 50
-1 10 7 3403.09 155.343 50
1 -10 -7 3104.18 161.81 53
-1 10 7 3173.55 141.287 7
1 -10 -7 3405.16 167.202 51
-1 10 7 3210.77 146.465 54
1 -10 -6 320.91 56.77 51
1 -10 -6 392.912 67.9327 53
-1 10 6 414.235 63.7258 54
-1 10 6 324.653 54.1776 7
-1 10 6 398.894 65.6149 50
1 -10 -5 14503.1 378.533 53
-1 10 5 14437.7 336.869 50
-1 10 5 14816.2 328.016 7
-1 10 5 14516.3 329.845 54
1 -10 -5 13957 727.439 40
1 -10 -5 14980.2 360.562 51
1 -10 -4 -18.9036 44.5583 53
1 -10 -4 45.6451 32.0315 51
-1 10 4 21.6059 37.7972 50
-1 10 4 59.446 36.205 7
-1 10 4 0.92663 34.9519 54
-1 10 3 7723.89 246.741 54
-1 10 3 7646.05 251.331 50
1 -10 -3 7602.37 547.576 40
1 -10 -3 7684.49 280.981 53
-1 10 3 7723.85 241.774 7
1 -10 -2 1703 134.617 53
-1 10 2 1785.62 119.347 7
-1 10 2 1849.11 127.656 50
1 -10 -2 1773.32 261.332 40
-1 10 1 4071.8 175.782 7
-1 10 1 4187.3 173.487 14
1 -10 -1 4046.38 170.751 65
1 -10 -1 4764.78 211.393 55
1 -10 -1 4451.1 210.626 53
1 -10 -1 3921.42 388.554 40
1 -10 0 226.915 104.497 40
1 -10 0 288.474 59.5564 53
1 -10 0 266.452 58.6796 55
1 -10 0 211.98 52.4124 57
-1 10 0 315.242 54.5802 7
1 -10 0 200.462 44.0385 65
-1 10 0 335.167 55.3915 14
1 -10 1 8581.22 249.766 63
1 -10 1 8781.85 285.181 53
1 -10 1 8893.26 294.195 55
1 -10 1 8842.74 266.709 65
-1 10 -1 8909.01 263.665 14
1 -10 1 8839.39 288.821 57
-1 10 -1 9218.8 260.144 7
1 -10 2 2732.4 165.55 55
1 -10 2 2853.12 164.031 57
1 -10 2 2880.33 155.597 65
-1 10 -2 2818.54 152.104 14
-1 10 -2 2718.36 140.389 7
1 -10 3 1072.59 103.638 55
1 -10 3 1194.06 105.84 57
1 -10 3 961.736 177.629 35
-1 10 -3 1212.42 102.814 14
1 -10 4 3485 174.2 57
-1 10 -4 3428.82 169.605 14
1 -10 4 3314.29 178.495 55
1 -10 4 3489.25 314.771 35
1 -10 5 -0.54229 32.2506 55
1 -10 5 27.0365 39.2625 65
-1 10 -5 43.0438 38.3434 14
1 -10 5 28.2783 57.5905 35
1 -10 6 1142.47 191.146 35
-1 10 -6 1092.37 97.2911 14
1 -10 6 1054.8 97.393 55
-1 10 -6 1103.93 90.9248 15
1 -10 6 1125.82 98.263 65
1 -10 7 792.855 80.4181 65
-1 10 -7 755.021 76.3353 15
-1 10 -7 818.38 82.2437 14
1 -10 7 850.836 82.1189 55
1 -10 8 888.949 83.7869 63
-1 10 -8 882.801 75.7632 15
-1 10 -8 823.107 72.8581 14
1 -10 8 910.289 78.9917 65
-1 10 -8 871.656 86.4043 17
-1 10 -9 6455.85 180.033 15
1 -10 9 6613.7 195.408 63
1 -10 9 6538.51 168.903 65
-1 10 -9 6810 204.004 17
1 -10 10 983.194 65.5693 63
-1 10 -10 948.381 70.4404 17
-1 10 -10 758.037 54.2982 15
1 -10 10 945.707 61.7105 43
-1 9 11 788.955 57.4316 50
-1 9 11 793.927 50.9327 54
-1 9 10 2165.73 107.285 50
-1 9 10 2040.1 85.8247 7
1 -9 -10 1869.45 95.5967 19
-1 9 10 1966.77 95.3842 54
-1 9 10 2087.42 88.4913 47
1 -9 -9 3037.92 142.216 53
1 -9 -9 3289.07 161.377 51
-1 9 9 3280.71 127.314 47
-1 9 9 3245.34 127.786 7
-1 9 9 3213.46 136.706 54
-1 9 9 3195.26 144.277 50
1 -9 -9 3294.53 143.731 19
1 -9 -8 1683.8 120.049 53
-1 9 8 1621.2 101.415 7
-1 9 8 1696.66 108.915 54
1 -9 -8 1532.84 107.944 19
1 -9 -8 1754.61 127.861 51
-1 9 8 1896.72 122.016 50
-1 9 8 1760.02 105.268 47
-1 9 7 3300.88 306.479 37
-1 9 7 3444.48 168.064 50
-1 9 7 3381.21 150.562 47
-1 9 7 3468.5 160.923 54
-1 9 7 3212.98 149.485 7
1 -9 -7 3327.71 177.897 53
1 -9 -7 3405.96 183.175 51
-1 9 6 3134.81 152.578 7
-1 9 6 3135.79 148.779 47
1 -9 -6 3032.66 341.134 40
-1 9 6 3192.04 162.116 50
-1 9 6 2581.22 281.208 37
-1 9 6 3142.51 156.613 54
1 -9 -6 3309.63 181.388 51
1 -9 -6 3152.98 180.786 53
-1 9 5 19.2779 36.0972 50
1 -9 -5 27.3165 36.3592 53
-1 9 5 -77.3791 68.281 37
1 -9 -5 18.8629 32.765 51
-1 9 5 61.9349 34.0735 47
-1 9 5 -31.9065 30.6914 7
-1 9 5 -6.59018 31.5921 54
-1 9 4 246.021 48.7429 47
-1 9 4 254.32 57.8584 50
-1 9 4 252.341 53.7608 7
1 -9 -4 156.461 46.9295 51
-1 9 4 209.64 52.6437 54
1 -9 -4 180.267 52.1947 53
-1 9 4 279.655 104.89 37
-1 9 3 10331.2 279.792 54
1 -9 -3 10546.3 303.102 51
-1 9 3 10868.1 295.026 50
1 -9 -3 10470.6 631.484 40
1 -9 -3 10514.9 325.963 53
-1 9 3 9947.77 268.603 7
-1 9 2 9644.27 268.123 54
1 -9 -2 9809.97 311.257 53
1 -9 -2 10063.5 296.961 55
-1 9 2 9354.3 257.884 7
1 -9 -2 9628.72 599.362 40
-1 9 2 9448.19 273.282 50
-1 9 1 1029.53 86.4306 14
-1 9 1 892.123 174.015 1
-1 9 1 987.355 85.933 7
1 -9 -1 958.937 99.5365 53
1 -9 -1 915.591 151.451 22
1 -9 -1 1019.28 97.2175 55
-1 9 1 965.314 89.9717 54
-1 9 1 1064.91 96.7728 50
1 -9 -1 1014.7 96.988 57
1 -9 0 4109.97 192.481 55
-1 9 0 4075.05 168.394 14
1 -9 0 3688.7 304.282 22
1 -9 0 3919.79 192.605 53
1 -9 0 4170.37 193.607 57
-1 9 0 3969.16 358.721 1
-1 9 0 3640.32 156.656 11
-1 9 0 4022.36 169.402 7
-1 9 -1 409.216 120.022 1
-1 9 -1 595.229 68.456 11
-1 9 -1 618.598 68.1622 7
1 -9 1 501.82 71.347 55
1 -9 1 442.292 66.6002 57
1 -9 1 509.83 117.591 22
1 -9 1 437.448 66.5385 53
-1 9 -1 491.948 62.8297 14
1 -9 2 6921.33 248.025 57
1 -9 2 6750.93 249.348 55
-1 9 -2 6736.81 224.867 11
1 -9 2 7464.55 255.033 53
1 -9 2 6528.15 394.013 35
-1 9 -2 6851.82 228.437 14
1 -9 2 6419.76 402.335 22
-1 9 -2 6749.46 458.778 1
-1 9 -2 6469.52 213.563 7
1 -9 3 119.615 38.7269 57
1 -9 3 43.9607 48.3277 35
-1 9 -3 57.7594 33.7615 14
-1 9 -3 54.6643 33.101 11
1 -9 3 105.81 41.6439 55
-1 9 -4 147.08 46.1369 14
1 -9 4 174.007 48.5599 57
-1 9 -4 140.215 41.1764 11
1 -9 4 72.4738 39.7705 55
1 -9 4 230.563 94.1535 35
1 -9 5 809.802 89.5251 55
1 -9 5 744.383 82.0698 57
-1 9 -5 872.718 89.2239 14
1 -9 5 785.43 160.261 35
-1 9 -6 11358.3 311.394 14
1 -9 6 11320 599.121 35
1 -9 6 11646.7 321.215 55
-1 9 -6 11972.3 305.715 15
1 -9 7 14526.7 341.347 55
-1 9 -7 14524.3 334.877 15
1 -9 7 14523.1 678.856 35
-1 9 -7 14100.9 340.484 14
-1 9 -8 3313.24 160.069 15
-1 9 -8 2995.09 149.282 14
-1 9 -8 3142.06 169.298 17
1 -9 8 3014.23 147.786 65
-1 9 -9 1232.86 102.876 17
-1 9 -9 1238.95 96.6195 15
1 -9 9 1282.64 86.505 65
-1 9 -10 1185.68 86.3497 15
-1 9 -10 1234.47 93.8159 17
1 -9 10 1254.76 85.8593 63
1 -9 11 1696.87 74.7083 43
-1 9 -11 1693 85.8264 15
-1 9 -11 1814.45 96.5795 17
1 -9 11 1694.41 77.8279 63
-1 8 12 114.307 27.4166 50
-1 8 11 337.242 42.5014 54
-1 8 11 308.615 36.7731 47
1 -8 -11 286.099 46.7333 19
1 -8 -10 190.157 47.3711 19
-1 8 10 104.384 35.8954 54
-1 8 10 123.324 32.2205 47
-1 8 10 164.366 31.2048 7
1 -8 -10 149.683 46.1122 51
1 -8 -9 37249.7 554.391 19
-1 8 9 37273.6 489.147 54
-1 8 9 35881 453.844 7
-1 8 9 37453.8 468.84 47
1 -8 -9 38171.7 591.123 51
-1 8 8 1593.98 205.783 37
-1 8 8 1727.33 111.653 47
1 -8 -8 1717.83 136.212 51
-1 8 8 1794.72 111.931 7
-1 8 8 1907.69 120.256 54
1 -8 -8 1618.08 124.657 53
1 -8 -8 1809.42 130.692 19
1 -8 -7 1241.96 118.284 51
-1 8 7 1388.7 102.342 7
-1 8 7 1292.93 102.302 54
1 -8 -7 1312.66 113.819 19
-1 8 7 1282.29 98.714 47
-1 8 7 940.918 171.691 37
1 -8 -7 1311.12 116.287 53
-1 8 6 -74.8886 59.7206 37
1 -8 -6 -3.94847 48.974 51
1 -8 -6 22.7536 33.6413 19
-1 8 6 17.6789 29.2616 47
-1 8 6 53.2702 33.6839 54
-1 8 6 9.47744 28.6916 7
1 -8 -6 38.291 34.7829 53
-1 8 5 417.204 58.5932 47
-1 8 5 376.753 59.3273 7
1 -8 -5 441.16 140.861 40
-1 8 5 307.142 53.2065 54
1 -8 -5 320.727 59.0208 51
-1 8 5 323.557 110.217 37
1 -8 -5 345.43 64.5442 53
1 -8 -4 438.428 69.0845 51
1 -8 -4 399.348 66.5938 53
-1 8 4 353.243 58.0989 54
-1 8 4 385.376 57.3558 7
-1 8 4 412.968 56.5121 47
-1 8 4 315.397 98.8137 1
-1 8 4 447.246 115.683 37
1 -8 -4 222.738 108.477 40
-1 8 4 252.515 97.1399 23
-1 8 3 24904.6 407.298 54
1 -8 -3 24940.5 484.794 53
-1 8 3 24240.2 400.66 7
-1 8 3 23220.9 751.643 37
1 -8 -3 24010.3 906.453 40
1 -8 -2 1358.06 179.784 22
-1 8 2 1402.1 182.158 37
-1 8 2 1164.14 186.862 1
1 -8 -1 8983.6 449.321 22
-1 8 1 8924.89 496.818 1
-1 8 0 5915.4 398.997 1
1 -8 0 5004.52 332.749 22
1 -8 1 3288.46 267.908 22
-1 8 -1 3738.65 316.387 1
-1 8 -2 -63.593 55.3236 1
1 -8 2 11.0385 29.4078 35
1 -8 3 1017.37 163.795 35
-1 8 -3 1026.35 169.268 1
1 -8 3 892.133 143.4 22
-1 8 -4 459.708 63.0063 11
1 -8 4 550.003 125.422 35
-1 8 -4 288.585 122.112 4
1 -8 4 460.855 103.837 22
1 -8 4 460.553 64.7929 57
-1 8 -4 475.184 63.1237 14
1 -8 5 4349.48 326.303 27
-1 8 -5 4384.15 191.106 14
1 -8 5 3997.5 312.28 22
-1 8 -5 4160.19 183.517 11
1 -8 5 3916.5 339.774 35
1 -8 5 4397.78 184.595 57
-1 8 -6 10431.9 286.154 15
1 -8 6 9745.53 509.975 27
1 -8 6 10121 298.534 55
-1 8 -6 9346.97 259.547 20
1 -8 6 9960.74 558.163 35
-1 8 -6 9851.14 292.957 14
-1 8 -7 7600.35 249.373 15
1 -8 7 6951.09 477.425 35
-1 8 -7 7363.12 254.405 14
1 -8 7 7498.33 250.424 55
-1 8 -8 5615.96 213.613 14
1 -8 8 6079.64 445.384 35
-1 8 -8 5978.29 241.286 17
-1 8 -8 5913.58 222.385 15
-1 8 -9 163.522 50.5248 17
-1 8 -9 106.403 40.9749 15
-1 8 -10 64.5755 44.6193 17
-1 8 -10 59.0543 37.5878 15
-1 8 -11 5612.78 184.44 15
-1 8 -11 5980.92 199.974 17
1 -8 11 5475.97 160.64 63
-1 8 -12 251.048 40.9589 17
-1 8 -12 153.071 31.7912 15
-1 7 12 4177.46 111.564 47
-1 7 12 4310.88 123.507 54
1 -7 -12 4500.02 151.758 19
1 -7 -11 2382.71 135.75 19
-1 7 11 2520.13 115.111 54
-1 7 11 2451.5 107.451 47
1 -7 -10 249.005 59.0631 19
-1 7 10 196.79 43.5625 47
-1 7 10 309.73 44.7707 7
1 -7 -10 357.34 65.9591 51
1 -7 -9 3461.1 185.942 19
-1 7 9 2980.5 295.257 37
-1 7 9 3286.52 146.067 7
-1 7 9 3212.44 148.431 47
1 -7 -9 3350.62 187.824 51
1 -7 -8 1780.71 130.841 53
-1 7 8 1894.26 244.448 37
-1 7 8 1871.37 117.609 47
1 -7 -8 1701.3 136.849 51
1 -7 -8 1898.03 140.581 19
1 -7 -8 1751.07 124.873 10
1 -7 -7 969.094 98.73 10
-1 7 7 1057.96 90.1826 47
1 -7 -7 1055.06 104.57 19
1 -7 -7 1017.05 105.753 51
-1 7 7 974.91 165.8 37
1 -7 -7 1111.33 105.843 53
-1 7 6 69.8484 67.6706 37
1 -7 -6 25.6865 32.9115 51
1 -7 -6 82.8815 61.5838 40
1 -7 -6 37.9197 30.107 53
1 -7 -6 49.493 30.4876 19
-1 7 6 46.0338 30.2099 47
1 -7 -6 22.307 27.4213 10
-1 7 5 371.036 103.679 1
-1 7 5 162.201 75.2426 23
-1 7 5 392.917 105.616 37
1 -7 -5 280.527 106.332 40
1 -7 -5 190.138 44.365 10
1 -7 -5 218.34 47.9078 53
-1 7 4 7445.02 445.067 1
-1 7 4 6909.17 446.087 23
-1 7 4 8406.44 433.123 37
1 -7 -4 7937.48 504.558 40
-1 7 3 8302.49 458.428 1
1 -7 -3 7948.15 424.438 22
-1 7 3 8413.23 418.461 37
-1 7 2 18872.8 608.851 37
1 -7 -2 18352 626.407 22
-1 7 2 17671.7 647.545 1
-1 7 1 1047.21 141.153 37
1 -7 -1 982.752 138.922 22
-1 7 1 950.116 150.361 1
1 -7 0 43898.7 906.656 22
-1 7 0 44432.7 1000.02 1
-1 7 -1 5086.08 336.433 1
1 -7 1 5221.39 308.168 22
1 -7 1 5875.05 312.876 35
-1 7 -2 13804.9 549.264 1
1 -7 2 14165.8 509.923 22
1 -7 2 14895 527.668 35
1 -7 3 18958.3 597.774 22
1 -7 3 19424.9 639.513 35
-1 7 -3 19595.3 649.548 1
1 -7 4 3488.51 286.522 35
1 -7 4 3058.53 248.267 22
-1 7 -4 3074.91 258.155 1
1 -7 4 3388.15 254.865 27
1 -7 5 313.059 92.5767 27
1 -7 5 343.289 84.2748 22
1 -7 5 307.838 104.369 35
-1 7 -5 382.318 119.334 4
-1 7 -6 1989.38 269.056 4
-1 7 -6 1783.63 119.312 11
-1 7 -6 1840.44 113.998 20
-1 7 -6 1899.37 120.771 15
1 -7 6 2069.76 249.157 35
1 -7 6 1852.14 218.638 27
1 -7 6 1938.66 213.806 22
-1 7 -6 1890.35 127.262 14
-1 7 -7 510.853 65.6071 20
1 -7 7 481.479 125.506 27
1 -7 7 246.945 108.208 35
-1 7 -7 434.13 68.0847 14
-1 7 -7 515.211 69.3622 15
1 -7 8 11440.1 605.072 35
-1 7 -8 11016.9 299.923 20
-1 7 -8 10784.7 305.181 15
-1 7 -8 11382.5 336.395 17
1 -7 9 7216.23 479.066 35
-1 7 -9 7033.1 265.345 17
-1 7 -9 6859.09 245.028 15
-1 7 -10 3399.1 181.91 17
-1 7 -10 3475.88 172.758 15
-1 7 -11 2073.02 127.299 15
-1 7 -11 2151.37 137.63 17
-1 7 -12 1927.98 115.181 17
-1 7 -12 1824.77 107.963 15
-1 7 -13 22.7522 24.4131 15
1 -6 -13 462.075 48.0574 19
-1 6 12 428.742 46.6548 47
1 -6 -12 409.799 60.47 19
-1 6 12 440.706 48.7977 54
1 -6 -11 606.871 79.7946 19
-1 6 11 448.507 54.1918 47
1 -6 -11 506.198 71.2803 51
1 -6 -10 9249.65 274.2 13
1 -6 -10 9437.33 301.939 51
1 -6 -10 9601.56 307.879 19
-1 6 10 8748.4 496.219 37
1 -6 -9 7095 275.298 51
-1 6 9 6883.83 443.712 37
1 -6 -9 6843.27 244.186 13
1 -6 -9 6646.62 236.469 10
1 -6 -9 7509.6 277.256 19
-1 6 9 6985.11 457.177 30
1 -6 -8 102.607 49.0793 19
1 -6 -8 84.7434 43.9506 13
-1 6 8 5.72009 55.3283 37
-1 6 8 22.9775 65.466 30
1 -6 -8 -8.01732 32.4214 51
1 -6 -8 197.477 53.5368 10
1 -6 -7 24926 478.884 53
-1 6 7 27353.5 851.209 30
1 -6 -7 27405.7 510.496 19
-1 6 7 25915.5 815.083 37
-1 6 7 24789.7 917.648 23
1 -6 -7 26567.3 521.925 51
1 -6 -7 24412.9 993.506 6
1 -6 -7 25838.8 480.454 10
-1 6 6 487.131 114.613 30
-1 6 6 222.368 78.0439 37
1 -6 -6 233.288 107.681 6
-1 6 6 147.473 77.5767 23
1 -6 -6 386.133 120.568 40
1 -6 -5 13497.7 630.741 40
-1 6 5 13660.2 561.588 1
-1 6 5 15299.6 569.942 30
-1 6 5 14289.6 545.541 37
-1 6 5 13308.7 624.885 23
-1 6 4 16299.6 610.877 1
-1 6 4 17023.2 564.883 37
1 -6 -4 16628.8 673.274 40
-1 6 4 15068.1 626.182 23
1 -6 -3 100633 1394.54 22
-1 6 3 104102 1334.74 37
-1 6 3 100722 1464.56 1
1 -6 -2 65364.8 1105.7 22
-1 6 2 65356.1 1146.19 1
-1 6 2 68100.7 1040.26 37
-1 6 1 1870.81 172.55 37
-1 6 1 1651.04 182.736 1
1 -6 -1 1528.83 165.894 22
1 -6 0 36320.7 659.706 35
-1 6 0 34796.2 805.926 1
1 -6 0 35479.3 753.857 22
1 -6 1 43288.8 816.039 22
-1 6 -1 43214.3 883.522 1
1 -6 1 45040.8 788.681 35
1 -6 2 134.598 55.2415 22
1 -6 2 175.304 61.4637 35
-1 6 -2 130.22 58.7598 1
1 -6 3 10561.1 401.662 22
1 -6 3 11542.7 453.988 35
-1 6 -3 10327.2 425.258 1
-1 6 -4 757.049 116.598 1
1 -6 4 1067.71 138.107 22
1 -6 4 1120.35 154.456 35
1 -6 5 9992.44 423.882 22
-1 6 -5 10149 516.986 4
1 -6 5 10110.8 480.15 35
1 -6 6 25921.2 768.613 27
-1 6 -6 23895.3 841.521 4
1 -6 6 24548.8 792.186 35
1 -6 6 23734.6 679.626 22
-1 6 -7 2093.21 129.175 15
-1 6 -7 1935.85 124.702 11
-1 6 -7 2375.62 291.646 4
1 -6 7 2182.51 242.727 27
1 -6 7 2123.54 249.808 35
1 -6 7 2220.45 221.942 22
-1 6 -7 2020.43 123.477 20
-1 6 -8 15.5367 34.928 17
1 -6 8 136.148 76.8187 27
1 -6 8 -10.4718 38.5923 35
-1 6 -8 20.3932 33.2054 20
-1 6 -8 35.7534 35.2556 15
-1 6 -9 538.236 75.9764 15
-1 6 -9 428.589 72.7251 17
-1 6 -9 525.279 75.2587 20
-1 6 -10 5398.21 223.362 15
1 -6 10 5231.66 398.262 35
-1 6 -10 5446.32 233.755 17
-1 6 -10 5324.78 218.085 20
-1 6 -11 173.671 52.3667 15
-1 6 -11 159.249 54.5028 17
-1 6 -12 365.933 65.33 17
-1 6 -12 295.703 59.3653 15
-1 6 -13 2637.1 124.355 15
1 -5 -13 2315.7 118.903 19
-1 5 13 2367.68 90.5497 54
-1 5 13 2355.37 88.1292 47
1 -5 -12 914.028 94.5717 19
1 -5 -12 818.693 76.8023 13
1 -5 -11 28.4837 39.0513 19
1 -5 -11 16.4723 39.2757 13
1 -5 -11 96.9276 31.9171 51
-1 5 10 1240.89 198.936 37
1 -5 -10 1804.27 144.725 19
-1 5 10 1392.87 195.617 41
1 -5 -10 1484.67 124.04 51
1 -5 -10 1584.85 122.939 13
-1 5 9 716.649 160.837 30
-1 5 9 1099.03 172.39 41
1 -5 -9 1044.1 103.698 13
1 -5 -9 1081.92 110.231 51
1 -5 -9 955.709 94.2009 10
1 -5 -8 12095 330.18 9
-1 5 8 11566.5 549.967 41
1 -5 -8 11750.2 348.48 51
1 -5 -8 11998.4 317.037 13
-1 5 8 12454.7 582.614 30
1 -5 -8 11476.4 314.49 10
-1 5 7 4368.89 322.483 41
-1 5 7 4485.9 334.368 30
1 -5 -7 3969.92 377.456 6
-1 5 7 3725.8 332.96 23
-1 5 6 27285.1 751.185 41
1 -5 -6 25837.4 905.204 6
1 -5 -6 26609.9 840.931 40
-1 5 6 24795.7 817.744 23
-1 5 5 34413.3 790.664 1
1 -5 -5 35754.3 1013.69 6
-1 5 5 37203.7 824.364 30
-1 5 5 36262 816.861 41
-1 5 5 33588.4 907.142 23
1 -5 -5 32972 908.461 40
-1 5 4 145.248 59.7638 41
-1 5 4 161.828 61.6196 30
1 -5 -4 220.344 70.1573 40
-1 5 4 263.916 85.0526 23
-1 5 4 263.523 71.1675 1
-1 5 4 131.232 55.2203 37
1 -5 -4 341.714 76.758 22
1 -5 -3 26933.9 612.553 3
1 -5 -3 26468.8 638.283 22
1 -5 -3 26870.2 772.205 38
-1 5 3 25890 674.704 1
-1 5 3 24842.6 585.722 37
-1 5 3 26801.3 615.176 30
1 -5 -2 8255.8 357.712 22
-1 5 2 8173.89 322.577 37
1 -5 -2 8521.09 397.743 38
-1 5 2 8603.8 275.05 33
-1 5 2 8432.79 379.913 1
-1 5 1 1515.64 158.244 1
-1 5 1 1701.78 144.486 37
1 -5 -1 1641.96 162.248 22
1 -5 -1 1510.4 153.412 38
-1 5 1 1748.57 128.414 33
1 -5 0 16985.4 481.489 22
-1 5 0 16551.5 498.02 1
1 -5 0 17267 406.995 35
-1 5 0 16951 444.449 37
-1 5 -1 13136.5 438.558 1
1 -5 1 13921.2 395.31 35
1 -5 1 13565.5 413.912 22
-1 5 -2 113235 1256.37 1
1 -5 2 111242 1162.92 22
-1 5 -3 7514.68 322.576 1
1 -5 3 7864.89 318.368 22
1 -5 3 8168.45 417.751 42
1 -5 4 103696 1497.52 42
1 -5 4 101179 1180.26 22
1 -5 5 14287.7 532.073 35
1 -5 5 14909.8 476.095 22
-1 5 -5 15539 583.711 4
1 -5 5 15074.2 582.088 42
-1 5 -6 6870.24 418.691 4
1 -5 6 6954.76 340.721 22
1 -5 6 6890.09 394.553 35
1 -5 7 3843.62 266.41 22
-1 5 -7 3869.59 338.537 4
1 -5 7 3841.51 302.988 27
1 -5 7 3787.52 310.216 35
-1 5 -8 376.924 61.3385 20
1 -5 8 493 115.855 27
-1 5 -8 459.681 67.4654 17
1 -5 8 475.799 132.568 35
-1 5 -8 734.17 174.675 4
-1 5 -8 634.164 76.5243 15
1 -5 9 11211.1 571.793 35
1 -5 9 12401.8 640.215 26
-1 5 -9 11444.9 324.994 17
1 -5 9 12180.9 607.056 27
-1 5 -9 11151.3 311.692 15
-1 5 -9 11662.6 316.988 20
-1 5 -10 2168.37 147.986 17
-1 5 -10 2341.14 149.365 20
1 -5 10 2310.3 263.13 35
-1 5 -10 2044.81 140.42 15
-1 5 -11 2126.25 144.712 15
-1 5 -11 2022.28 144.577 17
1 -5 11 1945.86 248.443 34
-1 5 -12 3088.22 164.694 15
-1 5 -12 3236.36 171.299 17
-1 5 -13 8.17038 34.4711 15
-1 5 -14 1002.05 73.279 15
1 -4 -14 -17.884 21.1718 19
1 -4 -13 639.616 64.5272 13
1 -4 -13 771.397 78.6934 19
1 -4 -12 55.5836 48.9064 19
1 -4 -12 53.4978 40.0526 13
1 -4 -11 7.28985 31.9779 13
-1 4 11 -114.663 53.5172 41
-1 4 10 20129.2 747.33 41
1 -4 -10 22071.6 448.148 13
-1 4 10 21032 788.238 30
1 -4 -10 21427.5 454.633 9
1 -4 -10 21198 450.318 51
1 -4 -9 -23.1595 32.8336 13
1 -4 -9 3.48254 32.545 51
-1 4 9 76.1903 83.8 30
-1 4 9 137.765 66.2534 41
1 -4 -9 63.8969 39.0548 9
1 -4 -8 115.824 38.6425 13
1 -4 -8 45.0436 35.7638 9
1 -4 -8 134.651 70.4591 6
1 -4 -8 93.7013 36.5977 51
-1 4 8 63.6253 68.2553 30
-1 4 8 159.087 71.9041 23
-1 4 8 0.51204 15.2389 41
-1 4 7 6039.32 399.296 23
-1 4 7 6553.1 386.375 41
1 -4 -7 6363.67 446.997 6
-1 4 7 7084.05 403.789 30
-1 4 6 8072.67 430.702 23
-1 4 6 8571.9 405.916 41
1 -4 -6 7956.31 462.584 6
1 -4 -6 8202.73 425.504 40
-1 4 6 9189.23 424.593 30
-1 4 5 35003.5 762.833 30
-1 4 5 32302.7 686.059 1
1 -4 -5 33383.4 885.969 6
-1 4 5 31647.2 798.111 23
1 -4 -5 31204.3 801.928 40
-1 4 5 34377.4 754.429 41
1 -4 -4 120576 1666.94 38
-1 4 4 118013 1460.49 23
-1 4 4 117986 1286.53 1
1 -4 -4 120437 1514.15 40
1 -4 -4 119686 1197.49 22
-1 4 4 121965 1324.86 41
-1 4 3 91.8977 45.7705 1
-1 4 3 108.938 49.4201 30
1 -4 -3 110.476 50.4352 22
1 -4 -3 157.211 51.1557 3
-1 4 3 100.314 48.0303 41
1 -4 -3 11.3207 33.1422 38
-1 4 2 5534.61 270.918 1
-1 4 2 6194.44 267.696 41
1 -4 -2 6010.5 243.839 3
1 -4 -2 5758.18 262.672 22
-1 4 2 5377.9 186.562 25
-1 4 2 5445.59 232.699 37
-1 4 2 5646.92 241.001 30
1 -4 -2 5900.44 308.337 38
-1 4 1 186.111 63.018 1
1 -4 -1 216.366 59.0407 22
-1 4 1 262.175 54.297 37
-1 4 1 205.454 42.5354 33
1 -4 -1 226.482 55.0251 38
1 -4 0 15867.1 420.752 22
-1 4 0 15410.4 357.168 33
-1 4 0 15082.1 426.091 1
-1 4 -1 31713.9 596.306 1
-1 4 -1 30033.1 309.887 5
1 -4 2 400.947 67.2167 22
-1 4 -2 447.16 74.4046 1
-1 4 -2 494.634 42.8567 5
1 -4 3 67877.1 830.281 22
1 -4 3 67858.7 1089.78 31
-1 4 -3 64994 825.803 1
1 -4 4 33622.3 808.364 31
1 -4 4 35002.1 620.238 22
-1 4 -4 34938.4 738.396 4
-1 4 -4 33950.2 583.869 1
-1 4 -5 25314.7 678.448 4
1 -4 5 23604.7 718.415 31
1 -4 5 25124.5 557.624 22
-1 4 -6 45200.8 981.897 4
1 -4 6 43559.6 778.904 22
1 -4 7 14308.6 562.75 35
1 -4 7 15032.5 576.052 27
1 -4 7 14556.9 627.299 31
1 -4 7 15361.6 486.914 22
-1 4 -7 14720.8 612.26 4
1 -4 8 12811.8 574.279 27
1 -4 8 12545.9 556.224 35
-1 4 -8 13278.9 626.641 4
-1 4 -9 820.361 88.0807 15
-1 4 -9 831.466 88.6026 20
1 -4 9 740.331 144.596 27
-1 4 -9 774.342 85.7945 17
-1 4 -9 886.511 180.682 4
1 -4 9 662.359 157.45 26
1 -4 9 800.833 150.372 35
-1 4 -10 1705.64 129.474 20
-1 4 -10 1550.32 123.09 15
1 -4 10 1752.83 218.926 35
-1 4 -10 1664.85 128.34 17
1 -4 10 1638.71 235.673 27
1 -4 11 1759.72 245.735 34
-1 4 -11 1625.79 127.084 20
-1 4 -11 1451.25 123.297 15
-1 4 -11 1749.86 134.432 17
-1 4 -12 3712.06 186.934 17
-1 4 -12 3736.69 188.407 15
-1 4 -13 157.666 49.5176 15
-1 4 -14 223.533 47.415 15
-1 4 -14 307.112 43.8944 13
-1 3 14 691.317 44.4521 47
1 -3 -14 680.036 55.4408 13
1 -3 -14 770.499 65.5208 19
1 -3 -13 -15.624 35.1284 13
1 -3 -13 34.7827 37.3196 19
1 -3 -12 2213.44 137.754 13
1 -3 -11 1875.78 138.94 9
1 -3 -11 1739.55 131.114 13
1 -3 -11 1728.38 122.868 15
-1 3 11 1637.05 216.921 41
-1 3 10 5503.46 407.223 30
-1 3 10 5570.97 402.768 41
1 -3 -10 5606.87 233.43 9
1 -3 -10 5826.2 227.299 15
1 -3 -10 5774.21 228.402 51
1 -3 -9 142.175 45.7062 9
1 -3 -9 123.336 39.4796 15
1 -3 -9 70.0857 28.9738 51
-1 3 9 11.863 57.6273 32
-1 3 9 123.422 84.5684 30
-1 3 9 139.355 72.8103 41
-1 3 8 2448.84 248.623 41
1 -3 -8 2037.67 260.644 6
1 -3 -8 2160.19 230.19 2
-1 3 8 2354.09 254.601 32
-1 3 7 40165.4 951.703 23
-1 3 7 43033.3 956.803 41
1 -3 -7 40329.4 1051.97 6
1 -3 -7 40752.9 943.361 2
-1 3 6 6798.18 358.625 32
1 -3 -6 6915.86 400.547 6
-1 3 6 6736.23 364.685 23
-1 3 6 6599.07 348.119 41
-1 3 5 41895.3 812.679 32
-1 3 5 40190.8 697.01 1
-1 3 5 37937.6 803.957 23
-1 3 5 37268 757.573 41
1 -3 -5 38690.1 972.557 38
1 -3 -5 39178.6 869.994 6
1 -3 -5 36564.6 785.384 40
1 -3 -4 184742 1669.28 40
-1 3 4 193454 1590.48 32
1 -3 -4 195423 1796.75 6
1 -3 -4 180693 1909.19 38
-1 3 4 179482 1620.6 23
-1 3 4 191420 1560.03 41
1 -3 -4 188943 1350.06 22
-1 3 4 183648 1412.99 1
-1 3 3 48257.9 718.189 41
1 -3 -3 45408.6 873.335 38
1 -3 -3 47660.5 671.417 3
1 -3 -3 48938.3 674.152 22
-1 3 3 45629.8 681.01 1
1 -3 -2 121198 1285.44 38
-1 3 2 120154 992.297 30
1 -3 -2 125522 962.986 3
1 -3 -2 127193 1048.96 22
-1 3 2 119015 1071.14 1
-1 3 1 299870 1432.33 30
-1 3 1 290329 1633.36 1
1 -3 0 266.599 53.8341 22
-1 3 0 272.958 54.6515 1
1 -3 1 20111 410.033 22
-1 3 -1 20265.8 417.439 1
1 -3 2 113321 1171.83 31
-1 3 -2 115855 975.265 1
1 -3 2 113230 943.072 22
-1 3 -3 34984.3 462.116 5
-1 3 -3 36114.8 525.545 1
1 -3 3 35384.1 689.456 31
1 -3 3 36000.1 539.316 22
1 -3 4 22976.9 454.458 22
-1 3 -4 21894.2 396.409 1
-1 3 -4 22873.7 536.866 4
1 -3 4 22247.8 580.662 31
1 -3 4 22181.4 563.366 28
1 -3 5 90.7189 70.4334 28
-1 3 -5 126.659 62.3871 2
1 -3 5 125.758 51.2659 22
1 -3 5 141.442 73.5594 31
1 -3 6 11632.5 369.285 22
-1 3 -6 10786.8 457.342 2
1 -3 6 11247.1 450.772 28
-1 3 -6 11542.9 460.72 4
1 -3 6 11526.1 480.833 31
1 -3 7 18467.1 492.529 22
1 -3 7 17263.2 630.462 31
1 -3 7 17801.5 600.653 27
-1 3 -7 16642.4 613.827 2
-1 3 -7 17696.6 626.963 4
1 -3 7 17178.1 586.388 28
1 -3 7 17262.5 578.716 35
-1 3 -8 4798.84 356.804 2
1 -3 8 4792.92 350.917 31
-1 3 -8 4684.32 353.28 4
1 -3 8 5098.37 354.25 27
1 -3 8 5073.79 334.678 35
-1 3 -9 -15.0578 75.1971 4
-1 3 -9 38.4027 33.4068 15
-1 3 -9 55.1881 34.4485 17
1 -3 9 58.6668 55.8411 27
1 -3 9 181.593 88.4736 26
1 -3 9 96.0074 49.8402 35
-1 3 -9 57.9092 36.7404 20
1 -3 10 -49.5349 70.8083 26
-1 3 -10 55.9747 39.3165 15
-1 3 -10 49.7791 32.4136 20
-1 3 -10 4.80797 32.6611 17
-1 3 -11 970.637 102.734 15
-1 3 -11 870.35 97.3133 17
1 -3 11 883.219 172.296 34
-1 3 -11 977.33 101.043 20
1 -3 12 3732.21 338.072 34
-1 3 -12 3059.11 175.525 15
-1 3 -13 726.427 88.6247 15
-1 3 -14 3402 154.82 15
-1 3 -15 59.8458 27.5378 15
1 -2 -14 3593.09 134.434 13
1 -2 -14 3903.25 147.991 19
1 -2 -13 590.706 72.9764 13
1 -2 -12 2122.63 140.27 13
1 -2 -12 2061.52 141.818 9
-1 2 12 1939.01 223.332 41
1 -2 -12 2074.02 130.611 15
1 -2 -11 1981.39 136.345 15
-1 2 11 1748.14 240.414 41
1 -2 -11 2069.4 147.105 9
-1 2 10 7301.39 477.594 32
-1 2 10 6860.72 451.435 41
1 -2 -10 7077.44 251.883 15
1 -2 -10 7042.98 258.161 9
1 -2 -9 3344.45 168.008 15
-1 2 9 3168.52 308.052 32
1 -2 -9 3484.86 174.858 9
-1 2 9 3268.48 307.859 41
1 -2 -9 3084.75 328.679 6
-1 2 8 38247.1 979.826 32
-1 2 8 37103 951.277 41
1 -2 -8 36735.7 1046.26 6
1 -2 -8 34796.5 910.482 2
-1 2 7 3094.38 258.47 41
1 -2 -7 3198.4 258.401 2
1 -2 -7 3167.71 281.267 6
-1 2 7 2888.96 219.866 34
-1 2 7 3192.2 263.936 32
1 -2 -6 44300.6 874.274 2
-1 2 6 43837.4 867.319 23
-1 2 6 45054.4 894.601 32
-1 2 6 43173.5 769.443 34
-1 2 6 43809.9 874.215 41
1 -2 -6 44724.4 953.675 6
-1 2 5 14085.3 398.632 34
-1 2 5 15348.4 392.912 1
-1 2 5 13975.2 448.865 41
1 -2 -5 13849.5 479.164 6
-1 2 5 14758.4 465.29 32
-1 2 5 15286 472.901 23
1 -2 -5 14078.8 555.198 38
-1 2 4 2949.48 186.639 41
-1 2 4 2938.47 163.567 34
-1 2 4 3333.87 199.102 32
1 -2 -4 3180.19 239.721 38
-1 2 4 2907.76 190.219 23
1 -2 -4 2806.77 195.726 6
-1 2 4 2893.29 160.517 1
1 -2 -3 2014.56 122.48 22
1 -2 -3 2248.32 184.09 38
-1 2 3 2238.31 134.559 1
-1 2 3 2350.08 150.082 32
-1 2 3 2217.72 153.232 23
1 -2 -3 2296.73 160.586 6
1 -2 -2 174860 1065.85 22
1 -2 -2 171337 994.672 3
-1 2 2 172308 1092.3 1
1 -2 -1 326762 1103.1 3
1 -2 -1 327008 1381.29 22
-1 2 0 136193 915.94 1
1 -2 0 136019 875.798 22
-1 2 -1 15694.3 295.412 1
1 -2 1 15485.8 300.726 22
1 -2 2 41336 491.797 22
-1 2 -2 39860.7 443.092 5
-1 2 -2 40535.9 456.88 1
1 -2 2 40506.7 588.573 28
-1 2 -3 260.022 55.1214 2
1 -2 3 306.782 47.8696 22
1 -2 3 357.814 65.3733 28
-1 2 -3 325.31 50.5998 5
-1 2 -3 315.556 40.7564 1
1 -2 4 42705.8 547.623 22
1 -2 4 41723.5 666.686 28
-1 2 -4 41181.4 657.909 4
-1 2 -4 43524.5 673.792 2
-1 2 -4 41963.7 413.289 1
-1 2 -5 139657 1319.88 2
-1 2 -5 149040 1388.6 4
1 -2 5 144945 1094.47 22
1 -2 5 137392 1314.65 28
-1 2 -6 191562 1682.27 2
1 -2 6 195313 1681.83 28
1 -2 6 197813 1770.35 31
1 -2 7 30092.7 713.463 28
1 -2 7 30893 579.981 22
1 -2 7 31081.2 759.588 27
-1 2 -7 29411.1 731.482 2
-1 2 -7 28445 750.526 4
1 -2 7 30398.9 758.329 31
-1 2 -8 46765.7 1012.73 2
-1 2 -8 45335.8 1033.57 4
1 -2 8 47718.6 967.229 35
1 -2 8 46919.5 1019.46 26
1 -2 8 48442.7 1021.59 27
1 -2 9 3097.36 278.662 27
1 -2 9 3395.48 300.458 26
-1 2 -9 2531.19 266.193 2
-1 2 -9 3015.87 297.667 4
1 -2 9 3372.54 276.678 35
1 -2 10 410.32 108.866 27
-1 2 -10 445.618 71.5323 15
-1 2 -10 384.534 63.8703 20
1 -2 10 693.104 153.371 26
-1 2 -10 445.336 67.1067 17
-1 2 -11 15033.1 378.08 15
-1 2 -11 14119 331.939 9
-1 2 -11 14211.5 366.783 20
-1 2 -11 14970.5 367.837 17
1 -2 11 15767.9 686.333 34
-1 2 -12 1127.5 112.083 15
1 -2 12 924.939 178.061 34
-1 2 -13 -3.26383 43.4404 15
-1 2 -14 1179.31 100.048 15
-1 2 -15 1838.15 99.4018 15
-1 2 -15 1500.29 82.7825 13
1 -1 -14 2134.14 112.6 19
1 -1 -14 2168.52 111.609 13
1 -1 -13 45.447 42.4455 9
1 -1 -13 93.4789 43.4725 13
1 -1 -13 41.55 35.2731 15
-1 1 12 11970.1 578.672 41
1 -1 -12 12288.2 320.067 15
1 -1 -12 12311.9 330.742 9
-1 1 11 596.641 139.139 41
1 -1 -11 482.046 75.5223 9
1 -1 -11 433.639 72.8372 15
-1 1 10 465.404 133.674 32
-1 1 10 443.153 124.968 41
1 -1 -10 526.852 72.8501 15
1 -1 -10 539.227 77.0962 9
-1 1 9 9662.37 530.677 32
1 -1 -9 9569.12 565.259 6
1 -1 -9 9628.06 279.851 15
1 -1 -9 9923.87 284.288 9
1 -1 -9 9346.6 510.235 2
-1 1 9 10142.8 486.479 34
1 -1 -8 11794.9 529.135 2
-1 1 8 12030.6 500.22 34
1 -1 -8 10816.3 551.619 6
-1 1 8 12273 506.399 24
-1 1 8 11534.1 536.324 32
-1 1 7 21352 664.742 32
1 -1 -7 19292.1 620.05 2
1 -1 -7 20048.4 680.185 6
-1 1 7 19999.1 594.098 34
1 -1 -6 28702.1 735.393 6
1 -1 -6 27661.5 679.39 2
-1 1 6 27808.9 637.652 34
1 -1 -5 197.945 77.3403 38
1 -1 -5 246.357 67.6289 2
1 -1 -5 257.859 44.7093 1
1 -1 -5 151.405 63.9601 6
-1 1 5 133.16 49.5618 23
-1 1 5 200.338 56.1457 34
-1 1 4 10531.7 316.158 34
-1 1 4 11260.1 341.773 23
-1 1 4 11768.2 296.182 1
1 -1 -4 10785.2 354.027 6
1 -1 -4 10596.1 412.644 38
1 -1 -3 13957.4 350.812 6
-1 1 3 14099.8 322.625 34
-1 1 3 13601.3 338.395 23
-1 1 3 14267.6 299.575 1
1 -1 -2 245718 1126.81 22
-1 1 2 241073 1262.45 23
-1 1 2 235830 1104.99 1
1 -1 -2 233193 1231.78 6
-1 1 1 135049 809.677 23
-1 1 1 136390 768.713 1
-1 1 0 10821.6 187.765 23
1 -1 0 10493.5 190.502 22
1 -1 1 22303.6 277.05 22
1 -1 1 21753.4 196.183 25
-1 1 -2 238082 780.439 1
1 -1 2 238961 959.111 22
-1 1 -3 1397.73 91.9558 2
-1 1 -3 1376.62 102.54 5
-1 1 -3 1317.26 50.3969 1
1 -1 3 1461.19 80.8724 22
1 -1 3 1182.32 36.7343 24
1 -1 4 65095.9 566.927 22
-1 1 -4 70519.7 837.079 6
-1 1 -4 65302.6 702.081 2
-1 1 -4 70436.1 798.626 4
1 -1 4 66809.2 412.677 24
-1 1 -5 49621.8 695.257 2
1 -1 5 50647 548.665 22
-1 1 -5 51423.4 815.502 6
-1 1 -5 50295.2 770.77 4
1 -1 5 52042 455.199 24
-1 1 -6 31387.8 617.539 2
1 -1 6 33664.9 491.853 22
-1 1 -6 32197.4 725.435 6
-1 1 -6 33536.4 699.342 4
1 -1 7 28153.6 666.859 27
-1 1 -7 28568.6 716.127 4
-1 1 -7 30542.5 786.55 6
-1 1 -7 28678.2 663.122 2
-1 1 -8 3236.1 269.402 4
1 -1 8 3532.78 270.827 26
-1 1 -8 3587.8 301.165 6
-1 1 -8 3490.28 258.38 2
1 -1 8 3750.1 266.947 27
1 -1 8 3880.95 261.788 35
1 -1 9 48.0352 52.4566 26
1 -1 9 -78.7941 59.8977 27
1 -1 10 338.218 111.248 26
-1 1 -10 217.255 47.3038 12
1 -1 10 133.085 88.9179 34
-1 1 -10 268.857 54.0228 17
-1 1 -10 183.391 45.5026 9
-1 1 -10 290.402 58.4565 15
-1 1 -10 175.731 38.5398 20
1 -1 10 280.131 87.9385 27
-1 1 -11 8814.11 268.254 9
-1 1 -11 9352.58 300.072 15
1 -1 11 9599.35 515.611 34
-1 1 -12 322.719 67.8913 15
-1 1 -12 414.562 64.5066 9
1 -1 13 4910.29 374.069 41
-1 1 -13 3993.36 174.383 9
-1 1 -13 4500.55 206.229 15
-1 1 -14 947.277 90.8226 13
-1 1 -14 981.611 94.7067 15
-1 1 -15 2317.85 113.45 15
-1 1 -15 2146.54 105.586 13
1 0 -14 2639.92 123.866 13
1 0 -14 2521.94 109.432 15
1 0 -14 2462.62 119.131 19
1 0 -13 1235.66 98.8938 15
1 0 -13 1011.08 93.4166 9
-1 0 12 3047.94 298.449 41
1 0 -12 3624.74 182.064 9
1 0 -12 3559.54 178.249 15
-1 0 11 257.586 105.588 41
1 0 -11 419.176 73.6354 15
1 0 -11 456.748 77.7207 9
-1 0 10 50900.4 1160.19 34
1 0 -10 47851.2 644.812 9
1 0 -10 48440.1 653.688 15
-1 0 10 48249.3 1245.99 32
1 0 -9 37171.8 538.547 9
1 0 -9 35099.8 994.956 2
-1 0 9 38008.9 977.615 34
-1 0 9 39301.1 1064.42 32
1 0 -9 36445.3 539.391 15
-1 0 8 10356.9 478.274 34
1 0 -8 10165.5 531.89 6
1 0 -8 10090 495.418 2
-1 0 7 3933.8 285.996 26
1 0 -7 3544.7 267.522 2
-1 0 7 3757.44 250.189 24
-1 0 7 3736.9 267.997 34
1 0 -7 3543.14 283.521 6
-1 0 6 26792.9 598.801 24
1 0 -6 25617.8 681.033 6
-1 0 6 25358.2 631.864 34
1 0 -6 25910.3 651.814 2
-1 0 6 24263.4 638.779 26
1 0 -5 12364 290.112 1
1 0 -5 12751.3 407.927 2
-1 0 5 13381.9 424.052 26
-1 0 5 12022.1 390.083 34
1 0 -5 12522.2 467.081 38
1 0 -5 12411.3 422.8 6
-1 0 5 12600.4 383.203 27
-1 0 4 183780 1390.58 26
1 0 -4 176085 1024.65 1
1 0 -4 180605 1361.29 2
-1 0 4 170326 1311.21 34
1 0 -4 175268 1555.47 38
1 0 -4 185397 1432.13 6
-1 0 4 171610 1253.04 27
1 0 -4 183703 1193.68 4
1 0 -3 14019.4 339.517 6
1 0 -3 13842.7 264.477 1
-1 0 3 13240.8 325.982 26
-1 0 3 13683.6 326.011 34
1 0 -3 13700.9 330.462 2
1 0 -3 14396.9 281.598 4
-1 0 3 12846.5 302.166 27
-1 0 2 7260.71 198.826 23
1 0 -2 7293.81 201.72 6
-1 0 2 6749.09 119.26 21
1 0 -2 7436.8 159.413 4
1 0 -2 7360.88 175.653 1
1 0 -1 27624.8 201.317 4
1 0 -1 27020 283.359 6
-1 0 1 27139.2 300.468 1
1 0 0 78207 436.061 22
-1 0 0 77903.1 424.389 24
1 0 1 53155 303.426 1
-1 0 -1 52574.6 308.503 6
1 0 1 52892 283.678 22
-1 0 -1 52790.5 263.579 24
-1 0 -1 52788.5 302.522 1
1 0 2 149949 493.668 22
-1 0 -2 146597 558.2 21
1 0 3 45.7003 13.1811 22
-1 0 -3 110.612 22.9615 2
-1 0 -4 75911.2 802.78 4
1 0 4 73535.7 559.002 23
-1 0 -5 57145 844.167 6
-1 0 -5 57384.8 681.45 2
-1 0 -6 3343.7 233.842 6
1 0 6 3433.92 134.799 22
-1 0 -6 3597.19 226.869 4
1 0 6 3522.15 208.2 26
-1 0 -6 3635.99 197.908 2
1 0 7 26194 633.389 26
-1 0 -7 26847.2 604.584 2
1 0 7 25640.8 591.618 27
-1 0 -7 25494.1 664.377 4
-1 0 -7 27015.9 730.594 6
1 0 8 5048.91 289.839 27
1 0 8 4924.6 306.617 26
-1 0 -8 5592.24 309.148 2
-1 0 -8 5202.54 358.044 6
1 0 9 1224.15 157.145 34
1 0 9 1068 158.795 26
1 0 9 1068.12 148.046 27
-1 0 -9 980.959 169.789 6
1 0 10 3519.5 292.181 34
-1 0 -10 3263.63 171.832 15
-1 0 -10 3381.91 339.124 6
1 0 10 3624.93 311.214 26
-1 0 -10 3160.19 156.888 9
-1 0 -11 211.669 55.0359 9
-1 0 -11 182.091 57.4413 15
-1 0 -12 2413.74 160.17 15
-1 0 -12 2443.96 146.702 9
1 0 12 2430.23 266.323 41
1 0 13 144.265 65.203 41
-1 0 -13 167.312 56.7969 15
-1 0 -13 241.701 53.1597 9
-1 0 -14 1760.51 123.532 15
-1 0 -14 1558.9 114.959 13
-1 0 -14 1699.81 113.255 19
-1 0 -15 242.226 44.2675 13
-1 0 -15 233.016 43.8982 15
1 1 -14 -62.5924 28.6994 15
1 1 -14 28.5144 30.3247 13
1 1 -13 95.8999 46.055 15
1 1 -13 133.808 48.1018 9
-1 -1 12 25900.8 879.818 41
1 1 -12 26088.9 476.711 15
1 1 -12 25958.4 463.229 9
1 1 -11 30877.7 521.267 9
1 1 -11 32156 547.216 15
-1 -1 11 32275.8 953.804 34
-1 -1 10 47685.3 1165.76 34
1 1 -10 45926.7 625.236 9
1 1 -10 46891.1 651.037 15
-1 -1 10 47077.7 1246.77 32
1 1 -9 164.512 88.5765 2
1 1 -9 39.694 41.0015 15
1 1 -9 82.8697 42.0342 9
-1 -1 9 -26.0714 64.6653 34
-1 -1 8 3860.25 312.981 26
-1 -1 8 3550.3 291.807 34
1 1 -8 3799.26 310.973 2
-1 -1 7 17619.1 612.543 26
-1 -1 7 18985 529.011 24
-1 -1 7 18479.4 610.257 34
1 1 -7 16747.7 531.156 4
1 1 -7 17840.5 606.858 2
-1 -1 6 49844 884.625 27
-1 -1 6 50782.9 940.772 26
-1 -1 6 51249.9 921.385 34
1 1 -6 49972.7 913.876 2
-1 -1 6 51371.5 798.535 24
-1 -1 6 47820.1 766.402 35
1 1 -6 52877 990.776 6
1 1 -6 49049.5 816.247 4
1 1 -5 14754.1 399.478 4
-1 -1 5 15035.3 440.177 27
1 1 -5 14685.8 444.926 2
-1 -1 5 15129 392.1 24
1 1 -5 15323 478.598 6
-1 -1 5 15282.2 462.801 26
1 1 -4 93574.3 752.319 1
-1 -1 4 92970.5 977.969 27
1 1 -4 94973.9 1003.59 2
1 1 -4 95852.5 1056.95 6
-1 -1 4 94650.4 881.173 24
1 1 -4 95996 894.303 4
1 1 -3 144550 1118.41 6
1 1 -3 145827 873.321 1
1 1 -3 145086 1094.72 2
-1 -1 3 143583 960.819 24
-1 -1 3 144902 1079.33 27
1 1 -3 148443 947.189 4
1 1 -2 81178.9 702.576 2
1 1 -2 77122.4 562.729 4
-1 -1 2 78370.5 470.03 21
1 1 -2 76028.3 685.776 6
-1 -1 2 79055.8 630.152 24
1 1 -2 79356.3 593.42 1
1 1 -1 83049.9 591.807 2
1 1 -1 83687.9 561.083 1
-1 -1 1 83019.1 559.109 24
1 1 0 33397.3 326.235 1
1 1 0 33071.5 287.067 2
1 1 1 167665 687.508 1
-1 -1 -1 171888 727.556 24
1 1 2 10585.8 171.628 1
-1 -1 -2 9386.59 163 21
1 1 3 38588.8 299.354 1
-1 -1 -3 36715.6 313.002 21
1 1 4 60610.3 598.835 26
-1 -1 -4 59897.9 562.111 2
-1 -1 -5 190760 1571.71 6
1 1 5 189008 1258.46 26
1 1 6 427.004 65.6649 27
1 1 6 545.173 79.3568 23
1 1 6 463.706 74.312 26
-1 -1 -6 403.691 67.9785 2
-1 -1 -6 578.328 108.471 6
1 1 7 42.2983 23.405 27
1 1 7 48.9225 41.7904 23
1 1 7 28.4532 28.9816 26
-1 -1 -7 53.4077 51.405 6
1 1 7 156.799 52.9474 34
-1 -1 -7 55.2392 41.041 2
1 1 8 25392 630.529 34
1 1 8 26056.9 677.063 26
1 1 8 24011.7 588.254 27
-1 -1 -8 24759.4 628.208 2
-1 -1 -8 26429.9 813.276 6
-1 -1 -9 10877.2 569.797 6
1 1 9 11031.8 511.294 32
1 1 10 10589.9 537.177 32
-1 -1 -10 10155.5 286.107 9
-1 -1 -10 10298.9 299.425 15
-1 -1 -10 11333.9 633.839 6
1 1 11 126659 1937.12 32
-1 -1 -11 128366 1065.5 9
-1 -1 -11 126768 1096.25 15
1 1 11 130354 1908.09 41
1 1 12 18323.9 716.266 41
-1 -1 -12 17693.3 400.15 9
-1 -1 -12 18207.7 423.065 15
-1 -1 -13 116.828 52.9339 15
-1 -1 -13 19.2225 43.5417 13
-1 -1 -13 109.247 48.3245 9
-1 -1 -14 507.762 72.0879 13
-1 -1 -14 426.185 65.097 15
-1 -1 -14 428.008 66.3169 19
-1 -1 -15 -6.18717 29.3744 13
-1 -1 -15 37.4843 18.7204 19
1 2 -14 212.884 44.1504 13
1 2 -14 326.049 44.338 15
1 2 -13 1235.52 93.6434 9
1 2 -13 1239.9 100.725 15
-1 -2 12 974.06 172.565 41
1 2 -12 1030.99 103.691 15
1 2 -12 945.255 92.7908 9
1 2 -11 3713.88 181.638 9
1 2 -11 3787.91 191.907 15
-1 -2 11 3705.24 325.235 34
1 2 -10 1068 100.466 9
1 2 -10 1108.7 106.491 15
-1 -2 10 1156.53 192.914 34
1 2 -9 59669.8 706.773 15
-1 -2 9 60890.1 1306.42 34
1 2 -9 57298.8 668.315 17
1 2 -9 57997.8 669.229 9
-1 -2 9 60217.6 1342.12 26
1 2 -9 57770.5 1346.45 2
1 2 -8 311.687 98.1553 2
-1 -2 8 324.092 105.882 34
-1 -2 8 372.53 104.556 26
1 2 -7 20839.3 680.543 2
1 2 -7 21732.3 632.439 4
-1 -2 7 21682.5 613.681 35
-1 -2 7 22203.3 686.466 27
-1 -2 7 23119.7 716.028 26
1 2 -6 9858.72 387.593 4
-1 -2 6 10631.1 444.481 26
-1 -2 6 10977.5 355.365 24
1 2 -6 10138.8 429.798 2
-1 -2 6 10820 439.074 27
-1 -2 6 10337 400.482 35
-1 -2 5 32228.3 682.06 27
1 2 -5 32964.1 694.362 2
1 2 -5 31845.9 624.479 4
-1 -2 5 32379.7 656.528 35
-1 -2 5 33003.3 702.387 26
-1 -2 5 32887.9 563.65 24
-1 -2 4 1256.05 117.288 35
-1 -2 4 1106.08 96.6652 24
-1 -2 4 1026.3 111.672 27
1 2 -4 945.49 99.4188 4
-1 -2 4 998.97 63.2748 21
1 2 -4 971.65 86.1431 1
-1 -2 3 5800.54 163.584 21
-1 -2 3 5828.19 234.567 35
-1 -2 3 5953.75 198.665 24
1 2 -3 6185.31 242.799 2
1 2 -3 6080.81 215.618 4
1 2 -3 6151.58 203.944 1
-1 -2 3 5655.24 230.253 27
1 2 -2 209895 1253.38 2
1 2 -2 209063 1126.34 1
1 2 -1 30319.3 422.077 2
-1 -2 1 29059.4 365.939 24
1 2 -1 29866.6 407.876 1
1 2 0 217892 1024.94 2
-1 -2 0 224556 981.293 24
-1 -2 0 221168 888.279 27
1 2 0 226824 1092.51 1
-1 -2 -1 39894.4 296.267 5
1 2 1 39078.2 451.819 1
-1 -2 -2 24132.5 302.032 5
-1 -2 -2 23732.8 247.412 22
1 2 2 23957.8 371.147 1
1 2 3 155986 968.589 32
-1 -2 -3 149665 536.111 22
-1 -2 -4 6127.31 273.92 6
1 2 4 5540.57 216.031 32
1 2 4 5693.8 167.981 1
-1 -2 -4 5550.67 248.923 3
1 2 5 13537.6 322.236 26
-1 -2 -5 12400.6 407.038 3
1 2 5 13808.9 257.856 1
-1 -2 -5 13621.5 445.964 6
-1 -2 -5 12702.1 217.438 21
1 2 5 12915.8 267.669 27
1 2 5 13111.3 371.895 32
1 2 6 1928.1 123.261 27
-1 -2 -6 1802.87 182.75 6
1 2 6 1919.39 157.804 23
1 2 6 1819.13 126.096 34
-1 -2 -6 2007.77 143.002 2
1 2 6 1959.14 165.555 32
-1 -2 -7 18508.2 486.014 2
1 2 7 17738.7 542.603 32
-1 -2 -7 18875.9 642.486 6
1 2 7 18782 520.502 23
1 2 8 84202.6 1289.86 32
-1 -2 -8 84691.7 1491.52 6
-1 -2 -9 6665.45 458.482 6
1 2 9 6160.85 370.869 41
1 2 9 6012.85 377.718 32
1 2 10 3207.6 295.058 32
-1 -2 -10 3492.04 179.517 15
-1 -2 -10 3088.77 164.687 9
1 2 10 3260.16 279.754 41
1 2 11 43318.6 1120.64 32
-1 -2 -11 44606.1 643.585 9
-1 -2 -11 43593.9 648.385 15
1 2 11 43516.8 1071.53 41
1 2 11 43030.6 1143.85 30
1 2 12 7046.49 424.227 41
-1 -2 -12 7788.57 283.138 15
-1 -2 -12 7749.18 278.322 13
-1 -2 -12 6644.41 251.042 9
-1 -2 -13 31454.8 532.264 15
-1 -2 -13 33076.1 547.67 13
-1 -2 -14 168.91 45.2564 15
-1 -2 -14 192.341 53.4781 13
-1 -2 -14 121.031 44.5486 19
-1 -2 -15 61.8201 36.3902 13
-1 -2 -15 68.0031 24.3266 19
1 3 -14 3063.28 119.954 13
1 3 -14 3069.16 119.134 15
1 3 -13 -5.70925 36.8825 15
1 3 -13 18.1495 29.5598 9
1 3 -12 -9.0879 34.9327 9
1 3 -12 8.10725 41.1381 15
1 3 -11 239.454 64.4085 15
-1 -3 11 281.076 108.182 34
1 3 -11 237.771 56.14 9
1 3 -10 2372.82 153.998 15
1 3 -10 2189.32 137.759 9
-1 -3 10 2439.46 270.973 34
1 3 -10 2318.95 146.956 17
1 3 -9 68.7682 34.5533 15
1 3 -9 119.808 41.5629 9
-1 -3 9 113.638 74.2448 34
-1 -3 9 62.0916 56.9828 26
1 3 -9 157.108 46.3682 17
1 3 -8 165.266 87.8597 2
-1 -3 8 319.554 92.3288 35
-1 -3 8 166.797 82.1065 34
-1 -3 8 152.73 80.5062 26
-1 -3 7 26881.7 797.855 26
-1 -3 7 28064.8 780.264 35
-1 -3 7 28700.3 831.228 27
1 3 -7 26978 752.296 4
1 3 -6 36624.8 803.08 4
1 3 -6 36247.1 856.893 2
-1 -3 6 38932 860.135 35
-1 -3 6 38526 880.331 27
-1 -3 6 37175.7 856.264 26
1 3 -5 17462.9 506.494 4
-1 -3 5 17472.6 544.119 27
1 3 -5 15628.4 513.707 2
-1 -3 5 17668.5 413.166 24
-1 -3 5 17018.5 528.339 35
-1 -3 4 2541.57 188.732 27
-1 -3 4 3469.28 171.931 24
1 3 -4 2619.83 180.84 4
1 3 -4 3776.25 233.318 2
-1 -3 4 2605.6 191.459 35
1 3 -4 2479.42 159.27 1
-1 -3 3 31765.7 612.618 35
1 3 -3 32478.6 546.433 1
-1 -3 3 32665.4 601.567 27
1 3 -3 32281 615.802 2
-1 -3 3 32721.3 489 24
-1 -3 2 50247.7 565.521 24
1 3 -2 51452.4 667.722 1
-1 -3 2 50522.5 660.517 27
1 3 -2 50746.3 717.563 2
1 3 -1 101374 950.811 2
1 3 -1 100166 908.434 1
-1 -3 0 570023 1608.23 27
1 3 0 556605 2123.49 1
1 3 1 8051.19 257.639 29
-1 -3 -1 8511.28 210.355 22
1 3 1 8014.14 258.092 1
-1 -3 -2 435756 1473.17 22
1 3 2 428690 1849.58 25
-1 -3 -3 4251.11 133.349 22
1 3 3 4159.26 194.148 25
1 3 3 4104.53 186.995 1
-1 -3 -4 4654.34 253.362 40
1 3 4 4460.16 205.464 32
-1 -3 -4 4399.93 237.562 3
-1 -3 -4 4406.93 125.307 22
1 3 4 5211.24 242.345 25
1 3 4 5034.55 228.134 30
1 3 4 4545.96 193.778 1
1 3 5 574.483 80.4377 41
1 3 5 770.029 82.0335 1
1 3 5 864.45 110.53 30
1 3 5 758.909 96.2246 32
-1 -3 -5 612.449 106.383 6
-1 -3 -5 432.936 86.4811 3
-1 -3 -6 41833.5 881.551 3
1 3 6 43262.4 783.905 32
-1 -3 -6 43128.2 932.501 6
1 3 6 44332.3 816.409 30
-1 -3 -7 7332.79 421.2 6
1 3 7 6374.58 319.409 41
1 3 7 6735.35 337.155 23
1 3 7 7365.47 358.408 32
1 3 8 8994.7 443.071 30
-1 -3 -8 9279.37 514.641 6
1 3 8 8759.39 408.913 41
1 3 8 8844.74 429.837 32
1 3 8 8724.96 411.074 23
1 3 9 5694.96 356.028 41
1 3 9 6175.44 427.781 25
1 3 9 6402.02 399.733 30
-1 -3 -9 6418.92 467.978 6
1 3 9 5925.92 382.651 32
1 3 10 941.933 162.745 30
-1 -3 -10 1071.27 103.395 9
1 3 10 888.503 150.433 41
1 3 10 1021.91 177.167 32
-1 -3 -10 1064.02 106.579 15
-1 -3 -10 1142.98 104.445 51
1 3 11 42858.9 1138.5 30
-1 -3 -11 44303.3 656.001 9
-1 -3 -11 43470 649.879 15
-1 -3 -11 44690.8 659.912 13
1 3 11 42058.2 1024.83 41
-1 -3 -12 3338.08 182.563 15
-1 -3 -12 3587.57 191.984 13
-1 -3 -13 315.029 61.9564 15
-1 -3 -13 391.006 72.455 13
-1 -3 -13 392.759 74.0907 19
-1 -3 -14 733.128 81.825 13
-1 -3 -14 760.094 82.2913 19
-1 -3 -15 468.887 51.3238 19
-1 -3 -15 374.941 48.8094 13
1 4 -13 1972.93 117.504 15
1 4 -12 149.27 41.7613 9
1 4 -12 288.512 65.0857 15
1 4 -11 67.7643 50.7408 15
1 4 -11 59.3142 39.4273 9
-1 -4 10 1468.66 228.429 34
1 4 -10 1279.2 103.976 9
1 4 -10 1411.63 124.056 15
1 4 -10 1305.45 114.458 17
-1 -4 9 29904.4 973.417 34
1 4 -9 29472.8 520.824 15
1 4 -9 28089.7 498.253 17
1 4 -9 27490.7 462.064 9
-1 -4 8 4285.87 359.204 26
1 4 -8 3532.37 175.993 20
1 4 -8 3312.43 163.434 17
1 4 -8 3540.33 344.576 2
1 4 -8 3340.82 158.649 61
-1 -4 8 3721.87 322.408 35
1 4 -8 3455.3 172.47 15
-1 -4 7 5384.1 377.036 26
1 4 -7 4915.78 377.474 2
1 4 -7 5920.42 382.365 4
-1 -4 7 5884 401.511 27
-1 -4 7 5736.73 334.111 22
-1 -4 7 5393.54 364.116 35
-1 -4 6 63038.9 1175.02 35
1 4 -6 62775.9 1144.04 4
-1 -4 6 63787.7 1203.36 27
-1 -4 6 64444.1 1191.99 26
-1 -4 6 66394.7 1049.98 22
-1 -4 5 129413 1568.39 35
-1 -4 5 131265 1582.25 27
1 4 -5 121661 1586.84 2
1 4 -5 118996 1476.28 4
1 4 -4 24250.7 565.31 1
-1 -4 4 25820.8 655.437 35
-1 -4 4 26095.5 637.389 27
1 4 -4 24959.5 619.557 4
-1 -4 4 26292.3 488.954 24
1 4 -4 24687.6 660.533 2
1 4 -3 28050.8 670.279 2
1 4 -3 27413.9 589.787 1
-1 -4 3 29471.5 492.16 24
-1 -4 3 27555.2 623.092 35
-1 -4 3 28267.7 599.501 27
-1 -4 2 32594.1 629.991 35
1 4 -2 31048.1 608.609 1
1 4 -2 32819.2 679.086 2
-1 -4 2 33945.7 519.32 24
-1 -4 2 32112 569.42 27
-1 -4 1 1437.63 124.952 35
-1 -4 1 1509.01 112.599 22
1 4 -1 1285.99 126.123 1
-1 -4 1 1440.32 109.119 27
-1 -4 0 43631.2 577.917 22
-1 -4 0 41604.9 491.436 27
1 4 0 42233.8 700.489 1
1 4 1 15619.7 394.653 29
1 4 1 15129.5 420.264 1
1 4 1 16338.6 433.92 37
-1 -4 -1 16140.7 357.799 35
-1 -4 -1 15783.6 335.98 22
-1 -4 -2 128052 953.885 22
1 4 2 123800 1175.91 1
-1 -4 -3 1436.88 144.69 40
1 4 3 1395.8 129.707 30
1 4 3 1397.14 123.221 25
1 4 3 1365.88 128.949 1
-1 -4 -3 1627.03 107.489 22
1 4 3 1320.31 125.635 37
1 4 4 12810.2 398.436 30
-1 -4 -4 13610.8 285.942 22
-1 -4 -4 14053 482.873 40
1 4 4 13498.5 400.712 1
1 4 4 13293.6 401.058 25
1 4 4 13191.3 402.43 37
1 4 5 2165.26 159.537 41
1 4 5 2116.17 179.679 30
1 4 5 2210.39 181.806 25
-1 -4 -5 2311.54 209.325 40
1 4 5 2226.79 161.136 1
-1 -4 -5 2523.51 216.73 3
1 4 6 140655 1524.81 30
-1 -4 -6 144787 1858.58 6
-1 -4 -6 140615 1733.68 3
1 4 7 55429.8 1040.06 30
1 4 7 51705.9 1030.95 23
-1 -4 -7 51962.8 1196.7 6
1 4 7 52877.8 1055.56 25
1 4 8 8850.75 412.659 41
1 4 8 9369.45 462.278 30
-1 -4 -8 8942.23 534.857 6
1 4 8 8803.9 473.577 25
1 4 8 8930.28 451.724 23
1 4 9 2510.77 262.29 30
-1 -4 -9 2607.72 154.548 51
-1 -4 -9 2909.39 162.122 15
-1 -4 -9 2521.87 311.051 6
-1 -4 -9 2944.91 162.737 13
1 4 9 2560.4 254.331 23
-1 -4 -9 2900.89 161.923 9
1 4 9 2582.07 241.511 41
1 4 9 2141.98 250.327 25
-1 -4 -10 506.003 80.3498 15
-1 -4 -10 625.028 80.0094 13
1 4 10 367.444 104.078 41
1 4 10 436.361 103.891 30
-1 -4 -10 634.688 82.0776 51
-1 -4 -11 3871.93 195.66 15
1 4 11 3585.83 333.583 30
-1 -4 -11 4138.44 205.887 13
1 4 12 2186.7 258.656 37
-1 -4 -12 2180.02 150.522 13
-1 -4 -12 2136.75 156.452 19
-1 -4 -13 1149.13 109.98 19
-1 -4 -13 1142.98 106.335 13
-1 -4 -14 65.39 35.7459 13
-1 -4 -14 119.069 43.5484 19
-1 -4 -15 371.788 42.3682 19
1 5 -13 65.5779 32.4301 15
1 5 -12 149.912 49.3953 15
1 5 -11 1536.14 124.734 15
-1 -5 10 634.448 149.939 34
1 5 -10 570.549 86.7345 15
1 5 -10 421.317 65.0366 9
1 5 -10 596.709 84.66 17
1 5 -9 447.824 63.7121 9
1 5 -9 369.85 66.0546 17
-1 -5 9 146.213 91.3033 35
-1 -5 9 364.244 130.936 34
1 5 -9 358.565 60.5181 61
1 5 -9 351.646 67.624 15
-1 -5 8 1510.66 220.196 35
1 5 -8 1239.72 101.469 61
-1 -5 8 1295.42 205.81 26
1 5 -8 1372.83 115.635 15
1 5 -8 1398.8 115.256 17
1 5 -7 541.114 72.345 15
1 5 -7 958.968 175.856 4
1 5 -7 624.237 73.7322 20
-1 -5 7 636.357 121.013 22
-1 -5 7 673.215 143.141 35
-1 -5 7 547.116 141.74 26
1 5 -7 733.236 174.787 2
-1 -5 7 571.787 134.154 27
-1 -5 6 27311.1 825.77 35
-1 -5 6 28865.5 757.294 22
-1 -5 6 27957.1 828.127 27
1 5 -6 25382.8 862.801 2
1 5 -6 26462.9 819.556 4
-1 -5 5 12212 526.08 35
-1 -5 5 12140.5 458.198 22
-1 -5 5 12288.6 507.192 27
1 5 -5 11241.7 541.276 2
1 5 -5 10973.2 493.902 4
-1 -5 4 5333.99 306.795 27
-1 -5 4 5267.49 281.795 22
1 5 -4 4954.68 291.408 1
1 5 -4 5293.98 354.867 2
1 5 -4 5348.56 325.223 4
-1 -5 4 5277.73 324.389 35
1 5 -3 60792.2 998.744 1
-1 -5 3 60952.6 1019.17 35
-1 -5 3 61615.4 940.167 27
-1 -5 3 64070.2 916.297 22
-1 -5 2 1016.88 126.752 35
1 5 -2 1280.97 146.518 1
-1 -5 2 1131.5 119.986 22
-1 -5 2 1172.64 119.341 27
-1 -5 1 10424.6 333.575 22
1 5 -1 10270.3 398.717 1
-1 -5 1 10228.3 308.118 27
-1 -5 1 10466.2 366.752 35
-1 -5 0 241768 1529.14 22
-1 -5 0 242795 1306.6 27
-1 -5 0 246250 1673.09 35
-1 -5 -1 3653.15 193.592 35
1 5 1 3984.03 242.311 1
1 5 1 3573.7 204.851 29
-1 -5 -1 3830.18 189.468 22
1 5 1 3636.36 233.311 37
1 5 2 638.102 100.842 1
-1 -5 -2 785.671 115.975 40
1 5 2 781.7 112.592 37
1 5 2 697.222 100.134 29
-1 -5 -2 757.214 89.4411 22
1 5 3 9287.07 365.105 1
-1 -5 -3 9323.15 307.019 22
1 5 3 9921.03 380.372 37
-1 -5 -3 9682.71 417.462 40
1 5 4 127053 1310.16 25
-1 -5 -4 132028 1617.76 40
1 5 4 129593 1383.24 1
1 5 4 128602 1400.24 37
1 5 5 13809.8 435.486 41
1 5 5 14399 475.333 1
1 5 5 15272.9 517.21 30
-1 -5 -5 13267.3 541.876 40
1 5 5 13618.4 466.105 25
-1 -5 -5 13821.7 540.734 3
1 5 5 14215.4 488.297 37
-1 -5 -6 18399.7 663.544 40
1 5 6 18125 584.503 37
1 5 6 19417.7 630.351 30
1 5 6 18358.4 532.91 41
1 5 6 18298.6 526.799 1
1 5 6 17960.2 581.45 25
-1 -5 -6 18470.1 721.422 6
-1 -5 -6 18932.2 686.872 3
1 5 7 765.416 141.162 23
1 5 7 977.38 158.149 37
1 5 7 686.316 128.439 30
1 5 7 830.271 121.907 41
1 5 7 554.033 112.853 25
-1 -5 -7 775.705 167.36 6
1 5 8 16025.8 633.176 30
1 5 8 14312.3 617.676 25
1 5 8 15595.5 623.877 37
-1 -5 -8 14520.1 716.471 6
1 5 8 14167.7 614.457 23
1 5 8 15751.9 556.144 41
1 5 9 3136.16 262 41
-1 -5 -9 3237.13 179.2 51
1 5 9 3033.22 290.414 37
1 5 9 3209.4 303.868 30
-1 -5 -9 3471.07 179.17 13
1 5 9 2655.91 278.964 23
-1 -5 -9 2934.27 156.257 53
-1 -5 -9 3612.39 193.668 19
-1 -5 -10 1646.16 131.835 13
1 5 10 1623.13 225.612 30
-1 -5 -10 1520.13 135.662 19
1 5 10 1559.72 220.834 37
-1 -5 -10 1588.29 130.721 51
-1 -5 -11 5314.41 245.459 19
1 5 11 5229.91 400.436 37
-1 -5 -11 5419.66 235.254 13
-1 -5 -12 1810.99 140.1 19
-1 -5 -12 1808.2 134.287 13
1 5 12 1879.01 231.102 37
-1 -5 -13 7668.06 244.328 13
-1 -5 -13 8207.48 265.511 19
-1 -5 -14 1297.25 93.3229 19
1 6 -13 35.461 26.6338 15
-1 -6 12 1927.3 83.7505 45
1 6 -12 2123.54 121.206 15
1 6 -11 4145.95 188.733 15
1 6 -10 928.88 101.954 15
1 6 -10 831.199 94.0748 17
1 6 -9 15.4083 29.0855 61
-1 -6 9 26.5825 77.7038 35
1 6 -9 47.6218 43.3198 17
1 6 -9 -43.4656 42.3809 15
1 6 -8 20664.5 397.397 61
1 6 -8 20811.5 448.677 17
1 6 -8 22335.9 457.675 15
-1 -6 8 21268.3 811.542 35
-1 -6 7 10313.7 499.472 22
1 6 -7 9601.25 294.973 17
-1 -6 7 10016.8 553.823 35
-1 -6 7 9691.67 551.029 26
1 6 -7 8699.36 252.829 61
-1 -6 7 10181.4 553.668 27
1 6 -7 9318.14 286.305 15
1 6 -6 7876.99 495.249 4
-1 -6 6 8154.6 468.261 27
-1 -6 6 8561.86 440.151 22
-1 -6 6 8370.73 485.235 35
-1 -6 5 6111.25 377.48 27
-1 -6 5 5841.61 388.657 35
1 6 -5 5320.03 380.139 4
-1 -6 5 6096.77 350.753 22
-1 -6 4 326.995 91.0736 35
-1 -6 4 258.524 71.1141 27
1 6 -4 15.7934 36.3602 1
-1 -6 3 24716.7 706.846 35
-1 -6 3 24120.8 622.068 22
-1 -6 3 25693.9 648.134 27
1 6 -3 24302.6 686.409 1
-1 -6 2 47347.9 911.388 35
-1 -6 2 47810.6 799.128 27
-1 -6 2 48282.6 830.872 22
1 6 -2 46205.1 940.383 1
-1 -6 1 11308 349.552 27
-1 -6 1 11546.1 426.027 35
-1 -6 1 11315.4 384.313 22
1 6 -1 11006.8 451.982 1
-1 -6 0 1928.11 155.181 22
1 6 0 1873.3 189.39 1
-1 -6 0 1977.65 168.496 35
1 6 1 302.372 91.1083 1
-1 -6 -1 445.699 75.8713 22
1 6 1 341.678 92.8979 37
-1 -6 -1 437.3 76.1355 35
-1 -6 -2 8739.72 323.533 22
-1 -6 -2 9087.89 426.25 40
1 6 2 8277.07 348.428 29
1 6 2 8284.38 383.782 37
1 6 2 8449.53 390.152 1
1 6 3 51130.1 948.384 37
1 6 3 48665.7 936.212 1
-1 -6 -3 49997.3 790.221 22
1 6 3 50141.4 893.863 29
1 6 4 8379.25 396.91 37
-1 -6 -4 8497.87 452.812 40
1 6 4 7619.87 373.682 1
-1 -6 -5 7056.21 417.764 3
-1 -6 -5 7306.99 440.979 40
1 6 5 7836.33 401.264 37
1 6 5 7574.43 377.879 1
-1 -6 -6 27770.7 880.709 3
1 6 6 27234.7 780.136 37
-1 -6 -6 27111.2 874.016 40
1 6 6 25916.5 726.597 25
1 6 6 27367.8 733.4 1
1 6 7 177.578 115.622 37
-1 -6 -7 -81.9278 67.7549 6
1 6 7 38.7888 59.8255 30
-1 -6 -7 -0.65315 25.4691 3
1 6 7 182.717 66.5672 25
1 6 8 338.956 105.769 25
1 6 8 280.826 97.9372 23
-1 -6 -8 391.189 69.5699 19
-1 -6 -8 275.385 56.297 13
1 6 8 285.646 103.647 37
-1 -6 -8 359.838 56.973 53
1 6 8 156.477 82.5131 30
-1 -6 -8 440.006 71.1012 51
1 6 9 685.827 154.914 30
-1 -6 -9 597.147 84.5246 51
-1 -6 -9 651.538 78.4758 53
-1 -6 -9 599.786 86.9881 19
-1 -6 -9 526.371 78.1531 13
1 6 9 687.373 145.537 37
-1 -6 -10 10819.7 345.893 19
-1 -6 -10 10026.2 291.22 53
-1 -6 -10 10119.8 322.276 51
-1 -6 -10 10208.3 317.009 13
1 6 10 10307.2 559.32 37
1 6 10 10003.9 562.737 30
-1 -6 -11 2798.88 167.898 13
1 6 11 2528.46 274.154 37
-1 -6 -11 2884.01 177.248 19
1 6 12 12329.7 251.397 54
-1 -6 -12 12581.6 347.526 19
-1 -6 -13 1581.55 113.162 19
-1 -6 -14 1623.49 92.2179 19
1 7 -12 201.704 41.4893 15
-1 -7 12 252.724 30.1715 45
1 7 -11 1400.87 104.52 15
-1 -7 10 2905.89 124.07 43
1 7 -10 3050.34 165.756 15
1 7 -10 3332.64 172.492 17
-1 -7 9 8522.4 513.754 34
1 7 -9 8143.72 282.656 17
1 7 -9 8117.32 277.231 15
1 7 -8 68.5492 49.7656 15
1 7 -8 98.7251 46.3834 17
-1 -7 8 134.488 87.2416 35
1 7 -7 1483.04 120.031 14
1 7 -7 1417.95 125.159 17
1 7 -7 1468.7 122.053 15
-1 -7 7 1838.12 247.476 35
-1 -7 6 6791.11 458.781 35
1 7 -6 6201.92 240.343 14
-1 -7 6 6831.82 410.184 22
-1 -7 6 6251.23 420.414 27
-1 -7 6 6249.22 214.938 65
1 7 -6 7188.46 509.099 4
-1 -7 5 9745.71 493.554 27
-1 -7 5 10188.3 541.907 35
1 7 -5 10159.6 566.752 4
-1 -7 5 10127 476.646 22
-1 -7 4 -4.22823 40.3858 35
-1 -7 4 -35.629 41.5132 22
-1 -7 4 -140.502 67.4458 27
1 7 -4 -36.6655 36.9251 1
-1 -7 3 17541.8 570.441 22
-1 -7 3 18306.3 653.415 35
1 7 -3 16780.9 620.997 1
-1 -7 3 18356.2 583.886 27
-1 -7 2 30668.7 721.192 22
1 7 -2 31711.3 843.69 1
-1 -7 2 32317.3 701.411 27
-1 -7 2 31965.5 813.702 35
1 7 -1 193.898 75.8718 1
-1 -7 1 88.3449 56.6619 35
-1 -7 1 130.388 51.74 22
1 7 0 398.936 102.939 1
-1 -7 0 445.522 91.0198 35
-1 -7 0 325.736 72.9552 22
-1 -7 -1 5509.13 280.294 22
1 7 1 5691.61 355.2 1
-1 -7 -2 25584.5 787.68 40
1 7 2 24776.5 734.268 1
1 7 2 25661.4 747.123 37
-1 -7 -2 25172.1 606.567 22
-1 -7 -3 11569.8 548.521 40
-1 -7 -3 11435.1 415.912 22
1 7 3 11283.7 498.383 1
1 7 3 12088.3 512.565 37
-1 -7 -4 7845.58 467.768 40
1 7 4 7580.85 411.614 1
1 7 4 7815.11 418.518 37
1 7 4 7745.81 396.516 29
1 7 5 1927.37 212.674 1
-1 -7 -5 1949.09 249.027 40
-1 -7 -5 2313.29 250.938 3
1 7 5 2291.5 240.567 37
1 7 5 1608.52 202.097 29
-1 -7 -6 10680.4 590.293 40
1 7 6 11070 534.845 37
1 7 6 9982.48 482.662 1
-1 -7 -6 9529.83 531.005 3
1 7 7 2893.64 138.465 7
-1 -7 -7 3045.59 169.402 53
1 7 7 2956.2 288.422 37
-1 -7 -7 3229.71 367.454 6
1 7 7 2647.74 297.897 23
-1 -7 -7 2916.92 172.123 19
-1 -7 -7 2910.23 168.325 51
1 7 8 935.668 79.1104 7
-1 -7 -8 910.003 103.645 19
-1 -7 -8 843.793 94.8518 53
-1 -7 -8 911.703 98.6463 51
1 7 8 1055.23 186.014 37
-1 -7 -9 4350.86 219.219 19
1 7 9 4167.54 358.837 37
-1 -7 -9 4225.24 200.168 53
-1 -7 -9 4472.97 216.346 51
-1 -7 -10 13.3368 26.1045 53
1 7 10 60.5575 75.65 37
1 7 10 59.8295 29.5675 54
-1 -7 -10 5.26535 35.0606 51
-1 -7 -10 7.54415 47.4008 19
1 7 11 6619.95 197.407 54
-1 -7 -11 7052.73 262.805 19
-1 -7 -11 6087.25 211.105 53
1 7 11 6622.53 442.3 37
1 7 12 2640.89 110.496 54
-1 -7 -12 2845.65 156.751 19
-1 -7 -13 964.966 81.8079 19
-1 -7 -14 663.617 50.7398 19
1 8 -12 679.895 52.6415 15
1 8 -11 293.691 48.8434 15
-1 -8 10 -39.4179 24.9346 43
1 8 -10 -89.3052 38.8468 17
1 8 -10 17.5714 39.6923 15
1 8 -9 935.636 96.7093 15
1 8 -9 872.424 92.3376 17
-1 -8 9 937.334 80.0637 63
-1 -8 8 10257.1 280.323 63
-1 -8 8 10563.3 573.253 35
-1 -8 8 10105.7 543.636 34
1 8 -8 10875 314.111 15
1 8 -8 10371.2 316.308 17
1 8 -7 2220.72 154.902 17
1 8 -7 1972.17 136.655 14
1 8 -7 2043.51 141.752 15
-1 -8 7 2219.62 271.704 35
1 8 -6 3096.22 169.364 15
1 8 -6 3023.49 171.148 14
-1 -8 6 2813.57 149.653 65
-1 -8 6 3086.01 321.821 35
-1 -8 5 10316.8 564.234 35
-1 -8 5 9757.35 281.111 65
1 8 -5 9576.95 298.775 14
1 8 -4 10355 584.502 4
-1 -8 4 11203.9 511.425 22
-1 -8 4 10226.2 545.608 35
-1 -8 4 10879.5 503.614 27
1 8 -4 10116.9 297.092 14
-1 -8 4 9727.97 277.014 65
-1 -8 3 11366.1 492.458 22
1 8 -3 11256.1 549.859 1
-1 -8 3 11396.4 548.252 35
-1 -8 2 2407.47 243.288 35
1 8 -2 2108.57 246.12 1
-1 -8 2 2483.13 223.628 22
1 8 -1 8762.98 483.637 1
-1 -8 1 9052.8 408.047 22
-1 -8 1 9111.17 444.94 35
-1 -8 0 17604.1 676.756 40
-1 -8 0 16352.5 535.466 22
-1 -8 0 17316.6 577.67 35
1 8 0 16932.1 668.558 1
-1 -8 -1 40.5154 39.4346 22
1 8 1 -22.983 55.0473 1
-1 -8 -1 -8.3464 49.4952 40
-1 -8 -2 354.184 117.791 40
-1 -8 -2 286.248 77.0457 22
1 8 2 469.021 117.768 1
-1 -8 -3 3174.56 311.879 40
1 8 3 2580.53 263.865 1
1 8 3 2928.78 279.385 37
1 8 4 1057.66 164.462 1
-1 -8 -4 1223.49 213.071 40
1 8 4 1041.59 173.186 37
-1 -8 -5 1337.05 219.756 40
-1 -8 -5 1575.24 121.388 53
1 8 5 1501.21 102.524 7
1 8 5 1313.66 202.874 37
1 8 5 1350.55 97.3666 54
1 8 5 1042.97 169.23 1
-1 -8 -6 18992.6 426.435 53
-1 -8 -6 18789.3 384.18 52
1 8 6 18763.2 359.284 54
-1 -8 -6 18269.1 417.529 19
1 8 6 18774.6 735.447 37
-1 -8 -6 19063.4 821.616 40
1 8 6 18466.8 357.391 7
-1 -8 -6 19263 419.758 51
-1 -8 -7 827.622 97.0774 19
-1 -8 -7 793.036 91.2083 53
1 8 7 741.56 77.178 7
-1 -8 -7 755.923 91.1725 51
1 8 7 767.546 78.5979 54
1 8 7 803.367 163.043 37
1 8 8 11725.7 289.833 54
-1 -8 -8 11702.3 349.207 19
-1 -8 -8 12183.8 347.735 51
1 8 8 11462.1 278.253 7
-1 -8 -8 12096.1 344.342 53
1 8 8 11041.1 593.708 37
-1 -8 -9 5196.99 220.724 53
1 8 9 5089.86 187.704 54
-1 -8 -9 5311.02 229.7 51
-1 -8 -9 5402.48 237.177 19
1 8 9 5194.8 411.021 37
1 8 9 5116.59 179.317 7
-1 -8 -10 591.244 83.3395 19
-1 -8 -10 694.382 87.3388 51
-1 -8 -10 686.245 78.5859 53
1 8 10 619.946 65.8287 54
1 8 10 862.388 160.834 37
1 8 11 2543.4 115.222 54
-1 -8 -11 2423.25 127.602 53
-1 -8 -11 2616.58 150.345 19
1 8 12 21.9246 18.9037 54
-1 -8 -12 8.64358 31.3879 19
-1 -8 -13 -0.78603 22.9941 19
1 8 13 -0.6852 22.4592 50
1 9 -11 340.723 40.4631 15
-1 -9 11 408.106 36.8756 45
1 9 -10 2172.64 112.757 15
-1 -9 10 2022.83 86.3435 43
1 9 -10 2254.56 108.619 17
1 9 -9 880.49 85.0483 15
-1 -9 9 883.445 72.479 63
-1 -9 9 883.678 72.0717 43
1 9 -9 981.202 87.7855 17
-1 -9 8 543.667 65.6233 63
1 9 -8 639.376 80.5416 17
1 9 -8 621.653 78.0353 15
1 9 -7 88.4732 46.8969 17
-1 -9 7 49.3731 31.3737 63
-1 -9 7 111.513 40.0902 65
1 9 -7 163.323 51.9518 15
-1 -9 6 8274.11 523.696 35
1 9 -6 8733.83 284.091 14
-1 -9 6 7926.39 250.021 65
1 9 -6 9121.16 285.269 15
1 9 -5 638.073 82.1439 14
-1 -9 5 529.179 134.237 35
-1 -9 5 672.993 81.4121 65
1 9 -4 632.883 80.0293 14
-1 -9 4 678.903 80.88 65
-1 -9 4 647.699 79.4944 55
-1 -9 4 635.748 152.294 35
-1 -9 3 15669 672.292 35
-1 -9 3 15201.8 357.626 65
1 9 -3 15083.2 348.396 7
-1 -9 3 14735.4 359.899 55
1 9 -3 15511.6 365.48 14
-1 -9 2 243.338 94.3114 35
-1 -9 2 277.674 87.0618 22
1 9 -2 252.067 112.129 1
1 9 -2 292.452 50.5564 14
-1 -9 2 410.689 62.555 65
1 9 -2 305.253 55.7407 7
-1 -9 2 360.223 58.4739 55
1 9 -1 20045.7 787.298 1
-1 -9 1 18919.7 641.281 22
1 9 -1 19701.2 392.954 7
1 9 -1 19755.6 385.922 14
-1 -9 1 20926.3 772.436 40
-1 -9 1 20357.6 398.519 65
-1 -9 1 21057.2 426.251 55
-1 -9 1 20091.3 389.028 63
-1 -9 0 14206.4 656.672 40
-1 -9 0 14303.2 328.264 65
1 9 0 13149.1 638.424 1
1 9 0 14401.5 331.026 7
-1 -9 0 14555.4 353.284 55
-1 -9 0 12886.5 518.075 22
-1 -9 -1 7753.43 496.069 40
1 9 1 8019.73 503.564 1
1 9 1 8051.18 250.432 50
-1 -9 -1 7864.84 259.827 55
-1 -9 -1 7017.78 381.242 22
1 9 1 7664.84 238.583 7
-1 -9 -2 1056.44 191.865 40
-1 -9 -2 1174.87 101.818 53
1 9 2 1132.92 185.739 1
1 9 2 1247.67 102.753 50
1 9 2 1194.09 95.0009 7
1 9 3 133.386 81.1467 1
1 9 3 103.201 39.8965 7
1 9 3 53.0031 40.8326 50
-1 -9 -3 108.073 42.165 53
1 9 3 -21.9269 26.1851 54
1 9 4 2718.95 290.732 37
1 9 4 2704.91 150.099 50
-1 -9 -4 2669.87 155.374 19
1 9 4 2207.47 258.728 1
-1 -9 -4 2559.87 157.58 53
1 9 4 2779.63 144.963 7
-1 -9 -4 2762.02 315.063 40
1 9 4 2693.59 142.184 54
-1 -9 -5 2434.1 303.43 40
1 9 5 2221.82 129.325 7
-1 -9 -5 2353.49 144.528 51
1 9 5 2406.28 142.687 50
-1 -9 -5 2243.3 146.533 19
-1 -9 -5 2470.17 156.095 53
-1 -9 -5 2291.56 142.485 52
1 9 5 2238.95 265.554 37
1 9 5 2231.03 131.139 54
-1 -9 -6 3047.84 172.613 19
1 9 6 2882.81 147.792 54
-1 -9 -6 3015.87 175.999 53
-1 -9 -6 3073.02 159.974 52
1 9 6 2917.56 305.738 37
1 9 6 3089.16 152.595 7
-1 -9 -6 3197.19 173.197 51
1 9 6 2957.43 160.582 50
1 9 7 1878.25 250.577 37
1 9 7 2028.61 135.31 50
1 9 7 1963.41 123.177 54
1 9 7 1960.3 120.763 7
-1 -9 -7 2062.88 142.817 51
-1 -9 -7 2007.65 143.992 53
-1 -9 -7 2072.25 143.64 19
1 9 8 132.01 37.5615 7
-1 -9 -8 75.3502 39.8972 53
1 9 8 73.9579 42.7099 50
-1 -9 -8 103.68 42.7312 51
1 9 8 -5.56197 27.2945 54
1 9 8 -63.1931 90.514 37
-1 -9 -8 -71.8725 45.0499 19
1 9 9 972.637 78.719 7
1 9 9 803.564 166.24 37
-1 -9 -9 1002.67 97.1439 53
-1 -9 -9 942.951 98.0754 51
1 9 9 892.847 81.2231 54
-1 -9 -9 854.917 93.2002 19
1 9 9 900.01 90.5427 50
-1 -9 -10 3419.59 158.83 53
1 9 10 3400.83 137.479 54
-1 -9 -10 3436.84 167.384 19
1 9 10 3597.74 157.517 50
-1 -9 -11 834.319 79.4421 19
-1 -9 -11 810.076 68.015 53
1 9 11 853.229 62.6098 54
1 9 11 771.078 70.2765 50
-1 -9 -12 3731.82 131.412 19
1 9 12 3596.32 119.454 50
-1 -10 10 22.8255 18.0923 45
1 10 -10 -4.85847 21.8993 15
1 10 -9 722.962 62.8934 17
1 10 -9 682.524 65.7832 15
-1 -10 9 674.058 55.4681 63
-1 -10 9 697.036 56.9364 43
1 10 -8 1198.27 93.369 15
-1 -10 8 1139.65 84.2324 63
-1 -10 8 1184.2 83.2764 43
1 10 -8 1216.35 92.0992 17
1 10 -7 245.876 50.8267 17
-1 -10 7 161.875 45.3202 63
-1 -10 7 195.783 42.5471 65
1 10 -7 219.623 53.346 15
1 10 -6 5353.7 211.33 15
1 10 -6 5045.14 204.449 14
-1 -10 6 4898.57 190.209 65
-1 -10 6 4960.25 201.653 63
-1 -10 5 6563.24 232.018 65
-1 -10 5 6362.79 220.38 55
1 10 -5 6414.49 238.363 14
-1 -10 5 6526.38 237.152 63
-1 -10 4 56.3928 33.2181 55
1 10 -4 38.0381 33.2014 14
-1 -10 4 24.9028 35.3832 63
-1 -10 4 28.6693 34.1927 65
1 10 -3 1464.18 110.31 7
-1 -10 3 1425.89 115.736 55
-1 -10 3 1554.88 120.127 63
-1 -10 3 1590.33 120.748 65
1 10 -3 1362.23 112.467 14
-1 -10 2 1498.8 114.542 63
-1 -10 2 1408.52 118.251 55
1 10 -2 1329.5 108.688 14
-1 -10 2 1521.09 117.91 65
1 10 -2 1481.32 112.386 7
-1 -10 1 402.04 67.369 55
-1 -10 1 436.974 121.519 40
1 10 -1 389.672 61.7486 14
-1 -10 1 357.26 63.5825 65
1 10 -1 440.116 65.6501 7
-1 -10 1 362.817 61.6438 63
-1 -10 0 49.6061 54.0644 40
1 10 0 55.0509 33.2311 14
-1 -10 0 21.2441 26.5186 63
1 10 0 16.2227 28.8488 7
-1 -10 0 17.262 32.6792 55
-1 -10 0 24.4639 31.2301 65
-1 -10 -1 39198.6 550.102 65
1 10 1 38490.5 532.17 14
1 10 1 39722.3 561.436 7
-1 -10 -1 39293.7 584.658 53
-1 -10 -1 39612.3 533.013 63
1 10 2 22037 386.736 14
1 10 2 23122.5 437.9 50
-1 -10 -2 23257.1 910.293 40
-1 -10 -2 22305.1 406.55 65
-1 -10 -2 23959.4 466.694 53
1 10 2 22287.4 419.366 7
1 10 2 21897.2 413.398 62
1 10 3 43887.9 592.824 62
-1 -10 -3 44647.8 646.477 53
-1 -10 -3 43923.2 1265.35 40
1 10 3 44377.8 590.434 7
1 10 3 44641.3 607.338 50
1 10 4 2.67507 44.8849 62
1 10 4 84.3778 43.6957 54
1 10 4 124.72 39.9388 7
1 10 4 111.63 49.5082 50
-1 -10 -4 118.748 82.5624 40
-1 -10 -4 58.6501 38.2483 53
-1 -10 -5 1207.28 216.718 40
-1 -10 -5 1393.27 113.687 52
1 10 5 1254.23 103.11 54
-1 -10 -5 1174.76 111.55 53
1 10 5 1352.05 105.781 7
1 10 5 1298.47 113.383 50
-1 -10 -5 1283.36 109.573 19
1 10 6 53.7546 44.2308 50
1 10 6 -56.8858 58.6402 37
-1 -10 -6 63.3687 43.8139 19
-1 -10 -6 14.0461 32.2007 52
1 10 6 154.67 45.7062 54
-1 -10 -6 12.5829 36.4154 53
1 10 6 109.602 36.8222 7
-1 -10 -6 17.6652 28.7415 51
1 10 7 32.1724 32.5836 54
1 10 7 -37.0606 31.9413 7
-1 -10 -7 38.7642 39.3264 53
-1 -10 -7 -34.7223 31.7885 19
-1 -10 -7 -1.73088 28.7829 51
1 10 7 8.68544 41.1058 50
-1 -10 -8 12287 324.169 53
1 10 8 11616 273.509 54
1 10 8 12079 273.452 7
-1 -10 -8 12783.9 323.017 51
-1 -10 -8 12018.4 308.503 19
1 10 8 12454 306.114 50
1 10 9 9754.48 254.573 50
-1 -10 -9 8972.3 251.394 19
-1 -10 -9 9623.23 267.912 53
1 10 9 9083.88 224.822 54
1 10 9 9349.98 218.322 7
-1 -10 -10 563.941 63.8145 19
1 10 10 533.905 62.2228 50
-1 -10 -10 479.7 57.8326 53
1 10 10 503.002 52.476 54
-1 -10 -11 47.6186 26.199 19
1 10 11 38.1255 27.0825 50
-1 -11 9 2984.38 91.5396 45
-1 -11 9 3045.76 90.7182 43
-1 -11 8 3156.52 118.034 63
1 11 -8 3081.98 121.121 15
-1 -11 8 3115.51 110.376 45
-1 -11 8 3253.52 116.642 43
1 11 -8 3258.55 118.777 17
-1 -11 7 180.369 35.9333 65
-1 -11 7 164.47 41.4684 63
1 11 -7 228.336 46.2991 17
-1 -11 7 104.746 35.4099 43
1 11 -7 168.707 40.416 15
-1 -11 6 1831.63 108.173 65
-1 -11 6 1879.62 116.999 63
1 11 -6 1953.18 118.326 15
1 11 -6 2049.89 121.844 17
1 11 -5 1831.74 121.4 14
-1 -11 5 1937.94 125.117 63
1 11 -5 1919.99 121.817 15
-1 -11 5 1765.18 115.216 65
-1 -11 4 1013.75 94.5426 63
1 11 -4 1062.64 97.1229 14
-1 -11 4 1062.27 96.2954 65
1 11 -3 4748.24 198.42 14
-1 -11 3 4757.07 197.925 63
1 11 -3 4588.62 182.881 7
-1 -11 3 4707.9 197.891 65
1 11 -2 802.401 85.9991 14
1 11 -2 864.437 86.2002 7
-1 -11 2 801.381 88.1943 65
-1 -11 2 774.882 84.404 63
-1 -11 1 5499.69 214.567 65
1 11 -1 5407.05 207.151 7
-1 -11 1 5340.89 206.867 63
1 11 -1 5359.44 207.527 14
-1 -11 0 64.8477 31.4824 63
1 11 0 56.14 30.4784 14
1 11 0 63.1698 39.7038 7
-1 -11 0 92.9322 39.2988 65
-1 -11 0 83.7082 59.2493 40
-1 -11 -1 268.553 53.5693 65
1 11 1 299.832 51.148 14
1 11 1 349.716 61.7593 7
-1 -11 -1 317.83 59.9459 53
-1 -11 -1 165.169 86.5711 40
-1 -11 -2 8904.83 254.5 65
-1 -11 -2 8767.11 280.084 53
1 11 2 8856.94 265.387 7
-1 -11 -2 8906.96 561.535 40
-1 -11 -3 329.35 61.781 53
1 11 3 255.868 52.5356 7
-1 -11 -3 288.908 108.219 40
-1 -11 -4 3580.87 368.881 40
-1 -11 -4 3419.89 178.794 53
1 11 4 3518.48 171.052 50
1 11 4 3532.82 166.58 7
-1 -11 -4 3291.87 169.622 52
1 11 4 3527.43 163.843 62
1 11 5 227.42 51.0463 62
1 11 5 268.59 55.4258 7
-1 -11 -5 173.984 50.4608 53
1 11 5 251.159 59.262 50
-1 -11 -5 220.867 47.867 52
1 11 6 336.059 55.1009 7
-1 -11 -6 382.556 55.3318 52
1 11 6 428.738 68.7206 50
-1 -11 -6 388.473 58.1006 19
-1 -11 -6 347.517 64.0955 53
1 11 6 313.254 57.8984 62
1 11 7 6026.01 206.453 50
1 11 7 5912.8 190.844 7
1 11 7 5885.17 199.637 62
-1 -11 -7 5892.82 195.281 19
-1 -11 -7 6040.34 221.104 53
1 11 8 997.006 86.232 50
-1 -11 -8 931.12 86.8889 53
1 11 8 981.079 74.5913 7
-1 -11 -8 1008.3 78.9937 19
1 11 8 851.967 76.7814 62
1 11 9 2828.48 122.794 50
1 11 9 2883.29 106.51 7
-1 -11 -9 2759.59 126.178 53
-1 -11 -9 2790.26 115.061 19
1 11 9 2662.38 117.379 62
1 11 10 4248.49 125.492 62
1 11 10 4506.31 132.082 50
-1 -11 -10 4506.82 136.155 53
1 12 -7 573.815 48.8316 15
1 12 -7 609.584 48.2855 17
-1 -12 7 626.022 46.0504 65
-1 -12 7 645.348 53.7311 63
-1 -12 7 606.425 43.1283 45
-1 -12 7 598.135 49.0427 43
-1 -12 6 271.283 34.4461 45
1 12 -6 415.656 48.8743 17
-1 -12 6 355.04 43.6659 65
-1 -12 6 349.517 44.0909 43
-1 -12 6 401.395 51.7778 63
1 12 -6 395.93 47.4961 15
-1 -12 5 264.738 49.6274 63
1 12 -5 303.342 48.8237 15
-1 -12 5 267.402 44.2648 43
-1 -12 5 321.162 50.8102 65
-1 -12 5 250.162 34.8821 45
-1 -12 4 1431.47 100.27 65
-1 -12 4 1453.95 100.652 63
1 12 -4 1420.08 99.5702 14
-1 -12 4 1309.73 86.6141 43
1 12 -4 1453.64 97.9719 15
-1 -12 3 425.07 53.3214 43
1 12 -3 425.549 57.0168 7
1 12 -3 432.452 61.5099 14
-1 -12 3 440.64 62.9634 63
-1 -12 3 392.229 60.2177 65
1 12 -2 2881.01 144.593 14
1 12 -2 2871.07 137.554 7
-1 -12 2 3002.69 151.182 65
-1 -12 2 2631.54 120.866 43
-1 -12 2 2899.02 143.616 63
-1 -12 1 10.2294 28.626 63
1 12 -1 25.8339 36.0222 14
1 12 -1 15.8872 33.0907 7
-1 -12 1 21.2184 32.601 65
1 12 0 3623.85 158.267 14
1 12 0 3593.2 162.039 7
-1 -12 0 3587.43 162.067 65
-1 -12 0 3503.72 151.735 63
1 12 1 1180.21 88.7857 14
-1 -12 -1 1175.33 92.8814 65
1 12 1 1197.36 96.1198 7
-1 -12 -1 1088.77 184.29 40
-1 -12 -2 1014.72 91.1623 53
1 12 2 1128.12 94.8792 7
-1 -12 -2 998.217 82.1693 65
-1 -12 -2 1013.84 182.91 40
1 12 3 230.016 50.4798 7
-1 -12 -3 238.545 53.2266 52
-1 -12 -3 239.024 52.2875 53
1 12 4 113.539 44.0687 7
-1 -12 -4 96.4743 39.8651 53
-1 -12 -4 159.818 43.1293 52
1 12 5 14241.2 300.788 7
-1 -12 -5 14426.5 327.212 53
-1 -12 -5 13645.5 297.647 52
1 12 6 5722.41 181.524 7
-1 -12 -6 5310.52 168.681 52
-1 -12 -6 5500.9 196.335 53
1 12 6 5270.99 164.941 62
1 12 7 170.467 37.5686 62
1 12 7 180.252 38.5768 7
-1 -12 -7 182.806 42.0865 53
1 12 7 217.774 45.5874 50
1 12 8 718.408 54.8751 62
1 12 8 715.25 54.4138 7
-1 -12 -8 659.498 61.7445 53
-1 -12 -9 -7.56463 15.7277 53
-1 -13 6 660.006 41.9745 43
-1 -13 5 24.5783 20.4366 65
1 13 -5 33.8064 18.26 17
-1 -13 5 12.2076 20.3711 63
-1 -13 5 24.8713 20.005 43
-1 -13 4 1571.98 86.8537 65
-1 -13 4 1541.57 86.0001 63
1 13 -4 1594.42 78.4438 15
-1 -13 4 1458.17 73.4514 43
-1 -13 4 1501.31 78.6822 52
-1 -13 3 39.2835 27.7435 63
-1 -13 3 14.4037 23.9619 65
-1 -13 3 57.4206 21.5795 43
1 13 -3 29.3454 19.3446 15
1 13 -3 45.3411 26.3216 14
-1 -13 2 268.355 44.8491 63
1 13 -2 367.88 47.8117 7
1 13 -2 307.422 46.2294 14
-1 -13 2 303.54 48.8098 65
1 13 -1 228.404 40.979 14
-1 -13 1 202.026 43.5878 65
1 13 -1 230.988 41.9979 7
1 13 0 443.025 56.6116 7
-1 -13 0 434.564 54.5333 65
1 13 0 497.615 53.9265 14
-1 -13 -1 364.982 57.3885 52
1 13 1 406.031 56.7315 7
1 13 1 366.516 45.418 14
-1 -13 -1 312.692 46.9868 65
1 13 2 1883.5 106.838 7
-1 -13 -2 1874.33 101.849 53
-1 -13 -2 1835.48 93.2196 65
-1 -13 -2 1836.24 113.298 52
-1 -13 -3 3318.01 143.577 52
-1 -13 -3 3358.37 138.578 53
1 13 3 3308.02 137.494 7
-1 -13 -4 1507.03 94.2325 53
1 13 4 1522.55 93.3437 7
-1 -13 -4 1538.3 93.6933 52
-1 -13 -5 499.646 56.198 53
-1 -13 -5 422.039 48.3832 52
1 13 5 469.405 52.7188 7
-1 -13 -6 519.604 53.8746 53
1 13 6 531.876 49.7226 7
1 13 7 359.667 36.5325 7
-1 -13 -7 374.494 42.617 53
-1 -14 3 796.037 51.1231 65
-1 -14 2 260.405 33.5508 52
-1 -14 2 257.693 33.3713 65
-1 -14 1 10.7566 16.6508 65
1 14 -1 5.28959 17.0469 7
-1 -14 1 44.9347 24.7397 52
-1 -14 0 1376.97 70.0358 65
1 14 0 1414.36 72.202 7
-1 -14 0 1455.92 82.1453 52
1 14 1 273.973 36.9384 7
-1 -14 -1 309.424 42.4717 52
-1 -14 -1 217.084 30.0859 65
1 14 2 282.658 39.3061 7
-1 -14 -2 323.337 41.8504 52
-1 -14 -3 1268.72 71.5667 52
1 14 3 1310.22 71.7737 7
-1 -14 -4 184.324 26.9373 53
-1 -14 -4 158.931 25.2066 52
1 14 4 184.594 30.9452 7
1 14 5 1455.54 65.6358 7
2 -13 -4 650.134 52.7673 53
-2 13 4 674.329 48.3937 7
2 -13 -3 1063.04 71.7696 53
-2 13 3 1066.6 63.3741 7
-2 13 2 441.417 44.8659 7
2 -13 -2 490.223 52.6609 53
2 -13 -2 356.127 38.5824 52
2 -13 -1 1877.57 92.5528 52
2 -13 -1 1957.72 99.337 53
-2 13 1 1932.79 87.3585 7
-2 13 0 26.2896 18.7398 14
-2 13 0 12.1302 19.6638 7
2 -13 0 45.9659 23.9178 53
2 -13 1 2941.43 103.809 65
2 -13 1 2997.04 113.749 53
-2 13 -1 3187.85 116.188 14
-2 13 -2 1062.13 69.5093 14
2 -13 2 951.797 63.662 65
-2 13 -3 120.487 30.4302 14
2 -13 3 141.378 32.0981 65
2 -13 4 1122.39 69.3074 65
-2 13 -4 1104.51 68.031 14
-2 13 -5 8.00923 18.2261 14
2 -13 5 1.14646 17.408 65
2 -13 6 2396.29 83.4553 65
-2 13 -6 2443.25 86.4751 17
-2 12 6 3282.85 108.127 7
2 -12 -6 3324.04 117.84 53
-2 12 5 45.6627 27.0388 7
2 -12 -5 65.1475 27.3427 53
-2 12 4 951.677 72.7314 7
2 -12 -4 1055.18 84.5161 53
2 -12 -3 3584.96 159.74 53
-2 12 3 3721.16 141.537 7
-2 12 2 6190.05 184.765 7
2 -12 -2 6352.13 216.166 53
-2 12 1 3335.51 129.022 14
2 -12 -1 3248.62 157.608 53
-2 12 1 3339.7 137.18 7
-2 12 0 795.184 70.177 14
-2 12 0 801.976 69.7529 7
2 -12 0 713.469 77.5543 53
2 -12 1 97.5856 35.8634 65
-2 12 -1 43.6947 24.9574 7
2 -12 1 48.0272 30.4637 53
-2 12 -1 32.9231 25.1519 14
-2 12 -2 181.397 42.1202 14
2 -12 2 304.667 47.6253 53
2 -12 2 218.177 45.1831 65
-2 12 -3 974.463 81.4961 14
2 -12 3 761.832 80.6166 55
2 -12 3 844.21 75.6781 65
2 -12 3 818 66.4005 63
2 -12 4 1831.3 115.087 55
-2 12 -4 2096.09 112.85 14
2 -12 4 1990.72 111.45 65
2 -12 4 1805.07 99.5894 63
2 -12 5 61.7594 28.959 63
-2 12 -5 53.8226 31.8185 14
2 -12 5 55.4229 32.1096 55
2 -12 5 22.7128 29.3455 65
-2 12 -6 22.0536 21.2421 14
2 -12 6 38.847 28.6991 65
2 -12 6 36.9273 27.975 63
-2 12 -7 1056.27 63.5011 14
2 -12 7 1057.55 67.6223 63
2 -12 7 1059.52 68.9043 65
-2 12 -7 1158.46 73.4669 17
2 -12 8 14.3373 14.6943 65
2 -12 8 5.33897 16.7294 63
2 -12 8 1.37708 16.6032 43
-2 12 -8 3.67588 17.7142 17
-2 11 8 70.9194 21.4127 50
-2 11 8 47.6381 17.7682 7
-2 11 7 86.7814 25.841 7
2 -11 -7 79.6231 28.1574 53
2 -11 -7 68.2665 27.5369 51
-2 11 7 52.2532 28.1925 50
-2 11 6 611.269 60.4748 50
2 -11 -6 721.813 68.775 51
-2 11 6 599.507 60.2794 7
2 -11 -6 672.801 69.7758 53
2 -11 -5 3424.04 162.422 53
-2 11 5 3541.55 145.096 7
2 -11 -5 3711.87 154.043 51
-2 11 5 3376.01 139.942 50
2 -11 -4 8897.56 274.662 53
2 -11 -4 9261.73 245.497 51
-2 11 4 8465.54 228.83 50
-2 11 4 9203.06 242.073 7
2 -11 -3 30.1105 35.9615 53
-2 11 3 22.7828 30.5976 7
2 -11 -2 1714.48 246.409 40
2 -11 -2 2026.35 141.178 53
-2 11 2 1990.03 118.26 7
-2 11 1 7530.18 225.639 7
-2 11 1 7245.64 213.256 14
2 -11 -1 7173.01 259.084 53
2 -11 -1 7134.66 508.375 40
2 -11 0 387.719 68.0513 53
2 -11 0 332.844 51.3481 65
2 -11 0 293.196 57.2261 55
-2 11 0 389.77 57.0403 7
-2 11 0 296.515 51.047 14
2 -11 1 6955.17 501.005 40
2 -11 1 7386.39 229.771 65
2 -11 1 7331.73 257.707 55
-2 11 -1 7540.52 231.284 14
2 -11 1 7824.86 262.865 53
-2 11 -1 7590.96 221.879 7
2 -11 2 735.072 81.5747 53
2 -11 2 527.357 133.447 40
2 -11 2 752.903 79.7529 65
2 -11 2 682.197 85.0734 55
-2 11 -2 707.521 78.1068 14
2 -11 3 6010.22 231.673 55
-2 11 -3 6334.16 216.939 14
2 -11 3 5912.29 200.435 63
2 -11 3 5509.34 419.672 40
2 -11 3 6094.62 216.226 65
-2 11 -4 10141.9 271.949 14
2 -11 4 9950.47 274.303 65
2 -11 4 9396.36 256.338 63
2 -11 4 9996.79 292.609 55
2 -11 5 430.181 64.5905 65
2 -11 5 356.04 58.8641 55
2 -11 5 373.945 59.4015 63
-2 11 -5 480.721 65.7022 14
2 -11 6 917.693 86.719 55
2 -11 6 884.753 82.9609 65
-2 11 -6 941.668 81.6319 14
2 -11 6 1020.35 87.6495 63
-2 11 -7 603.476 62.019 14
2 -11 7 586.479 65.358 63
2 -11 7 640.384 66.6858 55
2 -11 7 603.326 66.1027 65
-2 11 -7 728.035 74.976 17
2 -11 8 227.11 43.3512 63
-2 11 -8 165.498 30.4745 14
2 -11 8 246.733 38.7582 55
2 -11 8 234.161 41.1832 65
-2 11 -8 235.114 43.7699 17
2 -11 9 22.737 18.7765 65
2 -11 9 26.7587 24.166 63
-2 11 -9 22.8306 22.4901 17
-2 10 9 3.06119 20.6792 50
-2 10 9 22.8505 21.2959 54
-2 10 9 72.5765 19.2461 7
-2 10 8 515.77 50.8526 7
-2 10 8 504.892 55.9707 50
2 -10 -8 564.288 64.0445 51
-2 10 8 561.139 57.1714 54
2 -10 -8 515.872 53.9957 53
-2 10 7 231.788 43.2216 7
2 -10 -7 311.803 55.3357 51
2 -10 -7 221.403 44.0593 53
-2 10 7 210.447 45.1155 54
-2 10 7 217.078 43.9654 50
2 -10 -6 195.354 49.7826 53
-2 10 6 205.677 50.5323 50
-2 10 6 144.158 40.2643 7
2 -10 -6 165.165 46.8674 51
-2 10 6 150.729 45.8239 54
2 -10 -5 1092.34 192.087 40
2 -10 -5 1539.36 118.428 51
-2 10 5 1560.4 109.565 50
-2 10 5 1490.56 103.685 7
2 -10 -5 1445.16 117.934 53
-2 10 5 1477.79 106.75 54
2 -10 -4 6808.5 506.509 40
-2 10 4 7517.07 235.587 54
2 -10 -4 7629.92 257.347 51
2 -10 -4 7553.05 273.928 53
-2 10 4 7435.58 232.029 7
-2 10 4 7862.13 241.417 50
2 -10 -3 20883.7 460.158 53
-2 10 3 20607.5 385.903 7
-2 10 3 20896.5 394.909 54
-2 10 3 21167.4 398.604 50
2 -10 -3 21834.2 427.096 51
2 -10 -3 20870 901.787 40
2 -10 -2 5575 469.985 40
-2 10 2 5483.68 184.357 14
-2 10 2 5261.29 202.515 54
-2 10 2 5398.99 199.123 7
-2 10 2 5365.98 204.048 50
2 -10 -2 5521.82 239.569 53
-2 10 1 41.5347 33.6799 7
2 -10 -1 6.38126 45.3436 40
-2 10 1 77.1271 34.6018 14
2 -10 -1 61.3093 37.162 55
2 -10 -1 -18.9336 32.2701 53
2 -10 0 886.593 97.5377 53
-2 10 0 814.306 80.0104 7
2 -10 0 806.427 90.5844 55
2 -10 0 811.265 92.1434 57
-2 10 0 940.974 84.6189 14
2 -10 0 831.9 80.789 65
-2 10 -1 3502.99 158.272 11
2 -10 1 3402.96 182.2 55
-2 10 -1 3716.82 162.544 7
2 -10 1 3386.25 163.313 65
-2 10 -1 3605.09 166.319 14
2 -10 1 3510.13 186.36 53
2 -10 1 3356.7 180.881 57
-2 10 -2 74.9016 29.8106 7
-2 10 -2 119.874 41.5314 14
-2 10 -2 106.963 38.8895 11
2 -10 2 96.8333 41.9817 53
2 -10 2 105.666 43.076 57
2 -10 2 135.526 50.6132 55
-2 10 -3 1370.15 107.964 14
-2 10 -3 1295.12 104.031 11
2 -10 3 1273.54 107.311 53
2 -10 3 1307.75 112.712 57
2 -10 3 1219.47 112.929 55
-2 10 -4 1874.86 125.123 14
2 -10 4 1875.21 131.391 57
2 -10 4 1786.13 133.067 55
-2 10 -5 8437.62 258.357 14
2 -10 5 8028.25 269.971 55
2 -10 5 8213.48 261.592 57
2 -10 5 8281.02 481.158 35
2 -10 6 1108.31 102.163 55
2 -10 6 1131.63 94.1422 57
-2 10 -6 1144.13 96.6039 14
2 -10 7 5551.83 206.964 55
2 -10 7 5819.98 207.06 65
-2 10 -7 5599.39 197.285 14
2 -10 8 323.268 52.2355 55
-2 10 -8 164.372 36.7082 14
-2 10 -8 230.92 52.4748 17
2 -10 8 218.722 46.4242 65
2 -10 9 89.2963 29.7679 65
-2 10 -9 155.691 40.9506 17
2 -10 10 230.025 39.4238 63
-2 10 -10 261.218 42.3706 17
-2 10 -11 1197.62 63.4679 17
-2 9 10 3555.74 114.812 50
-2 9 10 3507.18 110.269 54
-2 9 9 -9.27712 20.24 7
-2 9 9 -33.2439 24.2851 47
-2 9 9 4.66784 30.4152 50
2 -9 -9 7.30731 29.0814 51
-2 9 9 23.6123 29.7428 54
-2 9 8 1896.19 109.607 54
-2 9 8 1800.22 101.8 47
2 -9 -8 1961.41 129.23 51
-2 9 8 2034.04 106.637 7
-2 9 8 1911.93 113.915 50
2 -9 -8 1728.61 110.264 53
2 -9 -7 464.951 72.3898 51
-2 9 7 562.755 64.1128 7
-2 9 7 493.646 63.221 47
-2 9 7 548.303 68.7978 50
-2 9 7 471.969 66.7141 54
2 -9 -7 485.644 69.5899 53
2 -9 -6 254.466 107.349 40
-2 9 6 273.989 53.4154 47
-2 9 6 223.609 52.0083 7
2 -9 -6 205.028 55.082 53
-2 9 6 231.536 53.345 50
2 -9 -6 224.439 53.811 51
-2 9 6 262.43 55.3147 54
-2 9 5 244.64 53.2204 47
-2 9 5 172.8 44.5829 7
2 -9 -5 89.3866 44.5181 53
2 -9 -5 178.844 52.372 51
2 -9 -5 187.118 113.993 40
-2 9 5 195.269 52.5247 50
-2 9 4 1797.97 119.653 7
-2 9 4 1735.42 120.559 50
2 -9 -4 1701.17 137.675 53
2 -9 -4 1670.23 131.3 51
-2 9 4 1816.64 122.385 54
-2 9 4 1638.01 111.901 47
2 -9 -4 1614.18 256.415 40
2 -9 -3 80749.9 1771.45 40
-2 9 3 80257.5 788.493 50
-2 9 3 78479.1 750.977 47
-2 9 3 79670.7 770.638 54
2 -9 -3 80999.7 868.821 51
-2 9 3 80552.3 768.036 7
2 -9 -3 79278 911.502 53
-2 9 2 52162.6 572.553 14
2 -9 -2 54583 751.684 53
-2 9 2 51798.8 608.341 7
-2 9 2 52108.8 622.054 54
2 -9 -2 52916.7 686.663 51
2 -9 -2 52387.1 671.939 55
-2 9 2 52910.7 636.024 50
2 -9 -2 54093.2 1439.81 40
2 -9 -1 173.795 45.2947 55
-2 9 1 146.679 40.3311 7
-2 9 1 127.544 46.0904 54
-2 9 1 138.353 37.2245 14
2 -9 -1 201.794 52.3523 53
-2 9 1 84.1334 34.1155 50
2 -9 -1 102.043 40.8309 57
-2 9 0 320.755 50.2435 7
2 -9 0 287.324 58.7761 53
2 -9 0 383.965 63.3363 57
-2 9 0 281.033 50.6785 50
-2 9 0 232.691 43.8219 14
-2 9 0 290.82 48.6801 11
2 -9 0 242.229 51.6584 55
-2 9 -1 10129 270.682 14
2 -9 1 9601.77 298.248 55
2 -9 1 9692.34 307.818 53
-2 9 -1 9726.66 256.995 7
-2 9 -1 9324.85 255.302 11
2 -9 1 10102.2 304.467 57
2 -9 2 1350.51 116.184 53
-2 9 -2 1360.61 103.59 11
2 -9 2 1479.56 118.611 57
2 -9 2 1503.64 121.365 55
-2 9 -2 1539.83 109.551 14
-2 9 -3 217.276 47.6265 11
2 -9 3 202.488 46.7026 53
2 -9 3 298.378 98.1459 35
2 -9 3 142.805 46.467 55
2 -9 3 210.525 51.5642 57
-2 9 -3 170.69 43.0886 14
2 -9 4 1971.65 233.947 35
-2 9 -4 1838.47 123.329 11
-2 9 -4 1973.63 128.712 14
2 -9 4 1941.95 133.134 57
2 -9 4 1759.59 132.423 55
-2 9 -5 3896.04 180.138 14
2 -9 5 3633.71 331.191 35
2 -9 5 3842.87 192.665 55
-2 9 -5 4028.48 182.774 11
2 -9 5 3741.52 180.543 57
2 -9 6 5462.19 410.429 35
-2 9 -6 5564.64 215.258 14
2 -9 6 5631.9 215.069 57
-2 9 -6 5406.84 212.474 11
2 -9 6 5504.11 226.345 55
2 -9 7 4602.49 201.406 55
2 -9 7 4163.05 365.849 35
-2 9 -7 4444.58 189.437 14
-2 9 -8 192.563 44.8044 14
2 -9 8 340.277 55.3406 55
-2 9 -8 263.489 59.0422 17
-2 9 -9 382.599 65.9414 17
2 -9 9 331.904 52.4426 65
-2 9 -10 1140.38 90.7139 17
2 -9 11 -3.08323 22.033 63
-2 9 -11 -2.13503 26.3927 17
-2 9 -12 1275.13 65.6968 17
-2 8 11 1138.92 61.8932 54
-2 8 11 1058.2 54.4105 47
-2 8 11 1108.57 64.581 50
-2 8 10 685.82 57.2738 47
-2 8 10 680.724 52.5277 7
2 -8 -10 634.648 68.9663 51
-2 8 10 705.186 61.6126 54
2 -8 -10 797.188 64.8722 19
-2 8 9 2627.25 122.672 47
2 -8 -9 2784.33 153.268 51
2 -8 -9 2670.08 132.692 19
-2 8 9 2633.93 117.566 7
-2 8 9 2557.13 124.327 54
2 -8 -8 470.919 73.3707 51
-2 8 8 529.706 63.1042 7
2 -8 -8 437.509 63.883 53
-2 8 8 577.565 68.1845 47
-2 8 8 566.975 70.3479 54
2 -8 -7 5006.7 228.898 51
-2 8 7 5135.29 189.208 7
-2 8 7 5280.48 198.774 54
2 -8 -7 4869.99 213.318 53
-2 8 7 4966.02 187.755 47
-2 8 6 10159.8 273.639 7
-2 8 6 10540.3 276.006 47
-2 8 6 11173.6 288.955 54
2 -8 -6 10493.7 334.324 51
2 -8 -6 10103.4 301.824 10
2 -8 -6 10509.4 325.978 53
2 -8 -6 9991.43 608.922 40
-2 8 5 162.649 41.6571 47
-2 8 5 132.795 42.6274 7
2 -8 -5 66.3681 45.9601 53
-2 8 5 274.178 53.8496 54
2 -8 -5 138.253 49.2432 10
2 -8 -5 30.3747 40.2335 51
2 -8 -5 125.549 107.06 40
2 -8 -4 25060.8 971.198 40
2 -8 -4 25348 505.639 51
-2 8 4 26182.1 437.929 7
-2 8 4 25996.6 431.039 54
2 -8 -4 25226.8 469.936 10
-2 8 4 25742 425.147 47
2 -8 -4 26054.6 519.902 53
-2 8 3 11637.9 601.504 23
2 -8 -3 13025.3 690.702 40
-2 8 3 13007.1 309.733 50
-2 8 3 12334.7 624.779 1
2 -8 -3 13168.2 365.218 53
-2 8 3 12988.6 302.499 54
2 -8 -3 12794.6 349.224 51
-2 8 3 13470.1 305.163 47
-2 8 3 13263 305.505 7
2 -8 -2 23698.3 442.93 57
-2 8 2 22024.3 818.212 1
-2 8 2 22143 359.489 8
2 -8 -2 19174.2 739.363 22
-2 8 2 22704.3 402.035 50
-2 8 2 20676.2 767.685 23
-2 8 2 23542.1 399.423 54
-2 8 2 23549.7 397.883 7
-2 8 2 23041.9 393.253 47
2 -8 -2 23176.2 477.083 53
-2 8 1 5697.29 383.636 23
-2 8 1 5661.17 410.139 1
2 -8 -1 5774.48 395.028 22
-2 8 0 68.0298 66.1805 1
2 -8 0 -49.2671 36.0973 22
-2 8 -1 37911.9 1032.7 1
2 -8 1 37107.7 953.416 22
-2 8 -2 15305 646.377 1
2 -8 2 16226.8 579.34 35
2 -8 2 15849.2 619.745 22
-2 8 -3 3432.29 304.213 1
2 -8 3 3782.13 178.911 57
2 -8 3 3893.83 304.45 35
-2 8 -3 3922.85 168.822 14
2 -8 3 3266.68 285.373 22
-2 8 -3 3855.46 165.343 11
2 -8 4 1341.02 107.864 57
-2 8 -4 1392.92 104.717 11
2 -8 4 1491.21 194.832 22
-2 8 -4 1467.23 217.904 4
-2 8 -4 1352.2 102.273 14
2 -8 4 1713.65 210.609 35
2 -8 5 1501.89 113.778 57
2 -8 5 1671.55 221.625 35
-2 8 -5 1872.08 123.402 14
-2 8 -5 1789.35 119.839 11
-2 8 -6 51164.4 649.167 14
2 -8 6 51798.2 645.006 57
2 -8 6 52043.8 1248.09 35
-2 8 -6 50568.6 580.622 20
-2 8 -6 51425.3 642.599 11
2 -8 6 52874.7 1156.22 27
-2 8 -7 4513.11 196.525 14
-2 8 -7 4445.29 179.933 20
-2 8 -7 4365.03 191.143 11
2 -8 7 4253.02 371.144 35
-2 8 -8 83.55 34.5351 14
-2 8 -8 54.9647 34.4938 20
2 -8 8 42.3904 37.0385 55
-2 8 -8 69.4205 38.854 15
2 -8 9 12156.4 617.541 35
-2 8 -9 11067.2 284.9 15
-2 8 -9 11784.6 324.451 17
-2 8 -10 30.1685 44.0919 17
-2 8 -10 66.0652 36.2882 15
-2 8 -11 371.398 51.3063 15
-2 8 -11 448.011 61.1366 17
2 -8 12 65.3839 21.574 63
-2 8 -12 34.8841 29.5882 17
2 -8 12 3.56054 19.1175 43
-2 8 -12 52.9663 23.7265 15
-2 7 12 254.652 32.0708 50
-2 7 11 1706.71 82.7005 47
-2 7 11 1707.73 86.6193 54
2 -7 -11 1685.49 93.976 19
-2 7 10 978.753 75.8361 47
-2 7 10 1016.02 79.8601 54
2 -7 -10 959.729 86.1568 19
2 -7 -10 915.066 88.7457 51
-2 7 10 935.513 68.1669 7
2 -7 -9 7.60601 35.4352 19
2 -7 -9 -6.88432 41.407 51
-2 7 9 37.9415 31.6688 47
-2 7 9 -1.19829 32.0969 7
-2 7 8 1633.31 110.837 47
-2 7 8 1527.48 201.746 37
2 -7 -8 1616.09 121.767 10
2 -7 -8 1695.97 127.594 19
2 -7 -8 1724.77 137.258 51
-2 7 7 6137.6 210.945 47
2 -7 -7 5945.77 238.515 53
-2 7 7 6043.24 405.256 37
2 -7 -7 6260.68 241.724 19
2 -7 -7 5755.68 252.221 51
2 -7 -7 6054.07 239.094 10
-2 7 6 715.348 140.577 37
2 -7 -6 1154.08 213.571 40
2 -7 -6 807.219 98.5377 51
2 -7 -6 814.571 92.4052 10
2 -7 -6 804.976 91.6002 53
-2 7 6 837.461 81.4476 47
2 -7 -5 28.9646 40.0083 40
-2 7 5 172.002 44.1544 47
-2 7 5 128.121 74.4492 37
-2 7 5 -29.1257 38.4961 1
2 -7 -5 155.864 50.4254 10
2 -7 -5 164.542 50.707 51
2 -7 -5 74.2458 40.3439 53
-2 7 4 21202.8 371.731 47
2 -7 -4 19464.8 818.331 40
2 -7 -4 20332.1 443.155 51
-2 7 4 19303.2 756.051 1
2 -7 -4 20404.3 417.446 10
-2 7 4 20463.8 675.099 37
2 -7 -4 20757 447.218 53
-2 7 3 342.06 100.786 1
-2 7 3 104.433 58.4786 37
2 -7 -3 294.999 104.09 22
-2 7 3 330.062 106.163 23
-2 7 2 1459.42 193.937 23
-2 7 2 1107.35 171.817 1
2 -7 -2 1196.05 184.761 22
-2 7 1 3636.49 306.281 1
-2 7 1 3852.05 297.387 23
2 -7 -1 3949.66 314.586 22
-2 7 0 1648.37 206.455 1
2 -7 0 1865.47 204.814 22
2 -7 1 6402.4 374.444 22
-2 7 -1 6514.29 394.558 1
-2 7 -2 21309.5 696.02 1
2 -7 2 22563.8 638.575 35
2 -7 2 20971.7 662.451 22
-2 7 -3 10138.9 474.068 1
2 -7 3 9656.41 450.019 22
2 -7 4 8367.26 439.392 35
2 -7 4 7778.71 407.036 22
-2 7 -4 8224.79 483.1 4
-2 7 -4 7878.69 412.821 1
2 -7 5 3717.53 309.279 35
2 -7 5 3566 286.31 22
-2 7 -5 3360.14 328.71 4
2 -7 6 8699.13 494.856 35
-2 7 -6 8179.05 233.106 20
2 -7 6 8427.77 451.927 27
-2 7 -6 9109.29 560.058 4
2 -7 6 8128.63 435.841 22
-2 7 -6 8281.8 249.61 11
-2 7 -6 8258.8 254.836 14
-2 7 -7 1413.9 110.026 14
2 -7 7 1499.71 207.211 27
-2 7 -7 1461.48 112.296 11
-2 7 -7 1448.69 105.195 20
-2 7 -7 1507.89 106.964 15
2 -7 7 1540.96 223.717 35
-2 7 -8 38503.8 543.955 20
-2 7 -8 38634 558.467 11
-2 7 -8 38787.4 550.32 15
-2 7 -9 129.204 45.5063 15
2 -7 9 183.969 93.2814 35
-2 7 -9 139.217 50.1636 17
-2 7 -9 136.931 47.0233 20
-2 7 -10 13414.4 324.443 15
-2 7 -10 13861.4 327.802 20
-2 7 -10 14352.7 362.61 17
-2 7 -11 1729.29 114.402 15
-2 7 -11 1939.18 132.215 17
-2 7 -12 1563.78 99.48 15
-2 7 -12 1621.33 107.847 17
-2 7 -13 178.609 32.5354 15
-2 6 12 549.872 47.2724 54
2 -6 -12 523.996 52.8451 19
-2 6 12 504.028 44.3601 47
2 -6 -11 2872.23 143.841 19
-2 6 11 2797.21 116.792 47
2 -6 -10 1092.03 103.178 51
-2 6 10 1126.34 80.2808 7
-2 6 10 1132.05 85.9433 47
2 -6 -10 970.64 83.4039 10
2 -6 -10 1146.04 105.02 19
-2 6 9 7652.95 455.92 37
2 -6 -9 7858.93 282.716 51
2 -6 -9 7689.48 252.865 10
2 -6 -9 8372.46 283.062 19
-2 6 8 1650.36 216.748 37
-2 6 8 2048.07 243.054 30
2 -6 -8 1851.8 133.027 10
2 -6 -8 1943.33 139.365 19
2 -6 -8 1961.13 150.062 51
2 -6 -7 1105.22 106.532 10
-2 6 7 878.936 162.4 30
2 -6 -7 1045.28 104.044 19
-2 6 7 1004.19 166.823 37
2 -6 -7 1074.33 109.282 51
2 -6 -6 1745.22 240.222 40
-2 6 6 1875.46 255.387 23
-2 6 6 1476.69 191.029 37
2 -6 -6 1846.77 132.189 10
2 -6 -6 1753.9 127.736 19
2 -6 -6 1586.01 124.106 53
2 -6 -6 1780.3 140.595 51
-2 6 6 1708.55 210.09 30
-2 6 5 1403.07 174.93 37
-2 6 5 1570.65 207.699 1
-2 6 5 1478.35 222.744 23
-2 6 5 1386.58 182.068 30
2 -6 -5 1634.79 230.483 40
2 -6 -5 1530.5 234.875 6
2 -6 -4 3739.79 339.17 40
-2 6 4 3888.69 339.089 23
-2 6 4 3686.58 306.761 1
-2 6 4 3535.78 263.552 37
-2 6 3 959.403 129.146 37
-2 6 3 844.102 149.494 23
-2 6 3 964.622 155.813 1
2 -6 -3 887.592 159.687 38
2 -6 -3 753.161 140.976 22
2 -6 -2 10302.8 502.749 38
-2 6 2 10358.8 407.458 37
2 -6 -2 10324.8 497.376 22
-2 6 2 9612.68 476.915 1
-2 6 2 10399.8 370.472 33
-2 6 2 9078.23 451.549 23
-2 6 1 96799.8 1455.42 1
2 -6 -1 104245 1479.9 38
-2 6 1 103758 1159.57 33
2 -6 -1 93922.9 1436.36 22
-2 6 0 718.021 125.574 1
2 -6 0 961.851 145.28 22
2 -6 1 509.821 91.6875 35
2 -6 1 632.082 114.36 22
-2 6 -1 507.214 106.554 1
2 -6 2 8897.36 397.791 22
-2 6 -2 9277.94 417.841 1
-2 6 -3 46917.8 921.293 1
2 -6 3 46322.7 896.461 22
-2 6 -4 332.333 88.0498 1
2 -6 4 250.141 71.203 22
-2 6 -4 191.191 74.1674 4
2 -6 4 73.3038 70.831 42
2 -6 5 3327.43 276.318 35
2 -6 5 2909.78 232.954 22
-2 6 -5 3610.07 303.339 4
2 -6 5 3620.29 328.006 42
2 -6 6 8109.64 452.735 35
-2 6 -6 8399.1 502.101 4
2 -6 6 7521.35 387.568 22
2 -6 6 9356.32 531.355 42
-2 6 -7 12751 650.885 4
2 -6 7 12878.5 596.526 35
-2 6 -7 12267.5 301.114 11
2 -6 7 11755.6 501.039 22
-2 6 -7 12330.1 292.934 20
2 -6 7 13169.6 572.684 27
-2 6 -8 4427.78 187.651 15
2 -6 8 4797.1 381.01 35
2 -6 8 4441.34 355.968 27
-2 6 -8 4398.4 185.389 20
-2 6 -8 4141.39 180.845 11
-2 6 -9 6576.41 233.252 20
-2 6 -9 6693.2 238.624 15
2 -6 9 6917.66 468.564 35
-2 6 -9 6836.86 253.769 17
-2 6 -10 2597.4 150.398 20
2 -6 10 2643.17 286.97 35
-2 6 -10 2567.86 159.1 17
-2 6 -10 2561.91 151.335 15
-2 6 -11 662.481 77.575 20
-2 6 -11 583.554 80.7619 17
-2 6 -11 690.298 82.0556 15
-2 6 -12 1011.01 91.1408 15
-2 6 -12 1125.79 101.683 17
-2 6 -13 1190.56 85.335 15
-2 6 -14 2427.55 94.9627 15
2 -5 -12 1253.47 91.6396 19
-2 5 12 1212.37 72.7961 47
2 -5 -11 315.894 49.1061 13
2 -5 -11 387.394 65.5599 19
-2 5 10 1719.87 216.455 37
2 -5 -10 1715.95 127.728 51
-2 5 10 1760.64 212.966 41
2 -5 -10 1780.39 135.118 19
2 -5 -10 1726.56 115.436 10
2 -5 -10 1657.68 115.424 13
2 -5 -9 3369.03 168.067 13
2 -5 -9 3263.07 172.125 10
-2 5 9 2896.25 292.414 37
2 -5 -9 3209.64 184.221 51
-2 5 9 3132.31 293.248 41
2 -5 -8 71.7639 45.9753 51
-2 5 8 125.859 71.405 41
-2 5 8 70.0855 64.1512 30
2 -5 -8 53.2646 41.0763 9
2 -5 -8 35.2579 40.832 10
2 -5 -7 9558.1 288.258 10
2 -5 -7 9856.87 323.404 51
2 -5 -7 10040.7 291.03 9
-2 5 7 10013.4 510.482 41
-2 5 7 10201.3 509.245 30
-2 5 6 5454.07 363.145 41
-2 5 6 5434.85 349.446 30
-2 5 6 4667.62 377.715 23
2 -5 -6 4566.32 396.145 6
2 -5 -5 5668.39 395.297 40
2 -5 -5 5242.66 398.348 6
-2 5 5 5296.26 338.257 1
-2 5 5 5669.14 351.729 41
-2 5 5 4945.8 371.591 23
-2 5 5 5713.75 333.399 30
-2 5 4 20.3996 44.3393 41
-2 5 4 119.423 55.2735 1
-2 5 4 -61.4058 44.9408 37
2 -5 -4 36.1545 49.117 40
-2 5 4 -85.6174 63.4578 23
-2 5 4 19.5196 42.8147 30
2 -5 -4 207.499 85.6186 38
2 -5 -4 58.9103 40.5892 22
2 -5 -3 460.855 119.23 38
-2 5 3 449.371 96.7537 1
2 -5 -3 469.365 108.419 22
-2 5 3 351.377 75.4257 30
-2 5 3 366.907 79.0211 37
-2 5 3 320.858 91.8612 23
2 -5 -2 9999.03 470.21 38
-2 5 2 10132.8 439.956 23
-2 5 2 10532 343.959 33
-2 5 2 10188.8 438.942 1
-2 5 2 10994.5 376.748 37
2 -5 -2 10891.7 460.048 22
2 -5 -1 12.0465 41.7063 38
-2 5 1 108.999 46.9601 33
-2 5 1 206.069 55.3437 37
-2 5 1 137.066 62.2974 1
2 -5 -1 310.846 90.9351 22
-2 5 0 11323.1 443.883 1
-2 5 0 11816 373.953 33
2 -5 0 11210.9 447.774 22
2 -5 0 11145.8 424.451 38
-2 5 -1 9521.9 347.32 33
-2 5 -1 9255.71 390.226 1
2 -5 1 9024.57 388.33 22
-2 5 -2 142344 1478.52 1
2 -5 2 139119 1436.41 22
2 -5 3 628.897 103.178 22
-2 5 -3 665.66 105.746 1
2 -5 3 627.839 138.787 42
2 -5 4 171.251 58.4534 22
2 -5 4 137.747 101.24 31
-2 5 -4 303.291 80.8221 4
-2 5 -4 117.858 45.7481 1
2 -5 4 190.64 77.8486 42
-2 5 -5 29676.4 806.476 4
2 -5 5 27471.5 651.178 22
2 -5 5 27052.6 855 42
2 -5 5 29576.3 899.717 31
2 -5 6 176.69 61.4679 22
-2 5 -6 41.6137 54.111 4
2 -5 6 188.79 121.079 31
2 -5 6 253.475 100.022 42
2 -5 7 1142.02 140.307 22
-2 5 -7 1286.38 209.195 4
2 -5 7 1275.25 214.196 31
2 -5 7 1473.86 194.823 35
2 -5 8 6238.67 414.511 35
2 -5 8 6079.93 399.623 27
-2 5 -8 5702.17 205.684 15
-2 5 -8 6098.72 224.528 17
-2 5 -8 5596.03 206.248 20
-2 5 -8 6246.96 456.45 4
2 -5 9 955.686 172.849 27
-2 5 -9 841.662 87.0802 20
-2 5 -9 821.15 90.8883 17
2 -5 9 779.413 154.13 35
-2 5 -9 796.454 87.5463 15
2 -5 10 167.457 88.7363 35
-2 5 -10 115.017 45.8989 15
-2 5 -10 107.886 42.2813 20
-2 5 -10 136.644 51.1337 17
-2 5 -11 1445.63 118.231 15
-2 5 -11 1344.65 113.456 20
-2 5 -11 1533.87 124.832 17
2 -5 11 1229.75 189.59 35
-2 5 -12 181.455 52.6115 15
-2 5 -12 102.979 38.7261 20
-2 5 -12 120.349 51.9597 17
-2 5 -13 641.344 75.3414 15
-2 5 -14 385.043 50.3141 15
2 -4 -13 534.898 55.9534 19
-2 4 13 447.068 39.4551 47
2 -4 -12 512.352 70.1373 19
2 -4 -12 472.251 55.6863 13
2 -4 -11 135.046 40.636 13
-2 4 10 7549.3 457.608 41
2 -4 -10 7419.02 249.846 13
2 -4 -10 7587.46 262.34 51
2 -4 -10 7748.48 268.131 9
-2 4 9 4700.97 368.888 41
-2 4 9 4624.39 365.428 30
2 -4 -9 4922.16 214.982 9
2 -4 -9 4872.72 223.839 51
2 -4 -9 4685.3 200.698 10
2 -4 -9 4935.5 206.05 13
2 -4 -8 9443.45 276.712 13
-2 4 8 9217.77 498.609 30
2 -4 -8 8852.13 272.786 10
2 -4 -8 9174.9 309.505 51
-2 4 8 9574.15 517.278 41
2 -4 -8 9325.62 284.187 9
-2 4 7 783.789 143.646 30
2 -4 -7 835.221 83.8065 10
-2 4 7 674.552 132.807 41
2 -4 -7 807.991 157.632 2
2 -4 -7 789.297 82.3032 9
2 -4 -7 605.543 82.5436 51
-2 4 6 547.682 119.646 30
-2 4 6 464.414 110.765 41
-2 4 6 651.673 134.183 23
2 -4 -6 467.23 113.448 6
2 -4 -5 1406.67 209.876 38
-2 4 5 1411.61 186.646 23
-2 4 5 1608.59 170.499 30
-2 4 5 1613.73 182.398 41
2 -4 -5 1702.75 201.7 6
-2 4 5 1429.24 159.938 1
2 -4 -5 1333.39 176.584 40
2 -4 -4 64.6973 61.7438 38
-2 4 4 32.5772 34.9165 1
2 -4 -4 -41.6798 30.7941 22
-2 4 4 -14.7621 36.2005 30
-2 4 4 147.027 54.5555 41
-2 4 4 69.1242 50.1482 23
2 -4 -4 86.2888 43.9268 6
2 -4 -4 73.5013 56.1631 40
-2 4 3 102578 1239.61 41
-2 4 3 100197 1104.33 30
2 -4 -3 96657.8 1496.08 38
-2 4 3 95192.3 1226.36 1
-2 4 3 93434.8 1293.81 23
2 -4 -3 100940 1255.51 22
-2 4 2 47652 861.628 23
-2 4 2 52700.4 742.137 30
-2 4 2 51194.1 837.953 41
-2 4 2 49940.6 861.929 1
2 -4 -2 53567.2 899.652 22
2 -4 -2 49919.5 989.832 38
-2 4 1 1435.19 115.973 37
2 -4 -1 1595.01 157.339 22
-2 4 1 1215.71 136.793 1
-2 4 1 1380.98 141.639 23
2 -4 -1 1615 168.984 38
-2 4 0 1138.8 128.699 1
2 -4 0 1069.9 132.393 22
-2 4 0 1057.11 104.706 33
2 -4 1 1448.16 149.685 22
-2 4 -1 1770.9 140.805 33
-2 4 -1 1556.2 144.037 1
2 -4 1 1607.73 180.418 42
2 -4 2 10683.7 432.167 31
2 -4 2 9806.45 353.292 22
-2 4 -2 10468.2 354.604 1
2 -4 2 9582.65 442.873 42
-2 4 -2 9764.28 253.277 5
-2 4 -3 17988.9 361.38 5
2 -4 3 18719.8 594.334 31
-2 4 -3 18535.2 460.555 1
2 -4 3 18421.5 466.033 22
2 -4 3 17017.4 594.548 42
2 -4 4 2499.45 236.812 31
-2 4 -4 2281.08 155.081 1
-2 4 -4 2377.03 197.495 4
2 -4 4 2501.52 175.366 22
-2 4 -4 2539.19 150.163 5
2 -4 4 2472.36 244.595 42
2 -4 5 33956.2 654.684 22
2 -4 5 34201.7 884.499 31
2 -4 5 32953.9 868.211 42
2 -4 6 520.809 84.4536 22
-2 4 -6 363.612 95.9303 4
2 -4 6 483.055 125.643 42
2 -4 6 407.276 124.865 31
-2 4 -7 10342.1 519.521 4
2 -4 7 10137 386.165 22
-2 4 -8 -12.178 60.7695 4
2 -4 8 71.7842 96.1682 31
-2 4 -9 501.16 67.5164 15
-2 4 -9 664.474 162.636 4
2 -4 9 371.148 110.246 35
2 -4 9 484.83 136.31 31
-2 4 -9 534.475 70.6737 17
2 -4 9 259.898 94.2451 27
-2 4 -9 666.447 75.9784 20
-2 4 -10 1716.94 126.793 15
-2 4 -10 1638.25 122.548 20
2 -4 10 1664.85 219.312 35
2 -4 10 1726.82 234.898 27
-2 4 -10 1729.6 127.751 17
-2 4 -11 14006.1 358.578 15
2 -4 11 14533.1 636.377 35
-2 4 -11 13771 359.707 17
-2 4 -11 13617.8 351.993 20
-2 4 -12 414.435 71.5022 15
-2 4 -12 441.303 74.4169 17
-2 4 -12 364.4 63.2989 20
-2 4 -13 4942.45 200.942 15
-2 4 -14 1915.22 112.88 15
-2 4 -15 2116.64 91.7762 15
2 -3 -13 3200.64 120.314 13
2 -3 -13 3498.47 146.107 19
2 -3 -12 1627.9 106.99 13
-2 3 11 6028.8 402.497 41
2 -3 -11 5890.69 219.003 13
2 -3 -11 6072.04 231.926 9
2 -3 -10 1248.13 114.692 9
-2 3 10 1174.46 182.956 41
2 -3 -10 1220.77 110.064 13
-2 3 9 25708.5 864.876 41
-2 3 9 25919.2 865.713 30
2 -3 -9 26871.7 501.891 51
2 -3 -9 27285.8 497.725 9
-2 3 8 7954.56 467.594 41
2 -3 -8 7547.79 239.219 10
-2 3 8 7274.41 462.79 32
2 -3 -8 8208.97 262.436 9
2 -3 -8 7467.69 267.745 51
-2 3 7 5032.88 356.254 32
2 -3 -7 5677.83 407.772 6
2 -3 -7 4512.6 349.709 2
-2 3 7 5024.61 352.851 41
-2 3 6 13944.2 545.91 32
-2 3 6 13115.5 553.729 23
2 -3 -6 13083.1 566.812 6
-2 3 6 13841.3 539.652 41
-2 3 5 13304.5 489.798 41
2 -3 -5 13903.7 626.379 38
2 -3 -5 12930.7 514.328 6
-2 3 5 13413.4 521.509 23
-2 3 5 14179 510.234 32
-2 3 5 14006.6 461.372 1
2 -3 -4 4619.74 277.644 40
-2 3 4 4122.32 243.297 1
-2 3 4 4663.5 270.173 32
-2 3 4 4451.51 264.446 41
2 -3 -4 4147.57 270.508 6
2 -3 -4 4780.64 254.152 22
2 -3 -4 4302.32 327.643 38
-2 3 4 4082.15 271.463 23
-2 3 3 26316.4 591.796 41
2 -3 -3 25630 568.238 22
2 -3 -3 24016.1 705.678 38
-2 3 3 25703.5 572.583 1
-2 3 3 24433.8 608.699 23
-2 3 2 54884.1 697.074 30
-2 3 2 52413.3 784.852 1
-2 3 2 51328.9 812.886 23
2 -3 -2 56029.2 815.205 22
2 -3 -2 51174.8 944.985 38
-2 3 2 54487.2 793.341 41
-2 3 1 1752.66 144.047 1
-2 3 1 1847.95 115.219 30
-2 3 1 1728.58 138.765 23
2 -3 -1 2017.05 151.307 22
-2 3 1 2072.21 148.644 41
-2 3 0 38763.9 593.686 23
-2 3 0 37996.6 625.634 1
-2 3 -1 3697.37 179.51 33
2 -3 1 3319.27 187.183 22
-2 3 -1 3353.2 181.387 1
2 -3 1 3193.8 199.269 31
-2 3 -2 31837.5 533.008 1
-2 3 -2 31751.2 560.15 33
2 -3 2 31364.7 639.128 31
-2 3 -2 30877.9 396.385 23
2 -3 2 30417 553.569 22
-2 3 -3 29946.6 284.911 23
2 -3 3 32855 711.615 28
-2 3 -3 31714.8 504.628 5
-2 3 -3 32657.6 519.951 1
2 -3 3 33125.5 572.573 22
2 -3 3 29808.4 327.345 25
2 -3 3 33267.8 685.669 31
2 -3 4 74488.4 1080.6 31
-2 3 -4 73595.5 746.107 1
2 -3 4 71988.3 828.344 22
2 -3 4 74108.8 1120.48 42
2 -3 4 74726 1115.29 28
-2 3 -4 72088.4 832.949 5
2 -3 5 3995.46 278.732 42
2 -3 5 4303.63 283.266 28
-2 3 -5 4227.69 260.99 4
2 -3 5 4177.79 207.026 22
2 -3 5 4192.18 282.621 31
-2 3 -5 4344 226.603 5
2 -3 6 85198.9 1301.46 42
2 -3 6 88201.7 1341.24 31
2 -3 6 85834.2 1317.16 28
2 -3 6 86961 978.925 22
-2 3 -6 87739.7 1284.24 4
-2 3 -7 8800.75 445.261 4
2 -3 7 10076.4 479.994 28
2 -3 7 9663.63 341.837 22
2 -3 7 9108.58 454.465 42
2 -3 7 9865.86 486.845 31
-2 3 -8 627.84 134.598 4
2 -3 8 645.818 146.374 28
2 -3 8 392.768 115.117 31
2 -3 9 2060.11 228.518 35
2 -3 9 2433.26 286.407 31
-2 3 -9 2442.84 280.297 4
2 -3 9 2229.06 243.192 27
2 -3 10 11138.4 536.534 35
2 -3 10 11073.5 574.129 27
-2 3 -10 10591.1 304.657 20
2 -3 10 11495.3 599.018 26
-2 3 -10 10853.3 304.361 17
-2 3 -10 10903.8 306.533 15
-2 3 -11 1453.27 120.9 15
-2 3 -11 1537.85 122.302 20
-2 3 -11 1426.28 117.27 17
-2 3 -12 620.602 80.0736 20
-2 3 -12 506.174 78.8732 15
-2 3 -12 567.817 79.5234 17
2 -3 12 460.397 135.528 34
-2 3 -13 1623.5 124.592 15
-2 3 -14 563.49 65.5333 13
-2 3 -14 633.123 74.6164 15
-2 3 -15 976.728 73.6476 15
2 -2 -13 283.391 46.5179 13
2 -2 -13 361.861 57.3061 19
2 -2 -12 3197.49 154.765 13
2 -2 -12 3192.42 162.786 9
-2 2 12 3248.15 120.456 48
2 -2 -11 7340.99 251.52 13
-2 2 11 7066.31 448.466 41
2 -2 -11 7197.04 257.541 9
-2 2 10 115.62 74.0913 41
-2 2 10 287.336 105.763 32
2 -2 -10 87.192 47.1061 9
-2 2 9 1863.65 239.241 41
-2 2 9 1854.77 248.509 32
2 -2 -9 2131.22 141.105 9
-2 2 8 1178.9 186.832 41
-2 2 8 1383.28 202.757 32
2 -2 -8 1288.33 192.566 2
-2 2 8 1160.79 172.051 24
2 -2 -8 1348.97 107.6 9
-2 2 7 17084.4 645.527 32
2 -2 -7 16408.6 645.067 2
-2 2 7 15887.6 616.949 41
2 -2 -7 16384.7 655.29 6
-2 2 6 3485.02 267.422 41
-2 2 6 3408.04 265.474 32
2 -2 -6 3553 333.65 38
2 -2 -6 3274.32 269.078 6
2 -2 -6 3633.08 282.78 2
-2 2 5 82611.8 1190.38 41
2 -2 -5 78240.3 1017.04 1
-2 2 5 88008.8 1220.52 32
2 -2 -5 84423.8 1222.67 6
-2 2 5 82553.8 1214.47 23
2 -2 -5 84298.4 1474.18 38
-2 2 4 32672.4 704.648 23
2 -2 -4 31724.7 834.022 38
-2 2 4 33263.8 684.584 41
-2 2 4 33592.5 633.709 1
2 -2 -4 32109.3 674.732 6
-2 2 3 19154.4 474.341 41
2 -2 -3 17965.4 578.11 38
-2 2 3 17635.6 437.52 1
-2 2 3 18218.4 486.659 23
-2 2 3 18729.3 459.009 32
2 -2 -3 18501.4 459.437 6
2 -2 -3 17759.3 437.948 22
-2 2 2 425.355 66.1497 32
2 -2 -2 397.883 65.5703 22
-2 2 2 480.107 76.6925 23
-2 2 2 457.281 70.5735 1
-2 2 1 5346.66 217.634 23
-2 2 1 5485.24 217.522 1
2 -2 -1 5661.53 222.077 22
-2 2 0 6481.87 214.733 23
-2 2 0 6815.54 230.902 1
2 -2 0 6821.36 236.666 22
2 -2 0 6126.06 218.555 31
-2 2 -1 109061 741.8 23
2 -2 1 108228 894.336 22
-2 2 -1 111045 893.669 1
2 -2 1 109522 953.187 31
-2 2 -2 47895.2 553.304 1
-2 2 -2 47434 383.9 23
2 -2 2 46622.9 584.864 22
2 -2 3 339292 1333.53 25
2 -2 3 333525 1560.22 22
2 -2 3 336228 1958.78 28
-2 2 -4 188341 951.096 1
2 -2 4 196292 1223.49 22
-2 2 -4 184435 1379.13 5
2 -2 4 186621 1541.11 28
-2 2 -4 194652 1468.4 4
2 -2 5 52.5364 48.8809 28
2 -2 5 11.3734 28.8592 22
-2 2 -5 105.368 46.6023 5
2 -2 6 9497.82 404.673 28
-2 2 -6 10330.3 414.473 4
2 -2 6 10213.8 301.382 22
2 -2 7 11486.2 334.628 22
-2 2 -7 11026.5 471.225 4
2 -2 7 11978 488.144 28
2 -2 8 10393.3 494.697 31
2 -2 8 10390.5 484.011 28
-2 2 -8 9957.96 490.735 4
-2 2 -9 -56.0586 73.8449 4
2 -2 9 -26.3471 37.4639 27
2 -2 9 45.7537 63.0218 31
-2 2 -10 8494.76 261.791 12
2 -2 10 8532.6 498.606 26
-2 2 -10 8294.67 267.228 20
-2 2 -10 8224.53 257.187 17
-2 2 -10 8164.81 262.735 15
-2 2 -10 8726.34 540.751 4
2 -2 10 8521.81 485.008 27
-2 2 -11 5663.41 230.079 15
2 -2 11 6417.32 436.538 27
-2 2 -11 5881.05 228.343 17
-2 2 -11 5724.58 230.992 20
-2 2 -12 1108.72 104.632 20
-2 2 -12 1084.74 110.297 15
-2 2 -13 6401.36 246.918 15
-2 2 -13 5496.75 211.048 20
-2 2 -14 125.659 49.1279 15
-2 2 -14 130.487 47.3047 13
-2 2 -15 41.5986 28.4504 13
-2 2 -15 15.7731 30.3378 15
2 -1 -13 4293.96 161.249 13
-2 1 13 4561.83 121.218 48
2 -1 -12 2688.88 147.664 13
2 -1 -12 2455.46 128.618 15
2 -1 -12 2638.03 151.722 9
-2 1 11 10704.4 561.245 41
2 -1 -11 10820.6 293.808 15
2 -1 -11 11385.6 322.699 9
2 -1 -10 563.336 73.9648 15
-2 1 10 416.874 139.053 32
-2 1 10 801.277 167.101 41
2 -1 -10 692.093 89.8819 9
-2 1 9 641.365 138.205 41
2 -1 -9 701.409 78.2441 15
-2 1 9 613.384 140.465 32
2 -1 -9 693.144 85.5033 9
-2 1 8 6067.56 410.873 32
-2 1 8 5763.47 398.556 41
2 -1 -8 6094.41 426.493 6
-2 1 8 6426.36 388.708 34
-2 1 8 6237.68 391.102 24
2 -1 -8 6315.09 221.138 9
2 -1 -8 5892.74 406.434 2
-2 1 7 46882 1002.96 24
-2 1 7 48710.3 1069.38 32
-2 1 7 47495 986.731 34
2 -1 -7 44875.8 1038.01 2
2 -1 -7 47539.5 1082.72 6
2 -1 -6 33638.1 971.211 38
2 -1 -6 33873 824.652 6
-2 1 6 35145 832.907 32
2 -1 -6 33765.5 834.34 2
-2 1 6 33717.2 770.446 34
2 -1 -5 10564.9 413.568 6
2 -1 -5 10938.1 509.089 38
-2 1 5 9391.75 373.122 34
-2 1 5 9936.23 400.587 32
2 -1 -5 9344.82 405.219 2
2 -1 -5 9894.28 336.055 1
2 -1 -4 88303.1 1050.37 6
2 -1 -4 87145.4 1311.29 38
-2 1 4 90198.1 1052.37 34
2 -1 -4 87011.8 940.748 1
-2 1 3 10051.9 336.559 23
-2 1 3 10578.3 325.063 34
-2 1 3 10415.1 308.031 1
-2 1 3 10246.2 322.202 32
2 -1 -3 10031.6 410.677 38
2 -1 -3 10138.9 310.934 6
-2 1 2 33799.2 521.03 32
-2 1 2 34209 529.22 34
-2 1 2 34350.7 561.773 23
2 -1 -2 33263.6 521.249 22
-2 1 2 32754.3 513.51 1
2 -1 -2 33185.8 477.409 6
-2 1 1 107672 883.06 23
-2 1 1 105917 855.924 1
2 -1 -1 107221 706.686 6
2 -1 0 225589 1165.47 22
-2 1 0 222585 1102.82 23
-2 1 0 225913 1166.98 1
2 -1 1 651.245 62.5656 22
-2 1 -1 564.766 47.6783 4
-2 1 -1 609.357 58.5162 1
-2 1 -2 142351 543.149 24
-2 1 -2 145962 805.984 1
-2 1 -2 146185 890.375 4
2 -1 2 141813 846.38 22
-2 1 -3 8843.5 177.791 1
2 -1 3 8793.55 247.495 25
-2 1 -3 8735.21 271.815 5
-2 1 -3 9299.93 252.565 6
2 -1 3 8837 211.69 22
-2 1 -4 1417.71 120.942 4
-2 1 -4 1670.43 130.046 6
-2 1 -4 1636.12 139.108 5
2 -1 4 1489.23 91.1794 22
-2 1 -5 15599 435.635 4
-2 1 -5 15918.7 440.188 6
-2 1 -5 16115 390.163 2
-2 1 -5 15765.9 453.402 5
2 -1 5 15373.6 298.289 22
-2 1 -6 264.798 77.9078 4
-2 1 -6 287.542 80.0333 6
-2 1 -6 324.326 63.8272 2
2 -1 6 264.177 45.0384 22
-2 1 -7 21.4022 49.5711 4
-2 1 -7 124.731 80.952 6
-2 1 -7 40.3532 35.2478 2
-2 1 -8 3825.87 304.08 6
-2 1 -8 3184.45 272.25 4
2 -1 9 26848.9 754.893 27
2 -1 9 28194.8 816.142 31
2 -1 9 27053.2 784.83 26
-2 1 -10 9369.75 278.919 15
-2 1 -10 9311.81 278.81 20
-2 1 -10 9489.11 270.165 12
2 -1 10 10430.6 505.862 27
2 -1 10 10250.1 525.878 26
-2 1 -10 9213.37 267.081 17
2 -1 11 1124.29 182.64 34
-2 1 -11 1072.81 99.0356 12
-2 1 -11 1151.64 108.971 15
-2 1 -11 953.436 95.8649 20
-2 1 -11 983.912 97.5845 17
-2 1 -12 935.624 103.213 15
2 -1 12 833.42 172.303 32
-2 1 -12 927.37 91.9135 20
-2 1 -13 445.254 76.499 15
-2 1 -14 528.336 78.5018 15
-2 1 -14 557.958 72.9764 13
-2 1 -15 341.249 54.5135 15
-2 1 -15 363.712 52.404 13
2 0 -13 12625.4 249.194 15
2 0 -13 12975.1 286.027 13
2 0 -13 13172.6 286.982 9
2 0 -12 5835.03 204.61 15
2 0 -12 5821.54 219.242 9
2 0 -11 6179.98 238.838 9
-2 0 11 5691.77 416.209 41
2 0 -11 5970.86 224.679 15
-2 0 10 3766.36 359.241 32
-2 0 10 3644.28 341.77 41
2 0 -10 3901.62 191.025 9
2 0 -10 3847.54 182.593 15
2 0 -9 14995.3 348.797 15
-2 0 9 15608.5 699.285 32
-2 0 9 15520.4 648.321 34
2 0 -9 15136.6 357.401 9
-2 0 8 421.507 111.78 34
-2 0 8 443.434 114.216 32
2 0 -8 369.048 59.4534 9
2 0 -8 458.74 119.649 2
-2 0 7 2034.3 206.798 24
2 0 -7 2166.15 231.936 6
2 0 -7 2133.1 231.815 2
2 0 -6 5162.04 318.784 6
2 0 -6 5379.49 329.029 2
-2 0 6 5414.97 306.627 24
-2 0 6 5072.13 308.757 34
2 0 -5 12949.1 523.229 38
-2 0 5 12342.2 437.856 34
2 0 -5 12412.1 453.736 2
2 0 -5 11891.3 429.165 6
-2 0 5 12153.5 417.092 24
2 0 -5 12289.4 356.583 1
-2 0 4 6283.24 273.77 24
2 0 -4 6935.78 306.633 2
-2 0 4 6374.93 284.957 34
2 0 -4 6380.61 341.023 38
2 0 -4 7309.89 297.348 6
2 0 -4 6776.33 251.713 1
2 0 -3 4179.62 193.841 6
-2 0 3 4201.45 209.207 34
2 0 -3 4056.51 182.14 1
-2 0 2 16664.7 369.991 34
2 0 -2 16663.1 319.886 6
2 0 -2 16534.8 341.562 1
-2 0 2 16120.3 266.65 21
2 0 -1 436829 1227.84 6
2 0 -1 442136 1642.14 1
-2 0 0 53506.5 504.135 24
-2 0 0 51554.4 511.241 1
2 0 0 52899.4 522.631 1
-2 0 0 51284 476.487 21
2 0 0 52736.4 511.152 22
-2 0 -1 68186.3 490.691 24
2 0 1 67081.6 522.072 22
-2 0 -1 66826.3 427.879 4
2 0 1 68579 543.78 1
-2 0 -2 59105.4 523.026 4
-2 0 -2 59753 465.177 6
2 0 2 58611.6 451.98 1
2 0 2 58340.7 429.311 22
-2 0 -2 58694.5 401.604 24
-2 0 -3 46192.1 532.008 3
2 0 3 50830.9 614.748 25
2 0 3 50605.7 363.279 1
-2 0 -3 49003.3 465.994 21
-2 0 -3 47762.9 541.567 6
2 0 3 48018.2 367.746 22
-2 0 -4 88422.3 925.032 5
-2 0 -4 88391.2 661.222 2
-2 0 -4 86425 606.743 21
-2 0 -4 90693.8 887.523 6
2 0 4 84931.6 499.697 22
-2 0 -5 43976.9 709.458 4
-2 0 -5 44359 730.418 5
-2 0 -5 43596.1 539.758 2
-2 0 -5 43688.2 714.367 6
2 0 5 41521.9 370.27 22
-2 0 -6 2938.62 213.718 6
-2 0 -6 2577.95 151.705 2
-2 0 -6 2875.25 210.125 4
-2 0 -7 103213 1087.37 2
-2 0 -7 105672 1367.67 4
2 0 8 410.842 85.6935 26
-2 0 -8 227.308 83.9335 6
-2 0 -8 312.559 97.6689 4
2 0 9 8272.31 395.287 27
2 0 9 8391.61 416.85 26
-2 0 -9 8953.48 505.74 6
-2 0 -10 577.957 141.92 6
-2 0 -10 651.563 79.5046 15
2 0 10 575.604 130.412 26
-2 0 -11 7.70559 26.6693 9
-2 0 -11 94.0434 39.4734 12
2 0 12 483.475 135.31 32
-2 0 -12 599.827 85.2878 15
-2 0 -12 368.002 63.4309 9
-2 0 -12 462.741 70.1658 12
-2 0 -13 101.391 53.0682 15
-2 0 -14 1082.84 102.562 15
-2 0 -14 1117.42 99.5704 13
-2 0 -14 952.726 83.8485 19
-2 0 -15 138.959 42.142 13
-2 0 -15 171.454 46.0028 15
2 1 -13 1458.26 98.3821 9
2 1 -13 1419.35 91.4842 15
2 1 -12 2468.69 138.623 15
2 1 -12 2634.1 147.64 9
-2 -1 11 182.872 79.6372 41
2 1 -11 122.874 48.1576 15
2 1 -11 110.28 49.6255 9
-2 -1 10 25177 855.679 34
-2 -1 10 27473.4 956.98 32
2 1 -10 25947.4 479.032 15
2 1 -10 25878.7 481.678 9
-2 -1 9 21087.9 773.912 34
-2 -1 9 22227.2 837.92 32
2 1 -9 21916.1 430.123 9
2 1 -9 21665.6 424.11 15
2 1 -8 33550.3 985.529 2
-2 -1 8 33514.1 943.327 34
2 1 -8 33439.1 500.339 9
-2 -1 7 4227.96 315.232 34
-2 -1 7 4444.41 291.99 24
2 1 -7 3690.42 304.911 2
-2 -1 6 821.968 137.398 34
-2 -1 6 1043.66 151.252 26
-2 -1 6 952.64 129.893 24
2 1 -6 1006.65 148.12 2
-2 -1 5 159.448 58.2802 24
2 1 -5 84.0565 39.0173 4
-2 -1 5 89.4915 43.8878 35
-2 -1 5 95.3348 54.8992 34
-2 -1 5 245.884 81.6893 26
2 1 -5 118.383 38.8069 1
2 1 -5 230.342 70.9973 2
2 1 -5 238.282 80.4534 38
2 1 -4 43061.4 630.462 1
-2 -1 4 44866.5 772.202 34
2 1 -4 42947.5 818.931 38
-2 -1 4 42169.9 691.063 24
2 1 -4 46554.3 766.377 6
-2 -1 4 44331.1 776.093 26
-2 -1 4 43416.4 654.492 35
2 1 -4 42001.6 566.361 4
2 1 -4 44346.8 767.481 2
2 1 -3 44023.5 490.016 4
-2 -1 3 42444.9 677.482 26
-2 -1 3 41564.3 593.078 35
-2 -1 3 45091.2 700.004 34
2 1 -3 44440.2 682.748 2
-2 -1 3 44080.6 442.916 21
2 1 -3 45398.7 605.985 1
-2 -1 3 42518.3 630.078 24
2 1 -3 44984.2 651.298 6
-2 -1 2 75773.6 756.39 24
-2 -1 2 76707.5 797.786 26
2 1 -2 75895.3 789.055 2
2 1 -2 73582.8 510.421 4
2 1 -2 73730.8 722.697 1
-2 -1 1 4102.76 140.235 21
-2 -1 1 4412.41 164.94 26
-2 -1 1 4359.47 166.039 24
2 1 -1 4352.47 164.131 1
2 1 -1 4164.82 160.404 2
-2 -1 0 76535.6 621.857 24
2 1 0 75641.9 635.367 1
2 1 0 76447.7 564.168 2
2 1 1 76827.3 418.711 2
2 1 1 75809 595.777 1
-2 -1 -1 75899.9 570.934 24
-2 -1 -2 2748.6 109.597 24
2 1 2 2688.42 105.018 1
-2 -1 -3 45458.9 552.515 6
2 1 3 47822.7 413.128 1
2 1 3 45566.4 490.248 30
-2 -1 -3 42762 445.231 21
-2 -1 -3 44923.8 570.615 3
-2 -1 -4 18178.3 406.66 3
-2 -1 -4 17557.5 282.527 21
2 1 4 19827.6 244.977 1
-2 -1 -4 18966.9 237.645 2
-2 -1 -4 17788.2 405.644 6
2 1 4 18580 429.453 25
-2 -1 -5 12636 384.776 4
-2 -1 -5 14190.9 417.732 6
-2 -1 -5 14283.7 400.514 5
-2 -1 -5 12817.6 231.046 21
-2 -1 -5 13705.8 406.174 3
-2 -1 -5 13992.3 266.895 2
2 1 6 6101.75 220.891 23
-2 -1 -6 5331.67 197.675 2
2 1 6 5418.84 226.98 26
-2 -1 -6 5668.82 300.187 6
2 1 7 16300.7 445.386 26
-2 -1 -7 15199.6 547.408 6
2 1 8 62254.8 980.383 26
-2 -1 -8 58816.1 1176.23 6
2 1 9 1989.1 211.542 32
-2 -1 -9 2234.75 254.832 6
2 1 9 1984.64 193.741 26
-2 -1 -10 6247.19 233.583 15
2 1 10 6097.76 385.119 32
-2 -1 -10 6744.55 477.608 6
-2 -1 -11 2825.97 168.945 15
2 1 11 2866.55 285.402 32
-2 -1 -11 3169.61 162.292 12
-2 -1 -11 2909.36 158.981 9
-2 -1 -12 3324.51 186.768 15
2 1 12 3120.6 304.66 32
-2 -1 -12 2985.75 165.929 9
2 1 12 3275.35 331.836 30
-2 -1 -13 1637.77 131.845 15
-2 -1 -13 1563.68 126.207 13
-2 -1 -14 107.424 46.0754 13
-2 -1 -14 90.109 36.6091 19
-2 -1 -14 102.6 50.5545 15
-2 -1 -15 36.2767 33.6133 13
-2 -1 -15 37.5739 37.8009 15
-2 -1 -15 -13.5355 22.5812 19
2 2 -13 381.087 55.969 9
2 2 -13 356.923 53.0281 15
2 2 -12 92.4052 43.7455 15
2 2 -12 52.6273 37.5917 9
2 2 -11 486.174 77.5629 15
2 2 -11 530.253 75.3431 9
-2 -2 10 226.604 86.2819 34
2 2 -10 124.535 52.2188 15
2 2 -10 18.6307 40.2643 9
-2 -2 9 21201.4 797.573 34
2 2 -9 21678.2 427.898 9
2 2 -9 21821.8 432.542 15
2 2 -8 7826.75 246.558 15
2 2 -8 8186.16 500.166 2
-2 -2 8 7510.22 459.989 34
2 2 -8 7484.12 231.176 17
2 2 -8 8028.88 248.891 9
-2 -2 7 9949.36 491.942 34
-2 -2 7 10087.3 503.998 26
2 2 -7 9849.56 502.886 2
-2 -2 6 216.705 66.7579 24
-2 -2 6 298.689 72.3926 35
2 2 -6 -20.3967 47.9787 2
-2 -2 6 13.7876 50.2567 34
-2 -2 6 134.847 70.9195 26
2 2 -5 13370.2 391.512 4
2 2 -5 13291.7 482.646 2
-2 -2 5 13352.3 436.31 35
-2 -2 5 14419.8 503.904 26
-2 -2 5 14105.5 495.642 34
-2 -2 5 13877.3 428.535 24
2 2 -4 11861.9 330.456 4
2 2 -4 12706 359.049 1
-2 -2 4 12788.2 378.02 24
-2 -2 4 12843.4 429.823 26
2 2 -4 13021.6 431.781 2
-2 -2 4 12452.7 390.163 35
-2 -2 3 1227.2 116.051 35
2 2 -3 1121.24 118.229 2
-2 -2 3 1470.23 121.357 24
2 2 -3 1104.98 101.901 1
-2 -2 3 1426.13 92.0573 21
-2 -2 3 1341.49 124.986 26
2 2 -3 1229.29 95.4837 4
2 2 -2 179869 1198.57 1
-2 -2 2 183654 1205.57 24
2 2 -2 177832 1263.81 2
-2 -2 2 177353 1030.37 21
-2 -2 2 179748 1270.33 35
-2 -2 2 186350 1271.8 26
-2 -2 1 999999 2606.18 24
-2 -2 -1 228818 1137.38 24
2 2 1 230359 931.06 2
2 2 2 521606 1748.11 1
-2 -2 -2 523060 1623.05 5
2 2 3 15411 334.01 30
-2 -2 -3 15647.1 304.664 21
2 2 3 15194.4 298.779 1
2 2 4 7215.72 249.585 30
-2 -2 -4 7244.37 281.654 3
2 2 4 7262.84 215.162 32
-2 -2 -4 7230.3 145.111 2
-2 -2 -4 8251.31 262.343 5
-2 -2 -4 6950.33 284.852 6
2 2 4 7893.94 215.312 1
-2 -2 -4 7127.3 204.411 21
2 2 4 7873.55 301.594 25
2 2 4 7085.44 157.187 26
-2 -2 -5 50474.4 818.48 3
2 2 5 54326.2 863.089 25
-2 -2 -5 51485.1 491.632 2
-2 -2 -5 49304.8 525.691 21
-2 -2 -5 51744 839.621 6
2 2 5 50861.5 539.133 26
2 2 5 52555.2 473.972 1
-2 -2 -6 11301.2 427.481 3
2 2 6 12057.2 369.855 32
-2 -2 -6 11928.1 452.335 6
2 2 6 12343.6 443.986 25
-2 -2 -6 12721.1 293.524 2
2 2 6 12524.6 319.361 26
2 2 7 600.325 97.9961 32
2 2 7 538.493 83.2546 23
2 2 7 583.909 79.5963 26
-2 -2 -7 508.794 109.269 6
2 2 8 8828.16 392.792 32
2 2 8 9108.44 462.562 25
-2 -2 -8 9016.69 476.96 6
2 2 9 3431.92 315.429 25
2 2 9 3167.91 260.44 32
-2 -2 -9 3199.16 314.032 6
-2 -2 -10 12952.6 341.265 15
2 2 10 12624.2 523.883 41
2 2 10 13111.1 564.389 32
2 2 10 12540.3 569.542 30
-2 -2 -10 12368.4 318.958 9
-2 -2 -10 13777 694.568 6
2 2 10 13392.8 660.522 25
-2 -2 -11 5496.44 234.802 15
-2 -2 -11 5140.42 215.559 9
2 2 11 5162.01 392.291 30
2 2 11 5105.78 371.256 32
-2 -2 -12 8031.58 285.057 13
2 2 12 8005.41 496.105 30
-2 -2 -12 7430.38 277.244 15
-2 -2 -13 18299.4 414.705 13
-2 -2 -13 18569.2 422.343 15
-2 -2 -13 18935.4 426.258 19
-2 -2 -14 8681.26 267.325 15
-2 -2 -14 8546.74 265.349 13
-2 -2 -14 8224.82 256.676 19
-2 -2 -15 297.028 45.7195 19
-2 -2 -15 233.935 50.8843 13
2 3 -13 2322.85 115.167 15
2 3 -13 2113.21 100.201 9
2 3 -12 4814.62 193.423 15
2 3 -12 4425.46 175.987 9
2 3 -11 4190.5 194.62 15
2 3 -11 4124.04 184.89 9
2 3 -10 2299.76 152.75 15
2 3 -10 2321.91 146.759 9
-2 -3 10 2242.25 274.032 34
2 3 -9 8264.76 266.3 9
2 3 -9 7880.85 255.083 17
2 3 -9 8033.89 273.863 15
-2 -3 9 7509.87 489.363 34
-2 -3 8 1453.76 204.473 34
2 3 -8 1172.62 99.2568 9
2 3 -8 1197.75 101.777 61
2 3 -8 1210.69 99.3269 17
2 3 -8 865.455 179.144 2
-2 -3 8 1235.45 191.411 26
2 3 -8 1204.52 102.777 15
-2 -3 7 2664.14 266.323 34
-2 -3 7 2643.53 266.258 26
2 3 -7 2773.29 277.491 2
-2 -3 7 2525.87 233.546 35
-2 -3 6 11944 426.749 24
-2 -3 6 11484.5 506.115 34
2 3 -6 11218.5 510.804 2
-2 -3 6 11725.1 479.025 35
-2 -3 6 11257.6 501.616 26
-2 -3 5 15684.3 522.309 35
2 3 -5 15877.8 553.165 2
-2 -3 5 15588 536.22 26
-2 -3 5 16527.1 468.923 24
2 3 -5 15309 463.794 4
2 3 -4 125954 1221.43 4
-2 -3 4 127394 1385.98 35
2 3 -4 134607 1270.38 1
-2 -3 4 135326 1469.01 27
2 3 -4 123844 1402.94 2
-2 -3 4 131194 1223.59 24
-2 -3 4 129438 1398.92 26
-2 -3 3 11069.3 380.113 35
2 3 -3 11235 335.294 4
-2 -3 3 12034 395.167 27
-2 -3 3 11593.4 375.199 26
-2 -3 3 11290 296.191 21
2 3 -3 11164.7 383.737 2
-2 -3 3 11503.9 340.121 24
2 3 -3 11204.5 348.802 1
-2 -3 2 55401.6 791.083 35
-2 -3 2 56070.4 666.034 21
2 3 -2 57060.4 757.323 1
-2 -3 2 58102.5 783.613 27
-2 -3 2 58581.8 714.426 24
2 3 -2 56765.3 786.294 2
-2 -3 1 17686.5 417.501 35
-2 -3 1 17441.8 369.366 24
2 3 -1 17026.7 392.595 2
2 3 -1 17561.9 408.012 1
2 3 0 336283 1603.46 2
2 3 0 340073 1729.21 1
-2 -3 -1 253589 1354.22 24
2 3 1 253155 1470.85 1
-2 -3 -2 161099 839.784 5
2 3 2 160147 1167.24 1
2 3 3 1957.78 133.878 1
-2 -3 -3 2387.27 122.089 5
2 3 3 2268.75 164.504 25
2 3 3 2358.48 153.06 30
2 3 3 1922.65 141.324 37
-2 -3 -3 2161.17 88.8537 22
2 3 4 9687.08 314.44 30
-2 -3 -4 9352 271.02 21
2 3 4 10336.5 358.854 25
2 3 4 9877.66 293.664 1
2 3 4 9524.24 320.316 37
2 3 5 55567.1 664.277 1
2 3 5 51768.6 704.947 32
2 3 5 53956.8 794.067 30
-2 -3 -5 51332.4 631.011 21
-2 -3 -5 54694.4 922.022 3
-2 -3 -5 54843.4 944.597 6
-2 -3 -6 4289.13 290.556 6
2 3 6 3921.07 224.572 32
-2 -3 -6 4705.99 295.971 3
2 3 6 4398.36 254.275 30
2 3 6 4439.6 275.976 25
2 3 6 4763.6 223.294 41
2 3 7 537.962 85.4631 41
2 3 7 708.533 112.262 30
-2 -3 -7 358.646 95.5854 3
-2 -3 -7 601.659 126.905 6
2 3 7 657.805 106.245 32
2 3 7 657.156 119.932 25
2 3 8 680.801 123.07 30
-2 -3 -8 687.642 145.619 6
2 3 8 716.634 137.039 25
2 3 8 674.193 101.64 41
2 3 8 756.621 116.586 23
2 3 8 902.644 127.286 32
2 3 9 10563.6 555.265 25
-2 -3 -9 11053.2 594.706 6
2 3 9 10743.2 503.312 30
2 3 9 11055.7 485.203 32
-2 -3 -10 44598.8 629.062 9
2 3 10 45026.3 1046.89 32
-2 -3 -10 45469.8 632.86 13
2 3 10 44657.9 1093.85 30
-2 -3 -10 45607.6 644.519 15
2 3 10 47661.9 1260.69 25
-2 -3 -11 37014.9 605.73 15
2 3 11 36820.8 983.486 32
2 3 11 37600.4 1046.54 30
-2 -3 -11 37965.5 605.422 13
-2 -3 -12 22860.8 479.503 15
-2 -3 -12 22711.7 479.798 13
2 3 12 21990.4 819.776 30
-2 -3 -12 22493.1 482.572 19
-2 -3 -13 825.411 97.6976 13
-2 -3 -13 689.91 87.2427 15
-2 -3 -13 781.819 96.0837 19
-2 -3 -14 463.839 72.1587 13
-2 -3 -14 487.801 71.5781 19
-2 -3 -15 84.4382 36.145 19
-2 -3 -15 22.0606 28.7173 13
2 4 -13 441.109 53.0213 15
2 4 -12 668.755 78.6148 15
2 4 -12 526.266 62.6104 9
2 4 -11 28.6751 45.161 15
2 4 -11 30.8119 40.4613 9
2 4 -10 2870.05 169.432 15
-2 -4 10 2935.01 307.307 34
2 4 -10 2713.72 152.625 9
2 4 -9 4575.78 211.283 15
2 4 -9 4344.76 196.271 17
-2 -4 9 4520.55 383.245 34
2 4 -9 4549.83 197.092 9
-2 -4 8 1800.64 243.998 34
2 4 -8 1808.66 124.828 61
2 4 -8 1778.93 120.853 17
2 4 -8 1838.8 130.824 15
-2 -4 8 2061.73 266.277 26
-2 -4 7 23891.4 815.116 34
-2 -4 7 25076.7 840.918 26
2 4 -7 23218.2 848.34 2
-2 -4 7 24860.6 797.131 35
-2 -4 6 7917.59 435.643 35
2 4 -6 7117.66 433.557 2
-2 -4 6 7231.31 419.996 26
-2 -4 5 5178.39 335.09 35
-2 -4 5 4783.86 313.481 26
2 4 -5 5600.91 315.881 4
-2 -4 5 5687.85 277.732 24
2 4 -5 4820.37 328.379 2
2 4 -4 84371.9 1258.42 2
-2 -4 4 84868.4 1247.07 35
-2 -4 4 89383.5 1268.85 27
-2 -4 4 87834.3 1031.33 24
2 4 -4 85437.8 1136.16 4
-2 -4 4 88714 1215.66 26
2 4 -4 85150.6 1131.77 1
-2 -4 3 265.986 73.8088 27
-2 -4 3 253.293 68.3452 35
-2 -4 3 378.268 70.1552 24
-2 -4 3 373.728 66.6669 21
2 4 -3 293.826 67.1161 1
2 4 -3 432.496 88.3946 2
2 4 -2 422.077 79.2121 1
2 4 -2 428.903 83.6814 2
-2 -4 2 367.866 80.4102 35
-2 -4 2 575.748 88.376 27
-2 -4 2 361.469 65.746 24
2 4 -1 278.915 63.1257 1
2 4 -1 328.868 75.9244 2
-2 -4 1 330.181 64.0785 24
-2 -4 1 218.434 58.0255 35
-2 -4 0 24630.5 515.08 35
2 4 0 24803.3 544.44 1
-2 -4 0 25399.4 477.985 24
2 4 1 4310.39 245.112 37
2 4 1 4477.1 261.045 36
2 4 1 4266.1 226.578 1
-2 -4 -1 3896.95 160.61 22
-2 -4 -1 3884.9 99.3771 5
2 4 2 327.386 75.5096 29
-2 -4 -2 318.452 37.3581 5
-2 -4 -2 202.337 40.1617 22
2 4 2 211.882 62.8772 1
2 4 3 290.34 65.2812 37
-2 -4 -3 273.114 68.7553 40
2 4 3 218.462 64.655 1
2 4 3 251.367 79.4992 29
-2 -4 -3 211.874 35.8834 22
2 4 4 73571.1 930.85 1
2 4 4 74135.9 979.905 37
2 4 4 74848 1021.31 25
-2 -4 -4 77455.9 1109.39 40
2 4 4 76048.1 993.459 30
2 4 5 14610.6 452.65 30
2 4 5 14145 471.794 25
-2 -4 -5 13577.1 497.224 3
-2 -4 -5 13800.2 375.949 21
2 4 5 14502.5 406.012 1
2 4 5 14143.9 450.853 37
-2 -4 -6 52842.2 1098.28 6
2 4 6 51626.2 922.319 30
2 4 6 47330 929.474 25
-2 -4 -6 48642.2 1008.04 3
-2 -4 -7 15451.9 615.678 3
2 4 7 15474 546.357 30
2 4 7 16769.5 600.546 25
-2 -4 -7 15905.6 635.813 6
2 4 8 3061.52 258.203 30
2 4 8 2799.15 243.455 23
-2 -4 -8 2587.39 280.099 6
2 4 8 2678.04 261.81 25
2 4 9 53.8509 54.5756 30
2 4 9 114.025 63.634 25
-2 -4 -10 14759.4 374.038 15
2 4 10 14510.7 647.789 30
2 4 11 32286.3 986.329 30
-2 -4 -11 34911.5 592.944 13
-2 -4 -11 34701.3 619.538 19
-2 -4 -11 33364.6 587.206 15
2 4 11 33433.8 990.748 37
-2 -4 -12 717.884 95.405 13
2 4 12 880.678 160.135 37
-2 -4 -12 774.226 100.784 19
-2 -4 -13 1796.92 136.887 13
-2 -4 -13 2012.28 144.865 19
-2 -4 -14 564.445 74.2881 13
-2 -4 -14 622.103 77.4703 19
-2 -4 -15 247.515 40.1999 19
2 5 -12 215.227 46.8695 15
2 5 -12 141.55 33.2312 9
2 5 -11 1621.88 122.934 15
2 5 -11 1393.74 98.2879 9
2 5 -10 5982.52 240.21 15
2 5 -10 5820.35 211.073 9
2 5 -9 2923.2 172.42 15
-2 -5 9 3041.09 318.988 34
2 5 -9 2847.51 163.762 17
2 5 -9 2838.47 154.897 9
2 5 -9 2871.03 159.765 61
-2 -5 8 3548.2 343.369 34
2 5 -8 3330.05 180.158 15
2 5 -8 3253.16 170 17
2 5 -8 3324.12 170.923 61
2 5 -7 3894.11 186.679 15
-2 -5 7 4402.41 328.045 22
-2 -5 7 4393.04 362.579 35
2 5 -7 4327.2 396.676 2
-2 -5 7 4057.68 359.143 26
2 5 -7 3809.33 175.397 61
-2 -5 7 4373.62 367.194 34
2 5 -7 3585.9 171.642 17
-2 -5 6 54893.8 1208.24 26
2 5 -6 53318.4 1283.96 2
-2 -5 6 56859.5 1093.67 22
-2 -5 6 54012.3 1197.95 35
-2 -5 5 167.326 80.2937 26
2 5 -5 -53.3493 66.8044 4
2 5 -5 73.4747 57.3612 2
-2 -5 5 -0.48747 57.748 35
-2 -5 4 3932.55 228.1 24
-2 -5 4 3644.63 264.772 26
2 5 -4 3442.51 286.868 2
-2 -5 4 3394.88 272.214 35
-2 -5 4 3488.73 264.631 27
2 5 -4 4100.93 278.304 1
2 5 -4 2780.94 237.269 4
-2 -5 3 4862.75 303.889 35
-2 -5 3 4750.68 283.096 27
2 5 -3 4379.59 302.459 2
-2 -5 3 4419.21 232.872 24
2 5 -3 4230.5 273.354 1
-2 -5 2 425.709 72.375 24
-2 -5 2 580.586 104.559 35
2 5 -2 427.962 90.1755 1
2 5 -2 662.602 115.248 2
-2 -5 2 464.901 87.3904 27
2 5 -1 7629.12 355.961 1
-2 -5 1 7745.4 336.099 35
2 5 0 27946.7 672.606 1
-2 -5 0 27772.6 603.266 35
-2 -5 0 28087.8 518.116 22
-2 -5 -1 16245.6 479.601 40
2 5 1 16750.2 530.511 36
2 5 1 15794.2 503.066 1
-2 -5 -1 17140.2 394.939 22
-2 -5 -2 123316 1378.96 40
2 5 2 124646 1416.14 37
2 5 2 122155 1372.59 1
-2 -5 -2 120798 986.685 22
-2 -5 -3 15699.6 518.063 40
2 5 3 16824.3 513.307 37
2 5 3 15589.8 482.151 1
2 5 3 15919.2 515.161 29
-2 -5 -3 15236 348.158 22
-2 -5 -4 20184.8 617.736 40
2 5 4 19591 561.184 37
2 5 4 18461.1 520.9 1
-2 -5 -5 84352.2 1343.06 3
-2 -5 -5 86383.5 1347.98 40
2 5 5 83235 1199.42 37
2 5 5 84930.7 1221.1 25
2 5 5 86277.3 1123.92 1
2 5 6 512.01 100.029 37
2 5 6 460.57 101.556 30
-2 -5 -6 659.579 126.75 3
2 5 6 372.558 79.7156 1
2 5 6 456.531 103.244 25
-2 -5 -7 10971.1 556.044 3
2 5 7 11985.9 528.418 25
-2 -5 -7 11289.8 575.744 6
2 5 7 12096.7 508.813 30
2 5 7 11885.9 510.36 37
2 5 8 3626.31 302.274 37
-2 -5 -8 3876.53 358.223 6
2 5 8 3648.98 302.493 30
2 5 8 3433.48 310.38 25
-2 -5 -9 84.4515 29.5832 53
2 5 9 172.076 79.9986 37
2 5 9 72.1862 70.9256 30
2 5 9 269.43 91.9803 25
-2 -5 -9 207.283 54.4071 13
-2 -5 -9 98.1832 36.0392 51
-2 -5 -9 249.052 109.768 6
-2 -5 -9 142.095 48.1764 19
2 5 9 16.6139 33.1439 23
2 5 10 651.627 142.283 37
-2 -5 -10 420.904 74.9762 13
2 5 10 776.382 163.291 30
-2 -5 -10 398.914 77.6288 19
-2 -5 -10 431.485 71.4526 51
-2 -5 -10 558.821 72.8699 53
-2 -5 -11 895.965 103.775 13
2 5 11 838.483 177.693 30
-2 -5 -11 845.516 104.264 19
2 5 11 920.881 172.254 37
-2 -5 -12 128.814 55.6541 13
2 5 12 215.09 79.5462 37
-2 -5 -12 81.4973 47.788 19
-2 -5 -13 1048.86 101.975 13
-2 -5 -13 1073.99 105.86 19
-2 -5 -14 171.938 45.8084 19
-2 -5 -15 3763.64 127.838 19
2 6 -12 156.559 42.7722 15
2 6 -11 504.543 72.5531 15
-2 -6 11 416.233 46.8926 45
2 6 -10 9.71641 43.3715 15
2 6 -10 6.40407 31.7498 9
2 6 -10 -0.68472 31.9887 17
-2 -6 9 3989.2 366.141 34
2 6 -9 3928.67 179.346 61
2 6 -9 4183.05 198.403 17
2 6 -9 3825.18 170.439 9
2 6 -9 3921.95 199.054 15
-2 -6 8 7536.04 507.029 34
2 6 -8 7320.09 271.341 15
2 6 -8 7109.36 245.992 61
2 6 -8 7120.11 259.865 17
-2 -6 7 9720.84 552.372 35
-2 -6 7 9598.82 557.796 34
-2 -6 7 10211.1 587.172 26
2 6 -7 8713.28 279.132 17
2 6 -7 9101.49 274.557 61
2 6 -7 9504.04 300.041 15
-2 -6 6 14543.6 657.032 35
-2 -6 6 14843.8 604.158 22
-2 -6 6 14257.7 652.348 26
2 6 -6 13244.9 319.283 61
2 6 -6 14264.2 354.428 15
2 6 -5 10387.2 533.368 4
-2 -6 5 10849.8 545.782 35
-2 -6 5 10297 471.672 22
-2 -6 5 10776.6 528.679 26
2 6 -4 12679.1 561.189 4
-2 -6 4 13879.1 587.836 35
2 6 -4 13681 555.328 1
-2 -6 4 14288.9 523.817 22
-2 -6 3 93.4636 51.6873 22
2 6 -3 75.98 52.442 1
-2 -6 3 85.9958 65.1525 35
-2 -6 2 2407.18 220.469 35
2 6 -2 2445.08 224.959 1
-2 -6 2 2340.92 189.177 22
2 6 -1 228.041 87.9486 1
-2 -6 1 292.699 81.3968 35
-2 -6 1 290.242 66.7726 22
-2 -6 0 13415.6 407.918 22
-2 -6 0 14472.6 474.314 35
2 6 0 14273.5 538.911 1
-2 -6 0 13893.2 480.693 40
-2 -6 -1 3417.64 245.659 40
-2 -6 -1 3251.96 190.717 22
2 6 1 3419.43 261.322 1
-2 -6 -2 54683.8 1024.14 40
2 6 2 54722.3 1040.72 37
2 6 2 53198.1 1028.02 36
2 6 2 52472.5 964.452 29
2 6 2 54033.7 1013.42 1
-2 -6 -2 53738.9 743.117 22
-2 -6 -3 16571 586.274 40
2 6 3 16648.1 551.744 1
2 6 3 16238 553.354 29
-2 -6 -3 16248 409.064 22
2 6 3 16324.3 560.697 37
2 6 4 53337 1037.36 29
-2 -6 -4 57455.7 1141.55 40
2 6 4 56425.1 1045.85 37
2 6 4 51444.8 959.821 1
-2 -6 -5 983.275 154.367 40
2 6 5 925.362 130.865 1
2 6 5 1044.47 155.814 37
2 6 5 796.127 146.838 29
2 6 6 51258.2 973.325 1
2 6 6 53044.9 1079.34 37
-2 -6 -7 282.876 97.2273 6
2 6 7 262.923 94.6318 37
-2 -6 -7 176.841 82.582 3
2 6 8 58273.5 1245.16 37
-2 -6 -8 52474.4 1356.99 3
-2 -6 -8 54158 693.34 13
-2 -6 -8 55726.8 691.349 53
-2 -6 -8 58734.2 1478.85 6
-2 -6 -8 59605.1 765.047 19
2 6 8 53917.1 1239.04 25
-2 -6 -8 56146.6 717.094 51
-2 -6 -9 608.969 84.4805 13
2 6 9 454.062 125.864 37
-2 -6 -9 445.782 66.393 53
-2 -6 -9 530.781 79.7376 19
-2 -6 -9 478.119 71.5739 51
2 6 10 4579.64 373.476 37
-2 -6 -10 4454.44 215.043 13
-2 -6 -10 4340.52 223.49 19
-2 -6 -10 4362.21 197.625 53
-2 -6 -10 4733.78 220.989 51
-2 -6 -11 6171.98 252.455 13
-2 -6 -11 5797.51 218.636 53
2 6 11 5943.37 419.962 37
-2 -6 -11 6428.76 268.333 19
2 6 12 1738.56 234.407 37
-2 -6 -12 2252.71 154.397 19
-2 -6 -12 2046.45 141.688 13
-2 -6 -13 372.922 66.1902 19
-2 -6 -14 517.395 61.6231 19
2 7 -12 244.769 38.1028 15
2 7 -11 920.842 83.1856 15
-2 -7 11 821.703 58.4605 45
2 7 -10 221.24 59.0142 15
2 7 -9 9646.88 300.987 15
2 7 -9 9338.72 288.77 17
-2 -7 8 2521.51 283.853 34
2 7 -8 2749.94 169.791 15
2 7 -8 2552.25 143.897 61
2 7 -8 2760.06 165.62 17
2 7 -7 3597.43 191.155 15
-2 -7 7 3761.3 348.994 34
-2 -7 7 3539.5 168.732 63
2 7 -7 3359.29 167.166 61
2 7 -7 3405.6 183.424 17
-2 -7 6 449.215 139.692 35
2 7 -6 393.578 69.3708 17
-2 -7 6 475.978 118.382 26
2 7 -6 519.856 76.3174 15
2 7 -6 468.036 65.5226 61
-2 -7 5 248.724 97.5474 35
2 7 -5 196.19 102.588 4
2 7 -5 283.297 58.6437 14
2 7 -5 455.309 64.3356 61
-2 -7 5 192.613 81.5046 26
-2 -7 5 223.297 81.1459 22
-2 -7 4 6243.57 419.518 35
2 7 -4 6546.06 444.141 4
-2 -7 4 6417.87 388.782 26
-2 -7 4 6728.69 387.877 22
-2 -7 3 16263.4 571.146 22
-2 -7 3 16347.4 641.879 35
2 7 -3 15502.3 626.656 1
-2 -7 2 56311.6 1127.23 35
-2 -7 2 55747.8 998.334 22
2 7 -2 53777.5 1154.93 1
-2 -7 1 269.013 72.6264 22
2 7 -1 365.488 101.929 1
-2 -7 0 84906.7 1315.59 40
-2 -7 0 83451.7 1094.74 22
2 7 0 82669.2 1412.07 1
-2 -7 -1 7385.9 401.811 40
2 7 1 7331.75 414.488 1
-2 -7 -1 6723.14 299.853 22
-2 -7 -2 21753.8 707.436 40
-2 -7 -2 20768.1 512.18 22
2 7 2 21637.6 699.642 1
2 7 3 733.905 143.564 37
2 7 3 657.489 127.826 36
-2 -7 -3 619.852 121.634 40
2 7 3 696.958 123.949 29
2 7 3 725.108 128.997 1
-2 -7 -4 823.086 150.379 40
2 7 4 541.699 125.421 37
2 7 4 490.446 104.524 29
2 7 4 530.223 109.168 1
2 7 5 9688.14 493.426 29
-2 -7 -5 10604.7 550.781 40
2 7 5 10347.1 502.052 37
2 7 5 9982.42 472.149 1
2 7 6 8152.22 428.236 1
-2 -7 -6 7405.58 474.163 3
2 7 6 7870.93 466.62 29
2 7 6 8214.68 466.23 37
-2 -7 -7 365.633 62.6739 53
2 7 7 212.146 99.1816 29
-2 -7 -7 397.893 67.272 19
-2 -7 -7 240.271 114.403 6
-2 -7 -7 319.725 54.7052 51
2 7 7 343.55 130.36 37
-2 -7 -7 101.516 66.7642 3
2 7 8 18534.7 798.128 29
2 7 8 21001.5 791.839 37
-2 -7 -8 19549.4 426.746 53
2 7 8 19473.6 356.055 54
-2 -7 -8 20362.9 441.921 51
-2 -7 -8 20262 465.044 19
2 7 9 1048.11 189.075 37
-2 -7 -9 1184.88 114.092 51
-2 -7 -9 1297.63 113.904 53
2 7 9 1224.91 91.1369 54
2 7 9 950.56 195.669 29
-2 -7 -9 1159.97 116.228 19
-2 -7 -10 742.774 83.4817 53
2 7 10 899.767 169.091 37
2 7 10 694.136 69.0907 54
2 7 10 952.791 210.299 29
-2 -7 -10 765.935 99.981 19
-2 -7 -11 122.305 55.3718 19
-2 -7 -11 173.436 44.5767 53
-2 -7 -12 42.426 44.1244 19
-2 -7 -13 636.194 73.0468 19
-2 -7 -14 443.941 50.3803 19
2 7 14 478.983 43.4126 50
2 8 -11 323.079 46.8125 15
-2 -8 11 265.172 30.6294 45
2 8 -10 214.562 50.8538 15
-2 -8 10 197.953 37.1628 45
2 8 -9 148.48 43.5989 17
-2 -8 9 81.4322 28.9069 43
2 8 -9 110.445 51.3678 15
2 8 -8 869.817 81.4774 61
2 8 -8 1002.95 104.125 15
-2 -8 8 966.7 83.1998 63
2 8 -8 996.505 99.9995 17
-2 -8 8 901.048 79.8908 43
2 8 -7 1267.57 116.084 15
-2 -8 7 1286.03 209.351 34
2 8 -7 1213.13 100.68 61
2 8 -7 1233.82 113.461 17
-2 -8 7 1022.92 92.8223 63
-2 -8 6 591.219 74.6902 63
2 8 -6 626.583 86.4775 15
-2 -8 6 506.544 132.496 34
2 8 -6 480.698 66.9624 61
2 8 -6 531.298 80.2524 17
-2 -8 5 1862.1 257.128 35
2 8 -5 1857.13 138.503 14
2 8 -5 1852.31 121.118 61
-2 -8 5 1891.56 126.58 65
-2 -8 5 2023.07 134.537 63
-2 -8 4 1099.72 166.106 22
2 8 -4 847.792 92.4951 14
-2 -8 4 1052.37 190.432 35
-2 -8 4 840.604 84.6549 65
2 8 -4 969.815 181.821 4
2 8 -4 833.643 85.4408 7
2 8 -4 869.483 84.0263 61
-2 -8 3 5798.22 407.565 35
2 8 -3 5203.97 211.42 14
2 8 -3 5467.36 395.903 1
-2 -8 3 5680.5 354.188 22
-2 -8 2 10690.7 527.494 35
2 8 -2 10456.2 544.917 1
-2 -8 2 10641.2 462.295 22
2 8 -1 633.607 129.894 1
-2 -8 1 767.526 119.954 22
-2 -8 0 34014.5 759.866 22
-2 -8 0 37258.2 952.973 40
2 8 0 36399.5 1005.37 1
-2 -8 -1 15499.1 629.793 40
2 8 1 15492.3 647.534 1
-2 -8 -1 13933.3 474.364 22
-2 -8 -2 27621.3 864.878 40
2 8 2 25990.5 835.92 1
-2 -8 -2 25648.7 629.199 22
-2 -8 -3 12222.7 593.633 40
2 8 3 11902.9 564.517 1
-2 -8 -4 175.07 82.8563 40
2 8 4 141.422 96.2886 37
2 8 4 375.818 102.067 1
-2 -8 -5 21620.7 842.72 40
-2 -8 -5 22364.5 809.078 3
2 8 5 19603.8 718.825 1
2 8 5 20969.1 772.194 37
2 8 6 4424.53 173.046 54
2 8 6 4579.78 347.796 1
-2 -8 -6 4230.52 363.792 3
2 8 6 4336.99 173.168 7
-2 -8 -6 4632.63 207.752 53
-2 -8 -6 4442.63 190.431 52
-2 -8 -6 4850.63 206.144 51
2 8 6 3980.55 343.491 29
2 8 6 4591.96 370.765 37
-2 -8 -6 4614.25 209.868 19
2 8 7 25634.7 416.164 54
2 8 7 25690 887.159 37
2 8 7 25098.5 900.338 29
2 8 7 25573.2 419.126 7
-2 -8 -7 28126.3 518.51 53
-2 -8 -7 27039.7 521.06 19
-2 -8 -7 25585.9 452.987 52
-2 -8 -7 26971.5 500.342 51
2 8 8 812.06 179.622 37
-2 -8 -8 773.805 95.7077 19
2 8 8 980.935 86.5139 54
2 8 8 581.167 154.252 29
2 8 8 969.642 84.2872 7
-2 -8 -8 1287.28 115.563 53
-2 -8 -8 1097.85 110.432 51
-2 -8 -9 12981.1 352.647 53
2 8 9 13443.4 663.111 37
2 8 9 13338.2 297.802 54
-2 -8 -9 13098.1 361.591 51
-2 -8 -9 13004.6 368.581 19
2 8 10 3750.19 343.151 37
-2 -8 -10 4231.29 209.703 19
-2 -8 -10 4105.89 191.565 53
2 8 10 4476.8 165.717 54
-2 -8 -11 4895.29 192.984 53
-2 -8 -11 5062.55 218.835 19
2 8 12 126.273 39.4038 50
-2 -8 -12 122.853 43.8989 19
-2 -8 -13 5698.65 178.685 19
2 8 13 5584.12 148.959 50
2 9 -10 5097.98 160.398 15
-2 -9 10 4599.36 128.734 45
2 9 -9 5325.11 190.525 15
-2 -9 9 5077.04 149.442 43
-2 -9 8 -9.68971 23.2434 63
2 9 -8 16.7795 27.2508 17
2 9 -8 40.7727 42.5838 15
-2 -9 8 69.2599 32.7302 43
-2 -9 7 1624.57 112.274 63
2 9 -7 1792.84 128.748 15
2 9 -7 1907.08 129.354 17
-2 -9 6 1675.17 111.825 65
-2 -9 6 1663.6 213.156 34
-2 -9 6 1703.08 122.412 63
2 9 -6 1699.58 128.419 17
2 9 -6 1785.16 131.508 15
2 9 -6 1663.73 110.649 61
-2 -9 5 2254.55 143.66 63
2 9 -5 2243.77 149.261 14
-2 -9 5 2201.45 134.742 65
2 9 -5 2175.16 129.01 61
2 9 -4 1168.34 109.689 14
2 9 -4 1139.8 101.411 7
-2 -9 4 1270.5 109.181 63
-2 -9 4 1360.34 111.59 65
2 9 -4 1281.78 101.281 61
-2 -9 3 4518.52 195.06 55
2 9 -3 4485.76 202.88 14
2 9 -3 4487.15 199.58 7
-2 -9 3 4533.57 196.698 65
-2 -9 3 4672.01 202.032 63
2 9 -2 7758.62 261.641 7
2 9 -2 8160.8 262.641 14
-2 -9 2 8311.9 263.346 63
-2 -9 2 8243.88 262.991 65
-2 -9 2 8430.34 437.438 22
-2 -9 2 8080.96 263.215 55
2 9 -2 7641.3 494.595 1
2 9 -1 114.646 42.9605 7
2 9 -1 36.4748 30.9557 14
-2 -9 1 150.35 41.956 55
2 9 -1 7.08121 34.9123 1
-2 -9 1 105.578 38.3913 63
-2 -9 1 225.849 71.1686 22
-2 -9 1 154.653 38.7721 65
-2 -9 0 -55.567 54.5137 40
-2 -9 0 168.274 41.9864 65
2 9 0 224.091 49.6125 7
-2 -9 0 88.1625 35.0554 55
2 9 0 107.405 37.8228 62
-2 -9 0 11.1255 43.5546 22
-2 -9 0 94.0876 34.0891 63
2 9 0 54.9222 23.7402 14
2 9 0 -98.3014 90.0336 1
-2 -9 -1 89.4115 56.6469 40
2 9 1 61.3028 29.8946 7
-2 -9 -1 18.3455 21.9994 22
-2 -9 -1 10.3492 25.8914 65
-2 -9 -2 665.69 145.417 40
-2 -9 -2 549.162 67.3446 65
2 9 2 555.225 74.5592 50
2 9 2 577.256 70.4368 7
2 9 2 697.041 145.132 1
-2 -9 -3 15954 722.706 40
2 9 3 15769.4 344.306 7
2 9 3 15751.8 700.497 1
2 9 3 15544.5 359.409 62
-2 -9 -3 15419.1 327.208 65
-2 -9 -3 15722.4 366.303 53
2 9 3 16051 352.731 50
-2 -9 -3 16401.3 374.033 19
-2 -9 -4 25331.3 930.193 40
2 9 4 25264.1 433.421 7
2 9 4 23874.9 856.469 1
-2 -9 -4 25253.8 475.462 53
2 9 4 25037.2 443.254 50
2 9 4 23992.1 415.347 54
-2 -9 -4 25606.9 478.435 19
-2 -9 -5 4335.58 195.12 52
-2 -9 -5 4049.88 380.812 40
2 9 5 3898.5 339.841 1
2 9 5 4313.48 178.222 54
-2 -9 -5 4532.06 206.479 53
2 9 5 4236.12 185.571 50
2 9 5 4493.93 183.679 7
2 9 5 4549.55 387.059 37
-2 -9 -5 4214.23 201.738 19
-2 -9 -6 31731.8 551.509 19
2 9 6 30002.4 986.946 37
-2 -9 -6 30583 511.854 52
2 9 6 29991.5 491.734 50
-2 -9 -6 33034.7 537.525 51
2 9 6 30719.6 474.552 7
-2 -9 -6 31667.7 550.68 53
2 9 6 30211.4 467.938 54
-2 -9 -7 6435.36 244.069 51
2 9 7 5588.83 434.766 37
-2 -9 -7 6204.46 246.211 53
-2 -9 -7 6564.85 232.441 52
2 9 7 6112.39 210.435 54
-2 -9 -7 6371.6 252.672 19
2 9 7 6121.78 226.786 50
2 9 7 6205.42 212.352 7
2 9 8 7513.71 249.119 50
2 9 8 7610.2 228.335 7
-2 -9 -8 7570.29 271.364 53
-2 -9 -8 7162.23 267.373 19
2 9 8 7344.45 225.593 54
-2 -9 -8 7756.81 271.379 51
2 9 9 5227.15 420.797 37
2 9 9 5613.9 211.132 50
-2 -9 -9 5799.64 229.562 53
-2 -9 -9 5442.64 230.777 19
2 9 9 5582.74 189.242 54
-2 -9 -10 1869.5 125.416 53
-2 -9 -10 1626.67 123.984 19
2 9 10 1636.24 112.373 50
2 9 10 1557.43 95.4962 54
2 9 11 969.011 80.7081 50
-2 -9 -11 1122.41 96.6336 19
-2 -9 -11 903.096 79.5175 53
2 9 12 12.1994 24.5882 50
-2 -9 -12 4.36771 31.3799 19
-2 -9 -13 229.031 34.8797 19
2 10 -9 7.96159 24.6622 15
-2 -10 9 -14.5742 16.4659 43
-2 -10 9 9.38759 19.3555 45
-2 -10 8 -7.78921 24.789 43
-2 -10 8 -1.36594 23.3396 63
2 10 -8 -19.2432 24.1971 17
2 10 -8 50.0439 35.2636 15
2 10 -7 1121.05 97.5959 15
-2 -10 7 1016.63 85.0388 63
-2 -10 7 1128.95 85.9393 43
2 10 -7 1100.34 90.689 17
2 10 -6 2498.5 147.756 15
-2 -10 6 2338.33 124.696 65
2 10 -6 2483.17 143.334 17
-2 -10 6 2229.67 134.147 63
2 10 -5 301.141 59.0256 14
-2 -10 5 342.643 56.9164 65
-2 -10 5 409.8 69.2945 63
-2 -10 4 611.256 80.7525 63
2 10 -4 534.562 77.2581 14
2 10 -4 621.838 74.6354 7
-2 -10 4 583.434 74.1895 65
-2 -10 3 7585.75 258.923 63
2 10 -3 7587.28 263.095 14
2 10 -3 7902.06 261.234 7
2 10 -3 6861.45 224.959 61
-2 -10 3 7468.64 255.286 65
2 10 -2 2987.37 164.218 14
2 10 -2 3108.54 167.528 7
-2 -10 2 3172.59 167.27 63
-2 -10 2 3183.29 168.961 65
2 10 -1 3275.5 166.796 14
2 10 -1 3286.81 171.643 7
-2 -10 1 3401.78 170.554 63
-2 -10 1 3338.57 171.616 65
2 10 0 286.816 53.0023 14
-2 -10 0 374.552 60.7122 63
2 10 0 397.67 66.3886 7
-2 -10 0 343.541 58.5364 65
-2 -10 -1 1314.93 103.913 63
-2 -10 -1 1145.38 187.837 40
2 10 1 1267.8 100.151 14
-2 -10 -1 1238.57 102.912 65
2 10 1 1405.12 113.246 7
2 10 1 1338.9 108.146 62
-2 -10 -2 24.8554 59.3011 40
2 10 2 253.106 44.9185 14
-2 -10 -2 195.465 45.5819 53
-2 -10 -2 133.252 41.0299 65
2 10 2 340.069 58.9951 7
2 10 2 259.901 59.3019 62
-2 -10 -2 373.134 58.0722 63
-2 -10 -2 281.716 56.5434 19
-2 -10 -3 142.004 84.4184 40
-2 -10 -3 76.0953 31.0488 65
-2 -10 -3 76.1622 40.1986 53
-2 -10 -3 62.0366 42.6414 19
2 10 3 75.8234 37.2627 7
2 10 3 34.9395 38.6055 62
2 10 3 61.3226 46.6575 50
-2 -10 -4 6632.01 248.007 53
2 10 4 6807.72 245.803 62
2 10 4 6981.77 243.306 50
-2 -10 -4 6200.31 475.387 40
-2 -10 -4 7164.67 255.762 19
2 10 4 6757.51 233.414 7
-2 -10 -4 6845.89 249.408 52
2 10 5 66.7649 40.1434 7
-2 -10 -5 59.7681 44.3746 19
-2 -10 -5 59.4967 35.5369 53
-2 -10 -5 17.8213 27.225 52
2 10 5 69.5675 44.9749 62
2 10 5 21.4975 40.1643 50
-2 -10 -6 147.132 43.02 52
-2 -10 -6 161.533 50.4799 19
2 10 6 197.015 47.8433 54
2 10 6 101.01 41.5156 7
-2 -10 -6 119.838 48.9992 53
2 10 6 70.956 48.4062 50
-2 -10 -6 69.7611 35.6556 51
-2 -10 -7 5496.75 223.954 19
2 10 7 5970.82 221.705 50
-2 -10 -7 5694.87 213.322 52
-2 -10 -7 5967.04 237.771 53
2 10 7 5183.03 423.307 37
2 10 7 5701.37 201.237 7
2 10 7 5361.23 195.774 54
2 10 8 484.337 131.74 37
-2 -10 -8 404.773 66.0108 53
-2 -10 -8 492.853 76.1451 19
2 10 8 383.709 55.7791 54
2 10 8 467.485 60.2431 7
2 10 8 369.222 64.2587 50
2 10 9 3783.85 143.275 7
-2 -10 -9 3846.06 176.02 53
2 10 9 3619.52 144.857 54
-2 -10 -9 3708.22 173.547 19
2 10 9 3821.84 164.969 50
-2 -10 -10 4142.63 167.581 53
-2 -10 -10 4064.78 168.456 19
2 10 10 4307 160.416 50
2 10 11 6377.73 170.409 50
-2 -10 -11 6513.43 189.07 19
2 10 12 2669.99 100.938 62
-2 -10 -12 2643.88 99.7544 19
2 10 12 2655.14 89.0433 50
-2 -11 8 2023.24 84.1098 43
2 11 -8 2063.53 97.0426 15
-2 -11 8 2030.25 84.4831 45
-2 -11 7 5645.95 162.288 43
2 11 -7 5882.72 183.577 15
2 11 -7 5832.79 162.597 17
-2 -11 7 5524.21 165.977 63
-2 -11 7 5477.36 155.415 45
-2 -11 6 1454.82 100.014 63
-2 -11 6 1365.28 87.0991 65
-2 -11 6 1424.22 93.4257 43
-2 -11 6 1395.69 87.0733 45
2 11 -6 1417.06 102.626 15
2 11 -6 1558.27 98.9764 17
-2 -11 5 229.231 49.3218 65
-2 -11 5 185.164 44.8338 43
2 11 -5 147.315 47.2332 15
-2 -11 5 152.691 45.1821 63
2 11 -5 277.705 52.9563 17
-2 -11 4 75.5913 37.55 63
2 11 -4 38.5847 31.6954 14
-2 -11 4 66.229 37.4288 65
-2 -11 4 15.2264 26.9269 43
2 11 -4 115.627 36.6439 7
2 11 -3 16292.4 368.217 14
2 11 -3 16051.2 349.136 7
-2 -11 3 16156.1 364.545 63
-2 -11 3 15910.6 359.128 65
2 11 -2 1995.44 131.826 14
-2 -11 2 2111.91 136.824 65
2 11 -2 2145.66 135.384 7
-2 -11 2 2279.72 141.548 63
-2 -11 2 2065.39 119.888 43
-2 -11 1 94.0558 40.427 63
2 11 -1 44.6676 36.583 14
2 11 -1 44.9052 36.6389 7
-2 -11 1 84.1517 43.8437 65
-2 -11 1 65.0967 27.8841 43
2 11 0 7846.25 247.669 14
2 11 0 8043.43 259.208 7
-2 -11 0 7997.83 257.951 65
-2 -11 0 7975.39 253.677 63
2 11 1 1979.59 124.192 14
-2 -11 -1 2000.02 128.499 65
-2 -11 -1 2078.95 127.705 63
-2 -11 -1 2108.72 256.695 40
2 11 1 1958.54 130.329 7
-2 -11 -2 2336.95 278.491 40
2 11 2 2547.67 133.901 14
2 11 2 2704.55 151.928 7
-2 -11 -2 3016.75 158.869 53
2 11 2 2700.16 148.368 62
-2 -11 -2 2659.93 144.562 65
-2 -11 -3 10094.8 593.23 40
2 11 3 10690.5 294.682 7
-2 -11 -3 10540.2 301.397 53
-2 -11 -3 10680.3 276.248 65
2 11 3 10185 289.503 62
2 11 4 6.04238 35.9562 50
2 11 4 22.1378 32.4762 7
-2 -11 -4 97.8362 41.2598 53
2 11 4 3.31285 33.8569 62
-2 -11 -4 23.1353 41.7628 19
-2 -11 -5 1877.19 127.973 52
2 11 5 1971.14 125.798 7
2 11 5 1788.89 122.94 50
-2 -11 -5 1995.82 134.96 53
-2 -11 -5 1961.34 129.206 19
2 11 5 1762.33 123.371 62
2 11 6 5537.13 200.453 7
2 11 6 5290.94 203.965 50
-2 -11 -6 5334.35 216.596 53
-2 -11 -6 5576.62 208.449 52
2 11 6 5496.58 210.96 62
-2 -11 -6 5693.04 212.861 19
2 11 7 368.43 66.0774 62
-2 -11 -7 290.309 59.8431 53
2 11 7 349.644 52.9612 7
-2 -11 -7 316.813 52.0008 52
-2 -11 -7 313.443 59.0353 19
2 11 7 384.253 63.8592 50
2 11 8 619.977 71.5245 50
2 11 8 565.618 72.6537 62
2 11 8 735.923 66.3664 7
-2 -11 -8 728.658 77.1642 19
-2 -11 -8 622.929 74.108 53
-2 -11 -9 209.753 45.3326 19
2 11 9 187.956 48.8356 62
2 11 9 187.891 33.8226 7
2 11 9 177.843 43.4125 50
-2 -11 -9 213.946 45.472 53
-2 -11 -10 2776.09 119.049 53
-2 -11 -10 2691.4 113.168 19
2 11 10 2577.45 113.811 62
2 11 10 2723.33 111.318 50
2 11 11 193.658 34.1045 62
-2 -11 -11 220.612 30.3647 19
2 11 11 181.556 29.4034 50
2 12 -7 447.18 43.9872 15
-2 -12 7 509.355 42.1948 43
-2 -12 7 462.677 36.5518 45
-2 -12 6 692.279 60.2041 63
-2 -12 6 713.966 52.968 65
2 12 -6 775.479 64.5909 15
-2 -12 6 660.115 49.9301 45
-2 -12 6 759.98 59.1767 43
2 12 -5 167.957 41.9528 15
-2 -12 5 194.378 42.386 63
-2 -12 5 144.958 29.8765 45
-2 -12 5 159.439 38.3846 65
-2 -12 5 148.039 36.6534 43
2 12 -5 147.267 34.6065 17
2 12 -4 3479.13 151.291 15
-2 -12 4 3316.93 143.607 65
-2 -12 4 3334.37 147.497 63
-2 -12 4 3258.57 133.953 43
2 12 -3 701.44 71.7031 7
-2 -12 3 730.973 77.4371 65
2 12 -3 732.426 77.5439 14
-2 -12 3 680.155 76.8345 63
-2 -12 3 762.068 69.3972 43
2 12 -2 117.034 42.3586 7
-2 -12 2 108.886 38.4756 63
2 12 -2 140.525 41.6824 14
-2 -12 2 142.86 46.6451 65
-2 -12 2 149.143 39.105 43
-2 -12 1 4612.5 182.488 63
2 12 -1 4480.89 179.358 14
-2 -12 1 4530 185.46 65
2 12 -1 4602.55 183.382 7
-2 -12 1 4096.99 149.07 43
-2 -12 0 1570 111.22 65
2 12 0 1722.75 111.933 14
2 12 0 1851.95 119.477 7
-2 -12 0 1711.02 111.621 63
2 12 1 1464.39 108.309 7
2 12 1 1324.53 95.6037 14
-2 -12 -1 1407.49 104.046 65
2 12 2 10309.3 277.935 7
-2 -12 -2 10876.1 303.015 52
-2 -12 -2 9941.49 259.499 65
2 12 3 6388.96 218.331 7
2 12 3 5710.93 195.381 62
-2 -12 -3 6128.66 224.13 52
-2 -12 -3 6268.76 214.875 53
-2 -12 -3 5810.64 189.843 65
2 12 4 711.042 77.1973 7
-2 -12 -4 792.984 81.386 53
-2 -12 -4 766.354 82.8915 52
2 12 4 813.085 78.6271 62
-2 -12 -5 1923.45 120.812 52
-2 -12 -5 2038.41 126.371 53
2 12 5 1995.12 117.912 62
2 12 5 2019.63 118.433 7
2 12 6 -14.6564 28.8479 7
-2 -12 -6 6.30023 25.2084 19
2 12 6 10.0028 34.8749 62
-2 -12 -6 5.15807 30.6123 53
-2 -12 -6 1.14739 28.064 52
2 12 7 622.403 61.5682 7
-2 -12 -7 643.247 69.6082 53
-2 -12 -7 685.747 64.3729 19
2 12 7 592.904 65.8012 62
-2 -12 -8 -9.04658 25.9347 53
-2 -12 -8 12.9646 21.7685 19
2 12 8 -10.5585 29.6078 62
2 12 8 -20.0039 20.6476 7
-2 -12 -9 553.687 53.7005 53
-2 -12 -9 557.136 45.1586 19
2 12 9 515.82 49.3533 62
2 13 -5 8113.87 162.682 15
-2 -13 5 8268.5 155.245 43
-2 -13 5 8436.4 161.751 65
-2 -13 4 301.264 41.088 65
2 13 -4 260.08 38.2376 15
2 13 -4 285.49 35.3287 17
-2 -13 4 283.013 35.4893 43
2 13 -3 204.588 38.602 15
-2 -13 3 203.308 40.2644 65
2 13 -3 218.344 35.0225 7
-2 -13 3 257.671 38.446 52
-2 -13 3 203.588 32.6532 43
2 13 -2 3035.44 123.381 7
-2 -13 2 2981.08 129.634 65
-2 -13 2 3001.01 127.744 52
-2 -13 2 3031.3 107.961 43
-2 -13 1 525.243 61.9921 52
2 13 -1 497.205 57.816 7
-2 -13 1 491.148 60.7063 65
-2 -13 0 496.333 61.7259 52
-2 -13 0 511.895 60.4191 65
2 13 0 493.762 59.6619 7
-2 -13 -1 1537.32 95.7456 65
2 13 1 1771.67 106.302 7
-2 -13 -1 1745.66 112.201 52
2 13 2 2174.89 118.304 7
-2 -13 -2 2089.08 121.767 52
-2 -13 -2 1968.32 103.78 65
-2 -13 -3 147.896 42.8065 52
2 13 3 153.082 42.8742 7
-2 -13 -3 207.105 38.0174 53
-2 -13 -4 3083.99 137.267 52
-2 -13 -4 3174.92 132.836 53
2 13 4 3233.13 136.569 7
2 13 5 1539.99 92.0038 7
-2 -13 -5 1531.39 92.7658 53
-2 -13 -5 1399.91 88.4286 52
2 13 6 5289.53 154.574 7
-2 -13 -6 5129.82 160.085 53
-2 -13 -7 96.4742 27.0054 53
2 13 7 135.822 28.0427 7
2 13 7 45.4816 22.1105 62
-2 -13 -8 3118.22 103.8 53
-2 -14 3 193.144 27.2027 65
-2 -14 2 473.872 40.6065 52
-2 -14 2 435.506 41.8623 65
2 14 -1 1085.03 60.907 7
-2 -14 1 1140.63 66.8937 65
-2 -14 1 1176.37 69.3069 52
-2 -14 0 238.582 38.3692 52
-2 -14 0 241.88 35.6412 65
2 14 0 242.699 35.8134 7
-2 -14 -1 604.581 48.8597 65
-2 -14 -1 610.462 56.1116 52
2 14 1 574.247 52.8106 7
2 14 2 3586.64 122.409 7
-2 -14 -2 3205.18 98.511 65
-2 -14 -2 3619.84 129.466 52
-2 -14 -3 9643.63 202.82 52
2 14 3 10270.5 202.665 7
2 14 4 589.063 51.1475 7
-2 -14 -4 590.552 49.6646 52
2 14 5 974.983 58.408 7
3 -13 -3 350.341 36.7518 53
-3 13 2 934.791 50.5232 7
3 -13 -2 892.455 60.4511 53
-3 13 1 5489.24 119.58 7
3 -13 -1 5647.11 152.032 53
-3 13 0 282.408 29.7414 14
3 -13 0 253.433 35.802 53
3 -13 0 212.628 32.5631 52
3 -13 1 3059.46 109.541 53
-3 13 -1 3203.65 103.243 14
-3 13 -2 130.344 27.0777 14
3 -13 3 1417.18 67.5778 65
-3 13 -3 1593.22 75.9071 14
-3 13 -4 595.094 47.1024 14
3 -13 4 526.934 42.9898 65
3 -13 5 423.031 37.4005 65
-3 13 -5 465.292 37.9745 14
-3 13 -5 492.423 41.6575 17
-3 12 5 620.33 47.7908 7
3 -12 -5 549.116 48.031 53
-3 12 4 1086.62 67.4289 7
3 -12 -4 1036.31 73.6313 53
3 -12 -3 953.347 77.0552 53
-3 12 3 848.813 63.54 7
3 -12 -2 259.89 50.0742 53
-3 12 2 284.985 42.4843 7
3 -12 -1 371.909 58.074 53
-3 12 1 418.416 44.1388 14
-3 12 1 365.966 46.8105 7
-3 12 0 27.6949 22.4203 7
-3 12 0 41.9032 21.4011 14
3 -12 0 32.508 26.7562 53
3 -12 1 323.113 52.5906 53
-3 12 -1 339.191 47.4629 14
-3 12 -2 158.803 37.9448 14
3 -12 2 142.061 36.6329 53
3 -12 2 148.714 36.6505 65
-3 12 -3 950.547 75.8149 14
3 -12 3 976.254 74.9699 65
3 -12 3 1016.44 85.7787 55
3 -12 3 997.253 74.6065 53
-3 12 -4 860.991 71.1458 14
3 -12 4 791.23 68.7035 65
3 -12 4 732.673 72.8152 55
-3 12 -5 728.833 62.5219 14
3 -12 5 754.469 66.696 65
3 -12 5 635.68 53.8686 63
3 -12 5 699.716 68.9249 55
-3 12 -6 459.707 47.3688 14
3 -12 6 501.083 54.4827 55
3 -12 6 430.513 45.3753 63
3 -12 6 473.699 51.5325 65
-3 12 -7 24.1023 17.4866 14
-3 12 -7 40.7813 23.7582 17
3 -12 7 29.6932 18.2393 63
3 -12 7 21.8945 21.4647 65
-3 11 7 834.139 51.9012 7
3 -11 -7 838.285 54.7913 51
3 -11 -6 1563.63 86.2153 51
3 -11 -6 1558.94 86.076 53
-3 11 6 1644.72 82.2635 7
-3 11 5 5597.2 163.768 7
3 -11 -5 5287.43 179.506 53
3 -11 -5 5519.53 172.581 51
3 -11 -4 -2.18303 29.4022 53
-3 11 4 6.52589 26.1189 7
3 -11 -4 -32.2605 29.2007 51
3 -11 -3 4853.82 199.4 53
-3 11 3 5229.72 174.819 7
3 -11 -2 240.772 57.4559 53
-3 11 2 230.158 46.8307 7
-3 11 1 4.97099 19.8915 14
-3 11 1 27.985 26.7842 7
3 -11 -1 -17.8615 38.0768 53
3 -11 0 2230.18 279.312 40
-3 11 0 2705.07 128.803 7
-3 11 0 2688.65 131.295 14
3 -11 0 2528.33 151.936 53
3 -11 1 409.905 128.604 40
-3 11 -1 442.878 61.1387 14
-3 11 -1 396.025 52.7084 7
3 -11 1 406.148 55.0943 65
3 -11 1 314.447 57.7103 55
3 -11 1 332.046 59.5553 53
3 -11 2 4126.09 368.908 40
3 -11 2 4221.26 169.345 65
3 -11 2 4298.1 193.08 57
3 -11 2 4062.64 186.995 55
3 -11 2 3981.85 184.459 53
-3 11 -2 4106.2 168.983 14
-3 11 -3 6948.28 218.757 14
3 -11 3 6745.18 217.993 65
3 -11 3 6643.44 226.85 53
3 -11 3 6741.78 239.093 55
3 -11 3 6891.17 240.465 57
-3 11 -4 10974.5 273.355 14
3 -11 4 10550.5 253.535 63
3 -11 4 11127.1 294.65 57
3 -11 4 11035.2 303.85 55
3 -11 4 11163.2 279.111 65
3 -11 5 1419.05 109.746 55
-3 11 -5 1295.02 95.2822 14
3 -11 5 1390.83 96.6028 63
3 -11 5 1352.34 102.766 57
3 -11 5 1283.53 98.78 65
-3 11 -6 178.778 42.0673 14
3 -11 6 138.655 44.2102 65
3 -11 6 201.292 48.819 55
3 -11 7 26.4453 27.514 63
-3 11 -7 13.2838 23.9384 14
-3 11 -7 28.8095 29.9783 17
3 -11 7 39.294 33.1843 65
3 -11 7 18.3838 30.3542 55
-3 11 -8 534.514 48.5439 14
3 -11 8 561.108 56.8355 65
3 -11 8 568.479 57.114 63
-3 11 -8 649.053 60.9307 17
3 -11 8 616.218 57.0436 55
3 -11 9 1473.59 73.5358 65
3 -11 9 1489.78 79.0294 63
-3 11 -9 1494.59 78.2985 17
3 -10 -8 3520.75 125.594 51
-3 10 8 3453.78 109.76 54
-3 10 8 3550.85 106.099 7
-3 10 8 3274.3 101.504 50
3 -10 -7 1394.44 92.8247 51
-3 10 7 1311.29 80.7591 54
3 -10 -7 1234.59 79.0332 53
-3 10 7 1250.5 75.2638 50
-3 10 7 1306.88 78.5714 7
-3 10 6 3634 140.942 7
3 -10 -6 3354.71 150.888 53
-3 10 6 3452.7 138.99 54
3 -10 -6 3473.34 157.678 51
-3 10 6 3369.41 132.666 50
-3 10 5 10406.9 253.092 7
-3 10 5 10102.6 241.125 50
3 -10 -5 9961.93 283.219 53
3 -10 -5 10754.8 288.589 51
-3 10 5 10584.7 252.943 54
3 -10 -4 902.38 179.764 40
-3 10 4 1099.7 90.1776 7
3 -10 -4 1116.98 105.595 53
3 -10 -4 1137.28 100.632 51
-3 10 4 1105.18 90.2486 54
-3 10 4 1111.11 86.9028 50
3 -10 -3 0.85013 24.3324 51
-3 10 3 6.14066 31.5684 50
3 -10 -3 61.9246 41.7185 53
-3 10 3 27.0468 31.3617 7
-3 10 3 -10.9617 33.5496 54
-3 10 2 542.355 60.0815 14
-3 10 2 564.726 66.4785 50
3 -10 -2 430.594 148.663 40
-3 10 2 547.203 68.642 54
-3 10 2 589.867 68.7696 7
3 -10 -2 581.892 72.5903 51
3 -10 -2 649.421 90.2002 53
3 -10 -1 10.2289 35.897 53
-3 10 1 3.05842 27.8981 7
3 -10 -1 2.36515 28.1789 55
-3 10 1 33.363 25.4614 14
-3 10 0 820.436 79.9227 14
3 -10 0 732.597 86.6125 57
3 -10 0 768.462 93.8975 53
3 -10 0 698.805 82.5144 55
-3 10 0 910.639 81.3293 7
3 -10 1 11765.9 329.022 55
-3 10 -1 12331 300.77 14
-3 10 -1 11619.8 275.488 7
-3 10 -1 11984.9 284.028 11
3 -10 1 11704.5 344.925 53
3 -10 1 11649.9 329.388 57
3 -10 2 2626.75 159.931 55
3 -10 2 2674.11 160.22 57
-3 10 -2 2662.12 139.838 11
3 -10 2 2714.15 164.278 53
-3 10 -2 2857.51 149.027 14
-3 10 -3 114.185 47.4368 14
3 -10 3 102.793 47.0234 57
-3 10 -3 135.16 49.7888 11
3 -10 3 62.096 39.2957 55
3 -10 3 49.3539 37.9794 53
-3 10 -4 3.54797 32.6857 14
-3 10 -4 31.9182 33.1425 11
3 -10 4 13.4449 33.1963 57
3 -10 4 -18.9165 29.12 53
3 -10 4 17.8906 35.261 55
3 -10 5 652.225 78.4732 57
3 -10 5 600.363 81.0186 55
-3 10 -5 609.538 74.4157 11
-3 10 -5 659.955 75.5205 14
-3 10 -6 6294.29 213.221 14
3 -10 6 6196.32 219.9 57
3 -10 6 6087.96 229.551 55
-3 10 -7 11452.8 272.397 14
3 -10 7 11770.1 278.866 57
3 -10 7 11199.5 298.411 55
-3 10 -8 858.346 71.2743 14
3 -10 8 816.527 78.184 65
-3 10 -8 908 83.21 17
3 -10 8 787.837 77.8341 55
3 -10 9 161.869 37.3333 65
-3 10 -9 202.135 41.9473 17
3 -10 9 210.078 38.9262 55
3 -10 10 469.662 44.0001 65
-3 10 -10 492.298 51.8414 17
3 -10 10 539.356 55.0184 63
-3 10 -11 88.7282 21.6288 17
-3 9 9 340.802 39.8333 54
-3 9 9 374.765 36.4713 7
3 -9 -9 415.795 47.7874 51
-3 9 9 384.144 40.902 50
-3 9 8 5299.24 152.832 7
-3 9 8 5338.15 160.387 54
3 -9 -8 5276.4 185.946 51
-3 9 8 5323.13 159.012 50
-3 9 8 5295.92 154.807 47
-3 9 7 1243.91 87.6115 47
3 -9 -7 1154.52 90.3923 53
-3 9 7 1308.89 90.5309 50
-3 9 7 1233.51 89.4308 54
3 -9 -7 1378.69 108.269 51
-3 9 7 1354.84 89.1237 7
-3 9 6 772.572 77.0926 54
3 -9 -6 794.71 91.1061 51
-3 9 6 888.554 81.4463 47
-3 9 6 677.22 71.5159 50
3 -9 -6 803.298 86.9145 53
-3 9 6 831.409 76.7655 7
3 -9 -5 3451.61 351.462 40
-3 9 5 3757.24 161.98 47
-3 9 5 3671.81 161.161 7
-3 9 5 3808.12 163.851 54
3 -9 -5 3765.61 190.137 53
-3 9 5 3626.74 159.704 50
3 -9 -5 3597.78 187.844 51
3 -9 -4 5270.14 228.867 51
3 -9 -4 5058.61 437.932 40
3 -9 -4 5253.3 233.189 53
-3 9 4 5079.31 192.234 50
-3 9 4 4979.45 192.343 7
-3 9 4 5068.3 193.381 54
-3 9 4 4876.82 189.157 47
3 -9 -3 11814.9 682.126 40
-3 9 3 11794.3 293.736 50
3 -9 -3 11182.8 343.79 53
-3 9 3 11148.1 256.669 8
-3 9 3 11234.3 287.56 54
3 -9 -3 12251.7 348.019 51
-3 9 3 11190.5 289.184 47
-3 9 3 11426.2 289.326 7
3 -9 -2 2733.36 163.007 51
3 -9 -2 2650.83 324.33 40
-3 9 2 2770.12 134.518 14
-3 9 2 2744.98 142.67 50
-3 9 2 2696.66 144.411 54
3 -9 -2 2901.69 179.006 53
-3 9 2 2571.33 130.829 8
-3 9 2 2764.52 142.234 7
-3 9 1 219.589 51.218 54
-3 9 1 181.562 44.4861 50
3 -9 -1 160.381 42.1209 55
3 -9 -1 267.392 62.3945 53
-3 9 1 384.229 56.2973 7
3 -9 -1 297.217 60.2451 57
-3 9 1 179.84 43.587 8
3 -9 0 594.66 86.8863 53
-3 9 0 620.956 68.7711 8
3 -9 0 602.901 79.9067 57
3 -9 0 560.413 75.7397 55
-3 9 0 535.044 62.8548 7
-3 9 -1 20216 371.059 11
3 -9 1 20868.9 440.764 57
-3 9 -1 21871.5 399.568 14
-3 9 -1 20384 366.051 7
3 -9 1 20769.9 464.555 53
3 -9 1 20496.3 435.648 55
3 -9 2 160.393 47.2843 57
-3 9 -2 135.608 39.8127 14
3 -9 2 164.927 50.4712 53
-3 9 -2 118.705 38.2055 11
3 -9 2 153.77 50.5195 55
3 -9 3 7395.6 263.696 57
-3 9 -3 7091.05 232.839 11
3 -9 3 7426.32 269.54 55
3 -9 3 6909.12 262.204 53
-3 9 -3 7388.27 237.827 14
3 -9 4 6220.96 248.278 55
3 -9 4 6454.61 245.827 57
3 -9 4 5687.84 386.005 35
-3 9 -4 6668.01 228.2 14
3 -9 4 6328.07 243.864 53
-3 9 -4 6398.37 223.836 11
-3 9 -5 187.661 47.0323 14
3 -9 5 401.598 114.214 35
-3 9 -5 237.19 52.7346 11
3 -9 5 312.383 60.4091 55
3 -9 5 222.335 51.5341 57
3 -9 6 2741.06 289.219 35
3 -9 6 2891.13 160.144 57
-3 9 -6 2969.83 155.68 11
3 -9 6 2958.15 170.938 55
-3 9 -6 3051.55 158.204 14
-3 9 -7 1387.47 106.046 11
-3 9 -7 1281.25 100.358 14
3 -9 7 1239.82 197.759 35
3 -9 7 1338.24 115.006 55
3 -9 7 1404.67 107.596 57
-3 9 -8 544.361 65.2432 14
3 -9 8 529.395 72.1919 55
-3 9 -8 615.186 79.9859 17
-3 9 -9 242.49 52.6124 17
3 -9 9 243.628 48.6179 55
-3 9 -10 2.75005 28.9703 17
3 -9 10 68.872 26.6232 65
-3 9 -11 -14.1851 25.541 17
-3 9 -12 231.176 31.9251 17
-3 8 10 1257.18 57.6874 7
-3 8 10 1194.74 65.8501 50
-3 8 10 1266.88 68.0998 54
-3 8 10 1139.5 61.5713 47
-3 8 9 482.246 52.3219 47
-3 8 9 493.428 48.819 7
-3 8 9 474.786 53.7223 54
3 -8 -9 473.437 60.4196 51
-3 8 9 436.112 53.3317 50
-3 8 8 6028.06 185.976 47
3 -8 -8 6036.69 225.797 51
-3 8 8 6076.14 190.097 54
-3 8 8 5751.36 177.295 7
3 -8 -7 3992.85 198.463 51
-3 8 7 4262.95 167.667 7
-3 8 7 4187.42 166.887 47
3 -8 -7 3542.92 169.541 53
-3 8 7 4095.04 168.877 54
3 -8 -6 451.547 76.1358 51
-3 8 6 402.722 61.3669 47
3 -8 -6 421.755 70.0055 10
-3 8 6 458.296 65.1069 7
3 -8 -6 386.54 63.0166 53
-3 8 6 392.422 62.8507 54
3 -8 -5 4259.7 404.619 40
3 -8 -5 4593.04 206.843 10
-3 8 5 4638.91 187.676 54
3 -8 -5 5151.79 230.225 53
-3 8 5 4730.56 188.426 47
3 -8 -5 4646 227.403 51
3 -8 -4 38913.7 1224.03 40
-3 8 4 41420.4 549.021 54
3 -8 -4 40655.6 657.087 53
-3 8 4 40604.3 543.534 47
-3 8 4 40627.3 545.97 50
3 -8 -4 39075.4 602.945 10
3 -8 -4 39440 646.163 51
-3 8 3 2517.5 139.27 47
3 -8 -3 2576.39 157.235 10
3 -8 -3 2596.41 169.524 53
3 -8 -3 2578.2 165.566 51
-3 8 3 2476.92 124.292 8
3 -8 -3 2544.42 322.452 40
-3 8 3 2614.29 142.178 50
-3 8 3 2618.57 142.09 54
3 -8 -2 44418.3 663.49 51
-3 8 2 46401.2 565.482 54
3 -8 -2 44147.7 610.748 57
-3 8 2 47045.5 571.183 7
3 -8 -2 46137.8 695.271 53
3 -8 -2 45077.2 618.748 10
-3 8 2 45588.8 567.765 50
-3 8 2 44861.7 565.759 47
-3 8 2 44252.1 525.688 8
-3 8 1 675.596 70.7031 7
3 -8 -1 615.296 84.2455 53
-3 8 1 595.509 69.7 54
3 -8 -1 368.19 115.47 22
3 -8 -1 600.029 77.1794 51
-3 8 1 581.672 65.2716 8
3 -8 -1 592.009 74.5597 57
-3 8 1 617.442 139.441 1
-3 8 1 646.563 73.7723 50
3 -8 -1 536.238 72.1603 55
3 -8 0 26.1156 27.1141 55
3 -8 0 65.0868 37.5314 53
3 -8 0 143.701 81.5385 22
3 -8 0 99.6061 41.0341 57
-3 8 0 -117.499 87.5514 1
-3 8 0 52.2384 28.5386 54
-3 8 0 241.904 45.7675 8
-3 8 0 154.023 35.9136 7
-3 8 -1 26544.9 410.835 11
3 -8 1 25136.3 848.051 22
3 -8 1 26363.6 513.728 53
-3 8 -1 26201.2 894.763 1
-3 8 -1 27690.4 424.675 8
3 -8 1 28414 495.965 57
-3 8 -1 28033.3 416.637 7
3 -8 1 27278.2 487.65 55
-3 8 -2 2914.65 295.665 1
3 -8 2 2551.17 265.401 22
3 -8 2 2714.25 164.758 53
-3 8 -2 3076.86 144.88 11
3 -8 2 3027.08 165.029 57
-3 8 -2 3056.41 143.105 8
-3 8 -3 952.507 86.4685 11
-3 8 -3 1077.19 187.251 4
3 -8 3 774.309 138.816 35
3 -8 3 784.399 148.76 22
3 -8 3 786.315 94.3019 53
-3 8 -3 813.779 147.543 1
3 -8 3 816.295 89.5669 57
3 -8 4 2663.87 265.844 35
-3 8 -4 2600.4 140.285 14
3 -8 4 2435.83 154.371 53
3 -8 4 2369.46 147.779 57
-3 8 -4 2369.31 134.86 11
-3 8 -5 68.8096 29.2859 14
3 -8 5 97.3998 35.5748 57
-3 8 -5 67.4552 31.8108 11
3 -8 6 3319.53 319.087 35
-3 8 -6 3597.06 170.614 11
3 -8 6 3548.86 178.087 57
-3 8 -6 3560.46 170.461 14
3 -8 7 189.659 103.723 35
-3 8 -7 99.1414 35.5309 14
-3 8 -7 57.6704 37.2686 11
3 -8 7 97.7582 35.5735 57
-3 8 -7 105.643 36.1267 20
-3 8 -8 11276.6 279.478 20
-3 8 -8 11020.8 286.002 14
-3 8 -8 11135.7 295.26 11
-3 8 -9 7956.57 232.804 20
-3 8 -9 8070.08 261.872 17
-3 8 -10 2406.08 137.603 17
-3 8 -11 -3.10824 32.0622 17
-3 8 -12 136.577 34.3818 17
-3 7 11 1546.89 69.4544 54
-3 7 11 1382.02 66.4442 50
-3 7 11 1538.49 66.0426 47
-3 7 10 911.766 66.5534 47
3 -7 -10 830.932 75.5349 51
-3 7 10 938.66 68.6754 54
-3 7 10 892.754 59.0806 7
3 -7 -9 74.8082 36.0867 51
-3 7 9 146.53 35.4864 7
-3 7 9 75.1727 35.8454 47
-3 7 8 361.511 58.0434 47
3 -7 -8 309.488 61.5729 10
3 -7 -8 318.785 67.2281 51
-3 7 7 1144.04 95.597 47
3 -7 -7 1246.29 113.13 10
3 -7 -7 1140.48 116.264 51
3 -7 -6 11314.3 332.327 53
-3 7 6 11227.7 287.041 47
3 -7 -6 10970.4 326.843 10
3 -7 -6 10959.3 351.881 51
3 -7 -5 173.194 96.8264 40
3 -7 -5 323.409 63.0317 53
3 -7 -5 275.652 67.3047 51
3 -7 -5 314.195 65.8873 10
-3 7 5 277.195 53.7152 47
3 -7 -4 22225.6 897.541 40
-3 7 4 22502.3 396.703 47
3 -7 -4 21648.5 470.875 53
3 -7 -4 20777.3 441.567 10
3 -7 -4 21717.7 483.961 51
3 -7 -3 2022.59 253.737 22
-3 7 3 2711.79 136.106 54
3 -7 -3 2490.38 159.955 53
-3 7 3 2108.27 261.632 23
-3 7 3 2020.56 262.413 1
3 -7 -3 2208.03 145.741 10
-3 7 3 2588.75 134.912 47
3 -7 -3 2264.23 152.796 51
-3 7 2 19785.2 739.986 23
-3 7 2 21654 811.959 1
3 -7 -2 20626.5 815.379 22
-3 7 1 41158 846.269 33
3 -7 -1 42570.1 1074.46 38
-3 7 1 37821.4 1045.17 1
-3 7 1 36373.6 944.175 23
3 -7 -1 38152.4 1067.37 22
-3 7 0 374.257 109.706 1
3 -7 0 414.983 116.842 22
-3 7 -1 1912.47 228.313 1
3 -7 1 1654.14 210.713 22
-3 7 -2 1273 180.259 1
3 -7 2 1020.74 162.069 22
-3 7 -3 178.086 73.9033 1
3 -7 3 -3.79029 30.0523 35
3 -7 3 120.644 67.3093 22
3 -7 4 4651.42 330.569 35
-3 7 -4 4561.76 326.193 1
3 -7 4 4423.32 323.528 22
-3 7 -4 5117.36 379.212 4
-3 7 -5 2000.11 245.34 4
3 -7 5 2010.1 226.558 35
-3 7 -5 2166.58 125.177 14
-3 7 -5 1948.86 118.088 11
3 -7 5 1855.7 210.866 22
3 -7 6 19098.5 729.781 35
-3 7 -6 18022.8 366.134 11
3 -7 6 17164.4 652.64 22
-3 7 -6 19438.7 349.378 20
-3 7 -6 18327.1 371.108 14
-3 7 -7 44110.8 549.846 20
-3 7 -7 44095.3 583.054 11
-3 7 -7 44225.8 585.924 14
-3 7 -8 5459.06 209.645 11
3 -7 8 5651.26 428.978 35
-3 7 -8 5518.88 203.15 20
-3 7 -9 23811.2 425.825 20
-3 7 -9 24024.6 467.447 17
-3 7 -9 22864.3 417.979 11
-3 7 -10 1986.09 123.886 20
-3 7 -10 2099.48 139.524 17
-3 7 -11 1195.71 93.2522 20
-3 7 -11 1237.79 103.067 17
-3 7 -11 1151.33 88.7118 15
-3 7 -12 46.063 29.7446 15
-3 7 -12 14.6353 35.3993 17
-3 6 11 161.168 31.9849 54
-3 6 11 188.589 33.5078 47
3 -6 -11 265.205 38.6741 19
3 -6 -10 6617.86 207.189 19
-3 6 10 6835.75 175.403 7
-3 6 10 6583.3 186.006 47
3 -6 -10 6558.83 216.289 51
3 -6 -9 5020.21 197.27 10
3 -6 -9 5337.51 221.849 51
-3 6 9 5361.63 184.762 47
3 -6 -9 5203.41 203.605 19
-3 6 8 214.159 81.4986 37
3 -6 -8 303.864 63.1716 19
3 -6 -8 222.595 63.1333 51
3 -6 -8 145.772 49.4756 10
-3 6 8 190.642 48.717 47
3 -6 -7 2214.04 148.766 10
-3 6 7 2137.37 237.187 37
3 -6 -7 2294.25 144.724 19
3 -6 -7 2207.48 160.693 51
-3 6 7 1884.61 119.702 47
-3 6 6 557.882 68.4572 47
-3 6 6 590.598 62.6229 48
-3 6 6 544.41 126.358 37
3 -6 -6 478.566 80.7775 51
3 -6 -6 477.768 76.6716 10
3 -6 -5 3277.55 329.097 40
-3 6 5 2874.16 255.611 37
3 -6 -5 3237.16 178.838 53
3 -6 -5 3167.5 173.437 10
-3 6 5 3417.74 140.331 48
3 -6 -5 3371.87 193.957 51
-3 6 5 3292.66 150.642 47
3 -6 -4 9987.47 573.406 40
3 -6 -4 11239.4 642.858 38
3 -6 -4 10829.7 334.673 51
-3 6 4 10626.5 588.445 23
-3 6 4 11483.9 270.215 47
3 -6 -4 11466.9 312.838 10
-3 6 4 10891.7 562.714 1
3 -6 -3 23223.4 872.612 38
-3 6 3 23587.7 617.652 33
-3 6 3 22970.8 806.825 1
3 -6 -3 21630.2 785.69 22
-3 6 3 20999.6 779.906 23
3 -6 -2 643.393 146.81 22
3 -6 -2 960.891 167.075 38
-3 6 2 889.124 123.327 33
-3 6 2 714.675 141.678 1
-3 6 2 823.15 143.423 23
3 -6 -1 4331.53 335.245 38
3 -6 -1 4293.96 347.744 22
-3 6 1 4336.63 266.146 33
-3 6 1 3728.42 310.958 1
-3 6 1 3726.16 286.62 23
3 -6 0 2393.01 235.142 38
-3 6 0 1938.22 196.944 23
-3 6 0 1945.44 179.219 33
3 -6 0 1987.9 224.425 22
-3 6 0 2256.57 231.52 1
-3 6 -1 7124.74 402.458 1
3 -6 1 6849.94 403.19 22
-3 6 -2 2581.93 240.59 1
3 -6 2 1964.24 210.004 22
-3 6 -3 1038.99 149.496 1
3 -6 3 621.036 115.227 22
3 -6 3 931.886 181.341 42
-3 6 -4 16389.4 562.243 1
3 -6 4 15987.9 567.573 22
-3 6 -5 4643.53 356.284 4
3 -6 5 4257.97 297.106 22
3 -6 5 4899.07 415.616 42
3 -6 6 2851.38 327.83 42
-3 6 -6 2603.65 282.598 4
3 -6 6 1969.45 205.84 22
3 -6 7 8649.43 436.877 22
-3 6 -7 10463.2 592.103 4
3 -6 7 10131 533.114 35
-3 6 -7 9192.28 258.019 11
3 -6 7 11023 628.273 42
-3 6 -7 9047.53 246.58 20
3 -6 8 369.786 124.434 35
-3 6 -8 397.987 62.7636 11
-3 6 -8 362.942 59.9234 20
3 -6 9 2971.24 311.622 35
-3 6 -9 2738.41 149.293 20
-3 6 -9 2617.19 143.671 11
-3 6 -9 2735.78 161.498 17
3 -6 10 1566.92 226.165 35
-3 6 -10 1565.21 117.045 20
-3 6 -10 1620.34 126.053 17
-3 6 -10 1480.21 111.658 15
-3 6 -11 2965.97 153.186 15
-3 6 -11 2835.18 152.077 20
-3 6 -11 2992.51 163.372 17
-3 6 -12 1309.53 96.6328 15
-3 6 -12 1429.2 104.625 20
-3 6 -12 1588.07 117.246 17
-3 6 -13 2390.78 114.12 15
-3 6 -13 2584.16 128.582 17
-3 5 12 29.2093 19.0581 54
3 -5 -12 6.92425 15.8159 19
-3 5 12 46.2656 20.4233 47
-3 5 11 117.1 34.1125 47
3 -5 -11 95.7277 35.1279 19
3 -5 -10 72.5816 35.2554 10
3 -5 -10 52.2873 33.0768 51
3 -5 -10 29.3098 33.7864 19
3 -5 -9 4956.8 207.545 10
3 -5 -9 5330.84 228.642 51
3 -5 -9 5664.75 230.2 19
-3 5 8 3950.14 320.551 37
-3 5 8 4714.53 374.593 41
3 -5 -8 4532.02 206.867 10
3 -5 -8 4300.44 217.241 51
-3 5 8 4449.99 161.064 48
3 -5 -7 4612.15 197.765 9
-3 5 7 4435.94 339.073 30
-3 5 7 4670 362.747 41
-3 5 7 4564.67 165.619 48
3 -5 -7 4654.24 229.595 51
3 -5 -7 4564.55 207.47 10
-3 5 6 4548.3 349.641 41
3 -5 -6 4250.11 183.124 9
3 -5 -6 4781.05 231.29 51
-3 5 6 4449.78 321.076 30
-3 5 6 4712.72 165.976 48
3 -5 -6 4921.71 210.625 10
-3 5 5 4595.72 337.873 41
3 -5 -5 4206.56 401.669 38
-3 5 5 4343.89 296.06 30
-3 5 5 4228.2 367.432 23
-3 5 5 3772.95 309.214 1
-3 5 4 59659 1155.46 41
3 -5 -4 54448.5 1239.99 40
-3 5 4 50587 1193.49 23
-3 5 4 52849.6 960.144 37
-3 5 4 54280.5 974.533 30
3 -5 -4 56400.3 1397.59 38
3 -5 -4 50936.1 1103.42 22
-3 5 4 52642.4 1132.13 1
-3 5 3 631.908 131.928 23
3 -5 -3 712.632 153.467 38
-3 5 3 750.277 107.656 37
-3 5 3 871.92 140.984 1
-3 5 3 628.423 100.956 30
3 -5 -3 679.633 132.037 22
3 -5 -2 1449.61 196.837 38
-3 5 2 1273.47 136.191 33
-3 5 2 1008 150.651 1
-3 5 2 969.832 148.687 23
3 -5 -2 1155.52 172.98 22
-3 5 1 10281.3 467.286 1
3 -5 -1 9709.39 483.068 38
3 -5 -1 9818.05 472.806 22
-3 5 1 10377.5 381.391 33
-3 5 1 9432.09 424.068 23
3 -5 0 6718.88 374.86 38
-3 5 0 6367.55 301.452 33
3 -5 0 6448 379.259 22
-3 5 0 6143.24 347.859 1
-3 5 0 6034.05 312.47 23
-3 5 -1 23571 586.378 33
-3 5 -1 22424.8 646.939 1
-3 5 -1 22054.2 548.405 23
3 -5 1 23337.2 701.428 22
-3 5 -2 34080.6 773.134 1
3 -5 2 34384.1 811.438 22
3 -5 3 67607.1 1397.04 42
3 -5 3 68413.7 1099.57 22
-3 5 -3 69053.4 1077.33 1
-3 5 -4 392.166 90.3813 4
3 -5 4 380.819 86.9131 22
3 -5 4 315.398 118.728 31
-3 5 -4 362.594 81.1039 1
3 -5 4 263.926 113.227 42
-3 5 -5 4536.6 323.526 4
3 -5 5 4517.68 371.766 31
3 -5 5 4220.99 370.223 42
3 -5 5 4253.6 273.035 22
3 -5 6 25717 907.145 31
3 -5 6 24801.6 663.418 22
-3 5 -6 26420.5 825.111 4
3 -5 6 23782 877.438 42
3 -5 7 2433.63 301.711 31
3 -5 7 2784.91 224.851 22
-3 5 -7 2511.31 276.631 4
3 -5 7 2747.4 309.03 42
-3 5 -8 20302.6 823.077 4
3 -5 8 19710.5 872.273 31
-3 5 -8 18455.7 363.993 20
-3 5 -9 15624.3 345.548 15
-3 5 -9 15721.7 352.095 20
3 -5 9 16503.4 702.667 35
3 -5 9 16137.5 676.113 27
-3 5 -9 15495.8 367.523 17
-3 5 -10 1315.08 106.921 15
-3 5 -10 1285.79 107.486 20
3 -5 10 1405.14 217.486 35
-3 5 -10 1264.05 109.259 17
3 -5 11 -54.7782 43.16 35
-3 5 -11 17.3083 38.6163 15
-3 5 -11 -28.1735 33.9766 20
-3 5 -11 -78.427 43.4645 17
-3 5 -12 318.005 60.2845 15
-3 5 -12 281.441 57.0133 20
-3 5 -12 243.154 60.2039 17
-3 5 -13 376.286 58.9152 15
-3 5 -13 376.837 59.1598 17
-3 5 -14 334.283 45.7379 15
3 -4 -12 141.51 34.0908 19
-3 4 12 168.668 32.0998 47
3 -4 -11 4955.45 193.295 19
-3 4 10 3625.56 317.038 41
-3 4 10 3390.09 130.223 48
3 -4 -10 3286.13 158.578 10
3 -4 -10 3436.73 166.319 51
3 -4 -9 8168.32 265.195 10
-3 4 9 8058.27 217.534 48
3 -4 -9 8506.91 288.344 51
3 -4 -9 8160.17 272.552 9
-3 4 9 7507.99 464.255 41
-3 4 8 10745 538.705 30
-3 4 8 10547.1 255.758 48
3 -4 -8 11117.4 312.295 9
3 -4 -8 10912.4 312.933 10
3 -4 -8 11250.6 345.399 51
-3 4 8 10895.3 559.893 41
-3 4 7 3901.55 332.335 41
3 -4 -7 3820.78 182.228 10
-3 4 7 3806.73 312.9 30
3 -4 -7 3656.79 176.149 9
3 -4 -7 3372.82 191.859 51
-3 4 7 3727.28 152.562 48
-3 4 6 15525.8 630.249 41
-3 4 6 15752.8 595.894 30
3 -4 -6 15949.5 352.692 10
3 -4 -6 15322.4 399.003 51
-3 4 5 2699.44 231.237 30
-3 4 5 3008.62 266.113 41
3 -4 -5 3030.62 330.633 38
-3 4 5 2585.75 268.754 23
-3 4 5 2496.4 235.362 1
-3 4 4 31848.4 796.906 41
3 -4 -4 29869.7 838.155 40
3 -4 -4 30776.5 991.842 38
-3 4 4 31265.5 715.207 30
3 -4 -4 28970.6 776.807 22
-3 4 4 29419.3 775.283 1
-3 4 4 27889.8 827.77 23
-3 4 3 1574.34 172.624 41
-3 4 3 1425.32 178.721 23
3 -4 -3 1678.95 215.862 38
-3 4 3 1480.19 171.665 1
-3 4 3 1517.17 146.795 30
3 -4 -3 1649.65 185.02 22
3 -4 -3 2038.86 196.84 6
-3 4 2 16453.3 518.71 41
3 -4 -2 15900.9 630.897 38
-3 4 2 15849.3 419.199 30
-3 4 2 14743.2 522.812 23
-3 4 2 15263.8 527.826 1
3 -4 -2 15293.5 547.9 22
-3 4 1 3326.65 232.41 23
3 -4 -1 3498.98 257.731 22
-3 4 1 3830.32 255.742 1
-3 4 0 720.262 98.6486 33
-3 4 0 694.184 102.087 23
-3 4 0 639.436 110.36 1
3 -4 0 770.065 125.32 22
-3 4 -1 119737 1219.86 33
-3 4 -1 115438 1318.72 1
-3 4 -1 114758 1124.13 23
3 -4 1 120298 1675.96 42
-3 4 -2 2989.47 205.117 33
3 -4 2 2868.78 242.003 31
-3 4 -2 2889.66 205.208 1
3 -4 2 2810.73 215.622 22
-3 4 -2 2902.03 160.333 23
3 -4 2 2529.63 256.487 42
-3 4 -3 28655 643.915 4
3 -4 3 29223.7 768.175 31
-3 4 -3 29119.3 617.495 1
3 -4 3 29292.4 663.956 22
-3 4 -3 29225.9 534.943 5
3 -4 3 27968.3 828.466 42
3 -4 4 229.901 109.92 42
3 -4 4 160.084 62.2561 22
3 -4 4 151.512 111.167 31
-3 4 -4 183.603 53.5662 1
-3 4 -4 77.5706 41.4664 5
-3 4 -4 47.1378 45.2575 4
3 -4 5 688.747 153.143 42
-3 4 -5 565.214 112.764 4
3 -4 5 641.224 139.524 31
-3 4 -5 447.167 76.4421 5
3 -4 5 538.415 91.2543 22
-3 4 -6 120.335 63.1909 4
3 -4 6 92.3741 97.8289 31
3 -4 6 278.409 109.001 42
3 -4 6 296.801 66.999 22
3 -4 7 74.2411 83.2295 42
-3 4 -7 42.7537 49.2083 4
3 -4 7 122.492 91.7777 31
3 -4 7 326.164 73.7032 22
3 -4 8 2834.37 326.162 31
-3 4 -8 2948.78 302.286 4
3 -4 8 2883.35 312.544 42
-3 4 -9 9358.86 573.912 4
-3 4 -9 8656.5 254.824 15
3 -4 9 9188.21 591.006 31
-3 4 -9 8981.47 266.882 20
-3 4 -9 9145.97 269.761 17
-3 4 -10 5735.77 218.46 15
3 -4 10 5773.43 409.807 35
3 -4 10 6365.33 506.819 31
-3 4 -10 5872.89 224.016 20
-3 4 -10 5778.1 224.909 17
3 -4 10 6464.66 440.463 27
-3 4 -11 93.22 43.0184 17
3 -4 11 154.072 79.2662 35
-3 4 -11 -12.9607 34.4106 15
-3 4 -11 -1.60759 31.8769 20
-3 4 -12 719.486 86.6908 15
-3 4 -12 869.393 93.4902 17
-3 4 -12 883.986 91.3138 20
-3 4 -13 2715.25 149.449 15
-3 4 -13 2680.03 143.345 20
-3 4 -14 35.8222 36.1278 15
-3 4 -15 322.266 39.6916 15
3 -3 -12 354.191 54.06 19
3 -3 -11 211.616 46.3651 13
-3 3 11 234.324 39.2669 48
-3 3 10 540.428 135.366 41
-3 3 10 576.697 62.3913 48
3 -3 -10 596.161 72.1526 13
3 -3 -10 547.39 79.0628 9
3 -3 -9 148.096 46.2777 13
3 -3 -9 38.3941 34.8171 10
3 -3 -9 146.865 51.8643 9
-3 3 8 540.995 140.357 41
3 -3 -8 529.415 75.3901 51
3 -3 -8 601.492 77.7418 10
3 -3 -8 599.61 79.0077 9
3 -3 -7 20949.3 815.617 2
-3 3 7 22681.5 783.134 41
-3 3 7 21234.1 786.938 24
3 -3 -7 23179.3 421.863 10
3 -3 -7 21782.5 469.434 51
3 -3 -7 23429.2 429.745 9
-3 3 6 12287.9 549.974 41
3 -3 -6 11807.1 678.843 38
-3 3 5 28964.2 782.07 41
3 -3 -5 27695.2 754.994 1
-3 3 4 7219.78 366.523 41
3 -3 -4 7527.93 477.782 38
-3 3 4 6427.36 370.489 23
-3 3 4 7056.26 353.35 1
-3 3 3 733.219 121.018 23
3 -3 -3 851.029 153.328 38
3 -3 -3 728.645 116.375 22
-3 3 3 741.202 113.833 1
3 -3 -3 422.207 83.2271 6
-3 3 3 738.029 115.764 41
-3 3 2 3751.32 232.982 41
-3 3 2 3939.54 244.041 1
-3 3 2 3830.16 197.303 30
-3 3 2 3492.23 237.377 23
3 -3 -2 3939.83 250.227 22
-3 3 1 8066.89 320.68 41
-3 3 1 7508.71 239.337 30
3 -3 -1 7829.86 348.134 22
-3 3 1 7407.77 321.308 1
-3 3 1 7245.27 313.061 23
-3 3 0 38603.6 707.586 1
3 -3 0 39720.8 759.543 22
-3 3 0 37386.2 646.214 23
-3 3 -1 200884 1444.01 33
3 -3 1 199670 1648.04 31
-3 3 -1 213392 1618.99 1
3 -3 1 217907 1691.15 22
-3 3 -1 207282 1357.28 23
3 -3 1 194897 1953.43 42
-3 3 -2 52324.5 590.937 23
-3 3 -2 52678.9 773.168 33
3 -3 2 54546.8 892.715 31
-3 3 -2 52702.6 767.348 1
3 -3 2 52700.8 818.611 22
3 -3 3 8161.03 313.797 22
-3 3 -3 7793.68 314.777 33
3 -3 3 8397.08 364.653 31
3 -3 3 8762.31 402.16 28
-3 3 -3 8427.85 294.479 1
-3 3 -3 7825.4 302.251 4
3 -3 3 8170.8 404.265 42
3 -3 4 4709.37 237.501 22
-3 3 -4 5076.11 265.535 4
3 -3 4 4772.29 292.794 31
3 -3 4 4902.32 311.976 28
-3 3 -4 4968.25 217.312 1
-3 3 -4 4678.55 233.353 5
3 -3 4 4325.7 300.191 42
-3 3 -5 3436.39 237.131 4
3 -3 5 3226.1 259.147 31
3 -3 5 3380.91 202.649 22
-3 3 -5 3545.41 217.758 5
3 -3 5 3356.79 270.405 28
3 -3 5 3557.09 279.309 42
-3 3 -6 275.852 76.6733 4
3 -3 6 206.244 87.3879 42
3 -3 6 365.674 107.415 28
3 -3 6 306.478 64.3892 22
3 -3 6 375.963 108.543 31
-3 3 -6 295.392 79.3767 5
-3 3 -7 25789.3 765.349 4
3 -3 7 25038.4 571.162 22
3 -3 7 24670.1 795.092 28
3 -3 7 26333.4 817.029 31
3 -3 7 25861.6 820.848 42
-3 3 -8 9619.98 513.973 4
3 -3 8 10199.5 552.712 31
3 -3 8 9488.21 528.759 28
3 -3 8 10307.1 542.056 42
3 -3 9 18134.5 777.688 31
-3 3 -9 16154.7 712.216 4
3 -3 9 18491.3 778.462 28
-3 3 -10 3083.11 160.927 15
3 -3 10 3551.78 357.803 31
-3 3 -10 3296.85 168.365 12
-3 3 -10 3127.07 163.262 20
-3 3 -10 3238.7 164.681 17
3 -3 10 3311.12 311.171 27
-3 3 -11 418.902 66.7961 20
-3 3 -11 325.02 59.0053 15
-3 3 -11 383.781 64.5633 17
-3 3 -12 2.95127 38.7868 15
-3 3 -12 -0.90581 31.6643 20
-3 3 -12 69.0946 49.5901 17
-3 3 -13 4868.04 206.76 15
-3 3 -13 4617.9 194.203 20
-3 3 -14 1121.26 95.9943 15
-3 3 -15 2397.95 114.235 15
3 -2 -13 190.126 37.9817 19
-3 2 12 15.0188 21.6281 48
3 -2 -12 -15.0861 23.5474 13
3 -2 -11 891.86 84.8976 13
3 -2 -11 965.756 95.1418 9
-3 2 11 985.065 74.6796 48
3 -2 -10 1096.88 106.069 9
-3 2 10 854.383 164.741 41
-3 2 9 1.86867 42.486 41
3 -2 -9 17.9853 28.6035 10
-3 2 9 -25.5855 70.4888 32
3 -2 -9 0.18022 44.8301 9
-3 2 8 288.816 115.641 32
-3 2 8 420.788 132.256 41
3 -2 -8 447.487 62.8856 10
3 -2 -8 476.73 71.3831 9
-3 2 7 50192.9 1152.6 32
3 -2 -7 48558.9 1208.98 2
-3 2 7 47421.5 1137.59 24
-3 2 7 51271.9 1169.85 41
3 -2 -7 51397.5 615.355 9
-3 2 6 13510.7 556.452 32
-3 2 6 12494.1 549.047 24
3 -2 -6 12138.9 570.064 2
-3 2 6 12980.3 552.144 41
3 -2 -6 14277.3 717.797 38
-3 2 5 19011.4 617.348 41
3 -2 -5 18208.6 757.41 38
3 -2 -5 17172.2 549.526 1
-3 2 5 18435.8 594.995 32
3 -2 -4 50.4566 58.977 38
3 -2 -4 186.497 62.8276 1
-3 2 4 267.097 71.8676 32
3 -2 -4 126.435 44.9489 6
-3 2 4 366.421 84.1118 41
3 -2 -3 113.15 62.2626 38
-3 2 3 201.565 62.89 32
-3 2 3 169.994 54.6881 1
-3 2 3 111.868 51.027 41
3 -2 -3 72.1534 39.5838 6
-3 2 3 162.959 62.7192 23
-3 2 2 308.967 69.9237 1
-3 2 2 364.512 75.3788 41
-3 2 2 298.245 64.2396 32
-3 2 2 322.15 77.7502 23
3 -2 -2 235.699 65.8931 22
3 -2 -2 214.307 51.0252 6
-3 2 1 4512.17 231.775 1
3 -2 -1 4278.71 228.923 22
-3 2 1 4128.12 220.031 23
-3 2 1 4611.31 221.82 41
3 -2 0 46626.4 646.758 31
-3 2 0 48426.9 714.579 1
-3 2 0 48503.7 680.101 23
3 -2 1 24609.3 502.377 22
3 -2 1 23902.1 481.975 31
-3 2 -1 24822.8 491.693 1
-3 2 -1 24189.3 422.27 23
-3 2 -2 81895.8 866.135 33
3 -2 2 83557.2 1047.16 28
-3 2 -2 83410.1 862.514 1
-3 2 -2 82664.8 794.199 4
3 -2 2 84217.7 902.413 22
-3 2 -3 722.909 86.6495 4
3 -2 3 664.682 81.9448 22
-3 2 -3 685.788 88.3733 33
3 -2 3 746.902 109.373 28
-3 2 -3 887.339 85.5701 1
-3 2 -3 740.72 47.4691 24
-3 2 -4 2505.63 133.178 1
3 -2 4 2759.13 148.519 25
3 -2 4 2733.4 208.961 28
3 -2 4 2455.06 150.956 22
-3 2 -4 2792.17 183.129 4
-3 2 -4 2831.84 187.057 5
3 -2 5 86429.7 1107.17 39
-3 2 -5 89118.1 1118.1 4
3 -2 5 88875.9 1233.91 28
3 -2 5 84321.4 882.521 22
3 -2 5 92148.7 954.016 25
-3 2 -5 87739 1089.17 5
-3 2 -6 12022.2 453.825 4
3 -2 6 12253.3 489.943 28
-3 2 -6 12070.5 442.439 5
3 -2 6 12143.6 340.98 22
3 -2 6 12508.5 393.713 25
-3 2 -7 636.229 118.128 4
3 -2 7 533.182 116.341 28
3 -2 7 768.318 115.37 25
3 -2 8 8300.13 464.968 28
3 -2 8 8108.93 388.041 25
-3 2 -8 7830.35 442.988 4
-3 2 -9 15168.4 665.682 4
3 -2 9 16971.1 709.09 28
3 -2 9 16485.6 606.74 25
3 -2 9 17228.7 712.029 31
-3 2 -10 3004.67 157.883 15
-3 2 -10 2953.26 153.22 17
3 -2 10 3535.09 338.49 31
-3 2 -10 3329.23 164.762 12
-3 2 -10 3354.32 169.165 20
-3 2 -10 3068.86 328.905 4
3 -2 10 3107.93 291.166 27
-3 2 -11 1048.54 102.6 15
-3 2 -11 1163.88 106.656 12
-3 2 -11 1067.24 98.2819 17
-3 2 -11 1018.92 99.0199 20
-3 2 -12 -29.9883 44.3391 15
-3 2 -12 1.47411 29.0535 20
-3 2 -12 44.4467 40.5821 17
-3 2 -13 985.752 103.348 15
-3 2 -13 910.793 90.6644 20
-3 2 -14 837.333 89.5123 15
-3 2 -14 706.628 73.1486 13
-3 2 -15 202.804 44.943 15
-3 2 -15 304.668 44.0355 13
3 -1 -13 360.236 51.8499 19
3 -1 -12 539.039 62.854 13
3 -1 -12 617.135 71.8408 9
-3 1 12 610.34 53.7872 48
3 -1 -11 10406.9 294.327 9
-3 1 10 257.548 89.8836 41
3 -1 -10 253.3 60.7362 9
-3 1 9 4908.92 401.62 32
-3 1 9 4839.07 395.532 41
3 -1 -9 4503.36 201.184 9
-3 1 8 25255.3 864.123 32
-3 1 8 26762.7 894.853 41
3 -1 -8 25846.4 459.673 9
-3 1 7 1169.75 181.16 24
3 -1 -7 1342.24 200.996 2
-3 1 7 1081.26 177.322 32
-3 1 7 1177.93 187.002 41
-3 1 6 17.3466 54.747 41
3 -1 -6 11.5873 38.1432 38
-3 1 6 -84.8964 67.4347 24
-3 1 6 -26.4567 45.4476 32
3 -1 -6 -20.5319 43.4914 2
-3 1 5 7812.1 392.132 41
-3 1 5 8065.78 387.713 32
3 -1 -5 7694.36 405.319 2
-3 1 5 7735.16 388.828 24
3 -1 -5 7819.86 367.324 6
3 -1 -5 7593.3 470.497 38
3 -1 -5 7754.88 347.79 1
3 -1 -4 15364.7 621.687 38
-3 1 4 17253.6 515.295 32
3 -1 -4 16558.9 468.539 6
-3 1 4 15953.6 512.441 41
3 -1 -4 16604.6 484.711 1
-3 1 3 88799.4 1087.62 41
-3 1 3 88242.3 1040.74 32
3 -1 -3 90243.5 1062.76 1
3 -1 -3 91748.9 962.332 6
-3 1 2 140.56 49.3967 1
3 -1 -2 160.217 38.5687 6
-3 1 1 73358.1 851.714 1
3 -1 -1 72980.6 849.74 22
3 -1 -1 71778.2 565.986 6
-3 1 0 12716.4 335.607 1
3 -1 0 13362.8 344.444 22
3 -1 0 11620.5 166.764 6
-3 1 -1 7615.03 217.393 24
3 -1 1 7928.68 253.778 22
-3 1 -1 7754.94 179.202 4
-3 1 -1 8453.36 261.068 1
-3 1 -2 61634.4 535.558 24
3 -1 2 61012.4 773.809 28
-3 1 -2 61719.9 605.667 4
-3 1 -2 62732.7 662.887 1
3 -1 2 60094.1 663.103 22
-3 1 -3 8468.37 259.906 4
-3 1 -3 8535.54 229.015 1
3 -1 3 7994.36 236.313 22
-3 1 -3 8857.35 285.147 33
-3 1 -3 7997.58 156.943 24
-3 1 -4 24299.1 352.002 1
3 -1 4 26633 475.217 29
-3 1 -4 24392.1 502.167 4
3 -1 4 24865.1 406.156 22
-3 1 -4 25311.6 551.403 5
3 -1 4 25561.9 363.801 1
3 -1 4 25748.1 508.289 25
-3 1 -5 10494.8 364.527 4
3 -1 5 11523.3 343.905 29
3 -1 5 10679 353.655 25
3 -1 5 10522.9 264.266 22
-3 1 -5 11277.7 362.625 6
-3 1 -5 10848 389.176 5
3 -1 5 11089.6 197.532 1
-3 1 -6 76835 1094.87 4
-3 1 -6 83642.5 1108.51 6
-3 1 -6 81428.7 1167.82 5
3 -1 6 84056.5 1088.62 25
3 -1 6 79426.7 734.186 22
-3 1 -7 102132 1371.4 6
3 -1 7 102406 1307.05 25
-3 1 -7 99507.7 1371.68 4
-3 1 -8 1795.97 208.047 4
-3 1 -8 1539.73 189.77 6
3 -1 8 1349.59 175.277 25
-3 1 -9 41.4508 60.4035 4
3 -1 9 159.305 77.8701 25
-3 1 -10 3686.46 173.963 15
-3 1 -10 3763.94 176.102 20
-3 1 -10 3630.25 168.809 12
3 -1 10 4323.16 364.612 31
3 -1 10 3847.93 316.851 26
3 -1 10 4076.01 310.908 27
-3 1 -10 3673.64 166.236 17
3 -1 10 4077.4 353.533 25
-3 1 -11 35.0866 34.7286 15
3 -1 11 43.9567 48.7966 27
-3 1 -11 74.6882 38.2064 12
-3 1 -11 61.5444 30.1207 20
-3 1 -11 65.082 35.7571 17
-3 1 -12 2170.76 146.829 15
-3 1 -12 2032.3 136.096 20
-3 1 -12 2321.92 146.286 12
-3 1 -13 3718.36 189.301 15
-3 1 -13 3497.59 168.877 20
-3 1 -14 785.861 91.0252 15
-3 1 -14 761.711 82.3689 13
-3 1 -15 5266.69 187.217 15
-3 1 -15 4726.92 161.867 13
3 0 -13 650.62 56.7529 13
3 0 -12 145.265 43.2191 13
3 0 -12 119.476 45.518 9
3 0 -11 785.504 91.7693 9
-3 0 10 21.4226 38.3324 41
3 0 -10 119.892 49.436 9
-3 0 9 6235.98 445.893 41
-3 0 9 6348.93 451.34 32
3 0 -9 6750.27 245.658 9
-3 0 8 6012.47 430.523 41
-3 0 8 5918.02 406.473 34
-3 0 8 5888.36 422.046 32
3 0 -8 5913.97 220.014 9
3 0 -7 4157.58 347.991 2
-3 0 7 3968.46 328.265 32
-3 0 7 3946.66 320.016 34
-3 0 7 3957.51 309.621 24
3 0 -6 21547.8 805.744 38
-3 0 6 21756.9 691.794 34
-3 0 6 19997.6 666.983 32
3 0 -6 21402.5 722.048 2
-3 0 6 22009.8 680.323 24
-3 0 5 2779.49 227.278 24
3 0 -5 2761.28 277.906 38
-3 0 5 2874.54 235.406 34
3 0 -5 2741.58 240.424 2
3 0 -5 2786.53 218.58 6
3 0 -5 2568.69 194.768 1
3 0 -4 2834.1 260.421 38
-3 0 4 2390.81 195.958 24
3 0 -4 2502.35 184.135 1
3 0 -4 2476.36 180.877 6
-3 0 4 2606.81 208.873 34
3 0 -4 2437.29 206.355 2
3 0 -3 11321.1 330.562 6
-3 0 3 10770.5 377.442 34
3 0 -3 10628.3 386.153 2
-3 0 3 10690.3 374.486 24
3 0 -3 11071.1 360.452 1
-3 0 2 142715 989.351 21
-3 0 2 141900 1251.51 34
3 0 -2 136897 948.67 6
-3 0 2 139974 1235.31 24
3 0 -2 136269 1191.39 1
3 0 -1 193.608 47.8083 1
-3 0 1 210.322 42.6877 32
-3 0 1 226.356 43.4933 21
-3 0 1 185.614 47.167 24
-3 0 0 639.884 69.5715 21
3 0 0 524.806 59.3954 28
3 0 0 596.676 71.0767 22
-3 0 0 546.399 69.0728 24
3 0 0 557.713 72.3282 1
3 0 1 36667.6 514.213 1
-3 0 -1 36093.5 466.157 24
3 0 1 35074.2 487.227 22
-3 0 -1 34961 332.441 4
-3 0 -2 19534 310.797 24
-3 0 -2 19354.2 320.887 4
3 0 2 19890.9 337.462 22
-3 0 -2 20071.5 235.664 6
3 0 2 20093.3 355.27 1
3 0 3 14077.4 278.233 1
-3 0 -3 14982.2 329.4 4
-3 0 -3 14565.9 296.635 3
3 0 3 14421.4 269.996 22
-3 0 -3 14036.5 307.541 21
-3 0 -3 14458.4 281.812 6
-3 0 -3 14290.9 247.02 24
-3 0 -4 48701.5 569.977 21
-3 0 -4 46856.3 670.711 4
-3 0 -4 48007.5 625.098 3
3 0 4 48692.2 761.44 25
3 0 4 46822.2 460.279 22
-3 0 -4 49854.6 631.484 6
-3 0 -4 48443.9 732.022 5
3 0 4 48439.2 464.532 1
-3 0 -5 13517.2 404.207 4
3 0 5 13406.1 417.528 25
3 0 5 12783.4 227.666 22
-3 0 -5 12756.6 294.225 21
-3 0 -5 13193.9 416.123 5
-3 0 -5 13617.4 385.946 6
-3 0 -6 226391 1872.57 4
-3 0 -6 225737 1784.63 6
-3 0 -6 221252 1867.51 5
3 0 6 225384 1815.09 25
-3 0 -7 3982.49 276.329 4
-3 0 -7 4027.83 270.907 6
3 0 7 3749.65 263.172 25
3 0 8 6816.89 381.357 25
-3 0 -8 7013.09 395.119 6
-3 0 -8 7006.13 394.378 4
3 0 9 425.883 108.687 25
3 0 9 444.174 91.1177 26
-3 0 -9 459.827 116.791 6
3 0 10 190.499 71.5888 27
3 0 10 242.841 91.1695 25
-3 0 -10 121.698 76.9218 6
-3 0 -11 4657.27 199.945 20
-3 0 -11 5008.28 215.411 15
-3 0 -11 5137.69 208.501 12
-3 0 -12 -10.148 41.4424 15
-3 0 -12 61.8119 44.3169 12
-3 0 -13 2188.8 142.785 13
-3 0 -13 2103.99 134.886 12
-3 0 -13 2122.37 147.335 15
-3 0 -14 460.467 70.5559 13
-3 0 -14 412.24 71.8797 15
-3 0 -15 915.367 84.834 15
-3 0 -15 829.734 77.9943 13
3 1 -13 55.9114 27.7153 13
3 1 -13 115.922 34.9528 9
-3 -1 13 108.53 22.4289 48
3 1 -12 985.737 88.7959 9
3 1 -11 14.4195 37.6448 15
3 1 -11 6.91789 43.0312 9
3 1 -10 2858.57 152.667 15
-3 -1 10 2576.84 290.654 41
3 1 -10 3005.21 169.052 9
-3 -1 9 2779.47 301.909 41
3 1 -9 2658.69 147.911 15
-3 -1 9 2505.12 270.549 34
-3 -1 9 2165.6 268.809 32
3 1 -9 2861.29 162.832 9
3 1 -8 4861.27 192.643 15
-3 -1 8 4915.11 384.956 32
3 1 -8 5065.53 206.531 9
-3 -1 8 4859.52 375.98 34
-3 -1 7 -42.1628 57.0761 34
-3 -1 7 -39.0604 44.0641 24
3 1 -6 17991 663.941 2
-3 -1 6 17700.4 635.343 34
-3 -1 6 19175 622.205 24
-3 -1 5 45102.7 937.567 34
-3 -1 5 45291.3 886.228 24
3 1 -5 45991.3 811.241 1
3 1 -5 44825.4 1023.84 38
3 1 -5 45609.5 961.141 2
3 1 -4 10367 369.757 1
3 1 -4 10808.4 476.724 38
-3 -1 4 10964 425.767 34
-3 -1 4 10256.6 388.039 24
3 1 -4 10799.4 422.895 2
3 1 -3 73936.2 1001.31 2
-3 -1 3 77922 1032.14 34
-3 -1 3 77205.2 983.551 24
3 1 -3 75354.5 934.891 1
-3 -1 3 79330.6 734.681 21
3 1 -2 154640 1255.08 1
-3 -1 2 154711 1274.18 24
3 1 -2 157608 1311.84 2
-3 -1 2 158138 1054.36 21
-3 -1 2 159191 1340.34 34
-3 -1 1 18901.9 419.079 34
3 1 -1 18484 400.259 2
-3 -1 1 19047.7 365.11 21
-3 -1 1 18327.7 406.031 24
3 1 -1 18094.1 407.803 1
3 1 0 639444 2053.75 2
-3 -1 0 636052 2199.78 24
3 1 0 633280 2271.09 1
-3 -1 0 629615 2105.64 21
-3 -1 -1 89191.1 763.793 24
3 1 1 91167.9 815.553 1
3 1 2 67893.5 662.689 1
-3 -1 -2 66578.6 624.346 24
3 1 3 1318.86 90.4858 1
3 1 3 1455.4 132.768 29
-3 -1 -3 1376.66 91.6193 6
3 1 3 1275.91 131.669 36
-3 -1 -3 1300.11 95.6034 21
-3 -1 -3 1303.7 87.59 24
3 1 4 1586.02 90.9476 1
3 1 4 1649.04 147.522 25
-3 -1 -4 1492.14 120.797 3
3 1 4 1587.98 148.043 29
-3 -1 -4 1605.19 135.951 5
3 1 4 1366.93 97.8564 30
-3 -1 -4 1386.36 98.4252 21
-3 -1 -4 1443.94 112.6 6
-3 -1 -5 6929.63 287.122 3
3 1 5 6596.62 237.637 30
-3 -1 -5 7039.73 282.121 6
3 1 5 6828.05 307.961 25
3 1 5 7205.41 164.899 1
-3 -1 -5 7046.68 219.113 21
-3 -1 -5 6746.96 295.081 5
3 1 6 46588.3 861.201 25
-3 -1 -6 48595.7 838.394 3
-3 -1 -6 49567.4 850.223 6
-3 -1 -6 45080.8 538.53 21
-3 -1 -6 49100 855.732 5
3 1 7 5314.92 320.49 25
-3 -1 -7 5896.29 331.423 6
-3 -1 -8 3628.98 289.064 6
3 1 8 3694.75 226.382 26
3 1 8 4171.32 309.285 25
3 1 9 5357.23 312.89 32
-3 -1 -9 6028.14 409.53 6
3 1 9 5778.33 390.404 25
3 1 10 47094.3 1005.95 32
3 1 10 47368.1 1049.07 30
3 1 10 49710.9 1235.34 25
-3 -1 -10 49837.2 1272.34 6
-3 -1 -11 3918.98 194.578 15
3 1 11 3665.95 312.17 30
-3 -1 -11 3921.58 182.282 12
-3 -1 -11 3542.01 173.032 9
-3 -1 -12 3112.74 180.351 15
3 1 12 3030.83 298.988 30
-3 -1 -12 3236.68 168.852 12
-3 -1 -12 3252.32 178.16 13
-3 -1 -13 2461.22 158.506 15
-3 -1 -13 2238.63 148.363 13
-3 -1 -13 2494.31 145.876 12
-3 -1 -13 2165.91 140.308 19
-3 -1 -14 4304.04 198.448 15
-3 -1 -14 4147.82 187.333 13
-3 -1 -15 1272.65 99.1951 15
-3 -1 -15 1148.37 91.3904 13
3 2 -13 67.8176 29.4465 13
3 2 -13 27.1548 25.6791 9
3 2 -12 31.9581 38.1996 9
3 2 -12 21.9236 23.3716 15
3 2 -11 1982.94 125.228 15
3 2 -11 1978.2 133.775 9
-3 -2 10 2169.23 260.73 41
3 2 -10 2319.98 142.761 15
-3 -2 10 2331.43 266.39 34
3 2 -10 2346.08 150.428 9
3 2 -9 18270.6 391.541 15
-3 -2 9 17896.1 761.055 32
-3 -2 9 18483.1 751.128 34
3 2 -9 18957.9 411.946 9
3 2 -8 7250.83 240.465 15
-3 -2 8 8072.27 493.508 34
3 2 -8 8096.64 261.585 9
-3 -2 7 -55.3869 61.8287 34
3 2 -7 19.6773 28.1327 61
3 2 -7 -92.8301 65.9321 2
-3 -2 6 2260.92 232.468 34
-3 -2 6 2381.32 215.695 24
3 2 -6 2469.53 251.2 2
-3 -2 5 126118 1599.42 34
-3 -2 5 127165 1462.95 24
3 2 -5 122377 1598.09 2
3 2 -4 2455.05 185.436 1
-3 -2 4 2473.65 209.993 34
-3 -2 4 2367.26 204.542 26
3 2 -4 2254.65 199.057 2
-3 -2 4 2473.08 193.524 24
3 2 -3 15054.5 426.397 1
-3 -2 3 14970.3 461.747 34
-3 -2 3 15567 467.063 26
-3 -2 3 14629.1 428.33 24
3 2 -3 14717.7 455.261 2
-3 -2 3 15500.1 349.629 21
3 2 -2 261894 1695.85 1
-3 -2 2 277769 1760 26
3 2 -2 257364 1101.35 4
3 2 -2 267595 1738.52 2
-3 -2 2 263737 1681.95 24
-3 -2 2 268715 1763.13 34
-3 -2 2 267590 1469.6 21
3 2 -1 52320.8 715.507 1
-3 -2 1 50981 696.511 34
-3 -2 1 49715.2 684 24
-3 -2 1 51814.9 669.376 26
-3 -2 1 49596.4 626.285 21
3 2 -1 51049.1 678.774 2
3 2 0 71829.4 805.074 1
3 2 0 70339.9 694.787 2
-3 -2 0 69162.4 758.171 24
-3 -2 0 71253.5 744.241 21
3 2 1 111428 953.913 1
-3 -2 -1 108715 902.04 24
3 2 1 109293 729.88 2
-3 -2 -2 163587 1081.81 24
3 2 2 166010 1131.26 1
3 2 3 9930.34 269.011 1
3 2 3 10361.7 394.128 29
-3 -2 -3 9938.24 278.941 21
3 2 4 313822 1690.83 30
3 2 4 312957 1467.3 1
3 2 4 331872 2301.81 29
-3 -2 -4 316111 1839.14 6
-3 -2 -4 324873 1578.51 21
3 2 4 318639 2090.38 25
-3 -2 -4 330717 1758.48 5
3 2 5 1092.8 85.8728 32
-3 -2 -5 1221.47 131.246 3
3 2 5 1188.73 109.323 30
3 2 5 1000.09 124.848 25
3 2 5 1264.66 93.0014 1
-3 -2 -5 1195.74 99.2673 21
-3 -2 -5 1251.4 126.224 5
-3 -2 -5 1410.52 136.145 6
-3 -2 -6 114.998 50.3796 5
3 2 6 154.906 39.7336 32
3 2 6 154.509 51.6647 30
-3 -2 -6 224.848 77.7563 3
3 2 6 234.299 73.4773 25
-3 -2 -6 188.313 43.506 21
-3 -2 -6 198.487 66.3203 6
3 2 6 305.009 48.0832 26
3 2 7 1239.87 162.847 25
-3 -2 -7 1286.72 166.436 3
3 2 7 1166.03 122.758 32
3 2 7 1163.17 134.283 30
-3 -2 -7 1356.64 169.593 6
3 2 8 3437.23 227.345 32
3 2 8 3780.24 259.596 30
3 2 8 3754.21 299.323 25
-3 -2 -8 3660.55 300.274 6
3 2 9 19473.5 636.057 30
3 2 9 19621.9 599.254 32
-3 -2 -9 19959.4 759.551 6
3 2 9 20175.4 741.534 25
3 2 10 12841.5 644.49 25
-3 -2 -10 12328.3 329.479 15
3 2 10 12896.1 522.122 32
3 2 10 12454.4 549.507 30
-3 -2 -10 13646.8 679.442 6
-3 -2 -11 3605.16 193.19 15
-3 -2 -11 3862.54 191.902 13
3 2 11 4041.9 334.885 30
-3 -2 -11 3824.95 180.648 12
-3 -2 -12 577.835 83.7871 15
-3 -2 -12 628.044 82.8334 19
-3 -2 -12 605.363 84.0379 13
-3 -2 -12 587.224 76.4315 12
-3 -2 -13 -14.0196 48.2609 15
3 2 13 134.89 67.4328 37
-3 -2 -13 147.045 53.1731 13
-3 -2 -13 43.5129 36.1124 19
-3 -2 -13 -55.435 36.7974 12
-3 -2 -14 120.255 50.2848 15
-3 -2 -14 130.523 50.1993 13
-3 -2 -14 112.405 38.8579 19
-3 -2 -15 303.695 45.0748 19
-3 -2 -15 337.142 58.1197 13
3 3 -13 1438.07 79.0822 13
3 3 -12 13169.9 273.61 15
3 3 -12 13260 280.38 9
-3 -3 12 12993.2 210.544 49
3 3 -11 7344.96 237.642 15
3 3 -11 7253.75 237.546 9
3 3 -10 23157.5 446.064 15
3 3 -10 22864.5 444.558 9
-3 -3 9 8809.99 526.479 34
3 3 -9 9205.73 288.471 9
3 3 -9 9345.77 289.665 15
3 3 -8 2126.9 137.957 15
-3 -3 8 1892.72 248.608 34
3 3 -8 2131.65 138.647 9
3 3 -8 2095 139.352 61
3 3 -7 470.937 66.7857 15
-3 -3 7 261.013 107.074 34
3 3 -7 245.592 100.441 2
3 3 -7 306.597 55.6683 61
-3 -3 6 311.647 100.486 26
-3 -3 6 381.286 111.441 34
3 3 -6 274.373 107.548 2
-3 -3 6 524.219 103.016 24
-3 -3 5 82.4304 64.1504 34
-3 -3 5 208.706 65.9957 24
3 3 -5 245.8 82.7222 2
-3 -3 5 258.131 81.5517 26
-3 -3 4 49216.6 940.141 34
3 3 -4 48401.3 955.737 2
-3 -3 4 50314.8 945.826 26
3 3 -4 48751.5 859.091 1
-3 -3 4 50234.4 867.05 24
-3 -3 3 16462.5 397.763 21
3 3 -3 16459.9 388.187 4
-3 -3 3 16163.9 460.965 24
3 3 -3 16072.1 467.951 1
-3 -3 3 16406.1 497.253 34
3 3 -3 15033.2 485.835 2
-3 -3 3 17420.4 502.947 26
-3 -3 2 1740.99 151.181 34
3 3 -2 1783.57 155.411 2
-3 -3 2 1684.82 127.964 21
-3 -3 2 1706.49 142.855 24
3 3 -2 1781.83 150.758 1
-3 -3 2 1730.03 145.454 26
3 3 -1 11997 372.679 1
-3 -3 1 12560.3 337.005 26
3 3 -1 12484.8 359.639 2
-3 -3 1 12442.7 342.826 21
-3 -3 1 12020.2 353.231 24
-3 -3 1 12422.5 353.055 34
-3 -3 0 25293.4 444.077 34
3 3 0 25571.7 464.065 2
-3 -3 0 24923.2 485.111 24
-3 -3 0 25300.9 486.336 21
-3 -3 0 25113.5 409.99 26
3 3 0 26709.9 535.635 1
3 3 1 120203 1447.82 36
3 3 1 127503 1145.02 1
-3 -3 -1 122740 1037.12 24
3 3 1 125996 927.585 2
-3 -3 -1 120048 1056.58 21
3 3 2 225201 1477.26 1
-3 -3 -2 221451 1428.32 21
-3 -3 -2 227112 1413.12 24
3 3 2 219171 2013.42 36
3 3 3 27157.5 510.678 1
3 3 3 26033.6 666.2 29
-3 -3 -3 27656.8 506.649 21
3 3 3 27278.5 579.861 37
-3 -3 -3 27677.3 451.144 5
3 3 4 43469 728.268 37
3 3 4 45196.6 892.529 29
-3 -3 -4 44078.6 649.345 21
-3 -3 -4 45250.9 634.222 5
3 3 4 45309.1 657.16 1
-3 -3 -5 10444 405.277 3
3 3 5 9622.75 350.104 37
3 3 5 10039.8 352.019 30
-3 -3 -5 10360.8 402.616 6
3 3 5 10593.8 318.145 1
-3 -3 -5 10080.7 309.403 21
3 3 5 10366 415.248 25
-3 -3 -5 10351.4 332.223 5
3 3 6 6459 302.844 37
-3 -3 -6 7110.71 363.485 3
3 3 6 6551.31 301.683 30
3 3 6 6894.75 357.95 25
-3 -3 -6 6822.59 252.913 21
-3 -3 -6 7384.89 369.962 6
-3 -3 -7 68489.8 1212.49 3
3 3 7 67205.2 1037.31 30
3 3 7 70034.1 1216.79 25
-3 -3 -7 69705.9 1228.42 6
3 3 8 315.947 95.7461 25
3 3 8 316.04 74.1585 32
3 3 8 376.417 96.7832 30
-3 -3 -8 422.622 120.596 6
-3 -3 -9 1694.17 236.888 6
3 3 9 1446.66 171.631 32
3 3 9 1716.72 193.431 30
3 3 9 1561.03 221.293 25
-3 -3 -10 35095.5 561.986 15
-3 -3 -10 36578.6 565.501 13
3 3 10 36513.9 965.024 30
-3 -3 -10 34622.9 518.25 12
3 3 10 37896.4 1124.26 25
-3 -3 -10 37879.7 1157.01 6
-3 -3 -11 123761 1096.76 15
-3 -3 -11 131850 1128.97 13
3 3 11 131910 1922.85 30
-3 -3 -11 123633 1021.26 12
-3 -3 -11 125955 1129.26 19
-3 -3 -12 26179.1 520.094 15
3 3 12 25656 856.393 37
-3 -3 -12 25255.4 502.809 13
3 3 12 25963.3 879.296 30
-3 -3 -12 24770.7 458.468 12
-3 -3 -12 25354.6 507.562 19
-3 -3 -13 265.124 66.4098 15
3 3 13 275.02 113.037 37
-3 -3 -13 340.964 69.1392 13
-3 -3 -13 189.458 53.5882 19
-3 -3 -14 606.75 77.7856 19
-3 -3 -14 520.515 76.4169 13
-3 -3 -15 691.871 73.1907 13
-3 -3 -15 741.117 66.4756 19
3 4 -12 566.566 61.6298 15
-3 -4 12 648.69 49.7764 49
3 4 -12 537.961 58.413 9
3 4 -11 5368.89 203.976 15
3 4 -11 5333.7 195.192 9
3 4 -10 462.378 77.0046 15
3 4 -10 444.653 72.1872 9
3 4 -9 1102.65 107.838 15
-3 -4 9 1018.92 195.189 34
3 4 -9 1219.26 109.753 9
-3 -4 8 848.782 177.21 34
3 4 -8 666.88 82.8746 15
3 4 -8 675.351 84.4668 61
3 4 -7 7168.8 247.657 15
-3 -4 7 7151.89 464.611 34
3 4 -7 7150.66 247.446 61
-3 -4 7 7239.34 471.768 26
-3 -4 6 2462.49 260.95 34
3 4 -6 2565.09 277.118 2
-3 -4 6 2542.4 261.893 26
-3 -4 5 730.086 138.661 34
-3 -4 5 725.669 117.142 24
3 4 -5 676.752 133.046 2
-3 -4 5 649.904 127.334 26
3 4 -4 4161.91 296.096 2
-3 -4 4 4507.77 298.024 34
3 4 -4 4509.79 284.146 1
-3 -4 4 4275.27 287.302 26
-3 -4 4 4709.36 270.836 24
3 4 -3 2925.99 194.005 4
-3 -4 3 2976.28 206.262 24
-3 -4 3 2924.45 231.173 35
3 4 -3 2816.04 216.412 1
-3 -4 3 3065.09 220.103 26
-3 -4 3 2779.62 214.417 34
3 4 -3 3231.57 242.801 2
-3 -4 3 2847.67 182.264 21
-3 -4 2 253.287 62.446 34
-3 -4 2 163.268 52.98 26
-3 -4 2 205.293 54.2497 24
3 4 -2 209.604 66.6557 1
3 4 -2 298.188 69.9261 2
-3 -4 2 311.23 68.4763 21
-3 -4 1 52894.7 781.711 21
-3 -4 1 53855.7 759.424 34
3 4 -1 54049.8 867.771 1
-3 -4 1 53664.3 717.016 26
-3 -4 1 53985.7 786.869 24
3 4 -1 53812.7 832.553 2
3 4 0 86850.3 1066.88 1
-3 -4 0 88323 975.924 24
-3 -4 0 84221.3 837.097 34
-3 -4 0 89695.2 1013.37 21
3 4 0 90133.4 1010.95 2
-3 -4 0 85584.3 784.947 26
3 4 1 111882 1503.38 36
-3 -4 -1 115070 1144.55 21
3 4 1 116359 1220.8 1
-3 -4 -1 110031 701.824 26
-3 -4 -1 116234 1098.36 24
3 4 2 133736 1461.29 37
3 4 2 130959 1653.87 36
3 4 2 134850 1302.29 1
-3 -4 -2 135572 877.632 5
3 4 3 208.485 69.2657 37
-3 -4 -3 54.716 24.5131 22
3 4 3 75.0085 52.2205 29
3 4 3 -24.9644 38.0368 1
-3 -4 -3 121.226 51.176 21
-3 -4 -3 63.3897 28.3296 5
3 4 4 11981.6 422.358 37
3 4 4 11159.6 468.404 29
3 4 4 11624.2 392.829 1
-3 -4 -4 11964.7 314.628 5
-3 -4 -4 11889 370.943 21
3 4 5 13603.5 461.232 37
3 4 5 14149.4 548.63 29
-3 -4 -5 14341.6 408.013 21
3 4 5 14533.2 425.696 1
3 4 6 3769.14 210.33 1
3 4 6 3548.28 245.169 37
-3 -4 -6 3847.26 291.098 6
3 4 6 3388.86 239.409 30
-3 -4 -6 3487.02 271.092 3
3 4 6 3694.69 280.054 25
-3 -4 -6 3004.19 186.816 21
3 4 7 39310.2 853.796 37
-3 -4 -7 38932.8 972.16 3
3 4 7 41478.7 879.149 30
-3 -4 -7 38484.1 966.157 6
3 4 7 40032.3 958.493 25
-3 -4 -8 8609.02 490.057 3
-3 -4 -8 8340.56 490.106 6
3 4 8 7962.42 413.723 37
3 4 8 8155.54 417.755 30
3 4 8 8493.95 475.264 25
3 4 9 4872.17 342.502 37
3 4 9 5258.62 410.648 25
3 4 9 5333.18 366.525 30
-3 -4 -9 4817.42 401.4 6
-3 -4 -10 824.227 99.4711 15
3 4 10 793.739 156.764 37
-3 -4 -10 784.515 98.6835 19
-3 -4 -10 1030.92 104.685 13
3 4 10 757.926 151.844 30
-3 -4 -10 911.928 91.3185 53
3 4 11 97293.4 1673.84 37
-3 -4 -11 100556 1005.18 13
3 4 11 97349.5 1687.35 30
-3 -4 -11 96079.3 899.24 12
-3 -4 -11 97677 1004.33 15
-3 -4 -11 99129.1 1038.98 19
3 4 12 4652.07 369.305 37
-3 -4 -12 4947.8 226.161 13
3 4 12 4642.26 455.139 29
-3 -4 -12 4786.85 229.111 19
-3 -4 -13 11851.6 336.206 13
3 4 13 11442.5 571.897 37
-3 -4 -13 12050.2 342.322 19
-3 -4 -14 310.196 65.193 13
-3 -4 -14 328.548 57.7067 19
-3 -4 -15 2500.91 117.539 19
-3 -5 12 -1.27974 16.4346 49
3 5 -12 32.0473 27.1572 15
3 5 -12 12.1787 21.0164 9
3 5 -11 455.47 63.6877 15
3 5 -11 398.983 58.3874 9
3 5 -10 486.023 75.5215 15
-3 -5 10 503.134 57.1172 45
3 5 -10 394.794 67.398 9
3 5 -9 12196.3 342.529 15
-3 -5 9 12251.7 630.212 34
3 5 -9 11796.1 318.408 9
3 5 -8 2237.89 150.927 15
-3 -5 8 2543.03 285.728 34
3 5 -8 2190.28 146.486 61
-3 -5 7 5200.56 410.717 34
3 5 -7 5485.94 226.233 15
-3 -5 7 5823.76 434.414 26
3 5 -7 5531.56 224.378 61
-3 -5 6 11177.1 566.828 26
3 5 -6 10638.4 301.087 15
-3 -5 6 11048.8 568.376 34
3 5 -6 11034.2 608.383 2
3 5 -6 10240.8 291.154 61
-3 -5 5 3664.85 305.022 34
-3 -5 5 3998.46 317.226 26
3 5 -5 3791.07 331.628 2
-3 -5 4 12881.5 552.032 35
-3 -5 4 12890.4 517.907 26
-3 -5 4 12785.2 524.484 34
-3 -5 4 13069.3 464.266 24
3 5 -4 12413.9 558.386 2
3 5 -4 12400.4 510.728 1
-3 -5 3 13329.6 532.315 35
3 5 -3 12368.9 491.933 1
-3 -5 3 13166.2 473.976 26
3 5 -3 13283.3 541.202 2
-3 -5 3 13775.3 456.549 24
-3 -5 3 13856.2 448.363 21
-3 -5 2 33432.6 692.694 21
3 5 -2 31122.7 755.267 1
-3 -5 2 32631.2 673.221 26
3 5 -2 32221.9 790.282 2
-3 -5 2 33156.6 680.942 24
-3 -5 2 33450.5 788.642 35
3 5 -1 8240.56 378.179 1
-3 -5 1 9047.82 314.226 26
-3 -5 1 8953.46 342.29 24
-3 -5 1 8359.41 346.565 21
3 5 -1 9437.95 405.06 2
-3 -5 0 55.8038 27.8201 26
-3 -5 0 86.6345 35.9549 34
-3 -5 0 39.42 34.0441 24
3 5 0 50.1901 50.4111 1
3 5 1 9924.51 404.019 1
-3 -5 -1 9441.87 354.616 40
3 5 1 9706.5 461.495 36
-3 -5 -2 661.591 99.4563 40
3 5 2 486.54 114.917 36
3 5 2 803.596 119.574 1
-3 -5 -2 621.184 75.3343 22
-3 -5 -3 31559 726.714 40
3 5 3 30447.1 747.967 37
3 5 3 30927.2 806.937 29
3 5 3 31470.3 855.362 36
-3 -5 -3 31788.7 436.806 5
-3 -5 -3 29347.7 466.237 22
3 5 3 31058.6 713.97 1
3 5 4 431.053 88.5506 1
3 5 4 825.168 139.238 29
-3 -5 -4 614.234 97.0252 21
3 5 4 523.87 107.063 37
3 5 5 417.128 98.0585 37
3 5 5 554.541 90.5612 1
3 5 5 273.233 90.5622 29
-3 -5 -5 494.404 89.7828 21
3 5 6 17406.4 582.767 37
-3 -5 -6 18420.5 662.15 3
3 5 6 17127.9 659.227 29
-3 -5 -6 16618.2 483.088 21
3 5 6 17528.1 508.657 1
3 5 7 8661.64 429.839 37
-3 -5 -7 7716.65 459.203 3
3 5 7 7972.52 446.026 25
-3 -5 -7 8845.13 498.065 6
3 5 8 470.809 120.506 25
3 5 8 602.647 123.092 37
3 5 8 405.728 112.009 30
-3 -5 -8 807.339 166.688 6
-3 -5 -8 551.664 137.779 3
3 5 9 5006.42 364.654 37
-3 -5 -9 4604.97 207.147 13
3 5 9 4674.2 359.27 30
-3 -5 -9 4524.67 195.688 53
-3 -5 -9 4385.27 394.008 6
-3 -5 -9 4767.42 218.527 19
3 5 9 4835.59 393.439 25
3 5 10 5741.31 406.237 37
-3 -5 -10 6566.74 256.592 13
3 5 10 6187.16 434.118 30
-3 -5 -10 5554.15 213.445 12
-3 -5 -10 6249.87 232.993 53
-3 -5 -10 6231.83 260.2 19
3 5 11 20346.2 783.924 37
-3 -5 -11 20910.1 464.91 13
3 5 11 21182.9 811.091 30
3 5 11 20294.7 923.389 29
-3 -5 -11 20545.2 472.786 19
-3 -5 -12 18.1534 39.7864 13
-3 -5 -12 7.05499 43.8466 19
-3 -5 -13 490.717 78.3569 13
-3 -5 -13 463.511 73.6612 19
-3 -5 -14 551.04 72.3495 19
-3 -5 -15 2368.6 108.687 19
3 6 -11 38.879 36.0795 15
3 6 -11 7.99987 23.6016 9
-3 -6 11 -37.0182 20.4359 56
3 6 -10 3047.99 162.136 15
3 6 -10 2700.09 134.202 9
-3 -6 10 2777.63 120.891 45
3 6 -9 15731.4 384.056 15
3 6 -9 14793.1 335.842 9
-3 -6 8 320.952 127.572 34
3 6 -8 183.856 59.2726 15
3 6 -8 336.941 67.3833 61
3 6 -7 7463.1 272.032 15
-3 -6 7 8132.33 519.642 34
3 6 -7 7384.88 262.505 61
-3 -6 7 7543.05 237.798 43
-3 -6 6 15484.3 693.406 26
3 6 -6 15526.6 381.077 15
-3 -6 6 16201 707.16 34
3 6 -6 14671 359.481 61
-3 -6 5 1193.08 190.897 34
3 6 -5 1289.22 104.997 61
3 6 -5 1212.17 203.117 2
-3 -6 5 1219.33 194.603 26
-3 -6 5 1156.85 161.844 22
-3 -6 4 36670.5 921.201 26
-3 -6 4 36356.5 933.263 34
3 6 -4 32743.2 909.831 1
3 6 -4 33361 1012.55 2
-3 -6 4 36686 806.835 24
-3 -6 4 35142.9 844.013 22
-3 -6 3 1688.44 184.054 26
-3 -6 3 1971.13 190.838 21
3 6 -3 1923.11 234.191 2
-3 -6 3 2034.21 186.491 24
-3 -6 2 4101.94 254.688 26
3 6 -2 4212.38 311.654 1
-3 -6 2 4414.87 283.249 21
-3 -6 1 16567.5 484.141 22
3 6 -1 16319.7 592.496 1
-3 -6 0 6418.65 286.146 22
3 6 0 6028.38 358.403 1
-3 -6 -1 79664.1 1154.72 40
-3 -6 -1 80266.1 964.78 22
3 6 1 81517.3 1294.11 1
-3 -6 -2 48152.5 944.045 40
3 6 2 49020.1 1101.61 36
-3 -6 -2 48907.7 712.558 22
-3 -6 -3 1265.67 157.556 40
3 6 3 1247.65 177.147 37
3 6 3 1103.99 174.652 36
3 6 3 976.074 161.437 29
3 6 3 1187.05 159.666 1
-3 -6 -3 1130.23 105.262 22
3 6 4 46590.1 994.645 37
3 6 4 45449.6 1035.55 29
3 6 4 48335.7 976.143 1
3 6 5 21949.6 643.493 1
3 6 5 22147.7 694.525 37
3 6 5 21805 741.384 29
-3 -6 -5 22628 623.668 21
3 6 6 21700.1 704.308 37
-3 -6 -6 21079.4 764.184 3
3 6 6 20065.7 740.4 29
-3 -6 -6 20825.9 594.821 21
3 6 6 20411 614.943 1
3 6 7 221.521 82.6064 37
3 6 7 285.067 106.122 29
3 6 8 9301.63 504.007 37
-3 -6 -8 8326.29 533.378 3
-3 -6 -8 9108.17 568.848 6
3 6 8 8736.01 549.863 29
3 6 9 12353.7 596 37
3 6 9 10713.1 634.178 29
-3 -6 -9 12095 343.174 13
-3 -6 -9 11708.4 323.235 53
-3 -6 -9 11889.7 306.454 12
-3 -6 -9 12250.5 360.203 19
-3 -6 -10 244.512 63.1865 13
3 6 10 331.638 114.761 37
-3 -6 -10 283.293 67.1791 19
3 6 10 116.961 121.478 29
-3 -6 -10 331.303 63.1634 53
3 6 11 2348.26 269.789 37
-3 -6 -11 1822.54 142.36 13
-3 -6 -11 2086.19 156.995 19
3 6 11 1608.32 262.571 29
-3 -6 -11 2177.38 138.827 53
3 6 12 7896.28 489.269 37
-3 -6 -12 7838.41 284.026 19
-3 -6 -13 98.837 46.556 19
-3 -6 -14 449.727 61.0555 19
-3 -6 -15 1305 73.3184 19
3 7 -11 1902.94 100.054 15
-3 -7 11 1628.96 66.248 56
3 7 -10 2595.4 114.182 9
-3 -7 10 2741.13 110.544 45
3 7 -9 14.1882 38.3024 15
3 7 -9 57.9652 35.2942 9
-3 -7 9 39.5222 28.4395 45
3 7 -8 4606.57 216.648 15
3 7 -8 4476.52 192.57 61
-3 -7 8 4437.31 172.341 43
3 7 -7 1101.97 113.956 15
-3 -7 7 1081.97 191.316 34
-3 -7 7 1124.92 96.7271 43
3 7 -7 1107.64 105.759 61
-3 -7 6 4234.3 363.507 34
-3 -7 6 4084.64 182.555 63
3 7 -6 4089.69 192.906 61
3 7 -6 4270.96 209.369 15
3 7 -5 31245.5 514.087 7
-3 -7 5 33836.7 975.905 34
-3 -7 5 34055.6 977.502 26
3 7 -5 32615.6 530.294 61
-3 -7 5 33383.1 517.245 63
-3 -7 4 499.867 114.517 22
-3 -7 4 513.182 124.251 26
3 7 -4 568.185 75.9338 14
-3 -7 4 525.655 129.023 34
3 7 -4 451.704 66.7003 7
3 7 -4 403.292 62.8293 61
-3 -7 4 410.042 59.8362 63
-3 -7 3 18796.1 631.812 22
3 7 -3 17539.8 703.379 1
-3 -7 3 18901.4 650.436 21
-3 -7 2 4515.14 293.347 22
-3 -7 2 5268.44 347.041 21
3 7 -2 4384.07 349.578 1
-3 -7 1 5181.51 300.882 22
3 7 -1 4999.42 372.074 1
3 7 0 37966.5 986.575 1
-3 -7 0 39505.3 781.947 22
-3 -7 -1 1283.61 167.017 40
-3 -7 -1 1074.65 125.979 22
3 7 1 1142.08 172.725 1
-3 -7 -2 14808.9 575.311 40
-3 -7 -2 13944.8 416.218 22
3 7 2 14896.2 607.469 1
-3 -7 -3 6584.22 398.125 40
3 7 3 6512.35 397.975 1
3 7 3 6417.16 420.739 36
-3 -7 -4 69.5191 56.4502 40
3 7 4 92.5995 75.2327 37
3 7 4 -19.0686 38.2291 1
3 7 4 342.145 100.325 29
3 7 4 376.713 119.867 36
3 7 5 66871.7 1302.45 37
3 7 5 64493.6 1337.03 29
3 7 5 67069.5 1234.47 1
3 7 6 1868.24 226.601 37
-3 -7 -6 2297.18 262.145 3
3 7 6 1946.84 247.026 29
-3 -7 -6 1908.38 199.373 21
3 7 6 2064.43 215.797 1
3 7 7 340.963 116.033 37
3 7 7 160.476 83.4617 29
-3 -7 -7 359.45 114.784 3
-3 -7 -7 265.09 127.539 6
-3 -7 -7 276.286 58.894 19
-3 -7 -7 311.036 59.2309 53
3 7 8 119.709 76.9437 37
-3 -7 -8 67.8741 40.432 19
3 7 8 -15.3546 47.0182 29
-3 -7 -8 104.401 36.2705 53
-3 -7 -8 40.1778 32.4926 51
-3 -7 -8 83.3653 32.7298 12
3 7 9 2178.76 266.469 37
3 7 9 1772.89 273.839 29
-3 -7 -9 1997.25 139.639 53
-3 -7 -9 1990.11 151.311 19
3 7 10 81.2709 56.2036 37
3 7 10 289.426 130.35 29
-3 -7 -10 372.877 66.0351 53
-3 -7 -10 304.51 68.9232 19
3 7 11 14637.1 677.707 37
-3 -7 -11 14386 389.161 19
-3 -7 -11 14239.4 350.585 53
-3 -7 -12 208.772 55.759 19
-3 -7 -13 14440.2 330.542 19
-3 -7 -14 913.741 74.6937 19
3 8 -10 13.8435 31.5246 15
-3 -8 10 -6.06198 20.3987 45
3 8 -9 160.047 51.9476 15
3 8 -9 137.915 32.6935 9
-3 -8 9 184.58 40.9466 45
-3 -8 9 196.977 35.1199 43
3 8 -8 979.808 82.7064 9
3 8 -8 979.272 88.7827 61
3 8 -8 985.924 103.001 15
-3 -8 8 952.398 78.0325 43
-3 -8 7 3654.02 160.896 63
3 8 -7 3722.05 192.915 15
-3 -8 7 3652.47 321.355 34
-3 -8 7 3587.1 161.577 43
3 8 -7 3664.84 174.287 61
3 8 -6 4788.21 219.996 15
-3 -8 6 4162.17 348.442 34
-3 -8 6 4703.12 196.048 63
3 8 -6 4792.02 203.07 61
-3 -8 6 4504.44 189.387 43
3 8 -5 1535.89 120.214 61
3 8 -5 1269.06 109.503 7
-3 -8 5 1340.15 200.727 34
-3 -8 5 1488.65 108.742 65
-3 -8 5 1503.25 117.176 63
-3 -8 4 19134.9 403.187 63
3 8 -4 18925.8 400.241 61
-3 -8 4 20014.4 716.657 34
3 8 -4 18406.5 414.472 7
-3 -8 4 18818.3 387.144 65
3 8 -4 18604.7 426.004 14
3 8 -3 7938.11 266.885 14
3 8 -3 7887.57 272.216 7
-3 -8 3 8638.13 267.898 63
-3 -8 3 8449.16 260.101 65
-3 -8 3 8276.4 443.39 22
3 8 -3 8791.41 527.926 1
3 8 -2 2965.13 156.977 14
3 8 -2 2614.52 285.749 1
-3 -8 2 3199.23 300.275 21
-3 -8 2 2707.1 245.143 22
3 8 -1 31.3057 61.8209 1
-3 -8 1 125.746 51.6737 22
3 8 0 886.315 166.716 1
-3 -8 0 921.525 133.224 22
-3 -8 -1 13.4305 48.2961 40
-3 -8 -1 -22.3758 25.7116 22
-3 -8 -2 22650 764.437 40
-3 -8 -2 21328 563.614 22
3 8 2 21751.1 787.305 1
-3 -8 -3 -0.56277 41.605 40
3 8 3 -14.728 51.2276 1
-3 -8 -4 6579.97 440.508 40
3 8 4 6417.16 435.541 37
3 8 4 6228.44 412.194 1
3 8 5 16304.1 698.957 37
3 8 5 15123.5 710.084 36
3 8 5 14598.6 658.134 29
-3 -8 -5 15543.7 607.674 21
3 8 5 15414.3 645.419 1
-3 -8 -6 23070 866.102 3
3 8 6 21271.8 821.644 29
3 8 6 21421.6 380.855 7
3 8 6 21217.3 754.906 1
3 8 6 21319.9 807.336 37
-3 -8 -6 22942.5 450.379 53
-3 -8 -6 23029.3 434.305 52
-3 -8 -6 22577.4 458.942 19
3 8 6 21914.4 401.644 50
-3 -8 -6 23586.8 443.322 51
-3 -8 -7 478.13 67.3893 52
3 8 7 371.225 121.054 37
3 8 7 615.497 157.521 29
3 8 7 547.981 65.4949 7
-3 -8 -7 595.42 76.6354 51
-3 -8 -7 560.411 75.6716 53
3 8 7 497.603 69.175 50
-3 -8 -7 492.428 77.4633 19
3 8 8 7247.85 524.823 29
-3 -8 -8 7508.28 247.701 52
-3 -8 -8 7211.49 243.247 12
-3 -8 -8 7817.44 273.711 53
3 8 8 7289.01 491.374 37
-3 -8 -8 7230.13 275.103 19
3 8 9 1540.99 249.601 29
-3 -8 -9 2053.85 142.82 53
3 8 9 1929.92 254.532 37
-3 -8 -9 2000.82 148.899 19
3 8 10 216.786 108.802 37
-3 -8 -10 424.184 69.4446 53
-3 -8 -10 343.783 74.3877 19
3 8 11 754.988 157.515 37
-3 -8 -11 833.799 86.1862 53
-3 -8 -11 810.683 97.5553 19
3 8 12 7.62065 29.9991 50
-3 -8 -12 19.9189 37.7123 19
-3 -8 -13 532.617 64.9772 19
3 8 13 604.405 53.8195 50
-3 -8 -14 1873.67 88.4007 19
3 9 -10 1154.84 70.8342 15
-3 -9 10 1060.65 52.9739 56
-3 -9 10 1016.17 51.3876 45
3 9 -9 214.468 45.4298 15
-3 -9 9 187.33 30.4191 43
-3 -9 9 226.019 36.8942 45
3 9 -8 394.775 62.8863 15
3 9 -8 333.405 49.8331 61
-3 -9 8 343.883 46.3226 43
-3 -9 8 362.792 51.6292 45
3 9 -7 16.9556 41.6138 15
3 9 -7 22.0502 32.5846 61
-3 -9 7 58.4062 32.624 63
-3 -9 7 1.41421 25.7201 43
3 9 -6 92.9375 49.2505 15
3 9 -6 18.807 28.9279 61
-3 -9 6 94.4439 36.4986 63
-3 -9 6 61.9835 36.1751 43
3 9 -5 310.605 59.0457 61
-3 -9 5 287.828 51.9938 65
-3 -9 5 307.196 58.3585 63
3 9 -5 364.059 62.6241 7
-3 -9 5 321.555 58.1974 43
3 9 -4 22464.3 452.636 7
-3 -9 4 23065.8 432.982 65
3 9 -4 22237.6 428.604 61
-3 -9 4 22947.8 450.926 63
3 9 -3 5337.76 225.972 14
3 9 -3 4900.32 216.914 7
-3 -9 3 5137.88 209.936 65
-3 -9 3 4957.33 210.801 63
3 9 -3 5117.05 209.228 61
3 9 -2 2644.72 155.084 14
3 9 -2 2695.04 162.199 7
-3 -9 2 2745.99 154.24 65
-3 -9 2 2929.48 160.55 63
3 9 -1 8336.46 520.374 1
3 9 -1 7924.7 254.878 14
3 9 -1 8677.51 283.329 7
-3 -9 1 8592.37 267.167 65
-3 -9 1 8415.35 264.184 63
-3 -9 1 8478.69 432.498 22
3 9 0 4619.63 391.511 1
3 9 0 4283.72 181.923 14
3 9 0 4364.45 198.578 7
-3 -9 0 4694.71 194.724 65
-3 -9 0 4647.48 192.268 63
-3 -9 0 4265.2 297.762 22
-3 -9 -1 91.8758 64.1764 40
3 9 1 176.778 40.7221 14
3 9 1 133.411 91.2311 1
-3 -9 -1 150.084 39.4413 65
-3 -9 -1 153.668 41.6095 63
3 9 1 101.739 40.1139 7
3 9 1 66.5889 39.9526 62
-3 -9 -1 112.922 46.3081 22
-3 -9 -2 5551.17 404.901 40
3 9 2 5332.71 209.173 7
3 9 2 5223.9 215.151 62
3 9 2 5374 418.951 1
-3 -9 -2 5171.61 197.289 65
-3 -9 -2 5254.13 197.797 63
-3 -9 -2 5564.14 216.733 19
-3 -9 -3 105.77 57.5402 40
-3 -9 -3 237.928 46.4479 65
-3 -9 -3 170.183 43.6086 53
3 9 3 125.702 47.3842 62
3 9 3 208.459 48.4958 7
3 9 3 96.3625 44.4986 50
-3 -9 -3 202.779 50.1115 19
3 9 4 8350.73 253.689 7
-3 -9 -4 8251.99 241.537 65
-3 -9 -4 8735.82 490.428 21
-3 -9 -4 8634.33 271.605 53
-3 -9 -4 8918.21 276.877 52
-3 -9 -4 8743.42 280.411 19
3 9 4 8293.17 256.852 50
3 9 4 8329.61 510.563 1
3 9 4 8356.72 273.692 62
3 9 5 1191.82 97.9587 7
-3 -9 -5 1190.98 106.613 53
-3 -9 -5 1369.07 118.146 19
3 9 5 1206.93 101.488 50
-3 -9 -5 1207.53 104.845 52
3 9 5 843.569 160.137 1
3 9 6 4988.27 414.345 37
-3 -9 -6 5165.15 219.574 53
-3 -9 -6 5076.06 211.354 52
-3 -9 -6 5287.29 228.375 19
3 9 6 4923.8 199.32 50
3 9 6 5054.71 194.559 7
3 9 6 5196.36 191.719 54
3 9 7 2583.97 296.978 37
-3 -9 -7 2790.23 165.237 53
3 9 7 3300.58 353.594 36
-3 -9 -7 2944.24 162.045 52
-3 -9 -7 2861.53 173.195 19
3 9 7 2825.78 153.749 50
3 9 7 2738.61 139.095 54
3 9 7 2833.11 145.081 7
3 9 8 4669.69 407.719 37
3 9 8 4983.61 443.189 36
-3 -9 -8 5006.98 204.362 52
-3 -9 -8 5079.81 228.164 19
-3 -9 -8 5121.32 220.942 53
3 9 8 5122.54 203.831 50
3 9 8 5396.34 191.367 7
3 9 8 5165.86 186.562 54
3 9 9 50.3118 68.6668 37
-3 -9 -9 98.0481 54.3951 19
-3 -9 -9 116.367 47.4737 53
3 9 9 129.457 43.7288 50
3 9 10 684.351 145.227 37
-3 -9 -10 848.11 89.8501 53
-3 -9 -10 814.557 96.2157 19
3 9 10 831.529 82.7691 50
-3 -9 -11 10835 294.807 19
-3 -9 -11 10840.3 278.785 53
3 9 12 597.919 56.1017 50
-3 -9 -12 574.297 67.683 19
-3 -9 -13 643.77 58.461 19
3 9 13 576.739 43.1197 50
3 10 -9 4829.56 139.728 15
-3 -10 9 4616.98 115.042 45
3 10 -8 645.971 66.5037 15
-3 -10 8 619.081 52.4649 43
-3 -10 8 604.031 54.6022 45
-3 -10 8 626.535 46.7515 8
3 10 -7 499.787 67.5132 15
-3 -10 7 501.93 55.8897 63
3 10 -7 476.561 54.9709 61
-3 -10 7 424.641 52.7032 45
-3 -10 7 476.025 55.8637 43
-3 -10 6 875.838 78.2036 45
3 10 -6 1011.8 97.1402 15
-3 -10 6 826.686 81.2077 63
3 10 -6 892.489 79.715 61
-3 -10 6 980.571 84.3756 43
3 10 -5 -1.59429 41.0767 15
3 10 -5 17.483 30.9593 61
-3 -10 5 -4.4394 22.451 65
3 10 -5 -24.9842 25.9588 7
-3 -10 5 17.9179 31.1981 63
-3 -10 5 26.6837 34.5349 43
3 10 -4 -27.7481 36.7915 61
-3 -10 4 -37.8658 35.2837 63
3 10 -4 -9.64752 31.7677 7
-3 -10 4 -6.19091 29.7155 65
-3 -10 4 5.68749 33.5455 43
3 10 -3 2699.36 161.162 14
3 10 -3 2719.8 159.026 7
-3 -10 3 2784.13 154.85 65
-3 -10 3 2765.97 159.026 63
3 10 -3 2832.26 152.542 61
-3 -10 3 2925.32 151.835 43
3 10 -2 5398.04 221.093 14
3 10 -2 5633.14 229.955 7
-3 -10 2 5626.71 222.907 65
-3 -10 2 5631.02 206.997 43
-3 -10 2 5845.46 227.339 63
3 10 -1 114.23 45.1916 14
3 10 -1 119.203 44.7347 7
-3 -10 1 60.8979 40.778 65
-3 -10 1 77.2833 41.0836 63
-3 -10 1 56.7799 28.4176 43
3 10 0 1273.71 104.522 14
3 10 0 1367.29 114.627 7
-3 -10 0 1327.3 109.054 65
-3 -10 0 1300.2 107.94 63
-3 -10 0 1261.37 94.7738 43
3 10 1 2006.94 126.019 14
3 10 1 2250 145.176 7
-3 -10 -1 2245.53 138.419 65
-3 -10 -1 2298.57 138.471 63
3 10 1 2369.48 149.032 62
3 10 2 31170.7 518.434 7
-3 -10 -2 30394.2 486.734 63
-3 -10 -2 30224.5 490.658 65
3 10 2 29709.6 514.322 62
3 10 3 2172.34 138.337 7
-3 -10 -3 2360.24 136.507 65
-3 -10 -3 2192.05 137.9 53
3 10 3 2118.19 143.66 62
-3 -10 -3 2234.05 146.512 19
-3 -10 -4 2845.44 145.239 65
3 10 4 2959.89 157.749 7
-3 -10 -4 2609.99 153.573 53
-3 -10 -4 2845.7 162.125 52
-3 -10 -4 2769.54 164.468 19
3 10 4 2703.01 153.06 50
3 10 4 2809.03 164.856 62
3 10 5 3614.32 171.121 7
3 10 5 3797.57 190.628 62
-3 -10 -5 3890.7 189.103 53
-3 -10 -5 4036.63 197.359 19
-3 -10 -5 3736.6 184.446 52
3 10 5 3639.45 175.067 50
-3 -10 -6 92.9126 47.9474 19
3 10 6 58.5816 33.4906 7
-3 -10 -6 183.225 48.0507 53
-3 -10 -6 39.8649 31.1791 52
3 10 6 178.083 58.4026 62
3 10 6 72.7335 37.2371 50
3 10 7 1734.41 113.984 7
-3 -10 -7 1767.62 115.402 12
-3 -10 -7 1775.31 131.241 53
-3 -10 -7 1867.68 127.221 52
-3 -10 -7 1803.61 135.099 19
3 10 7 1748.85 122.845 50
3 10 8 7172.38 215.742 7
-3 -10 -8 7297.52 258.32 19
3 10 8 7298.02 235.757 50
-3 -10 -8 7390.16 256.713 53
-3 -10 -9 1134.32 101.78 53
3 10 9 1163.65 95.326 50
-3 -10 -9 1027.17 100.841 19
-3 -10 -10 5270.41 195.689 53
-3 -10 -10 5124.35 196.321 19
3 10 10 5144.2 176.522 50
-3 -10 -11 869.336 79.2014 19
3 10 11 847.95 67.9533 50
-3 -10 -12 59.9385 29.7207 19
3 10 12 -4.31523 28.4929 62
3 10 12 -13.8224 21.4943 50
3 11 -8 139.325 29.4791 15
-3 -11 8 154.669 23.0151 43
-3 -11 8 134.391 24.4598 45
3 11 -7 3228.69 130.731 15
-3 -11 7 3063.22 110.601 43
-3 -11 7 3022.59 109.022 45
-3 -11 6 275.292 46.9298 63
3 11 -6 300.543 54.4118 15
-3 -11 6 305.845 43.0416 45
-3 -11 6 297.513 46.346 43
-3 -11 6 253.459 35.1637 65
-3 -11 5 1113.92 86.107 43
-3 -11 5 1095.39 90.4202 63
-3 -11 5 1076.26 81.2692 65
-3 -11 5 1138.38 82.0094 45
3 11 -5 1116.54 97.1902 15
3 11 -5 1073.57 79.5831 61
-3 -11 4 46.0244 37.5149 63
3 11 -4 73.9996 37.7354 7
3 11 -4 38.343 30.1098 61
-3 -11 4 42.1114 26.6291 45
-3 -11 4 11.2003 28.2377 43
-3 -11 4 68.7121 32.7933 65
3 11 -3 12.7402 29.6263 61
-3 -11 3 -1.4677 36.6035 63
3 11 -3 24.7053 30.7669 7
-3 -11 3 12.9356 32.9907 65
-3 -11 3 5.48644 19.7633 45
-3 -11 3 26.1686 29.268 43
3 11 -2 8566.54 268.039 7
-3 -11 2 8994.07 273.37 63
3 11 -2 8632.13 252.476 61
-3 -11 2 8624.59 267.072 65
3 11 -2 8691.37 268.827 14
-3 -11 2 8545.76 244.089 43
3 11 -1 10805.9 297.63 14
3 11 -1 11221.8 312.025 7
-3 -11 1 11221.1 307.385 65
-3 -11 1 10764.9 269.059 43
-3 -11 1 10970.3 302.781 63
3 11 0 513.439 69.5836 14
3 11 0 600.196 78.797 7
-3 -11 0 591.111 75.5823 65
-3 -11 0 598.459 75.954 63
-3 -11 0 612.607 65.3796 43
3 11 1 2758.94 145.549 14
3 11 1 2746.33 156.125 7
-3 -11 -1 2691.32 151.47 65
-3 -11 -1 2849.82 152.107 63
3 11 2 43.3749 32.5321 14
-3 -11 -2 50.0941 31.6028 65
3 11 2 108.685 46.0636 62
3 11 2 50.5993 38.6464 7
-3 -11 -2 78.0025 43.8509 52
3 11 3 31.6317 37.1135 7
-3 -11 -3 11.7586 24.9592 65
-3 -11 -3 14.0905 25.7365 53
3 11 3 29.0655 40.9391 62
-3 -11 -3 33.228 39.1691 52
3 11 4 2457.01 143.887 7
-3 -11 -4 2525.94 133.436 65
-3 -11 -4 2615.68 148.98 53
3 11 4 2443.11 149.873 62
-3 -11 -4 2645.97 155.513 52
-3 -11 -4 2696.3 155.338 19
-3 -11 -5 642.305 81.2178 19
3 11 5 640.229 77.0503 7
-3 -11 -5 626.328 77.8092 52
-3 -11 -5 653.709 79.214 53
3 11 5 495.098 74.7376 62
-3 -11 -6 8398.29 267.406 19
3 11 6 8155.7 263.804 62
3 11 6 7995.56 241.28 7
-3 -11 -6 8414.31 267.683 53
-3 -11 -6 8048.9 256.592 52
3 11 6 8070.22 248.441 50
-3 -11 -7 5539.67 202.965 52
3 11 7 5750.05 195.718 7
-3 -11 -7 5555.31 214.322 53
-3 -11 -7 5738.63 216.511 19
3 11 7 5739.36 203.728 50
3 11 7 5575.1 215.996 62
-3 -11 -8 527.681 71.3263 53
3 11 8 505.458 58.5433 7
-3 -11 -8 520.506 70.0152 19
3 11 8 467.771 63.021 50
3 11 8 586.208 78.7255 62
-3 -11 -9 530.755 64.9759 19
3 11 9 501.893 61.5857 50
3 11 9 477.97 69.449 62
-3 -11 -9 554.735 67.9892 53
3 11 10 1699.66 102.104 62
-3 -11 -10 1777.23 101.721 53
3 11 10 1680.1 90.0442 50
-3 -11 -10 1718.59 100.222 19
3 11 11 3069.73 115.422 62
-3 -11 -11 3083.96 114.318 19
3 11 11 2854.98 95.452 50
3 12 -6 146.642 34.3876 15
-3 -12 6 135.841 27.8577 43
-3 -12 6 141.866 24.8436 45
3 12 -5 1842.1 103.068 15
-3 -12 5 1764.3 80.5552 45
-3 -12 5 1709.59 85.984 65
-3 -12 5 1844.78 92.5393 43
-3 -12 4 1178.49 80.903 43
3 12 -4 1152.65 78.4334 7
-3 -12 4 1278.69 85.6475 65
-3 -12 4 1202.78 87.7278 63
3 12 -4 1318.2 95.4763 15
-3 -12 4 1144.86 70.0049 45
-3 -12 3 699.319 75.8107 63
3 12 -3 780.317 75.1209 7
-3 -12 3 728.77 74.6832 65
-3 -12 3 749.82 67.7436 43
-3 -12 2 621.003 75.7127 63
-3 -12 2 580.95 71.3573 65
3 12 -2 681.631 68.89 61
3 12 -2 607.293 71.7133 7
-3 -12 2 651.107 68.5701 52
-3 -12 2 639.26 64.6243 43
-3 -12 1 644.12 74.3324 63
3 12 -1 639.189 74.3412 7
-3 -12 1 557.113 72.7233 65
3 12 -1 555.511 64.2283 61
-3 -12 1 510.225 66.9511 52
-3 -12 1 499.758 57.9838 43
-3 -12 0 10812.5 284.08 65
3 12 0 10732 284.577 7
-3 -12 0 10574.6 289.118 52
3 12 1 764.325 82.275 7
-3 -12 -1 754.137 79.5409 65
-3 -12 -1 684.238 82.38 52
3 12 2 15017.1 338.631 7
-3 -12 -2 14550.4 320.771 65
-3 -12 -2 14621.6 347.907 52
3 12 3 121.927 44.5633 7
-3 -12 -3 160.846 49.554 52
-3 -12 -3 142.131 41.8901 65
3 12 4 15035 328.906 7
3 12 4 14726.4 324.473 62
-3 -12 -4 14315.8 288.836 65
-3 -12 -4 15061.4 344.932 52
-3 -12 -4 15384.2 326.752 53
3 12 5 4612.37 182.648 62
3 12 5 4851.49 183.175 7
-3 -12 -5 4530.83 180.596 53
-3 -12 -5 4600.15 186.194 52
3 12 5 4443.39 175.39 44
3 12 6 1393.07 104.483 62
-3 -12 -6 1532.4 107.294 53
-3 -12 -6 1431.15 101.969 52
-3 -12 -6 1682.78 108.645 19
3 12 6 1596.54 102.772 7
-3 -12 -7 5222.5 185.241 53
-3 -12 -7 5296.25 179.477 19
3 12 7 5048.42 180.979 62
3 12 7 5205.96 168.372 7
3 12 8 16339.3 264.968 7
-3 -12 -8 16215.5 308.508 53
3 12 8 15819.9 298.306 62
-3 -12 -8 16020.1 290.779 19
-3 -12 -9 802.648 66.6271 53
3 12 9 893.432 70.5088 62
-3 -12 -9 777.605 62.1778 19
-3 -12 -10 3123.56 99.1959 19
3 12 10 3248.93 106.923 62
3 13 -5 26.8541 18.5067 15
-3 -13 5 15.527 11.9049 43
3 13 -4 190.442 34.77 15
-3 -13 4 201.864 32.3507 65
-3 -13 4 146.969 27.505 43
3 13 -3 2316.82 108.221 15
-3 -13 3 2307.85 93.0362 43
-3 -13 3 2267.75 103.067 65
3 13 -3 2274.1 95.4584 7
3 13 -2 1361.83 83.9769 7
-3 -13 2 1473.09 91.3069 65
-3 -13 2 1347.69 73.3578 43
-3 -13 2 1438.33 80.7478 52
-3 -13 1 2705.64 125.497 65
3 13 -1 2824.43 126.134 7
-3 -13 1 2685.48 121.848 52
-3 -13 0 46.5393 31.7953 65
-3 -13 0 3.54868 28.3684 52
3 13 0 58.0728 34.9655 7
-3 -13 -1 547.988 66.422 52
3 13 1 663.67 70.7288 7
-3 -13 -1 558.182 62.7947 65
-3 -13 -2 129.044 35.0841 65
3 13 2 163.733 44.9927 7
-3 -13 -2 140.516 42.9663 52
3 13 3 4131.63 159.856 7
-3 -13 -3 3668.39 136.434 65
-3 -13 -3 4134.11 165.962 52
3 13 4 2459.35 121.468 7
-3 -13 -4 2473.67 126.427 52
-3 -13 -4 2596.75 114.201 53
3 13 5 2377.58 114.423 7
-3 -13 -5 2325.77 109.663 53
-3 -13 -5 2236.11 114.1 52
3 13 6 9.20516 25.6399 7
-3 -13 -6 6.21218 25.5867 53
-3 -13 -6 15.6615 23.179 52
3 13 6 -55.1621 30.5749 62
3 13 7 21.519 19.8333 7
3 13 7 28.5874 27.633 62
-3 -13 -8 209.396 32.2721 53
3 13 8 196.512 32.8585 62
3 13 8 200.191 25.8452 7
3 14 -2 644.002 45.1672 15
-3 -14 2 667.687 47.6717 65
3 14 -1 26.2508 17.8265 15
3 14 -1 51.4973 21.8008 7
-3 -14 1 16.4427 18.661 65
3 14 0 277.75 38.4552 7
-3 -14 0 339.975 39.7522 65
-3 -14 0 269.297 37.2992 52
3 14 1 847.188 63.0367 7
-3 -14 -1 815.257 62.8396 52
-3 -14 -1 833.17 58.259 65
-3 -14 -2 136.309 27.349 65
3 14 2 132.37 32.3757 7
-3 -14 -2 99.6738 27.8527 52
-3 -14 -3 46.7804 24.3245 52
3 14 3 15.4842 22.7067 7
-3 -14 -3 -1.96768 14.2849 65
3 14 4 4175.9 127.983 7
-3 -14 -4 4319.7 133.638 52
3 14 5 2544.6 94.5531 7
3 14 6 4267.07 108.327 7
4 -13 0 2514.44 88.4594 53
-4 13 -2 35.6351 14.8449 14
-4 13 -3 1.86777 14.6437 14
-4 12 4 2108.19 72.7998 7
4 -12 -4 1959.54 78.3319 53
-4 12 3 1410.17 65.7144 7
4 -12 -3 1502.18 80.6682 53
-4 12 2 354.235 38.1563 7
4 -12 -2 382.384 48.8943 53
-4 12 1 0.61831 17.0586 7
4 -12 -1 8.82605 23.909 53
-4 12 0 2472.01 97.2798 14
4 -12 0 2425.43 121.785 53
-4 12 -1 2018.09 94.6365 14
4 -12 1 1977.59 109.635 53
-4 12 -2 1137.27 73.9156 14
4 -12 2 1146.39 82.3957 53
-4 12 -3 916.34 68.5947 14
4 -12 3 906.487 63.6408 65
4 -12 3 887.847 70.413 53
-4 12 -4 134.15 32.9305 14
4 -12 4 141.462 30.6248 65
4 -12 4 147.569 35.4836 55
4 -12 4 185.966 33.2451 53
-4 12 -5 10.225 21.4805 14
4 -12 5 -14.2734 22.3905 65
4 -12 5 -13.141 24.1561 55
-4 12 -6 307.788 39.0058 17
-4 12 -6 341.838 38.2491 14
4 -12 6 323.96 40.6808 65
4 -12 6 342.106 43.4146 55
-4 12 -7 47.5634 15.8593 14
4 -12 7 108.324 24.8616 65
-4 12 -7 62.6181 19.7711 17
-4 11 6 244.934 29.5757 7
-4 11 5 70.854 25.0466 7
4 -11 -5 58.789 23.6105 53
4 -11 -5 72.7671 25.7067 51
4 -11 -4 1865.88 94.7931 51
-4 11 4 1845.88 89.8899 7
4 -11 -4 1852.01 103.21 53
-4 11 3 1081.83 74.3373 7
4 -11 -3 869.907 80.419 53
4 -11 -3 1088.49 78.1355 51
-4 11 2 1365.59 84.6641 7
4 -11 -2 1402.53 106.23 53
-4 11 1 2129.04 101.436 14
4 -11 -1 2044.97 131.841 53
-4 11 1 2048.42 103.68 7
-4 11 0 4033.09 142.359 7
-4 11 0 4272.1 154.114 14
4 -11 0 4161.33 187.186 53
-4 11 -1 36.8472 27.9726 14
4 -11 1 72.4734 42.2938 53
4 -11 1 -9.02751 29.5776 55
-4 11 -2 2661.02 130.004 14
4 -11 2 2330.46 115.762 65
4 -11 2 2497.58 142.508 57
4 -11 2 2350.34 139.937 53
4 -11 2 2417.98 135.369 55
-4 11 -3 569.861 65.7387 14
4 -11 3 460.863 59.1515 65
4 -11 3 441.228 65.6532 53
4 -11 3 540.444 70.9012 57
4 -11 3 533.487 69.8234 55
-4 11 -4 308.845 51.1457 14
4 -11 4 220.523 50.3099 55
4 -11 4 261.459 49.4172 53
4 -11 4 267.962 55.3445 57
4 -11 4 221.498 44.6949 65
-4 11 -5 1268.93 89.2425 14
4 -11 5 1156.68 78.6461 63
4 -11 5 1289.2 97.116 57
4 -11 5 1202.97 90.266 65
4 -11 5 1220.52 97.1961 55
-4 11 -6 2351.6 112.691 14
4 -11 6 2376.7 119.996 65
4 -11 6 2112.17 105.461 63
4 -11 6 2243.89 124.186 55
-4 11 -7 746.734 61.3138 14
4 -11 7 746.436 66.9284 65
4 -11 7 705.691 61.234 63
-4 11 -7 746.693 66.6494 17
4 -11 7 804.735 72.631 55
-4 11 -8 391.426 39.0924 14
4 -11 8 454.56 50.7828 65
4 -11 8 340.155 42.9529 63
4 -11 8 373.835 46.6809 55
-4 11 -8 365.869 44.5003 17
4 -11 9 1874.86 80.721 63
4 -11 9 2015.68 83.9249 65
-4 11 -9 1878.07 78.8905 17
-4 10 7 7371.94 150.35 7
4 -10 -7 7317.02 173.284 51
-4 10 6 1813.78 88.7148 7
4 -10 -6 1622.58 86.2186 53
4 -10 -6 1866.42 102.851 51
-4 10 6 1678.92 84.4852 54
-4 10 5 4056.35 143.091 7
4 -10 -5 3603.7 150.296 53
4 -10 -5 3907.36 161.525 51
-4 10 5 3589.16 120.767 50
-4 10 5 3661.36 133.9 54
-4 10 4 1025.13 79.7391 7
4 -10 -4 914.036 87.1475 53
-4 10 4 974.274 76.6567 54
4 -10 -4 876.345 83.5351 51
4 -10 -3 12096.5 322.262 53
-4 10 3 12170.3 270.255 7
4 -10 -3 12111.7 305.457 51
-4 10 3 11637.2 262.002 54
4 -10 -2 3188 159.332 51
4 -10 -2 3439.26 346.138 40
-4 10 2 3412.17 146.66 7
4 -10 -2 3595.61 184.104 53
4 -10 -1 788.162 173.667 40
-4 10 1 811.276 74.3274 14
-4 10 1 697.335 68.4417 7
4 -10 -1 751.537 91.3837 53
-4 10 0 4447.43 171.781 14
4 -10 0 4000.85 178.194 55
4 -10 0 4174.61 206.86 53
-4 10 0 4214.08 161.443 7
4 -10 0 4129.89 188.821 57
-4 10 -1 508.001 65.5852 14
-4 10 -1 505.605 58.2287 7
-4 10 -1 549.613 62.6732 11
4 -10 1 425.403 67.9434 57
4 -10 1 508.61 72.8506 55
4 -10 1 427.936 71.5067 53
-4 10 -2 6133.16 211.14 14
4 -10 2 5670 235.96 53
4 -10 2 5808.92 230.475 57
4 -10 2 5685.84 225.136 55
-4 10 -2 6026.14 200.66 11
-4 10 -3 861.355 83.5594 14
4 -10 3 841.781 93.7812 55
-4 10 -3 813.837 79.752 11
4 -10 3 833.531 90.8741 57
4 -10 3 916.726 98.1161 53
-4 10 -4 681.457 76.7385 14
4 -10 4 576.276 77.1792 55
-4 10 -4 680.185 74.6503 11
4 -10 4 651.582 81.9832 57
4 -10 4 574.74 77.9003 53
-4 10 -5 62.4575 35.8016 14
-4 10 -5 11.739 27.3393 11
4 -10 5 29.1206 39.851 55
4 -10 5 -27.1007 34.9747 57
4 -10 5 -62.7433 34.2535 53
4 -10 6 5760.4 221.347 55
-4 10 -6 6275.67 205.18 14
-4 10 -6 5878.81 201.996 11
4 -10 6 5777.76 212.246 57
-4 10 -7 10.7615 27.7148 14
4 -10 7 8.28638 26.908 57
4 -10 7 25.7652 33.5572 55
-4 10 -8 194.373 38.0374 14
4 -10 8 205.45 37.056 57
4 -10 8 150.428 44.2829 55
-4 10 -8 180.074 43.7223 17
4 -10 9 475.526 56.2953 65
-4 10 -9 510.859 56.1228 17
4 -10 9 562.368 59.3051 55
4 -10 10 1.75828 18.5168 65
-4 10 -10 -8.15607 21.1056 17
4 -10 10 26.483 22.5518 55
-4 9 8 373.618 37.4965 7
4 -9 -8 371.789 45.4479 51
-4 9 8 358.662 39.0063 54
-4 9 7 3799.59 129.757 7
-4 9 7 3637.67 128.968 54
4 -9 -7 3876.07 156.966 51
-4 9 7 3658.89 119.23 50
-4 9 6 770.508 69.5532 54
4 -9 -6 783.831 74.4063 53
4 -9 -6 916.266 89.0815 51
-4 9 6 830.417 67.043 50
-4 9 6 865.278 73.6044 47
-4 9 6 878.614 74.0381 7
4 -9 -5 2796.84 151.54 53
4 -9 -5 3167.92 167.701 51
-4 9 5 2977.3 137.402 7
-4 9 5 3026.35 130.601 50
-4 9 5 3070 140.734 47
-4 9 5 2977.83 136.141 54
4 -9 -4 1442.65 232.42 40
-4 9 4 1605.15 107.596 47
-4 9 4 1722.33 110.782 7
-4 9 4 1724.75 109.148 54
4 -9 -4 1757.41 130.327 53
4 -9 -4 1779.32 132.067 51
-4 9 4 1644.93 101.465 50
4 -9 -3 69.6584 70.0088 40
-4 9 3 150.023 32.8026 8
-4 9 3 125.51 37.0744 7
4 -9 -3 186.26 53.0183 53
4 -9 -3 181.726 50.2537 51
-4 9 3 128.184 41.3377 54
4 -9 -2 1810.48 263.118 40
4 -9 -2 2067.45 150.073 53
-4 9 2 2046.05 122.136 54
4 -9 -2 2036.17 145.155 51
-4 9 2 2035.27 121.578 7
-4 9 2 1902.1 112.426 8
4 -9 -1 18.121 30.0006 57
4 -9 -1 133.116 47.4344 51
-4 9 1 32.8623 30.4377 7
-4 9 1 60.9167 35.8515 54
-4 9 1 54.7089 32.0108 8
4 -9 -1 40.7877 46.6145 53
4 -9 0 322.064 69.7671 53
4 -9 0 260.584 54.9275 55
4 -9 0 273.301 56.7015 57
-4 9 0 297.58 50.9119 7
-4 9 0 367.037 56.9939 8
4 -9 1 1808.48 143.893 53
-4 9 -1 2011.14 116.598 11
4 -9 1 1868.71 135.115 57
-4 9 -1 1899.7 117.37 8
-4 9 -1 1982.4 113.23 7
4 -9 1 1913.99 134.317 55
4 -9 2 3403.54 181.111 57
-4 9 -2 3586.78 159.995 11
4 -9 2 3372.71 178.991 55
4 -9 2 3438.56 193.847 53
-4 9 -3 20761.8 397.892 14
4 -9 3 19702.6 451.283 53
-4 9 -3 20352 387.415 11
4 -9 3 20476 442.204 55
4 -9 3 20417.3 442.84 57
-4 9 -4 781.014 81.7475 14
4 -9 4 633.061 86.7251 53
-4 9 -4 678.913 77.5815 11
4 -9 4 616.955 82.1936 57
4 -9 4 823.573 96.6927 55
-4 9 -5 6325.48 221.827 14
-4 9 -5 6223.48 219.879 11
4 -9 5 5727.63 231.379 57
4 -9 5 6006.6 238.855 53
4 -9 6 4824.13 207.703 57
4 -9 6 5435.61 390.329 35
-4 9 -6 5155.68 197.672 14
-4 9 -6 5036.92 197.656 11
4 -9 6 4939.03 207.136 53
-4 9 -7 775.442 80.3557 11
4 -9 7 910.568 91.8723 57
4 -9 7 785.315 90.7493 55
-4 9 -7 893.021 84.5448 14
4 -9 8 11.8091 30.1675 57
-4 9 -8 43.5749 30.2457 14
-4 9 -8 28.7342 32.8131 17
4 -9 8 19.186 33.066 55
-4 9 -8 80.7863 34.6843 11
4 -9 9 228.795 51.9543 55
-4 9 -9 194.553 48.4582 17
-4 9 -10 2.50481 26.7445 17
4 -9 10 7.79043 25.5484 55
4 -9 11 584.072 47.7556 65
-4 9 -11 734.994 60.2085 17
-4 8 9 50.5221 17.4066 7
-4 8 9 -3.53914 19.2256 54
4 -8 -9 31.7813 23.6273 51
-4 8 9 58.307 19.5055 50
-4 8 9 40.4008 21.7548 47
-4 8 8 735.281 62.3219 47
4 -8 -8 606.643 69.6918 51
-4 8 8 657.087 57.0479 7
-4 8 8 626.304 56.9755 50
-4 8 8 618.989 59.0249 54
4 -8 -7 925.739 91.4986 51
-4 8 7 901.835 77.1563 47
-4 8 7 966.957 78.9176 54
-4 8 7 867.485 72.0686 50
-4 8 7 991.292 77.6519 7
-4 8 6 386.39 59.0462 47
4 -8 -6 393.834 67.9136 10
-4 8 6 360.991 57.6573 7
-4 8 6 361.287 57.6207 54
4 -8 -6 413.535 72.5239 51
4 -8 -6 401.131 60.1684 53
-4 8 6 368.493 54.5932 50
4 -8 -5 849.454 95.1666 10
-4 8 5 873.984 81.6598 54
4 -8 -5 809.812 90.2735 53
4 -8 -5 840.135 100.926 51
-4 8 5 777.145 75.3087 50
-4 8 5 765.074 80.2258 47
4 -8 -4 642.841 82.961 10
4 -8 -4 580.625 81.1283 53
4 -8 -4 664.818 88.5789 51
-4 8 4 614.69 72.4116 54
-4 8 4 602.372 69.9644 50
-4 8 4 679.537 76.8699 47
-4 8 3 23758.6 381.385 8
4 -8 -3 24383.8 970.758 40
-4 8 3 23969.6 410.015 54
4 -8 -3 22746.2 491.419 53
4 -8 -3 23461.4 461.772 10
4 -8 -3 23878.8 507.715 51
-4 8 3 24259.7 422.608 47
4 -8 -2 7497.61 259.467 10
-4 8 2 7391.47 222.188 8
4 -8 -2 7552.5 287.165 53
-4 8 2 7549.97 232.896 7
-4 8 2 7141.72 232.358 47
4 -8 -2 7187.05 276.825 51
-4 8 2 7202.86 225.591 54
-4 8 1 4834.36 183.238 7
-4 8 1 4992.31 186.861 54
4 -8 -1 4990.64 233.498 53
4 -8 -1 5202.54 214.471 57
-4 8 1 5080.58 185.874 8
4 -8 -1 4743.55 221.404 51
4 -8 0 287.417 58.1155 51
4 -8 0 393.419 63.4269 55
-4 8 0 328.413 53.3513 8
4 -8 0 236.019 53.8496 57
-4 8 0 250.513 49.1981 54
4 -8 0 286.151 60.9319 53
-4 8 0 318.195 48.6486 7
4 -8 1 718.3 83.6782 55
-4 8 -1 733.806 70.3605 11
-4 8 -1 758.621 71.5344 7
4 -8 1 874.401 93.1951 57
4 -8 1 720.581 90.8743 53
-4 8 -1 819.491 78.7115 8
-4 8 -2 54.3426 33.0064 8
4 -8 2 95.2531 40.8894 57
-4 8 -2 46.4656 30.1211 11
4 -8 2 33.2565 40.4056 53
4 -8 2 101.165 42.7653 55
4 -8 3 6222.87 243.173 57
-4 8 -3 6184.69 211.2 11
-4 8 -3 6110.89 205.637 8
4 -8 3 6159.6 255.846 53
4 -8 4 1875.8 226.718 35
4 -8 4 1893.57 143.462 53
-4 8 -4 2039.53 125.747 11
4 -8 4 2046 141.083 57
-4 8 -5 196.258 46.1241 14
4 -8 5 157.93 75.4722 35
-4 8 -5 198.843 48.5577 11
4 -8 5 162.079 49.7706 53
4 -8 5 112.723 44.062 57
4 -8 6 524.178 130.517 35
-4 8 -6 616.248 73.234 14
-4 8 -6 563.024 70.963 11
4 -8 6 577.475 81.1906 53
4 -8 6 676.165 83.8009 57
4 -8 7 111.728 87.6552 35
-4 8 -7 76.3614 33.7392 14
-4 8 -7 3.01146 26.168 11
4 -8 7 -12.9787 32.5931 57
4 -8 8 5847.56 430.036 35
-4 8 -8 5263.03 194.083 14
-4 8 -8 5260.54 200.608 11
4 -8 8 5476.19 211.032 57
-4 8 -8 5353.76 184.227 20
-4 8 -9 507.666 60.5772 20
-4 8 -9 482.492 62.1371 11
-4 8 -9 553.143 74.398 17
-4 8 -10 665.395 74.0954 17
4 -8 10 663.955 75.3766 55
-4 8 -10 665.33 65.2062 20
-4 8 -11 479.74 59.8793 17
-4 8 -12 369.046 47.3536 17
-4 7 10 297.121 33.7778 54
-4 7 10 299.128 34.1871 47
-4 7 9 1430.25 77.2185 7
4 -7 -9 1310.23 91.8056 51
-4 7 9 1441.68 83.085 47
-4 7 9 1362.58 81.6499 54
4 -7 -8 1145.7 92.9683 10
-4 7 8 1110.52 83.4178 47
4 -7 -8 1202.05 102.65 51
-4 7 8 1279.43 90.3212 54
-4 7 7 2455.84 130.107 47
4 -7 -7 2503.99 147.386 10
4 -7 -7 2585.04 162.262 51
4 -7 -6 138.637 49.4876 10
4 -7 -6 157.283 56.5354 51
-4 7 6 192.228 49.8487 47
-4 7 5 15878.8 342.265 47
4 -7 -5 15974.5 396.718 53
4 -7 -5 16007.1 397.892 10
4 -7 -5 15369.5 414.681 51
4 -7 -4 1130.82 209.65 40
4 -7 -4 1008.71 106.344 10
4 -7 -4 1130.38 111.529 53
4 -7 -4 1044.37 113.516 51
-4 7 4 1133.84 95.7148 47
4 -7 -3 120857 2117.8 40
4 -7 -3 126819 1155.12 53
4 -7 -3 123947 1171.98 51
-4 7 3 129099 936.722 54
-4 7 3 126372 953.141 47
-4 7 3 125195 876.58 8
4 -7 -3 124740 1095.12 10
4 -7 -2 42759.4 1228.45 38
-4 7 2 40892.9 906.517 33
4 -7 -2 40985.3 611.032 10
-4 7 2 34248.6 1020.21 23
4 -7 -2 35111.8 1131.6 22
4 -7 -2 40961.8 654.903 53
4 -7 -2 40099.3 651.155 51
-4 7 2 40607.3 534.526 47
-4 7 2 39940.2 502.813 8
-4 7 2 40146.2 512.528 54
4 -7 -1 16944.5 737.061 38
-4 7 1 15938.8 569.245 33
4 -7 -1 15520.6 364.488 10
4 -7 -1 15400.7 396.497 51
-4 7 1 13632 673.201 1
4 -7 -1 12632.7 671.139 22
4 -7 -1 15085.6 349.69 57
-4 7 1 15342 311.033 54
-4 7 1 15783 330.347 47
-4 7 1 15370.4 312.655 8
4 -7 -1 15456.5 400.03 53
-4 7 0 4058.9 291.601 33
4 -7 0 4387.76 191.925 57
-4 7 0 3945.75 353.436 1
4 -7 0 4458.25 213.613 53
4 -7 0 3609.08 353.225 22
-4 7 0 4192.02 169.539 47
-4 7 0 4301.19 165.973 8
-4 7 -1 7764.87 221.027 8
-4 7 -1 7171.57 465.222 1
4 -7 1 7929.73 283.844 53
4 -7 1 7274.71 482.095 22
-4 7 -2 658.233 67.8117 8
4 -7 2 812.43 157.779 22
-4 7 -2 531.428 129.75 1
-4 7 -3 1062.75 171.604 4
4 -7 3 881.605 136.457 35
-4 7 -3 1067.88 85.0085 11
4 -7 3 943.21 174.037 22
4 -7 3 923.497 98.4657 53
-4 7 -3 1022.89 84.0472 8
-4 7 -3 864.159 154.758 1
-4 7 -4 5135.91 386.252 4
-4 7 -4 5243.18 191.835 11
4 -7 4 4856.1 357.228 22
4 -7 4 5207.69 232.024 53
-4 7 -4 5136.94 184.537 8
4 -7 5 983.952 162.858 22
-4 7 -5 1273.64 96.8709 11
4 -7 5 1193.87 114.534 53
4 -7 6 243.415 89.6693 35
-4 7 -6 309.345 54.1701 14
-4 7 -6 257.279 48.9361 11
4 -7 6 311.941 63.3964 53
-4 7 -7 25916 447.849 11
4 -7 7 27259.3 905.069 35
-4 7 -7 25884.1 442.727 14
-4 7 -7 25748.2 410.809 20
4 -7 8 2371.18 279.664 35
-4 7 -8 2256.37 129.692 14
-4 7 -8 2287.72 135.578 11
-4 7 -8 2340.24 128.696 20
4 -7 9 9181.97 550.525 35
-4 7 -9 8714.86 255.462 11
-4 7 -9 9035.1 254.558 20
-4 7 -9 9089.77 280.055 17
-4 7 -10 27.0799 36.6561 17
-4 7 -10 4.81009 31.7233 20
-4 7 -11 1730.18 114.678 17
-4 7 -11 1710.06 107.67 20
-4 7 -12 3071.87 136.938 17
-4 7 -13 32.9063 24.4739 17
-4 6 10 260.75 37.8042 47
-4 6 10 255.376 32.0145 7
-4 6 10 266.98 39.255 54
4 -6 -10 307.256 41.8912 51
4 -6 -9 1298.93 101.418 51
-4 6 9 1392.18 91.2057 47
4 -6 -9 1100.47 87.6249 10
4 -6 -8 3240.2 165.407 10
-4 6 8 3522.57 153.23 47
4 -6 -8 3156.28 174.02 51
4 -6 -7 632.462 85.0281 10
-4 6 7 585.21 73.0641 47
-4 6 7 566.744 61.1188 48
4 -6 -7 605.127 87.7419 51
4 -6 -6 1364.47 122.057 10
4 -6 -6 1541.14 138.9 51
-4 6 6 1577.46 100.78 48
-4 6 6 1479.01 108.008 47
4 -6 -5 11544 333.091 10
4 -6 -5 11317.8 366.895 51
-4 6 5 11902.9 273.651 48
-4 6 5 11846 291.408 47
4 -6 -4 7414.5 507.1 40
4 -6 -4 7637.16 563.072 38
4 -6 -4 7762.75 281.106 53
4 -6 -4 7718.96 266.429 10
4 -6 -4 7576.7 295.209 51
-4 6 4 8057.42 224.985 48
-4 6 4 7676.67 232.458 47
4 -6 -3 101096 1950.32 38
-4 6 3 100639 1385.35 33
-4 6 3 86369.1 1672.18 23
4 -6 -3 96548.4 981.193 53
4 -6 -3 101458 937.615 10
4 -6 -3 97948.2 1029.88 51
-4 6 3 93788.8 1736.56 1
-4 6 3 103016 828.561 47
-4 6 3 99037.6 756.727 8
4 -6 -2 19759.1 822.962 38
-4 6 2 21132.2 635.438 33
-4 6 2 19551.4 749.08 23
-4 6 2 20562 803.697 1
4 -6 -2 19068.5 805.583 22
-4 6 1 -68.808 61.7175 33
-4 6 1 25.4698 32.6401 1
4 -6 -1 64.1902 59.276 38
4 -6 -1 39.8265 65.2144 22
-4 6 1 12.8934 29.637 23
4 -6 0 485.655 122.531 38
-4 6 0 399.817 114.719 1
-4 6 0 503.802 105.685 23
-4 6 0 424.729 96.4775 33
4 -6 0 224.114 94.0933 22
-4 6 -1 49001.3 1136.16 1
4 -6 1 46333.7 1162.15 22
4 -6 2 1977.67 233.283 22
-4 6 -2 2123.48 232.509 1
4 -6 3 722.298 138.083 22
-4 6 -3 909.08 141.859 4
-4 6 -3 650.639 126.711 1
4 -6 3 802.544 186.666 42
-4 6 -4 17623.2 663.077 4
-4 6 -4 17807.2 626.429 1
4 -6 4 19603.5 871.443 42
4 -6 5 486.841 107.765 22
-4 6 -5 332.741 97.2992 4
4 -6 5 485.175 152.982 42
-4 6 -6 2367.1 264.548 4
-4 6 -6 2189.56 123.799 11
4 -6 6 2255.03 229.817 22
4 -6 6 2449.44 321.623 42
-4 6 -7 6234.94 212.958 11
-4 6 -7 6265.88 212.059 14
4 -6 7 6700.1 528.381 42
4 -6 7 5585.85 363.366 22
-4 6 -7 6187.08 204.228 20
-4 6 -8 27458.4 454.354 11
-4 6 -8 27189.5 441.581 20
4 -6 9 1195.3 198.789 35
-4 6 -9 1117.02 94.8648 11
-4 6 -9 1108.78 101.273 17
-4 6 -9 914.293 88.1178 20
-4 6 -10 294.949 59.8553 17
4 -6 10 259.488 104.635 35
-4 6 -10 266.537 55.941 20
-4 6 -11 1686.34 116.248 20
-4 6 -11 1569.11 117.837 17
-4 6 -12 397.875 58.9912 20
-4 6 -12 325.644 56.6809 17
-4 6 -13 128.722 39.4011 17
-4 5 11 849.169 55.4755 47
4 -5 -10 2557.67 116.555 10
4 -5 -10 2662.42 125.219 51
4 -5 -10 2471.27 117.999 19
-4 5 10 2724.8 116.08 47
4 -5 -9 680.294 81.0854 10
4 -5 -9 692.977 80.3762 51
4 -5 -9 718.528 75.2322 19
-4 5 9 759.223 63.2257 48
-4 5 9 689.15 71.3827 47
4 -5 -8 23439.8 455.784 10
4 -5 -8 24464.9 497.535 51
4 -5 -8 24422.4 446.015 19
-4 5 8 23673.5 366.562 48
4 -5 -7 5648.46 252.863 51
-4 5 7 5618.12 187.806 48
4 -5 -7 5917.34 236.814 10
-4 5 6 5369.97 185.468 48
4 -5 -6 5440.33 254.879 51
4 -5 -6 5465.99 227.814 10
4 -5 -5 18762.9 904.274 38
4 -5 -5 18070.4 402.359 10
4 -5 -5 18242.9 459.343 51
-4 5 5 18202.5 335.07 48
4 -5 -4 10444.6 644.949 38
4 -5 -4 10414 292.167 10
4 -5 -4 10338.3 337.777 51
-4 5 4 9803.83 241.133 48
-4 5 4 9085.7 507.539 1
4 -5 -3 389.759 126.287 38
-4 5 3 471.789 120.981 23
4 -5 -3 497.892 123.525 22
-4 5 3 520.708 121.039 1
4 -5 -2 42854.7 1177.7 38
-4 5 2 39287.7 1001.82 23
4 -5 -2 41476 1101.93 22
-4 5 2 40353.7 1030.44 1
4 -5 -1 217.474 84.2737 38
-4 5 1 187.906 73.8407 1
-4 5 1 222.023 68.4275 33
-4 5 1 23.9331 38.1921 23
4 -5 -1 105.509 75.4877 22
-4 5 0 2050.79 187.642 33
-4 5 0 1897.47 190.772 23
-4 5 0 1895.18 215.833 1
4 -5 0 2062.07 236.965 22
-4 5 -1 16095.4 529.38 33
4 -5 1 14322.8 610.143 22
-4 5 -1 14187.6 472.673 23
-4 5 -1 14873.4 573.662 1
-4 5 -2 100.268 56.0688 1
-4 5 -2 58.3218 30.9736 4
-4 5 -2 76.8825 71.3658 33
4 -5 2 254.083 83.6372 22
4 -5 3 4942.05 367.092 31
-4 5 -3 4920.31 309.474 1
4 -5 3 4619.44 324.605 22
-4 5 -3 4893.35 301.512 4
4 -5 3 4945.02 414.792 42
-4 5 -4 609.646 112.702 1
-4 5 -4 488.261 102.772 4
4 -5 4 469.501 141.683 31
4 -5 4 426.419 97.5914 22
4 -5 4 483.24 151.908 42
4 -5 5 9871.51 561.173 31
4 -5 5 9371.82 437.01 22
-4 5 -5 10395.2 494.078 4
4 -5 5 9155.34 576.329 42
4 -5 6 375.587 87.035 22
-4 5 -6 155.475 65.5597 4
4 -5 6 274.937 139.322 31
4 -5 6 270.885 128.351 42
-4 5 -7 84505.8 1592.55 4
4 -5 7 83361.3 1759.05 31
4 -5 7 79120.8 1278.03 22
4 -5 7 77380.9 1730.8 42
-4 5 -8 -36.456 23.4559 11
4 -5 8 47.0378 90.9513 42
-4 5 -8 17.7127 29.1042 20
-4 5 -9 1637.33 115.29 20
-4 5 -9 1790.53 124.416 17
4 -5 9 1644.94 289.867 31
4 -5 10 1025.08 192.759 35
-4 5 -10 869.249 86.2766 20
-4 5 -10 759.733 82.8732 17
-4 5 -11 600.543 76.4365 20
-4 5 -11 596.549 78.6146 17
4 -5 11 655.031 146.516 35
-4 5 -12 3107.45 151.426 15
-4 5 -12 3145.47 158.249 20
-4 5 -12 3488.82 168.222 17
-4 5 -13 225.095 46.2567 15
-4 5 -13 277.509 51.9791 20
-4 5 -13 258.818 54.7162 17
-4 5 -14 18.8911 20.3639 15
-4 4 11 615.171 53.3307 47
4 -4 -11 635.266 58.2275 19
4 -4 -10 123.911 44.5536 19
4 -4 -10 92.4801 32.1369 10
-4 4 10 92.9019 28.1077 48
4 -4 -9 1856.61 125.355 10
4 -4 -9 1756.43 126.275 51
-4 4 9 1831.25 216.675 41
-4 4 9 1710.82 99.0945 48
-4 4 8 4026.19 342.118 41
-4 4 8 3974.07 159.408 48
4 -4 -8 4084.07 205.671 51
4 -4 -8 4042.74 183.753 9
4 -4 -8 3860.71 188.744 10
-4 4 7 1551.6 225.968 41
4 -4 -7 1603.05 123.543 10
4 -4 -7 1512.57 114.905 9
4 -4 -7 1513.83 134.254 51
-4 4 7 1594.99 105.053 48
-4 4 6 1319.14 200.096 41
-4 4 6 1245.41 92.7411 48
4 -4 -6 1314.11 109.647 10
4 -4 -6 1315.25 104.856 9
4 -4 -6 1324.63 125.501 51
4 -4 -5 10292.4 662.542 38
-4 4 5 11210.7 536.024 41
4 -4 -5 10927.3 347.166 51
4 -4 -5 11407.8 298.847 10
4 -4 -5 9872.14 549.049 1
-4 4 5 10590.2 251.417 48
-4 4 4 170.37 74.79 41
4 -4 -4 260.626 113.371 38
-4 4 4 56.767 43.9346 1
-4 4 3 744.964 133.099 41
4 -4 -3 600.256 154.208 38
-4 4 3 640.771 126.744 1
4 -4 -3 561.888 128.848 22
4 -4 -2 9202.08 531.881 38
4 -4 -2 8890.91 466.676 22
-4 4 2 8616.14 440.011 23
-4 4 2 8518.49 435.266 1
4 -4 -1 25321.3 769.139 22
-4 4 1 24005.8 708.283 1
-4 4 1 23551.5 674.076 23
-4 4 0 7854.88 358.844 23
-4 4 0 8088.36 344.248 33
4 -4 0 8522.75 433.325 22
-4 4 0 8154.97 399.347 1
4 -4 1 27283.3 765.392 22
-4 4 -1 28174.9 645.043 33
-4 4 -1 26816 606.858 23
-4 4 -1 27483.8 710.273 1
4 -4 1 29675.7 906.523 42
-4 4 -2 90637.6 1098.63 4
-4 4 -2 91602.4 1207.04 33
4 -4 2 89695.8 1366.05 31
-4 4 -2 89695.8 1246.55 1
4 -4 2 87349.3 1320.46 22
4 -4 2 86334.7 1563.34 42
-4 4 -3 2612.75 210.743 33
4 -4 3 2576.4 246.931 31
4 -4 3 2200.94 203.16 22
-4 4 -3 2295.68 196.023 1
-4 4 -3 2839.24 210.11 4
4 -4 3 2355.1 275.603 42
-4 4 -4 29526.7 716.054 4
4 -4 4 28817.3 830.069 31
4 -4 4 26718.3 689.279 22
-4 4 -4 27398.2 637.085 1
-4 4 -4 29172.2 627.095 5
4 -4 4 26694.2 896.026 42
4 -4 5 51340.9 938.244 22
-4 4 -5 53532.9 882.731 5
4 -4 5 52160 1268.77 42
4 -4 6 159.726 121.7 42
-4 4 -6 235.615 82.1499 4
4 -4 6 77.579 89.1881 31
4 -4 6 268.264 116.753 28
4 -4 6 150.799 56.3925 22
-4 4 -6 107.765 64.6701 5
-4 4 -7 17048.3 676.656 4
4 -4 7 18465.8 774.259 31
4 -4 7 17900.3 780.394 28
4 -4 7 17554.4 556.59 22
4 -4 7 18091.8 789.612 42
4 -4 8 1696.87 254.895 42
-4 4 -8 1644.27 227.193 4
4 -4 8 1823.17 273.169 31
4 -4 9 3200.38 371.008 31
-4 4 -9 2817.2 149.545 20
-4 4 -9 2802.29 148.104 17
4 -4 9 2791.13 337.602 42
-4 4 -10 3875.01 180.332 20
-4 4 -10 4054.06 185.146 17
-4 4 -11 703.808 82.0687 15
4 -4 11 589.096 145.691 35
-4 4 -11 682.134 81.2244 17
-4 4 -11 770.181 85.7044 20
-4 4 -12 817.152 87.5064 15
-4 4 -12 910.121 91.0003 20
-4 4 -12 996.841 96.1859 17
-4 4 -13 3691.77 166.049 15
-4 4 -13 4045.38 174.425 20
-4 4 -13 4145.46 178.628 17
-4 4 -14 87.5493 36.1323 15
-4 4 -14 43.7599 29.2305 20
-4 3 12 1708.36 69.3232 47
4 -3 -11 262.526 48.4633 19
-4 3 11 361.216 40.1424 48
4 -3 -10 1000.32 90.3675 9
-4 3 10 1056.53 75.6364 48
4 -3 -10 956.457 83.7731 10
-4 3 9 2293.05 259.949 41
4 -3 -9 2048.65 133.349 9
4 -3 -9 1998.06 130.871 10
-4 3 9 2109.35 116.085 48
-4 3 8 44.5423 61.4635 41
4 -3 -8 35.5582 33.6067 10
4 -3 -8 59.6585 44.4532 9
-4 3 8 44.3888 32.5636 48
-4 3 7 12678.3 571.827 30
4 -3 -7 13219.7 332.607 10
4 -3 -7 12862.3 321.618 9
4 -3 -7 13363.5 377.857 51
-4 3 7 12940.1 609.017 41
-4 3 6 1722.3 222.93 41
4 -3 -6 1416.78 221.974 2
4 -3 -6 1668.72 286.797 38
-4 3 6 1797.14 201.77 30
4 -3 -6 2079.1 131.102 10
4 -3 -6 1732.15 115.289 9
4 -3 -6 1770.74 141.525 51
-4 3 6 1656.88 226.821 24
-4 3 5 733.718 143.918 41
4 -3 -5 824.957 174.83 38
4 -3 -5 988.439 170.792 1
-4 3 5 820.206 160.785 24
-4 3 4 19067.3 644.012 41
4 -3 -4 18602.1 817.469 38
4 -3 -4 16894.7 635.87 1
-4 3 3 8314.22 402.421 41
4 -3 -3 8035.31 508.508 38
-4 3 3 8097.75 406.22 1
-4 3 2 17943.5 562.022 41
-4 3 2 16250.4 555.834 1
4 -3 -2 17931.1 600.192 22
-4 3 1 42705.8 809.664 41
4 -3 -1 44329.5 912.539 22
-4 3 1 44355.8 883.837 1
4 -3 0 10589 436.235 22
-4 3 0 10427.3 414.418 1
4 -3 0 11173 516.246 42
-4 3 -1 94253.7 911.171 4
4 -3 1 92379.8 1190.54 31
-4 3 -1 92451.4 1186.94 1
-4 3 -2 60999.5 799.522 4
-4 3 -2 59469.8 884.613 33
4 -3 2 60128.3 994.913 31
-4 3 -2 59759.7 920.752 1
4 -3 2 61374.8 985.635 22
4 -3 2 58640.7 1185.37 42
-4 3 -3 36664.3 677.474 4
-4 3 -3 37576.8 730.647 33
4 -3 3 38792.4 826.345 31
4 -3 3 38344.5 902.626 28
-4 3 -3 37341.5 704.654 1
4 -3 3 35516.5 729.974 22
4 -3 3 38540.7 956.681 42
-4 3 -4 84905.8 1115.39 4
4 -3 4 89361.1 1309.54 31
4 -3 4 85918.4 1390.85 28
4 -3 4 87107.5 1450.81 42
4 -3 4 80815.1 1078.18 22
-4 3 -4 82661.3 1001.89 1
-4 3 -4 89346.1 1092.47 5
-4 3 -5 1990.71 188.393 4
4 -3 5 2341.08 233.957 31
4 -3 5 2026.69 229.392 28
4 -3 5 1760.26 158.909 22
-4 3 -5 2244.52 188.257 5
4 -3 5 1931.73 231.401 42
-4 3 -6 24291.6 699.654 4
-4 3 -6 24172 641.328 5
4 -3 6 26050.3 794.104 31
4 -3 6 25543 817.27 28
4 -3 6 24150.2 582.939 22
4 -3 6 24931.4 827.225 42
-4 3 -7 1671.49 202.887 4
4 -3 7 2018.53 247.029 31
4 -3 7 2072.58 254.019 28
-4 3 -7 1591.05 181.127 5
4 -3 7 1791.03 236.823 42
-4 3 -8 842.836 155.392 4
4 -3 8 821.177 191.988 31
4 -3 8 807.68 185.076 28
4 -3 8 763.965 174.408 42
4 -3 9 504.662 156.911 42
-4 3 -9 672.889 150.668 4
4 -3 9 680.412 185.329 31
-4 3 -9 513.68 67.2272 12
4 -3 9 529.989 156.046 28
-4 3 -9 547.701 67.6827 20
-4 3 -10 421.598 63.5974 15
4 -3 10 462.49 143.786 31
-4 3 -10 437.491 70.7719 12
4 -3 10 651.396 179.276 28
-4 3 -10 520.996 68.2418 17
-4 3 -10 424.406 64.1667 20
-4 3 -11 201.089 46.7869 20
-4 3 -11 66.1356 33.7865 15
4 -3 11 58.9444 138.346 31
-4 3 -11 48.2796 37.08 17
-4 3 -12 4856.56 206.719 15
-4 3 -12 4900.34 206.019 17
-4 3 -12 4967.12 208.995 20
-4 3 -13 875.024 92.754 15
-4 3 -13 1034.71 94.3983 20
-4 3 -14 742.923 76.1279 15
-4 3 -14 776.752 74.225 20
-4 3 -15 154.582 36.0452 15
4 -2 -12 127.025 33.7151 19
4 -2 -11 408.884 58.9991 9
-4 2 11 390.446 43.147 48
4 -2 -10 8820.6 245.103 10
4 -2 -10 9007.99 264.533 9
-4 2 10 8590.64 218.18 48
-4 2 9 857.478 165.529 41
4 -2 -9 1088.45 102.232 9
4 -2 -9 1105.75 97.2602 10
-4 2 8 208.632 99.4794 41
4 -2 -8 364.35 62.7613 10
4 -2 -8 272.598 58.7107 9
4 -2 -7 5984.36 217.863 10
4 -2 -7 5677.22 213.018 9
-4 2 7 5745.41 402.733 32
-4 2 7 6234.03 426.799 41
4 -2 -6 39458.1 1278.65 38
-4 2 6 41022.8 1038.8 41
-4 2 6 39701.7 1001.84 32
4 -2 -6 37292.1 1090.88 2
4 -2 -6 40131.6 632.935 58
4 -2 -6 38475.1 519.82 9
-4 2 6 38338.2 1048.43 24
4 -2 -5 -34.695 61.4275 38
-4 2 5 69.6544 57.2811 24
-4 2 5 0.94315 54.3157 41
4 -2 -5 147.474 69.1008 1
-4 2 5 -71.6297 56.4085 32
4 -2 -5 123.272 78.6539 2
-4 2 4 729.947 128.105 41
4 -2 -4 501.557 143.95 38
4 -2 -4 617.651 116.653 1
-4 2 4 506.295 104.666 32
-4 2 4 423.508 102.408 24
-4 2 3 1975.61 189.857 41
-4 2 3 1591.5 161.978 32
4 -2 -3 1467.09 169.652 1
-4 2 2 15082.9 500.666 1
-4 2 2 15214.7 479.953 41
4 -2 -2 14407.6 498.123 22
-4 2 1 932.783 116.5 41
4 -2 -1 900.941 124.633 22
-4 2 1 880.43 118.276 1
-4 2 0 780.087 100.216 41
4 -2 0 713.635 110.775 22
4 -2 0 699.862 134.239 42
-4 2 0 688.993 105.322 1
-4 2 -1 13192.7 289.241 4
4 -2 1 13633.5 396.477 31
-4 2 -1 13198 359.417 24
4 -2 1 13555.1 432.666 22
-4 2 -1 14018.8 424.733 1
4 -2 1 13135.1 509.847 42
-4 2 -2 30122.2 501.128 4
-4 2 -2 27856.8 556.206 33
4 -2 2 30298.8 703.73 28
-4 2 -2 29882.1 592.946 1
-4 2 -2 28758.9 474.167 24
4 -2 2 30991 628.448 22
4 -2 2 30428.3 761.479 42
4 -2 3 39199.5 845.699 39
-4 2 -3 38157.8 625.517 4
-4 2 -3 39247.4 691.318 33
4 -2 3 40922.4 831.258 28
-4 2 -3 39220.3 471.428 24
4 -2 3 38632.8 686.36 22
-4 2 -3 40203.8 657.675 1
4 -2 4 1730.61 184.073 39
-4 2 -4 1392.17 134.592 4
-4 2 -4 1699.52 154.326 33
4 -2 4 1752.07 186.962 28
4 -2 4 1510.7 137.651 22
-4 2 -4 1467.94 121.271 1
-4 2 -5 4420.27 193.838 1
4 -2 5 5007.44 307.312 39
-4 2 -5 4979.24 275.477 4
4 -2 5 5120.87 326.424 28
4 -2 5 4768.61 235.087 22
-4 2 -5 5385.71 292.02 5
-4 2 -6 779.78 121.996 4
4 -2 6 942.32 138.889 39
4 -2 6 744.635 138.954 28
4 -2 6 854.036 104.065 22
-4 2 -6 916.229 132.007 5
-4 2 -7 28652.1 785.568 4
4 -2 7 30495.4 876.109 28
4 -2 7 31514.9 692.233 25
-4 2 -7 29267.8 766.013 5
-4 2 -8 4441.92 336.842 4
4 -2 8 4543.16 367.948 28
-4 2 -9 12404.4 605.476 4
4 -2 9 13838.1 678.065 28
-4 2 -10 8947.81 265.854 15
-4 2 -10 9282.59 263.347 17
4 -2 10 10833.5 633.835 31
-4 2 -10 9925.54 281.943 12
4 -2 10 10611.5 636.408 28
-4 2 -10 9582.14 276.774 20
-4 2 -11 9065.16 279.763 15
4 -2 11 10473.2 644.403 31
-4 2 -11 9992.43 293.697 12
-4 2 -11 9476.2 278.904 17
-4 2 -11 9334.68 286.574 20
4 -2 11 11008.9 568.938 27
-4 2 -12 10335.3 306.86 15
-4 2 -12 11110.5 315.261 12
-4 2 -12 10812.3 303.364 17
-4 2 -12 10576.5 307.363 20
-4 2 -13 14773.9 358.33 15
-4 2 -13 15013 348.75 20
-4 2 -14 4651.72 191.285 15
-4 2 -14 4553.36 175.131 20
-4 2 -15 901.882 77.873 15
-4 1 12 598.875 43.9296 48
4 -1 -11 116.821 34.498 13
4 -1 -11 63.0504 36.1885 9
-4 1 11 104.244 30.8018 48
-4 1 10 4328.96 340.679 41
4 -1 -10 4344.52 190.579 9
4 -1 -9 26308.3 446.46 10
4 -1 -9 26548.9 477.088 9
-4 1 8 2140.03 260.965 41
-4 1 8 2071.87 254.006 32
4 -1 -8 2023.64 134.838 9
4 -1 -8 2070.2 128.732 10
-4 1 7 4711.25 372.951 41
-4 1 7 4274 351.256 32
4 -1 -7 4417.7 186.923 9
-4 1 6 724.301 151.323 41
4 -1 -6 771.347 186.201 38
-4 1 6 690.549 137.619 32
-4 1 6 604.598 132.279 24
4 -1 -6 816.416 156.321 2
-4 1 5 1764.05 207.63 41
4 -1 -5 1677.33 244.348 38
4 -1 -5 1524.58 204.475 2
-4 1 5 1555.82 190.333 32
-4 1 5 1659.51 201.955 24
4 -1 -5 1825.17 198.656 1
4 -1 -4 17801.6 753.472 38
-4 1 4 17469.8 558.066 32
4 -1 -4 16996.6 620.905 2
-4 1 4 16403.2 584.145 24
-4 1 4 17531.3 583.905 41
4 -1 -4 16468.2 558.893 1
-4 1 3 97500.6 1254.18 41
-4 1 3 94180.8 1179.53 32
-4 1 3 95849.7 1310.5 24
4 -1 -3 95909.6 1275.8 1
-4 1 2 19744.5 523.548 41
4 -1 -2 20379.2 559.183 1
-4 1 2 20191.5 491.852 32
-4 1 2 19705.6 552.792 24
-4 1 1 10395.3 346.712 41
-4 1 1 10068 314.618 32
4 -1 -1 9652.06 362.735 22
4 -1 -1 9529.84 364.58 1
-4 1 1 10244.8 367.199 24
-4 1 0 14131.6 393.933 24
4 -1 0 14141.1 421.562 22
-4 1 0 14637.3 422.918 1
4 -1 1 50637 790.435 28
4 -1 1 50843.6 754.351 22
-4 1 -1 52506.7 759.702 1
-4 1 -1 50547.7 678.611 24
-4 1 -2 2915.38 173.028 1
-4 1 -2 2759.61 134.564 4
4 -1 2 2917.47 235.275 39
4 -1 2 2719.91 188.46 28
-4 1 -2 2882.73 146.941 24
4 -1 2 2953.5 176.021 22
-4 1 -3 28749.8 504.994 4
4 -1 3 28547.9 705.854 39
-4 1 -3 28759.8 520.483 1
-4 1 -3 29401.6 546.805 33
4 -1 3 29037.7 631.38 28
-4 1 -3 30000.4 416.514 24
4 -1 3 28233.4 524.857 22
4 -1 3 29484.6 524.21 1
4 -1 4 189.009 46.6004 1
4 -1 4 121.713 44.1017 22
-4 1 -4 75.2507 40.3794 4
-4 1 -4 111.214 51.6888 33
4 -1 4 191.816 52.7675 36
-4 1 -5 3593.69 225.511 4
4 -1 5 3575.51 261.15 39
4 -1 5 3859.38 228.576 36
4 -1 5 4097.35 221.666 29
4 -1 5 3681.11 180.196 22
4 -1 5 3835.79 166.115 1
-4 1 -5 3953.06 250.753 5
4 -1 6 208.165 81.2463 39
-4 1 -6 145.56 60.4777 4
4 -1 6 213.866 61.0275 29
-4 1 -6 206.525 76.7695 5
4 -1 6 209.333 45.9022 22
4 -1 6 -26.8956 34.9816 36
4 -1 6 152.799 63.26 25
-4 1 -7 19710.6 626.776 4
4 -1 7 21089.8 599.556 25
-4 1 -7 20212.5 650.256 5
-4 1 -8 6989.18 407.839 4
-4 1 -8 7621.92 429.452 5
4 -1 8 8223.67 405.776 25
4 -1 9 8793.66 524.142 28
4 -1 9 7595.67 423.673 25
-4 1 -9 7486.34 460.997 4
-4 1 -10 770.016 83.637 15
-4 1 -10 1007.93 93.0619 12
4 -1 10 1054.27 213.096 28
-4 1 -10 733.225 75.5152 17
-4 1 -10 807.145 83.4805 20
4 -1 10 1167.22 176.579 25
-4 1 -10 797.123 177.772 4
-4 1 -11 735.278 79.676 17
-4 1 -11 548.24 73.5651 15
4 -1 11 611.902 163.184 31
-4 1 -11 645.548 79.3771 12
4 -1 11 504.268 131.634 27
-4 1 -11 585.624 72.7417 20
-4 1 -12 459.354 73.7574 15
-4 1 -12 548.606 77.9497 12
-4 1 -12 341.725 58.4975 20
-4 1 -13 186.509 55.5627 15
-4 1 -13 123.022 45.5536 13
-4 1 -13 197.078 60.9638 12
-4 1 -13 125.387 38.4587 20
-4 1 -14 164.99 55.1712 15
-4 1 -14 241.277 49.8807 13
-4 1 -14 169.834 44.4363 20
-4 1 -15 55.7462 33.6719 15
4 0 -12 2175.46 96.5578 13
-4 0 12 2275.86 85.3697 48
4 0 -12 2217.93 110.901 9
4 0 -11 529.849 72.0486 9
-4 0 10 -78.4889 78.8407 41
4 0 -10 143.489 49.2777 9
-4 0 9 2320.04 268.614 41
4 0 -9 2527.71 152.102 9
4 0 -9 2559.52 139.176 10
-4 0 8 29.6687 67.3514 41
-4 0 8 41.0396 74.2777 32
4 0 -8 77.3179 47.6961 9
-4 0 8 3.5871 23.4392 49
-4 0 7 16770 696.88 41
-4 0 7 16645.4 683.519 32
-4 0 7 16991.4 691.192 24
4 0 -7 16964.7 365.044 9
4 0 -7 17089.3 413.487 58
-4 0 6 8236.36 463.367 41
4 0 -6 7684.8 525.961 38
-4 0 6 7925.71 447.269 32
-4 0 6 7793.71 445.611 24
4 0 -6 8399.07 496.593 2
-4 0 5 54.6961 60.8067 41
4 0 -5 81.7166 60.4834 2
4 0 -5 104.986 66.4733 38
-4 0 5 174.248 73.6612 32
-4 0 5 70.051 62.0469 24
4 0 -5 21.6907 44.9595 1
-4 0 4 39685.1 864.361 41
4 0 -4 43174.7 1132.23 38
-4 0 4 42097.4 856.555 32
4 0 -4 39701 917.817 2
-4 0 4 41218.8 897.599 24
4 0 -4 39791.7 834.923 1
-4 0 3 36389.1 754.513 41
-4 0 3 35113.4 703.096 32
4 0 -3 37016.3 815.771 2
4 0 -3 36136.4 756.548 1
-4 0 3 36727.9 789.879 24
-4 0 2 25938.8 578.394 41
-4 0 2 25024.1 529.863 32
-4 0 2 25453.1 609.265 24
4 0 -2 25960.7 609.533 1
-4 0 1 7439.93 281.955 41
-4 0 1 7954.68 264.299 32
-4 0 1 8149.6 320.175 24
-4 0 1 8339.84 284.591 21
4 0 -1 7913 320.406 1
-4 0 0 104802 819.803 32
4 0 0 103144 949.897 28
-4 0 0 107775 1060.27 24
4 0 0 107183 1117.28 1
4 0 1 1374.66 171.197 39
4 0 1 1079.54 104.202 28
-4 0 -1 1315.9 107.606 24
4 0 1 1137.33 107.389 22
-4 0 -1 1190.04 107.963 21
4 0 1 1181.9 116.241 1
4 0 2 19041 582.492 39
-4 0 -2 18883 378.184 24
4 0 2 18853.7 406.964 22
-4 0 -2 20325.4 435.414 21
4 0 2 18321.2 416.828 1
-4 0 -2 19190.1 333.909 4
-4 0 -3 114267 957.014 4
-4 0 -3 114557 985.402 33
-4 0 -3 114200 853.484 3
4 0 3 117793 946.966 22
-4 0 -3 115622 1028.7 21
4 0 3 114564 984.733 1
-4 0 -3 115436 862.042 24
4 0 4 199.348 64.1535 36
-4 0 -4 12.8937 27.5823 4
-4 0 -4 129.819 47.3273 33
-4 0 -4 60.5448 33.3659 3
4 0 4 146.016 38.7015 22
-4 0 -4 13.3949 31.2441 21
4 0 4 101.986 36.0168 1
-4 0 -4 59.6112 26.0237 6
-4 0 -4 72.8778 24.0886 24
-4 0 -5 4243.75 233.414 4
4 0 5 4745.56 176.641 1
4 0 5 4509.84 267.709 36
4 0 5 4642.53 259.763 29
4 0 5 4519.09 168.942 22
-4 0 -5 4549.09 216.401 6
-4 0 -5 4562.71 208.143 21
-4 0 -5 4464.44 219.448 3
-4 0 -5 4980.9 276.778 5
-4 0 -6 23899.3 624.31 4
4 0 6 26400.3 644.911 29
4 0 6 26650.1 681.212 25
-4 0 -6 24701.9 575.723 6
-4 0 -6 26455.9 670.845 5
4 0 7 5902.98 337.448 25
4 0 7 5603.19 313.967 29
-4 0 -7 5810.48 314.143 6
-4 0 -7 5834.77 345.685 5
-4 0 -7 5262.84 319.673 4
4 0 8 44368.8 983.074 25
-4 0 -8 44316.4 960.765 6
-4 0 -8 43531.4 1017.57 5
-4 0 -8 43648.3 1000.86 4
4 0 9 10436.4 497.858 29
4 0 9 10324.8 515.885 25
-4 0 -9 10014.9 506.025 6
-4 0 -10 8810.03 259.947 12
4 0 10 9808.77 542.396 25
-4 0 -10 9602.25 547.334 6
4 0 10 10380.9 528.898 29
-4 0 -11 19.1186 32.0297 15
4 0 11 4.62654 55.6092 28
-4 0 -11 -0.1716 30.2647 12
-4 0 -11 -6.87511 24.4637 20
-4 0 -12 4332.42 204.278 15
-4 0 -12 3967.98 187.512 13
-4 0 -12 4387.88 198.55 12
-4 0 -12 4008.51 187.689 20
-4 0 -13 65.9183 46.258 15
-4 0 -13 41.0719 40.3383 13
-4 0 -13 38.3942 39.8258 12
-4 0 -13 46.7567 29.1936 20
-4 0 -14 2750.64 158.315 15
-4 0 -14 2682.36 144.675 13
-4 0 -15 1228.41 97.5048 15
-4 0 -15 1091.06 83.4707 13
4 1 -12 1097.73 81.9277 9
4 1 -12 944.409 69.9613 13
-4 -1 12 984.867 59.5081 48
4 1 -11 2000.84 125.641 9
-4 -1 10 6595.66 424.237 41
-4 -1 10 6470.41 181.717 49
4 1 -10 6833.14 243.096 9
-4 -1 9 253.179 117.138 41
4 1 -9 141.51 51.7857 9
-4 -1 9 129.668 34.1801 49
-4 -1 8 7988.24 495.757 41
-4 -1 8 8060.48 496.55 32
4 1 -8 8206.28 268.004 9
-4 -1 7 10264.4 546.109 34
-4 -1 7 10144.4 539.197 32
-4 -1 7 10995.4 548.775 24
4 1 -7 10861.8 295.424 9
-4 -1 6 7370.01 430.64 32
4 1 -6 7142.03 455.902 2
-4 -1 6 7659.25 437.855 24
-4 -1 6 7857.87 452.413 34
4 1 -5 7091.81 452.998 38
-4 -1 5 6639.64 396.412 34
-4 -1 5 6468 374.128 24
4 1 -5 6455.27 395.284 2
4 1 -4 51996.1 950.277 1
4 1 -4 50829.4 1169.21 38
-4 -1 4 51826.1 1012.71 34
-4 -1 4 50941.7 976.89 24
4 1 -4 52291.7 1036.79 2
-4 -1 3 36981.6 790.534 34
-4 -1 3 36506.2 769.801 24
-4 -1 3 38599.6 607.973 21
4 1 -3 38033.4 807.818 2
4 1 -3 35892 749.352 1
4 1 -2 3022.83 208.515 2
-4 -1 2 3064.34 211.27 24
-4 -1 2 3301.22 180.106 21
-4 -1 2 3000.02 211.369 34
4 1 -2 2912.61 204.839 1
4 1 -1 90.5563 48.7038 2
-4 -1 1 86.0687 41.6143 34
-4 -1 1 104.272 43.0341 21
-4 -1 1 88.7174 42.8881 24
4 1 -1 126.965 49.8328 1
4 1 0 823.798 90.5414 2
-4 -1 0 634.783 87.0825 24
-4 -1 0 761.244 88.8528 21
4 1 0 772.552 100.724 1
-4 -1 -1 44881.8 647.637 21
-4 -1 -1 43399.3 630.348 24
4 1 1 43985.7 675.311 1
4 1 2 67777.1 1104.2 39
-4 -1 -2 64472.1 725.944 24
-4 -1 -2 65750.9 776.338 21
4 1 2 67200.7 798.718 1
4 1 3 9936.89 424.977 39
-4 -1 -3 10187.2 223.445 6
4 1 3 10733.8 422.588 36
4 1 3 9746.8 162.941 2
-4 -1 -3 10242.1 278.566 24
-4 -1 -3 9941.06 301.782 21
4 1 3 10280.8 298.28 1
4 1 4 15227.5 347.3 1
4 1 4 16465.4 531.153 36
-4 -1 -4 15267.8 346.615 33
-4 -1 -4 15258.5 396.29 3
4 1 4 15774.1 501.517 29
-4 -1 -4 15918.5 384.894 21
-4 -1 -4 14881.1 337.209 6
-4 -1 -4 16422.4 445.973 5
4 1 5 45801.6 567.019 1
-4 -1 -5 42855.2 724.023 3
4 1 5 43202.7 618.782 30
4 1 5 46126.4 887.967 29
-4 -1 -5 43370 677.609 6
-4 -1 -5 46225.8 807.295 5
-4 -1 -5 43646.3 642.111 21
4 1 5 45239.6 913.815 36
-4 -1 -6 40155.3 617.736 21
-4 -1 -6 40767.7 770.567 3
4 1 6 39994.5 638.519 30
4 1 6 42577.3 885.201 29
4 1 6 42529.6 892.783 25
-4 -1 -6 41261.7 752.417 6
-4 -1 -6 43070.2 832.402 5
4 1 7 5215.51 253.088 30
4 1 7 5708.36 343.154 25
-4 -1 -7 5655.05 328.054 5
-4 -1 -7 6010.57 323.949 6
4 1 8 4749.57 265.081 30
4 1 8 4894.45 337.701 29
4 1 8 4875.84 339.838 25
-4 -1 -8 5059.45 331.725 6
-4 -1 -9 8078.08 461.081 6
4 1 9 7474.16 363.12 30
4 1 9 7643.02 455.865 25
4 1 10 1346.4 216.142 25
4 1 10 1499.41 216.252 29
-4 -1 -10 1599.17 243.077 6
-4 -1 -11 3982.67 196.226 15
-4 -1 -11 3993.86 187.341 13
-4 -1 -11 4263.72 190.589 12
-4 -1 -12 475.287 76.098 15
-4 -1 -12 362.388 66.4924 13
-4 -1 -12 450.912 68.0202 12
-4 -1 -13 73.1408 45.9424 15
-4 -1 -13 80.2797 40.6382 13
-4 -1 -13 -17.0765 37.0463 12
-4 -1 -14 1590.72 123.061 15
-4 -1 -14 1413.98 110.921 13
-4 -1 -14 1688.42 116.857 12
-4 -1 -15 12736.9 301.49 15
-4 -1 -15 11567.2 271.72 13
4 2 -12 126.602 37.0783 9
-4 -2 11 -8.00213 20.7911 49
4 2 -11 -20.5742 41.2487 9
4 2 -10 6705.19 240.412 9
-4 -2 10 6523.88 189.592 49
-4 -2 9 221.206 101.872 41
4 2 -9 47.8973 48.6362 9
-4 -2 8 208.34 92.3172 34
-4 -2 8 139.069 74.4036 32
4 2 -8 77.7823 44.0821 9
-4 -2 7 663.911 142.552 34
4 2 -7 441.857 67.1987 9
4 2 -7 654.026 79.0806 61
-4 -2 6 6310.53 391.404 24
-4 -2 6 5993.82 404.022 34
4 2 -6 6394.9 436.846 2
4 2 -6 5962.39 211.016 61
-4 -2 5 12737.8 553.366 34
-4 -2 5 13375.4 537.277 24
4 2 -5 13113.8 573.705 2
4 2 -4 31040.8 746.818 1
-4 -2 4 32963 826.306 34
-4 -2 4 32359.2 776.14 24
4 2 -4 31911.8 817.684 2
4 2 -3 78978.5 1126.06 1
-4 -2 3 78946.4 1168.49 34
-4 -2 3 77269.1 1118.56 24
-4 -2 3 81966.4 926.003 21
4 2 -3 78444.6 1168.08 2
4 2 -2 32539 688.885 1
-4 -2 2 32260.1 687.105 34
-4 -2 2 34131.7 597.049 21
-4 -2 2 31472.8 667.659 24
4 2 -2 33032.9 687.958 2
4 2 -1 241707 1788.55 1
-4 -2 1 243368 1731.15 34
4 2 -1 240379 1674.64 2
-4 -2 1 239124 1730.39 24
4 2 0 12015.3 383.137 1
4 2 0 11724.5 493.388 39
-4 -2 0 12782.3 361.299 34
4 2 0 12835.5 343.558 2
-4 -2 0 12727 362.842 21
-4 -2 0 11895.3 364.845 24
4 2 1 52435.1 766.988 1
-4 -2 -1 52677.7 723.69 24
4 2 1 51994 598.081 2
-4 -2 -1 53787.4 740.498 21
4 2 2 1542.5 128.935 1
4 2 2 1421.57 171.203 39
4 2 2 1317.62 164.964 36
4 2 2 1528.95 85.2481 2
-4 -2 -2 1408.81 116.574 24
-4 -2 -2 1281.37 116.148 21
4 2 3 57125.1 741.417 1
4 2 3 59851.4 1085.97 36
-4 -2 -3 58355 718.83 24
-4 -2 -3 59209.4 767.854 21
-4 -2 -3 58716.3 652.93 6
4 2 4 4550.6 307.043 36
4 2 4 4452.52 202.752 1
4 2 4 4180.62 290.467 29
-4 -2 -4 4522.99 215.513 21
-4 -2 -4 4610.69 208.253 6
-4 -2 -4 4701.57 233.471 5
4 2 5 97480 1078.38 37
4 2 5 99476.7 922.58 1
-4 -2 -5 103228 1190.83 3
4 2 5 100106 1438 29
-4 -2 -5 98795.5 1084.13 6
-4 -2 -5 104085 1158.29 5
-4 -2 -5 96333.6 988.527 21
4 2 6 50812.9 804.377 37
-4 -2 -6 52320.8 934.183 3
4 2 6 52770.7 807.628 30
4 2 6 55312.4 1092.03 29
4 2 6 53782.8 1042.12 25
-4 -2 -6 52581.6 889.894 6
-4 -2 -6 56072.7 919.161 5
-4 -2 -6 52101.7 731.225 21
4 2 7 7505.9 327.029 37
-4 -2 -7 7932.87 395.058 3
4 2 7 7832.63 332.893 30
4 2 7 8132.31 434.864 29
4 2 7 7991.46 418.632 25
-4 -2 -7 7841.58 384.399 6
-4 -2 -7 8082.11 378.717 5
4 2 8 3628.9 243.146 37
4 2 8 3395.9 236.975 30
4 2 8 3876.83 312.551 25
-4 -2 -8 3561.53 287.504 6
4 2 9 826.237 152.126 25
4 2 9 837.261 133.39 30
-4 -2 -9 594.885 136.271 6
-4 -2 -10 451.045 69.1424 15
4 2 10 653.356 159.429 25
4 2 10 546.373 117.367 30
-4 -2 -10 484.701 149.358 6
-4 -2 -11 862.782 97.9033 15
4 2 11 992.768 160.973 37
-4 -2 -11 791.41 91.8447 13
4 2 11 901.575 151.083 30
4 2 11 1102.02 200.952 29
-4 -2 -11 1043.13 97.8529 12
-4 -2 -12 12527.7 355.385 15
-4 -2 -12 12237.7 343.364 13
-4 -2 -12 12663 333.068 12
-4 -2 -13 21.4204 44.5971 15
-4 -2 -13 85.6142 41.569 13
-4 -2 -13 39.7053 41.2472 12
-4 -2 -14 1371.05 115.953 15
-4 -2 -14 1263.39 108.322 13
-4 -2 -14 1406.49 105.21 12
-4 -2 -15 163.536 47.1938 13
4 3 -12 7.42262 27.1344 9
-4 -3 11 8806.82 188.036 49
4 3 -11 9357.15 252.529 9
4 3 -10 7084.54 225.273 15
4 3 -10 7272.45 247.36 9
4 3 -9 337.662 62.3102 15
-4 -3 9 400.135 52.8717 56
-4 -3 9 491.529 129.483 34
4 3 -9 311.179 62.0228 9
4 3 -8 16215.4 362.873 15
-4 -3 8 16144 710.7 34
4 3 -8 16402.9 387.725 9
4 3 -7 2122.26 131.337 15
-4 -3 7 2101.86 253.953 34
4 3 -7 2322.31 145.23 61
-4 -3 6 1227.59 86.3093 8
-4 -3 6 707.256 146.215 34
-4 -3 6 1118.32 166.144 24
4 3 -6 1076.46 96.1983 61
4 3 -6 1124.35 188.965 2
-4 -3 5 13429.6 577.898 34
-4 -3 5 13227.7 530.367 24
4 3 -5 13161.1 588.79 2
4 3 -4 2603.62 226.518 1
-4 -3 4 2901.64 252.987 34
-4 -3 4 2609.44 221.435 24
4 3 -4 2394.33 237.239 2
4 3 -3 18242.1 565.232 1
-4 -3 3 18605 579.544 34
-4 -3 3 17995.9 548.838 24
4 3 -3 18575.4 590.529 2
-4 -3 3 18944.7 468.994 21
-4 -3 2 44720 732.189 21
4 3 -2 43036.5 826.542 1
-4 -3 2 44198.3 818.93 34
-4 -3 2 43095.2 797.659 24
4 3 -2 43375.2 821.434 2
4 3 -1 39910.4 767.183 1
-4 -3 1 41331.4 719.419 34
4 3 -1 39123.9 708.079 2
-4 -3 1 40373.1 688.244 21
-4 -3 1 39772.8 726.321 24
4 3 0 19525.3 638.854 39
4 3 0 21983.4 548.526 1
-4 -3 0 20466.9 460.796 34
-4 -3 0 20377.5 496.837 24
-4 -3 0 20259.3 484.942 21
4 3 0 21031.9 463.542 2
4 3 1 42427.8 943.218 39
4 3 1 44001.1 750.234 1
4 3 1 43764.5 589.349 2
-4 -3 -1 43216.7 701.841 21
-4 -3 -1 42325.8 689.317 24
4 3 2 82067.7 1313.94 39
4 3 2 80825 1378.9 36
4 3 2 82965.6 999.301 1
-4 -3 -2 84312.2 943.203 24
4 3 2 87327.8 730.188 2
-4 -3 -2 85071.3 987.811 21
4 3 3 50862 874.695 37
4 3 3 52423.6 1120.08 36
4 3 3 52985.4 781.576 1
-4 -3 -3 52577 772.384 21
-4 -3 -3 54835.3 760.121 24
4 3 4 266.351 70.6371 37
4 3 4 585.887 135.039 36
4 3 4 222.757 97.8873 29
-4 -3 -4 285.274 61.4557 21
4 3 4 347.65 74.4472 1
-4 -3 -4 488.546 79.9231 5
4 3 5 21066.8 561.399 37
4 3 5 22751.8 723.691 29
4 3 5 22453.8 500.88 1
-4 -3 -5 21822.2 502.123 21
-4 -3 -5 21749.6 565.392 6
-4 -3 -5 23310.3 530.669 5
4 3 6 1916.22 171.063 37
-4 -3 -6 2009.69 155.846 21
-4 -3 -6 1688.02 185.747 3
4 3 6 2178.37 238.745 29
-4 -3 -6 1925.65 167.725 5
-4 -3 -6 1582.71 172.017 6
4 3 7 10235.7 412.061 37
-4 -3 -7 11209.7 489.801 3
4 3 7 10535.6 417.177 30
4 3 7 10392.5 517.78 29
-4 -3 -7 10047.6 409.446 5
-4 -3 -7 10637.8 471.753 6
4 3 7 10071.3 488.226 25
-4 -3 -8 2413.64 248.524 6
4 3 8 2375.98 213.166 37
-4 -3 -8 2410.77 251.657 3
4 3 8 2542.27 216.852 30
4 3 8 2501.11 269.943 29
4 3 8 2733.58 273.432 25
4 3 9 19688 642.765 37
4 3 9 18452.1 626.204 30
4 3 9 19627.2 788.329 29
4 3 9 19596.2 771.149 25
-4 -3 -9 19774.5 760.912 6
-4 -3 -10 1218.75 110.543 15
4 3 10 1042.64 162.185 37
-4 -3 -10 1201.09 108.842 13
4 3 10 963.147 152.286 30
4 3 10 810.672 177.815 29
-4 -3 -10 985.591 92.1076 12
4 3 10 891.196 177.636 25
-4 -3 -10 926.352 188.803 6
-4 -3 -10 969.352 96.7004 19
-4 -3 -11 12174.5 345.957 15
4 3 11 12804 577.633 37
-4 -3 -11 11672.5 333.429 13
4 3 11 12455.1 581.34 30
4 3 11 13192.3 720.79 29
-4 -3 -11 12326.6 324.955 12
-4 -3 -11 11708.2 339.984 19
-4 -3 -12 4444.26 217.652 15
4 3 12 4819.57 367.753 37
-4 -3 -12 4283.95 208.236 13
4 3 12 4244.34 352.698 30
4 3 12 4817.52 453.174 29
-4 -3 -12 4585.2 202.433 12
-4 -3 -12 4631.22 216.067 19
-4 -3 -13 889.245 97.9695 13
-4 -3 -13 933.411 90.6852 12
-4 -3 -13 961.157 107.722 15
-4 -3 -13 847.428 95.8969 19
-4 -3 -14 377.423 67.8325 13
-4 -3 -14 338.072 56.7304 12
-4 -3 -14 464.228 65.8246 19
4 4 -11 57.1559 34.6655 15
4 4 -11 55.004 39.5641 9
-4 -4 11 90.4759 27.0561 49
4 4 -10 670.81 75.5441 15
4 4 -10 664.546 82.327 9
4 4 -9 968.336 96.067 15
-4 -4 9 1024.92 81.8459 56
4 4 -9 1146.98 109.26 9
4 4 -8 21399.3 433.238 15
-4 -4 8 21366.3 827.392 34
4 4 -8 21472 448.525 61
4 4 -8 21906.3 449.071 9
-4 -4 8 21448.9 371.561 45
4 4 -7 13084.5 350.012 61
-4 -4 7 12947 285.836 8
4 4 -7 12644.5 330.314 15
-4 -4 7 13256.1 645.627 34
-4 -4 7 12638.6 297.06 45
4 4 -6 5678.1 213.604 15
-4 -4 6 6017.75 420.957 34
4 4 -6 5770.14 437.033 2
4 4 -6 5689.91 223.442 61
4 4 -6 5566.55 213.298 64
-4 -4 5 25724.4 815.115 34
-4 -4 5 26261.5 752.723 24
4 4 -5 25668.2 850.682 2
-4 -4 4 9397.25 463.207 34
4 4 -4 9290.7 446.35 1
-4 -4 4 9203.3 424.374 24
4 4 -4 9037.06 470.089 2
-4 -4 3 3669.47 268.995 34
4 4 -3 3391.16 260.133 1
-4 -4 3 3732.75 262.878 26
-4 -4 3 3690.53 226.698 21
4 4 -3 3673.96 279.065 2
-4 -4 3 3607.8 253.783 24
-4 -4 2 7676.95 351.964 34
4 4 -2 7254.23 362.272 1
4 4 -2 7237.61 355.657 2
-4 -4 2 7210.34 316.429 21
-4 -4 2 7384.89 332.689 26
-4 -4 2 7674.41 350.28 24
-4 -4 1 119959 1257.54 34
4 4 -1 115837 1394.09 1
-4 -4 1 119044 1308.11 24
4 4 -1 118372 1315.33 2
-4 -4 1 119514 1269.06 21
-4 -4 0 8830.74 307.817 34
4 4 0 8795.88 372.954 1
4 4 0 8408.85 323.782 2
-4 -4 0 8489.39 339.135 21
-4 -4 0 8203.25 331.151 24
4 4 1 218113 1817.87 1
-4 -4 -1 216034 1647.95 24
-4 -4 -1 224012 1724.33 21
4 4 1 221317 1540.74 2
4 4 2 103202 1577.56 39
4 4 2 105316 1688.67 36
4 4 2 110610 1256.89 1
-4 -4 -2 116004 1235.86 21
-4 -4 -2 114457 1186.24 24
4 4 3 4260.54 284.222 37
4 4 3 4134.69 346.744 36
4 4 3 4273.32 247.245 1
-4 -4 -3 3882.85 227.885 21
-4 -4 -3 4207.03 193.09 5
4 4 4 26261.3 682.798 37
4 4 4 27381.7 871.31 36
4 4 4 26601.5 816.93 29
4 4 4 27446.7 625.196 1
-4 -4 -4 28551.1 616.217 21
-4 -4 -4 28395.4 525.066 5
4 4 5 273.431 80.9851 37
4 4 5 79.8049 76.4186 29
4 4 5 118.546 49.4023 1
-4 -4 -5 83.3705 39.4335 5
-4 -4 -6 331.061 74.3584 21
4 4 6 675.126 99.8931 1
4 4 6 453.403 97.3845 37
4 4 6 399.771 115.681 29
-4 -4 -6 419.821 102.763 3
-4 -4 -6 437.347 111.471 6
-4 -4 -6 651.814 94.8985 5
4 4 7 4198.45 287.197 37
-4 -4 -7 3926.36 307.822 3
4 4 7 4145.07 341.322 29
-4 -4 -7 4068.09 313.26 6
-4 -4 -8 37130.6 1006.41 6
4 4 8 36241 880.922 37
-4 -4 -8 36320.3 995.759 3
4 4 8 36702.1 888.088 30
4 4 8 36315.2 1055.62 29
4 4 8 36255.2 1025.01 25
4 4 9 3168.79 276.182 37
4 4 9 3034.41 275.651 30
4 4 9 3423.85 340.291 29
4 4 9 3076.17 324.214 25
-4 -4 -9 3119.95 320.791 6
-4 -4 -10 481.745 74.6042 15
4 4 10 501.683 127.295 37
-4 -4 -10 471.401 75.9713 13
4 4 10 641.754 145.939 30
4 4 10 402.193 142.269 29
-4 -4 -10 531.979 71.9832 12
-4 -4 -10 242.407 131.788 6
-4 -4 -10 509.532 78.1769 19
-4 -4 -11 13963.2 382.863 15
4 4 11 14509.4 636.554 37
-4 -4 -11 14306.9 378.763 13
4 4 11 14934.7 659.301 30
4 4 11 15558.2 803.636 29
-4 -4 -11 14797.1 356.586 12
-4 -4 -11 14721.5 391.238 19
4 4 12 8322.63 489.06 37
-4 -4 -12 8708.18 300.623 13
4 4 12 9272.97 630.026 29
-4 -4 -12 8721.95 273.271 12
-4 -4 -12 9060.89 308.742 19
-4 -4 -13 4621.53 213.078 13
-4 -4 -13 4505.43 188.216 12
-4 -4 -13 4611.17 210.002 19
-4 -4 -14 -94.854 41.5755 19
-4 -4 -14 30.0112 40.1335 13
-4 -4 -15 652.077 60.8015 19
4 5 -11 218.957 35.816 15
4 5 -11 228.34 43.0664 9
-4 -5 11 255.289 35.7976 49
4 5 -10 85.7482 42.3428 15
-4 -5 10 135.532 32.9268 56
4 5 -10 163.68 50.1218 9
4 5 -9 719.5 87.8434 15
4 5 -9 855.891 92.3222 9
-4 -5 9 835.576 71.7937 45
4 5 -8 8171.56 277.085 15
-4 -5 8 8238.74 519.647 34
4 5 -8 8266.51 277.834 9
-4 -5 8 8391.35 243.505 45
4 5 -8 8143.81 280.573 61
-4 -5 7 668.956 68.1866 8
4 5 -7 887.486 96.3054 15
-4 -5 7 941.466 180.235 34
4 5 -7 838.76 96.6206 61
-4 -5 6 219.472 111.364 34
4 5 -6 179.445 51.4124 61
4 5 -6 277.418 56.0008 15
4 5 -6 236.441 50.1461 64
-4 -5 6 178.404 43.8268 43
4 5 -5 1572.64 116.53 15
-4 -5 5 1921.59 229.64 34
4 5 -5 1727.31 122.946 61
-4 -5 5 2120.33 211.955 24
4 5 -5 1778.43 234.871 2
-4 -5 5 1628.02 105.847 43
-4 -5 4 12491.8 549.677 34
4 5 -4 11773 534.437 1
-4 -5 4 12602.4 540.329 26
4 5 -4 12045.8 580.051 2
-4 -5 4 12664.6 505.547 24
-4 -5 3 403.529 90.9079 26
4 5 -3 373.723 102.172 2
4 5 -3 359.534 93.1258 1
-4 -5 3 609.791 107.811 24
4 5 -2 8283.42 417.349 2
-4 -5 2 8150.19 373.564 34
4 5 -2 8357.58 419.292 1
-4 -5 2 8508.41 371.232 21
-4 -5 2 8402.32 380.71 24
-4 -5 2 8353.69 364.318 26
-4 -5 1 8148.91 339.777 34
4 5 -1 7399.17 382.146 1
-4 -5 1 7537.14 307.322 26
-4 -5 1 8137.76 361.206 24
-4 -5 1 7859.7 356.35 21
4 5 -1 8340.33 390.714 2
-4 -5 0 137808 1241.71 34
4 5 0 137696 1605.25 1
-4 -5 0 144943 1513.27 21
-4 -5 0 144290 1462.38 24
4 5 0 150185 1559.84 2
4 5 1 4437.08 288.002 1
-4 -5 -1 4667.28 263.281 24
-4 -5 -1 4700.2 275.159 21
4 5 2 416.905 115.274 39
4 5 2 339.725 127.145 36
4 5 2 398.806 88.2841 1
-4 -5 -2 297.279 78.6492 21
4 5 3 53620.3 1255.7 36
-4 -5 -3 52345.8 637.224 22
-4 -5 -3 58413.4 950.178 21
-4 -5 -3 55774.4 656.194 5
4 5 3 56067.3 992.535 1
4 5 4 131507 1991.08 36
4 5 4 130433 1524.56 1
-4 -5 -4 133673 1442.03 21
4 5 4 129339 1647.02 37
-4 -5 -4 133080 1098.36 5
4 5 5 800.597 125.264 1
4 5 5 611.188 120.457 37
-4 -5 -5 697.496 91.7089 5
4 5 5 597.178 144.126 29
-4 -5 -5 634.048 104.32 21
4 5 6 18447.3 723.393 29
4 5 6 18414.6 556.429 1
4 5 6 18519.1 628.51 37
-4 -5 -6 18934.9 551.361 21
4 5 7 170.061 83.574 37
4 5 7 30.8492 55.2983 29
-4 -5 -7 188.27 73.0222 3
-4 -5 -7 88.3555 79.3548 6
4 5 8 1336.9 181.866 37
-4 -5 -8 1249.1 198.517 3
4 5 8 1199.36 208.595 29
-4 -5 -8 1768.06 232.551 6
4 5 9 25086.8 814.165 37
-4 -5 -9 25418.5 929.658 3
-4 -5 -9 23993 470.946 13
4 5 9 23951.3 939.771 29
-4 -5 -9 23125.7 419.705 12
-4 -5 -9 24777.9 457.05 53
-4 -5 -9 26910.1 958.283 6
-4 -5 -9 24035.9 487.084 19
4 5 10 55891.9 1269.2 37
-4 -5 -10 53167.7 723.824 13
4 5 10 56569.4 1494.58 29
-4 -5 -10 57189.6 711.213 53
-4 -5 -10 53975.8 662.848 12
-4 -5 -10 55843.2 766.067 19
4 5 11 4086.89 345.452 37
-4 -5 -11 3843.48 202.764 13
4 5 11 4105.36 425.255 29
-4 -5 -11 3625.13 177.518 12
-4 -5 -11 3981.39 211.727 19
4 5 12 477.223 123.202 37
-4 -5 -12 444.481 80.8005 13
-4 -5 -12 524.338 72.8197 12
-4 -5 -12 472.494 80.8825 19
-4 -5 -13 1124.89 93.8817 12
-4 -5 -13 1242.45 111.25 19
-4 -5 -14 502.445 66.777 19
-4 -5 -15 891.766 68.6843 19
-4 -6 11 207.266 28.1327 49
4 6 -11 210.772 33.2905 9
4 6 -10 353.693 58.1664 15
-4 -6 10 347.919 42.7753 56
4 6 -10 256.988 48.8716 9
4 6 -9 162.283 52.8986 15
4 6 -9 252.177 56.01 9
-4 -6 9 222.658 40.9462 45
-4 -6 8 1924.42 107.077 8
4 6 -8 1968.01 141.126 15
4 6 -8 2172.62 140.577 9
-4 -6 8 1960.5 121.89 45
4 6 -8 1957.82 138.552 61
4 6 -7 1740.37 137.347 15
-4 -6 7 2049.04 272.884 34
4 6 -7 1847.23 138.477 61
-4 -6 7 1912.86 116.784 43
4 6 -6 74.6107 41.4459 15
-4 -6 6 158.329 89.779 34
-4 -6 6 67.4812 34.0986 43
4 6 -5 10772.8 319.22 15
4 6 -5 9826.7 288.573 7
-4 -6 5 11568.3 589.538 34
4 6 -5 10994.5 319.079 61
-4 -6 5 10658.9 280.988 43
-4 -6 4 1324.32 189.855 34
4 6 -4 1380.89 107.861 7
-4 -6 4 1610.41 110.535 43
-4 -6 4 1652.67 201.262 26
4 6 -4 1738.46 236.059 2
4 6 -4 1478.79 115.851 61
-4 -6 4 1507.31 177.49 24
-4 -6 3 747.41 130.975 34
-4 -6 3 1161.87 149.139 24
-4 -6 3 1182.73 168.793 26
4 6 -3 1087.33 172.985 1
4 6 -3 1201.57 186.918 2
-4 -6 2 1057.94 146.591 34
-4 -6 2 1391.29 163.819 24
4 6 -2 1165.62 177.938 1
-4 -6 2 1272.04 159.847 21
4 6 -2 1058.41 170.734 2
4 6 -1 23130.9 747.009 1
-4 -6 1 24913.3 665.562 24
-4 -6 1 24040.6 677.54 21
4 6 0 1077 158.317 1
-4 -6 0 1288.31 159.093 21
4 6 1 39335.4 943.882 1
-4 -6 -1 41392.6 881.2 21
4 6 2 27558.5 927.088 36
4 6 2 28800.4 797.594 1
-4 -6 -2 27902 555.998 22
-4 -6 -2 29656 745.611 21
4 6 3 1769.01 241.424 36
4 6 3 1831.93 205.974 1
-4 -6 -3 2009.23 195.291 21
4 6 4 29413.3 853.228 37
4 6 4 29751.8 973.128 36
4 6 4 29792.1 815.464 1
-4 -6 -4 30695.7 750.801 21
4 6 5 8538.27 456.723 37
4 6 5 9028.32 545.665 36
4 6 5 7873.13 484.035 29
4 6 5 8752.62 434.393 1
-4 -6 -5 8913.8 406.121 21
4 6 6 7477.55 431.311 37
4 6 6 7298.52 479.328 29
-4 -6 -6 8060.02 390.699 21
4 6 6 7635.24 394.335 1
4 6 7 6306 405.296 37
-4 -6 -7 5781.17 421.773 3
4 6 7 5743.59 440.103 29
-4 -6 -7 5801.45 425.99 6
-4 -6 -8 291.462 99.3645 3
4 6 8 631.344 162.569 29
-4 -6 -8 457.104 147.036 6
4 6 9 15136.2 671.325 37
4 6 9 15143.6 769.471 29
-4 -6 -9 14648.5 342.407 12
-4 -6 -9 15599.8 372.738 53
-4 -6 -9 14702.2 394.694 19
4 6 10 10437.7 568.141 37
4 6 10 9587.56 633.653 29
-4 -6 -10 9287 293.497 53
-4 -6 -10 9179.43 278.362 12
-4 -6 -10 9554.77 322.074 19
4 6 11 461.053 122.263 37
4 6 11 792.722 192.048 29
-4 -6 -11 489.127 70.8072 12
-4 -6 -11 619.596 89.777 19
4 6 12 437.291 117.812 37
-4 -6 -12 425.762 60.9444 12
-4 -6 -12 354.752 69.3696 19
-4 -6 -13 153.094 47.7779 19
-4 -6 -14 4577.47 175.09 19
-4 -6 -15 301.946 40.6146 19
4 7 -10 401.76 54.5645 15
-4 -7 10 347.559 38.1609 56
4 7 -10 235.24 37.5656 9
-4 -7 10 290.053 32.527 45
4 7 -9 302.846 58.1441 15
4 7 -9 266.45 49.9339 9
-4 -7 9 218.09 39.4905 45
4 7 -8 154.905 54.4424 15
-4 -7 8 258.96 41.2931 8
-4 -7 8 144.994 35.434 43
4 7 -8 212.864 56.8401 61
4 7 -8 185.324 51.4537 9
-4 -7 8 197.429 45.5861 45
4 7 -7 3033.22 178.882 15
4 7 -7 3011.11 169.285 61
-4 -7 7 2700.08 144.686 45
-4 -7 7 2941.09 144.476 43
4 7 -6 14217.5 382.855 15
-4 -7 6 13336.5 638.824 34
-4 -7 6 13461.4 323.261 43
4 7 -6 13666.7 363.749 61
4 7 -5 2312.28 153.084 61
4 7 -5 2348.23 148.987 7
-4 -7 5 2497.26 270.976 34
-4 -7 5 2328.69 137.963 63
-4 -7 5 2231.62 135.811 43
-4 -7 4 6178.26 407.684 34
4 7 -4 6074.2 237.244 7
-4 -7 4 6402.43 228.063 63
4 7 -4 6388.39 246.899 61
-4 -7 4 6415.73 224.28 43
-4 -7 3 2063.6 226.658 34
4 7 -3 1951.82 135.765 7
-4 -7 3 1973.3 126.057 63
4 7 -3 2146.13 140.488 61
4 7 -3 1662.68 236.47 1
-4 -7 3 2203.13 225.209 22
-4 -7 3 2046.07 125.191 43
4 7 -2 4628.82 371.927 1
-4 -7 2 4821.69 338.871 21
-4 -7 2 4936.89 317.598 22
-4 -7 1 77.9542 51.2527 22
-4 -7 1 -36.2528 54.1327 21
4 7 -1 78.8628 64.692 1
-4 -7 0 6429.91 386.321 21
4 7 0 6119.71 409.991 1
-4 -7 0 6466.89 327.149 22
-4 -7 -1 17779.9 523.582 22
4 7 1 17693.8 693.959 1
-4 -7 -1 18324.8 644.725 21
-4 -7 -2 103985 1181.62 22
-4 -7 -2 109154 1560.73 21
4 7 2 107648 1708.31 1
4 7 3 6164.58 452.781 36
-4 -7 -3 6609.22 386.507 21
4 7 3 6762.3 425.343 1
4 7 4 24532.7 914.723 36
4 7 4 23190.5 777.336 1
-4 -7 -4 25183.9 739.946 21
4 7 5 14091.7 627.687 37
4 7 5 14252.6 713.097 36
4 7 5 13609.9 658.439 29
-4 -7 -5 14452.7 561.729 21
4 7 5 14384.8 600.092 1
4 7 6 2228.25 261.509 37
4 7 6 2762.84 325.134 36
4 7 6 2373.52 285.233 29
4 7 6 2483.99 241.161 1
-4 -7 -6 2221.42 222.023 21
-4 -7 -7 63182.4 1461.11 3
4 7 7 57172.2 1428.35 29
4 7 7 59942.1 1328.47 37
-4 -7 -7 58640.7 672.902 52
-4 -7 -7 57976.7 700.238 53
-4 -7 -7 61665.6 1466.72 6
-4 -7 -7 59759.1 751.178 19
4 7 8 5256.36 405.472 37
4 7 8 4438.71 418.632 29
-4 -7 -8 4892.74 200.371 12
-4 -7 -8 5071.2 213.916 53
-4 -7 -8 5103.35 229.386 19
4 7 9 762.23 162.874 37
4 7 9 403.542 149.139 29
-4 -7 -9 752.605 88.1182 53
-4 -7 -9 737.078 92.6697 19
-4 -7 -9 663.093 78.9944 12
4 7 10 2354.69 285.204 37
4 7 10 2097.21 309.196 29
-4 -7 -10 2268.49 147.409 53
-4 -7 -10 2250.76 140.026 12
-4 -7 -10 2287.22 160.603 19
4 7 11 1058.53 186.406 37
-4 -7 -11 927.307 90.2477 12
-4 -7 -11 949.533 95.5725 53
-4 -7 -11 1073.31 112.863 19
-4 -7 -12 12767.8 345.648 19
-4 -7 -13 234.296 52.0436 19
-4 -7 -14 12.2041 29.1942 19
4 8 -10 2568.48 101.901 15
-4 -8 10 2415.04 77.1088 56
-4 -8 10 2512.64 81.6909 49
-4 -8 9 839.501 62.8153 56
4 8 -9 1010.63 85.4236 15
4 8 -9 844.83 64.5168 9
-4 -8 9 915.185 63.7471 45
-4 -8 8 5231.03 156.358 8
4 8 -8 5413.66 210.461 15
-4 -8 8 4938.8 167.086 45
-4 -8 8 5108.48 155.593 43
4 8 -8 5112.71 177.745 9
4 8 -8 4862.33 182.738 61
4 8 -7 180.099 49.2259 61
4 8 -7 101.018 51.2103 15
-4 -8 7 118.889 41.2029 45
-4 -8 7 64.0429 29.0814 43
4 8 -6 6234.57 252.181 15
-4 -8 6 5797.73 204.645 63
-4 -8 6 5455.02 389.678 34
4 8 -6 5988.82 233.896 61
-4 -8 6 5651.16 206.147 43
4 8 -5 3121.33 183.256 15
4 8 -5 2896.85 169.018 7
-4 -8 5 2956.3 287.117 34
-4 -8 5 2883.4 154.562 63
4 8 -5 2980.94 171.011 61
-4 -8 5 2818.32 151.645 43
4 8 -4 9640.13 312.972 7
-4 -8 4 9908.43 274.032 65
-4 -8 4 9467.2 285.681 63
4 8 -4 9433.89 300.615 61
-4 -8 4 9743.8 280.29 43
-4 -8 3 7438.08 243.981 65
4 8 -3 7202.93 271.926 7
4 8 -3 7461.51 266.229 61
-4 -8 3 8027.7 260.671 63
-4 -8 3 7799.88 248.504 43
-4 -8 2 556.382 119.978 22
4 8 -2 441.66 129.378 1
-4 -8 2 578.185 72.4161 65
-4 -8 2 566.083 73.4374 63
-4 -8 2 891.178 163.383 21
4 8 -2 547.492 79.3042 7
-4 -8 2 574.761 68.766 43
4 8 -1 922.437 184.461 1
4 8 -1 1152.24 97.5311 14
4 8 -1 1282.83 114.787 7
-4 -8 1 1175.47 98.6745 65
-4 -8 1 1277.9 100.458 63
-4 -8 1 1244.83 166.64 22
-4 -8 1 1447.38 203.23 21
-4 -8 1 1088.74 88.626 43
-4 -8 0 4205.14 287.415 22
4 8 0 4436.8 380.013 1
-4 -8 0 5206.66 370.157 21
4 8 1 6552.26 454.845 1
-4 -8 -1 6863.94 430.955 21
-4 -8 -1 6518.8 336.076 22
4 8 2 1151.35 188.191 1
-4 -8 -2 1289.36 180.551 21
-4 -8 -3 4877.88 357.431 21
4 8 3 4584.56 374.599 1
4 8 4 6288.93 476.52 36
-4 -8 -4 6899.44 423.411 21
4 8 4 5923.67 418.626 1
4 8 5 10621.5 628.636 36
-4 -8 -5 9920.8 502.738 21
4 8 5 9612.93 523.898 1
4 8 6 11588 612.318 37
4 8 6 11839.7 682.874 36
4 8 6 11851.9 577.334 1
4 8 6 11263 635.429 29
4 8 6 12857.8 292.402 7
-4 -8 -6 12050.6 317.918 52
-4 -8 -6 13166.8 575.035 21
-4 -8 -6 12262.2 324.439 53
-4 -8 -6 12115.3 339.144 19
4 8 6 11515.6 289.172 50
4 8 7 4926.92 406.593 37
4 8 7 4444.42 435.798 36
4 8 7 4761.34 428.244 29
-4 -8 -7 5116.45 216.472 53
-4 -8 -7 4883 204.347 52
-4 -8 -7 4653.75 216.479 19
4 8 7 4690.78 188.374 50
4 8 8 11004.8 609.937 37
4 8 8 10874.8 694.201 36
4 8 8 10730.9 657.77 29
-4 -8 -8 11435.1 312.339 12
-4 -8 -8 12370.9 341.585 53
-4 -8 -8 11853.3 350.002 19
4 8 8 11258.2 290.852 50
-4 -8 -9 2536.31 148.586 12
4 8 9 2446.68 297.579 37
4 8 9 2638.01 343.815 36
4 8 9 2395.52 315.93 29
-4 -8 -9 2749.44 163.813 53
4 8 9 2781.62 145.789 50
-4 -8 -9 2580.46 169.032 19
4 8 10 592.318 155.612 37
4 8 10 473.322 160.069 36
-4 -8 -10 426.534 60.6464 12
-4 -8 -10 427.858 78.0201 19
-4 -8 -10 552.261 78.303 53
4 8 10 425.969 63.4524 50
-4 -8 -11 6225.67 231.209 53
-4 -8 -11 5725.71 237.212 19
4 8 11 5810.07 194.678 50
-4 -8 -12 4645.55 198.123 19
4 8 12 4874.76 161.885 50
-4 -8 -13 517.32 64.6113 19
-4 -8 -14 2886.22 114.389 19
4 9 -9 1194.84 75.6216 15
-4 -9 9 1059.26 56.1244 49
-4 -9 9 1084.33 59.5386 56
-4 -9 9 1079.99 58.0472 45
4 9 -8 250.844 49.0969 15
-4 -9 8 220.75 32.3964 8
-4 -9 8 158.751 31.2559 43
-4 -9 8 177.308 36.8448 45
4 9 -8 254.815 41.1121 9
4 9 -7 8.81862 42.6662 15
4 9 -7 4.52832 33.4017 61
-4 -9 7 51.4115 33.507 45
-4 -9 7 70.1696 29.9304 43
4 9 -6 627.286 85.5698 15
-4 -9 6 507.908 63.9078 43
-4 -9 6 477.371 62.0782 63
4 9 -6 559.879 74.3842 61
-4 -9 6 491.15 65.3323 45
4 9 -5 459.905 77.1464 15
4 9 -5 507.634 73.7323 7
-4 -9 5 433.124 64.9927 63
4 9 -5 462.127 72.1233 61
-4 -9 5 467.91 65.2752 45
-4 -9 5 418.363 63.5339 43
4 9 -4 8630.02 288.548 7
-4 -9 4 8687.75 256.098 65
-4 -9 4 8421.42 268.511 63
4 9 -4 8930.32 282.826 61
-4 -9 4 8593.55 262.154 43
-4 -9 3 367.606 60.8383 65
4 9 -3 502.411 77.2637 61
-4 -9 3 371.748 66.1042 63
4 9 -3 388.347 70.9188 7
-4 -9 3 502.046 70.6102 43
4 9 -2 3203.46 183.465 7
-4 -9 2 3386.28 170.777 65
-4 -9 2 3508.48 177.961 63
-4 -9 2 3503.5 159.691 45
-4 -9 2 3359.67 164.562 43
4 9 -1 4419.83 195.879 14
4 9 -1 4765.85 218.98 7
-4 -9 1 4916.93 205.532 65
-4 -9 1 4870.48 207.308 63
-4 -9 1 4920.09 180.082 45
-4 -9 1 4999.42 192.712 43
4 9 0 23004.9 468.255 7
-4 -9 0 23386.5 438.451 65
-4 -9 0 22480.9 430.643 63
-4 -9 0 22180.1 683.454 22
-4 -9 0 22232.3 390.635 43
4 9 1 3728.66 166.449 14
4 9 1 4235.82 199.401 7
-4 -9 -1 4293.84 185.859 65
-4 -9 -1 4106.94 184.1 63
4 9 1 4203.72 198.622 62
4 9 1 4014.69 376.571 1
4 9 1 4121.16 196.557 44
-4 -9 -1 4071.27 162.022 43
4 9 2 523.892 62.017 14
4 9 2 630.905 150.234 1
4 9 2 571.988 73.3396 7
-4 -9 -2 541.761 69.083 65
-4 -9 -2 628.675 75.0106 63
4 9 2 469.271 74.5839 44
4 9 2 550.801 79.2985 62
-4 -9 -3 7833.2 262.392 19
4 9 3 7062.84 243.455 7
4 9 3 7366.03 264.311 62
-4 -9 -3 7322 249.061 52
4 9 3 7413.31 496.231 1
-4 -9 -3 7202.98 234.929 65
-4 -9 -4 2318.13 148.192 19
4 9 4 2200.7 134.399 7
-4 -9 -4 2192.47 129.619 65
4 9 4 2382.89 154.503 62
4 9 4 2140.33 133.086 50
-4 -9 -4 2206.04 135.514 53
-4 -9 -4 2127.61 138.263 52
4 9 4 2480.14 285.48 1
4 9 5 1198.82 99.6311 7
-4 -9 -5 1446.98 102.77 65
4 9 5 1329.31 118.206 62
-4 -9 -5 1288.6 109.121 53
-4 -9 -5 1432.3 116.458 52
-4 -9 -5 1447.6 122.37 19
4 9 5 1397.85 108.555 50
-4 -9 -6 17563.7 392.552 52
4 9 6 16415.3 347.534 7
-4 -9 -6 17053.2 407.819 19
4 9 6 16949.5 363.354 50
4 9 7 2362.14 295.948 37
4 9 7 1869.36 289.62 36
4 9 7 2108.72 123.924 7
-4 -9 -7 2210.97 140.11 52
-4 -9 -7 2165.99 151.907 19
4 9 7 2245.82 135.376 50
-4 -9 -7 2275.84 146.487 53
-4 -9 -8 14.5248 28.9705 12
-4 -9 -8 15.6249 30.636 53
4 9 8 40.2412 38.8691 50
-4 -9 -8 121.702 55.5528 19
4 9 9 469.737 142.367 37
4 9 9 386.31 145.576 36
-4 -9 -9 436.288 71.6356 53
-4 -9 -9 426.442 60.5819 12
4 9 9 546.854 67.6615 50
-4 -9 -9 484.852 81.9028 19
4 9 10 592.945 150.67 37
-4 -9 -10 419.514 57.5262 12
-4 -9 -10 574.149 76.8634 53
4 9 10 507.315 63.6864 50
-4 -9 -10 470.999 76.6425 19
4 9 11 144.927 39.2487 50
-4 -9 -11 132.931 53.4228 19
-4 -9 -12 404.482 62.5291 19
4 9 12 315.109 44.467 50
-4 -9 -13 5253.88 163.102 19
4 10 -8 178.5 37.1369 15
-4 -10 8 201.114 24.9874 8
-4 -10 8 160.819 28.3126 56
-4 -10 8 191.153 29.5303 45
-4 -10 8 158.557 23.1484 49
-4 -10 8 160.938 24.8639 43
-4 -10 7 373.758 41.6983 8
4 10 -7 437.074 61.1581 15
4 10 -7 352.482 48.4496 61
-4 -10 7 400.438 47.9199 45
-4 -10 7 358.505 45.2967 43
4 10 -6 1691.47 117.773 15
4 10 -6 1529.83 99.9206 61
-4 -10 6 1491.53 96.0342 45
-4 -10 6 1528.04 96.269 43
4 10 -5 344.007 67.1159 15
-4 -10 5 315.08 47.2133 65
-4 -10 5 299.733 53.4304 63
4 10 -5 292.382 58.2821 61
4 10 -5 343.588 58.0888 7
-4 -10 5 323.875 52.519 45
-4 -10 5 346.725 56.1979 43
4 10 -4 1107.1 99.6987 7
-4 -10 4 1046.27 87.3578 65
-4 -10 4 987.514 93.315 63
4 10 -4 1059.71 97.2397 61
-4 -10 4 1111.85 91.5843 45
-4 -10 4 1235.12 99.7163 43
4 10 -3 1304.67 114.76 7
-4 -10 3 1314.31 105.084 65
-4 -10 3 1427.16 117.11 63
4 10 -3 1259.78 108.636 61
-4 -10 3 1244.09 95.6874 45
-4 -10 3 1534.41 112.733 43
4 10 -2 761.861 89.0036 61
4 10 -2 753.803 91.7981 7
-4 -10 2 837.746 91.7931 63
-4 -10 2 938.09 91.6854 65
-4 -10 2 852.965 79.9962 45
-4 -10 2 812.927 83.8473 43
4 10 -1 3714.64 193.06 7
-4 -10 1 3772.04 182.415 65
-4 -10 1 3659.88 181.075 63
-4 -10 1 3620.06 171.535 52
-4 -10 1 3570.9 151.754 45
-4 -10 1 3592.09 164.895 43
4 10 0 353.899 58.0596 14
-4 -10 0 259.95 56.233 65
4 10 0 310.1 66.1876 7
-4 -10 0 258.197 58.2381 63
-4 -10 0 296.005 50.0465 43
4 10 1 473.048 63.8118 14
4 10 1 575.579 81.8506 7
-4 -10 -1 493.083 69.774 65
-4 -10 -1 562.464 75.2321 63
-4 -10 -1 489.17 71.2209 52
-4 -10 -1 521.875 62.0191 43
4 10 2 1579.18 108.566 14
4 10 2 1378.31 114.447 7
-4 -10 -2 1383.27 110.209 65
4 10 2 1367.29 117.685 62
-4 -10 -2 1382.01 112.51 52
4 10 2 1445.42 120.428 44
-4 -10 -3 478.985 75.089 19
4 10 3 581.187 86.2788 62
-4 -10 -3 496.404 72.9822 52
4 10 3 516.825 72.399 7
4 10 3 475.13 76.4624 44
-4 -10 -3 536.167 70.8205 65
4 10 4 257.569 58.7571 7
-4 -10 -4 118.04 37.545 53
-4 -10 -4 158.167 47.3026 52
-4 -10 -4 185.529 45.5235 65
4 10 4 190.675 58.8549 62
-4 -10 -4 228.66 59.8978 19
4 10 5 3767 175.254 7
-4 -10 -5 3703.35 164.201 65
4 10 5 3724.11 192.232 62
-4 -10 -5 3641.24 182.134 52
-4 -10 -5 3743.39 190.624 19
4 10 5 3508.08 170.759 50
-4 -10 -5 3976.49 185.856 53
4 10 6 1441.1 125.519 62
4 10 6 1454.51 109.043 7
-4 -10 -6 1323.92 112.096 52
-4 -10 -6 1535.09 120.028 53
-4 -10 -6 1602.01 128.897 19
4 10 6 1388.3 109.798 50
4 10 7 1304.55 98.9774 7
-4 -10 -7 1175.08 105.44 53
4 10 7 1323.2 121.078 62
-4 -10 -7 1392.74 120.842 19
4 10 7 1237.57 103.186 50
-4 -10 -7 1237.04 106.21 52
-4 -10 -8 3793.66 167.331 12
-4 -10 -8 4063.45 189.857 53
-4 -10 -8 4024.16 194.765 19
4 10 8 3918.16 170.773 50
-4 -10 -9 13462.3 332.787 53
-4 -10 -9 12341.9 279.201 12
-4 -10 -9 13316.3 339.774 19
4 10 9 13524.2 298.539 50
-4 -10 -10 146.531 44.7437 53
-4 -10 -10 117.079 49.7464 19
4 10 10 113.925 38.0872 50
-4 -10 -11 168.652 44.5223 19
4 10 11 128.251 33.0515 50
4 10 12 1788.77 98.4671 62
-4 -10 -12 1790.88 98.3864 19
4 10 13 822.952 54.5129 62
-4 -10 -13 913.774 57.0433 19
4 11 -7 -11.3783 23.5993 15
-4 -11 7 13.8727 14.68 8
-4 -11 7 -1.66209 16.1543 56
-4 -11 7 -3.91309 16.3284 45
-4 -11 7 -10.0884 16.1686 43
4 11 -6 794.457 72.8035 15
-4 -11 6 700.218 58.0155 43
4 11 -6 670.926 55.3742 61
-4 -11 6 716.172 57.9331 45
4 11 -5 32.551 38.1578 15
4 11 -5 15.7083 27.9572 61
-4 -11 5 13.9689 22.2649 65
-4 -11 5 4.18389 25.6791 45
-4 -11 5 7.62371 25.8249 43
4 11 -4 5971.14 217.369 15
4 11 -4 5364.7 189.84 7
-4 -11 4 5297.95 177.361 65
-4 -11 4 5400.93 191.974 63
4 11 -4 5171.54 183.094 61
-4 -11 4 5173.72 169.104 45
-4 -11 4 5399.96 183.793 43
4 11 -3 1259.22 103.931 7
-4 -11 3 1272.74 98.114 65
4 11 -3 1233.13 98.2028 61
-4 -11 3 1309.87 104.138 63
-4 -11 3 1120.83 83.0253 45
-4 -11 3 1342.15 98.882 43
4 11 -2 961.355 96.6627 7
-4 -11 2 1035.67 94.3394 65
-4 -11 2 1015.61 97.3137 63
4 11 -2 1047.08 95.8165 61
-4 -11 2 945.012 76.7311 45
-4 -11 2 937.896 86.4668 43
-4 -11 1 42.0529 34.6443 65
-4 -11 1 -26.1486 47.14 63
4 11 -1 10.0367 39.8702 7
-4 -11 1 75.8849 33.9849 52
-4 -11 1 21.4901 25.9419 43
-4 -11 0 393.933 67.5814 65
4 11 0 358.243 66.7051 7
-4 -11 0 323.052 59.0261 52
-4 -11 0 324.769 50.0762 43
4 11 1 10024.3 300.002 7
-4 -11 -1 10349.5 292.827 65
-4 -11 -1 10493.6 299.246 52
-4 -11 -1 10002.7 245.943 43
4 11 2 16031.6 373.999 7
-4 -11 -2 16142.2 360.702 65
-4 -11 -2 16591.2 380.216 52
4 11 3 2505.03 152.978 62
4 11 3 2405.27 145.74 7
-4 -11 -3 2419.34 138.731 65
-4 -11 -3 2412.64 149.335 52
4 11 3 2288.18 142.644 44
4 11 4 12579.5 322.818 7
4 11 4 12531.8 332.747 44
-4 -11 -4 12790.9 311.276 53
-4 -11 -4 12478.9 329.649 52
-4 -11 -4 12131.2 297.548 65
4 11 4 12547.7 335.22 62
4 11 5 4725.78 208.053 62
4 11 5 4385.84 186.185 7
-4 -11 -5 4367.17 187.806 53
-4 -11 -5 4725.69 205.836 19
-4 -11 -5 4304.72 193.708 52
-4 -11 -5 4348.83 170.609 65
4 11 6 3543.73 161.476 7
4 11 6 3884.03 188.176 62
-4 -11 -6 3884.99 178.633 53
-4 -11 -6 3651.64 173.685 52
-4 -11 -6 3911.09 185.379 19
4 11 7 4558.84 173.671 7
-4 -11 -7 4565.05 191.546 53
4 11 7 4562.83 199.862 62
-4 -11 -7 4783.68 201.167 19
-4 -11 -7 4280.95 171.123 12
-4 -11 -7 4479.88 186.643 52
-4 -11 -8 109.057 45.9509 19
-4 -11 -8 84.1031 31.1069 12
4 11 8 102.667 30.8762 7
-4 -11 -8 99.9603 37.8224 53
4 11 8 127.214 42.8588 50
4 11 8 82.4111 51.3073 62
4 11 9 2531.65 138.456 62
-4 -11 -9 2497.53 133.49 53
-4 -11 -9 2558.24 137.061 19
4 11 9 2420.39 116.502 50
4 11 10 70.4791 38.8412 62
-4 -11 -10 55.13 31.3243 53
-4 -11 -10 58.9542 35.6783 19
-4 -11 -11 2169.01 103.361 19
4 11 11 2139.41 103.546 62
-4 -11 -12 819.453 52.4714 19
4 11 12 719.877 51.7877 62
-4 -12 6 194.331 24.9923 8
4 12 -6 202.252 32.8852 15
-4 -12 6 188.592 26.7349 43
4 12 -5 219.219 41.764 15
-4 -12 5 233.8 34.9281 43
-4 -12 5 193.36 27.8681 56
-4 -12 5 227.788 30.7184 45
4 12 -4 2799.84 130.873 15
4 12 -4 2689.3 111.375 7
-4 -12 4 2576.76 109.972 43
-4 -12 4 2632.56 108.354 65
4 12 -4 2599.07 108.139 61
-4 -12 4 2497.24 96.9733 45
4 12 -3 538.655 63.6862 7
-4 -12 3 553.259 60.36 65
4 12 -3 501.528 58.8342 61
-4 -12 3 464.368 45.2589 45
-4 -12 3 531.612 58.992 43
4 12 -2 8255.78 235.448 7
-4 -12 2 8416.68 232.628 65
4 12 -2 8239.28 222.156 61
-4 -12 2 8121.5 211.067 43
4 12 -1 1853.94 120.047 7
-4 -12 1 1851.24 109.273 52
-4 -12 1 1700.98 113.719 65
4 12 -1 1786.93 112.542 61
-4 -12 1 1809.63 101.949 43
4 12 0 3274.76 159.193 7
-4 -12 0 3321.21 159.164 65
-4 -12 0 3030.26 146.962 52
-4 -12 0 2803.04 123.935 43
4 12 1 8720.55 261.767 7
-4 -12 -1 8957.88 256.22 65
-4 -12 -1 8991.98 262.098 52
4 12 2 749.836 83.8553 7
-4 -12 -2 964.134 87.4707 65
-4 -12 -2 864.095 87.1949 52
4 12 3 753.62 82.1763 7
-4 -12 -3 751.14 82.696 52
-4 -12 -3 749.374 75.6325 65
-4 -12 -4 463.641 68.9005 52
4 12 4 565.85 70.977 7
4 12 4 435.061 65.6385 62
-4 -12 -4 449.413 58.5866 65
4 12 4 435.931 63.5046 44
4 12 5 18.5605 37.4981 62
4 12 5 21.5474 26.8487 7
-4 -12 -5 24.1438 27.4515 53
-4 -12 -5 29.393 34.0354 52
-4 -12 -5 43.3682 28.2975 65
4 12 5 46.5376 34.496 44
-4 -12 -6 125.11 38.8229 53
4 12 6 117.586 49.9467 62
4 12 6 136.063 37.3192 7
-4 -12 -6 97.7876 38.282 52
4 12 6 33.1476 35.3756 44
-4 -12 -7 719.273 74.7607 19
4 12 7 744.132 66.4972 7
-4 -12 -7 662.483 60.7662 12
4 12 7 797.279 82.503 62
-4 -12 -7 723.747 72.4796 53
4 12 8 174.603 32.8627 7
-4 -12 -8 211.689 42.5463 53
-4 -12 -8 165.34 39.3809 19
4 12 8 174.909 48.3841 62
4 12 9 770.588 70.2956 62
-4 -12 -9 838.216 68.8835 53
-4 -12 -9 804.288 67.4965 19
4 12 10 3609.62 121.784 62
-4 -12 -10 3571.98 117.602 19
4 13 -4 458.316 43.9637 15
-4 -13 4 441.232 36.628 43
4 13 -3 59.7792 27.9298 15
-4 -13 3 49.8637 21.734 65
4 13 -3 104.154 26.5605 7
-4 -13 3 81.5215 23.5564 43
4 13 -2 1070.54 73.1055 7
-4 -13 2 1034.24 62.7711 43
4 13 -2 925.451 61.0448 61
-4 -13 2 1087.52 73.2754 65
4 13 -1 126.11 32.0802 61
4 13 -1 138.684 37.7807 7
-4 -13 1 121.246 29.28 52
-4 -13 1 126.778 35.591 65
-4 -13 1 109.06 26.5704 43
4 13 0 108.612 38.092 7
-4 -13 0 113.942 36.4737 65
4 13 0 137.954 36.5477 61
-4 -13 0 108.711 31.6327 52
4 13 1 883.009 79.1663 7
-4 -13 -1 868.015 75.4029 65
-4 -13 -1 975.662 79.4248 52
4 13 2 8956.73 234.014 7
-4 -13 -2 8573.04 231.241 52
-4 -13 -2 8633.63 218.306 65
4 13 3 5.89621 28.371 7
-4 -13 -3 35.4472 32.6693 52
-4 -13 -3 50.723 26.7809 65
-4 -13 -4 114.054 38.5915 52
-4 -13 -4 37.4358 23.9761 65
4 13 4 89.7359 33.8097 7
4 13 5 1166.92 81.7951 7
-4 -13 -5 1201.66 86.9477 52
4 13 6 2497.23 109.458 7
-4 -13 -6 2271.42 94.3643 12
-4 -13 -6 2450.58 105.902 53
4 13 6 2273.48 103.109 44
4 13 7 1012.81 63.3381 7
4 13 7 1066.52 73.7271 62
-4 -13 -7 1037.32 68.2778 53
4 13 7 994.473 69.0772 44
4 13 8 394.603 45.5416 62
4 13 8 391.215 40.9323 44
-4 -14 2 1741.1 66.8082 65
4 14 -1 2023.07 83.4843 15
4 14 -1 2136.94 81.5699 7
-4 -14 1 2135.96 83.1106 65
-4 -14 0 20.1186 19.4796 65
4 14 0 30.7033 22.8829 7
-4 -14 0 27.4416 17.3666 52
-4 -14 -1 138.034 28.4545 65
4 14 1 123.274 30.9774 7
-4 -14 -1 164.602 29.0565 52
4 14 2 2851.45 109.817 7
-4 -14 -2 2754.36 98.9019 65
4 14 2 2544.88 89.8389 61
-4 -14 -2 2739.97 106.185 52
4 14 3 1819.84 88.0383 7
-4 -14 -3 1797.41 87.7758 52
-4 -14 -4 17.4407 16.4046 12
4 14 4 -2.16139 21.5475 7
-4 -14 -4 -15.4124 22.3553 52
4 14 5 -15.058 18.1409 7
4 14 6 214.981 28.1149 7
5 -12 -2 146.071 24.6735 53
5 -12 -1 642.408 52.6823 53
-5 12 0 487.563 36.5218 14
5 -12 0 445.871 47.7922 53
-5 12 -1 32.4075 16.6247 14
5 -12 1 28.2725 24.3412 53
-5 12 -2 140.852 25.7114 14
5 -12 2 134.5 32.5827 53
-5 12 -3 48.9464 21.3286 14
5 -12 3 65.1828 26.1853 53
5 -12 4 1068.52 55.5121 65
5 -12 4 1183.03 66.8767 53
-5 12 -5 223.103 31.2268 14
5 -12 5 196.707 27.5186 65
-5 12 -6 982.579 51.9019 14
5 -11 -4 -2.89672 12.8941 53
-5 11 4 11.2593 15.0936 7
5 -11 -3 219.919 37.0769 53
5 -11 -3 215.08 32.1663 51
-5 11 3 232.395 32.0993 7
-5 11 2 901.925 59.6942 7
5 -11 -2 774.132 69.8965 53
-5 11 1 619.62 50.1836 14
5 -11 -1 609.701 66.9583 53
-5 11 1 537.798 47.5565 7
5 -11 0 1817.56 115.4 53
-5 11 0 2030.6 95.9967 14
-5 11 -1 -40.5051 25.2771 14
5 -11 1 -11.9186 34.8815 53
5 -11 2 365.958 51.9495 55
-5 11 -2 441.919 53.2577 14
5 -11 2 445.682 62.9291 53
-5 11 -3 424.486 51.1634 14
5 -11 3 345.093 44.3532 65
5 -11 3 473.201 62.7054 57
5 -11 3 509.07 62.0826 55
5 -11 3 443.158 62.3614 53
-5 11 -4 3108.16 129.39 14
5 -11 4 2825.82 120.307 65
5 -11 4 3002.14 140.89 57
5 -11 4 2872.21 135.508 55
5 -11 4 2846.29 135.979 53
-5 11 -5 1304.15 83.0212 14
5 -11 5 1198.74 80.4913 65
5 -11 5 1248.82 90.0272 57
5 -11 5 1310.63 87.7176 53
5 -11 5 1265.23 91.1319 55
-5 11 -6 61.5246 23.9129 14
5 -11 6 53.9763 24.8168 65
5 -11 6 101.602 33.6322 57
5 -11 6 92.2666 34.0169 55
-5 11 -7 298.69 37.5881 14
-5 11 -7 244.908 36.3997 17
5 -11 7 234.292 39.3053 65
5 -11 7 247.918 33.7802 63
5 -11 7 198.908 38.4685 55
-5 11 -8 608.801 42.4465 14
5 -11 8 714.936 54.8025 65
5 -11 8 694.233 48.2108 63
5 -11 8 743.215 58.7843 55
-5 11 -8 657.238 47.5414 17
-5 10 6 6491.29 132.293 7
5 -10 -6 6541.01 150.86 51
-5 10 5 1908.64 84.2679 7
5 -10 -5 1884.83 96.7547 51
5 -10 -4 100.437 34.7118 51
-5 10 4 94.1838 28.4852 7
5 -10 -4 106.83 31.6084 53
-5 10 3 -1.06496 24.4462 7
5 -10 -3 -12.7766 31.1098 53
5 -10 -3 20.762 28.8738 51
5 -10 -2 4193.92 172.16 51
-5 10 2 4202.45 147.047 7
5 -10 -2 4063.64 180.236 53
-5 10 1 2493.77 114.13 14
5 -10 -1 2412.92 147.123 53
5 -10 -1 2512.36 134.192 51
-5 10 1 2430.63 114.678 7
5 -10 0 -63.9569 82.5186 40
-5 10 0 4.64469 26.261 14
-5 10 0 -0.10537 26.1101 7
5 -10 0 35.9409 37.233 53
5 -10 1 2363.16 150.903 53
-5 10 -1 2478.41 127.193 14
5 -10 1 2413.87 139.67 57
5 -10 1 2266.34 127.57 55
5 -10 2 2814.63 164.673 53
-5 10 -2 2870.59 139.827 14
5 -10 2 2599.32 141.616 55
5 -10 2 2847.6 154.586 57
-5 10 -2 2764.68 127.233 11
-5 10 -3 1359.86 99.0555 14
-5 10 -3 1360.03 94.5413 11
5 -10 3 1399.68 112.793 57
5 -10 3 1387.24 108.124 55
5 -10 3 1377.68 115.867 53
-5 10 -4 27.2972 32.0783 14
5 -10 4 9.24212 31.2891 53
-5 10 -4 20.5068 25.4484 11
5 -10 4 60.8099 36.7877 55
5 -10 4 -6.46981 30.4249 57
-5 10 -5 2.45398 30.7226 14
-5 10 -5 18.5683 26.3594 11
5 -10 5 35.9673 37.9657 57
5 -10 5 15.6309 36.0592 55
5 -10 5 -1.28283 29.3291 53
5 -10 6 624.396 70.1405 53
-5 10 -6 649.43 67.2675 14
5 -10 6 711.987 79.1675 57
-5 10 -6 702.348 69.8795 11
5 -10 6 667.831 80.8388 55
-5 10 -7 172.941 40.2731 14
5 -10 7 131.312 39.5392 57
5 -10 7 153.833 46.0662 55
-5 10 -8 423.679 46.2943 14
5 -10 8 367.316 56.1486 55
5 -10 8 407.512 52.464 57
-5 10 -8 386.731 49.0984 17
5 -10 9 3198.57 125.737 65
5 -10 9 3207.92 130.345 55
-5 10 -9 2987.23 111.482 17
5 -10 10 1071.78 63.9776 65
5 -10 10 1016.03 62.1031 55
-5 10 -10 905.432 53.1057 17
-5 9 7 537.427 43.0582 7
-5 9 7 493.487 40.0658 54
5 -9 -7 529.803 49.5438 51
-5 9 6 355.03 43.5331 7
-5 9 6 373.131 42.7114 54
5 -9 -6 403.273 57.0708 51
-5 9 5 496.117 55.8777 7
-5 9 5 487.458 53.2372 54
5 -9 -5 435.272 54.8207 53
5 -9 -5 538.322 67.6684 51
-5 9 4 91.9402 33.1965 7
-5 9 4 92.2373 33.5606 54
5 -9 -4 77.0533 35.3168 53
5 -9 -4 49.0728 36.6759 51
-5 9 3 1037.69 82.1627 7
-5 9 3 921.079 75.8563 54
5 -9 -3 840.458 88.7669 53
5 -9 -3 899.995 94.4021 51
-5 9 3 959.903 71.7075 8
5 -9 -2 -35.9389 56.2693 40
-5 9 2 5.09627 25.0309 8
-5 9 2 15.0532 26.8894 7
-5 9 2 15.6656 27.1439 54
5 -9 -2 61.749 40.6024 53
5 -9 -2 81.6398 43.3022 51
5 -9 -1 1042.79 93.4169 57
5 -9 -1 1170.16 113.038 53
5 -9 -1 1105.78 106.555 51
-5 9 1 1056.45 84.6905 8
-5 9 1 1015.94 83.5285 7
-5 9 1 1037.14 82.0491 54
5 -9 0 2339.34 158.815 53
-5 9 0 2268.73 118.952 7
5 -9 0 2326.42 141.322 57
-5 9 0 2205.05 123.365 8
5 -9 0 2324.04 147.211 51
-5 9 -1 2106.8 115.068 11
5 -9 1 2035.79 138.005 57
5 -9 1 2048.99 130.811 55
5 -9 1 1920.27 147.165 53
-5 9 -1 1844.61 115.002 8
5 -9 2 146.578 43.6187 55
-5 9 -2 58.8981 32.2997 11
5 -9 2 50.3435 42.9552 57
5 -9 2 108.062 50.9293 53
-5 9 -2 90.3927 40.9217 8
-5 9 -3 23074.7 401.725 11
5 -9 3 22707.3 460.377 57
5 -9 3 23069.9 457.193 55
5 -9 3 22669.9 486.769 53
-5 9 -4 6556.5 220.192 14
-5 9 -4 6268.95 213.217 11
5 -9 4 6045.44 239.491 57
5 -9 4 6410.91 245.061 55
5 -9 4 6139.9 251.374 53
5 -9 5 129.482 46.8326 55
-5 9 -5 175.475 43.8026 14
5 -9 5 81.197 44.1052 57
-5 9 -5 141.005 43.4714 11
5 -9 5 156.283 48.3348 53
-5 9 -6 1232.35 96.3494 14
-5 9 -6 1112.36 93.8014 11
5 -9 6 1064.84 100.554 57
5 -9 6 1081.55 102.442 53
-5 9 -7 128.39 35.2409 14
5 -9 7 106.027 39.3672 53
5 -9 7 86.3621 35.9761 57
-5 9 -7 128.747 40.4258 11
-5 9 -8 3937.89 150.352 14
5 -9 8 4240.37 176.578 57
-5 9 -8 4129.15 163.209 11
-5 9 -8 4386.04 169.514 17
5 -9 8 4196.79 187.364 55
5 -9 9 334.763 49.2228 57
5 -9 9 412.78 62.3136 55
-5 9 -9 340.635 49.2584 17
5 -9 10 867.204 73.5757 55
-5 9 -10 833.889 66.9551 17
5 -9 11 204.708 30.827 65
5 -9 11 195.842 31.2111 55
-5 9 -11 199.607 31.8642 17
-5 8 8 311.643 34.1863 54
5 -8 -8 343.618 41.9775 51
-5 8 8 311.941 32.9151 7
-5 8 7 3678.33 125.923 7
-5 8 7 3472.11 120.377 54
5 -8 -7 3408.02 146.845 51
-5 8 7 3518.99 123.903 47
5 -8 -6 12.3163 32.9514 51
-5 8 6 39.4831 28.3234 54
-5 8 6 49.0289 32.3672 7
-5 8 6 7.17693 30.2624 47
-5 8 5 108.522 39.3488 7
-5 8 5 114.518 39.2336 54
5 -8 -5 118.781 43.2167 10
5 -8 -5 131.19 53.7704 51
-5 8 5 106.013 37.8702 47
5 -8 -4 309.842 59.7804 10
5 -8 -4 340.173 63.6513 53
5 -8 -4 388.342 71.8341 51
-5 8 4 423.246 59.5738 47
-5 8 4 372.871 54.2205 54
5 -8 -3 1904.6 261.77 40
5 -8 -3 1728.45 124.526 10
5 -8 -3 1985.93 140.888 53
5 -8 -3 1865.81 145.832 51
-5 8 3 1762.68 114.82 47
-5 8 3 1837.79 106.169 8
-5 8 3 1810.33 110.485 54
-5 8 2 378.79 54.1853 8
5 -8 -2 313.765 59.2291 10
-5 8 2 419.635 57.8683 7
5 -8 -2 381.821 71.8117 51
-5 8 2 384.482 54.0606 54
5 -8 -2 350.334 68.2636 53
-5 8 2 380.4 58.9293 47
-5 8 1 1138.77 90.7212 7
5 -8 -1 1169.65 100.688 57
5 -8 -1 1184.36 115.417 53
5 -8 -1 1242.33 120.043 51
-5 8 1 1221.22 93.734 8
-5 8 1 1235.82 94.1693 54
5 -8 0 33344.6 605.72 53
-5 8 0 34659.7 473.546 7
5 -8 0 33217.4 542.128 57
-5 8 0 35043.8 494.66 8
5 -8 0 33496.5 589.594 51
5 -8 1 915.659 93.4736 55
-5 8 -1 863.608 75.342 11
5 -8 1 910.062 95.7606 57
5 -8 1 926.3 107.015 53
-5 8 -1 767.756 79.0327 8
5 -8 1 822.168 96.5239 51
5 -8 2 2122.44 140.23 55
-5 8 -2 2212.08 125.269 11
5 -8 2 2041.82 142.116 57
5 -8 2 2214.11 160.791 53
-5 8 -2 2319.8 130.072 8
5 -8 3 5209.37 225.059 57
5 -8 3 5266.86 242.847 53
-5 8 -3 4990.53 188.972 8
-5 8 -3 5346.92 197.669 11
-5 8 -4 1933.48 121.618 11
5 -8 4 1696.83 141.881 53
-5 8 -4 1825.9 116.221 8
-5 8 -5 109.571 39.5082 11
5 -8 5 33.8698 39.8413 53
5 -8 6 6841.74 438.659 35
-5 8 -6 7454.82 236.86 14
-5 8 -6 7233.35 236.297 11
5 -8 6 7259.97 273.29 53
5 -8 7 709.558 85.1056 57
5 -8 7 761.605 88.9608 53
5 -8 7 714.794 151.762 35
-5 8 -7 726.597 77.1459 14
-5 8 -7 686.824 76.4737 11
-5 8 -8 129.474 37.5785 14
-5 8 -8 143.099 40.861 11
5 -8 8 70.9765 35.6059 57
-5 8 -8 126.648 41.463 17
-5 8 -9 74.4005 35.1284 11
5 -8 9 88.2299 34.8243 57
-5 8 -9 95.7165 30.7046 20
-5 8 -9 65.3131 33.9684 17
-5 8 -10 294.418 45.1299 20
-5 8 -10 302.38 49.4747 17
5 -8 11 28.404 27.5431 55
-5 8 -11 7.76268 25.0713 17
-5 8 -12 2749.38 102.794 17
-5 7 9 124.092 20.935 7
-5 7 9 100.915 21.4948 54
-5 7 9 131.686 25.3162 47
-5 7 8 88.226 27.5356 54
-5 7 8 160.536 33.5643 7
5 -7 -8 73.4426 30.8203 51
-5 7 8 99.1312 29.6073 47
5 -7 -7 1776.61 113.056 10
-5 7 7 2044 104.635 54
5 -7 -7 1987.97 129.169 51
-5 7 7 1976.05 106.304 47
5 -7 -6 2952.84 159.742 10
-5 7 6 2984.78 134.474 54
5 -7 -6 2939.87 170.383 51
-5 7 6 2899.13 137.092 47
5 -7 -5 1862.89 135.573 10
-5 7 5 1917.88 114.213 54
5 -7 -5 1771.8 140.473 51
-5 7 5 1908.89 117.574 47
5 -7 -4 6195.53 247.125 10
-5 7 4 6373.29 206.513 54
5 -7 -4 6156.97 246.076 53
5 -7 -4 6410.99 271.303 51
-5 7 4 6089.07 209.614 47
-5 7 4 6286.17 189.71 8
5 -7 -3 3091.69 357.599 40
5 -7 -3 2849.84 168.698 10
-5 7 3 3078.19 145.538 54
5 -7 -3 2990.5 178.88 53
5 -7 -3 3142.35 192.532 51
-5 7 3 3116.59 152.019 47
-5 7 3 2979.93 139.184 8
-5 7 2 408.329 99.7514 33
-5 7 2 394.357 56.5275 54
5 -7 -2 307.182 64.2418 10
5 -7 -2 225.393 56.6256 53
5 -7 -2 330.452 70.5976 51
-5 7 2 435.785 62.7009 47
-5 7 2 401.878 57.9008 8
5 -7 -1 2749.84 314.967 38
-5 7 1 2499.57 249.845 33
5 -7 -1 2488.85 152.195 10
-5 7 1 2472.46 127.305 54
5 -7 -1 2286.1 163.905 51
5 -7 -1 2465.19 165.597 53
-5 7 1 2473.69 137.581 47
-5 7 1 2494.56 132.647 8
-5 7 0 23152.1 732.252 33
5 -7 0 22137.8 435.575 57
5 -7 0 23769.5 452.367 10
5 -7 0 22455.7 494.857 51
5 -7 0 23140.9 502.801 53
-5 7 0 23551.5 399.96 8
-5 7 -1 91.9271 35.6318 8
-5 7 -1 84.0138 26.791 11
5 -7 1 137.176 46.4457 53
5 -7 1 79.6643 35.3277 57
5 -7 1 172.736 48.4074 51
-5 7 -2 513.745 62.7518 11
5 -7 2 492.913 77.775 53
5 -7 2 484.893 74.5259 51
-5 7 -2 552.286 66.9644 8
-5 7 -3 10695.1 272.766 11
5 -7 3 10951.6 348.948 53
-5 7 -3 10919.6 273.415 8
5 -7 4 1901.43 149.733 53
-5 7 -4 2065.95 124.511 11
-5 7 -4 1894.33 116.087 8
-5 7 -5 -50.8363 29.0669 11
5 -7 5 -8.38086 34.0627 53
-5 7 -6 19242.8 380.311 11
5 -7 6 19137.4 457.713 53
5 -7 7 808.002 168.161 35
-5 7 -7 796.92 79.6454 14
-5 7 -7 655.844 76.3893 11
5 -7 7 613.971 88.0498 53
5 -7 8 1080.65 195.888 35
-5 7 -8 857.694 79.0048 14
-5 7 -8 848.203 84.5647 11
-5 7 -8 781.363 73.5215 20
5 -7 8 871.479 96.0651 53
5 -7 9 718.674 166.287 35
-5 7 -9 664.93 73.7179 11
-5 7 -9 717.799 72.7917 20
-5 7 -9 733.902 81.2316 17
-5 7 -10 62.4275 29.9825 11
-5 7 -10 93.9164 36.3784 20
-5 7 -10 123.01 44.1555 17
-5 7 -11 35.4184 32.1246 17
-5 7 -11 26.9864 26.6909 20
-5 7 -12 380.645 48.3658 20
5 -7 12 414.231 52.3148 55
-5 7 -12 366.23 49.5087 17
-5 6 9 56.2595 22.307 7
-5 6 9 40.2023 21.9203 54
5 -6 -9 37.3984 20.7645 51
-5 6 9 90.6289 24.0264 50
-5 6 9 30.4796 23.17 47
5 -6 -8 500.108 67.953 51
5 -6 -8 449.484 64.0312 10
-5 6 8 488.045 57.7614 47
5 -6 -7 4928.96 217.314 51
-5 6 7 4903.83 176.794 47
5 -6 -7 4912.33 206.019 10
5 -6 -6 5394.07 225.286 10
-5 6 6 5538.44 195.854 47
5 -6 -6 5482.66 245.042 51
5 -6 -5 483.918 82.0436 51
5 -6 -5 299.846 66.0866 10
-5 6 5 405.239 63.5695 47
5 -6 -4 9181.57 637.402 38
5 -6 -4 9136.64 298.817 10
5 -6 -4 9151.59 330.483 51
-5 6 4 8835.13 253.655 47
-5 6 4 9293.03 237.269 8
5 -6 -3 7980.49 583.413 38
-5 6 3 7990.99 422.841 33
5 -6 -3 8106.05 277.726 10
5 -6 -3 8258.89 295.854 53
5 -6 -3 7631.89 301.419 51
-5 6 3 8911.72 254.73 47
-5 6 3 8140.67 227.027 8
5 -6 -2 146.468 93.2379 38
-5 6 2 278.658 48.0116 8
5 -6 -2 404.389 70.2135 53
-5 6 2 373.457 98.5947 33
5 -6 -2 326.535 62.3376 10
5 -6 -2 457.732 82.7759 51
-5 6 2 347.054 56.9565 47
5 -6 -1 14625.6 728.159 38
-5 6 1 14863.8 575.719 33
5 -6 -1 15298.4 412.372 51
5 -6 -1 13119.5 715.797 22
5 -6 -1 15147.5 361.966 10
5 -6 -1 15072.7 395.748 53
-5 6 1 13361 674.361 1
-5 6 1 14943.5 317.829 47
-5 6 1 15289 312.662 8
5 -6 0 121.302 74.391 38
-5 6 0 277.333 46.8391 8
5 -6 0 99.1129 38.8858 53
-5 6 0 147.717 71.172 33
5 -6 0 -52.6801 65.1047 22
-5 6 0 295.666 118.963 1
5 -6 0 78.8087 37.7909 51
-5 6 0 261.921 47.7948 47
5 -6 1 239.188 86.2335 38
-5 6 -1 201.905 80.057 33
-5 6 -1 154.632 83.5366 1
-5 6 -2 564.038 119.268 33
-5 6 -2 573.852 145.555 1
5 -6 2 660.891 144.994 22
5 -6 3 17464.3 729.449 22
-5 6 -3 17662.9 693.355 1
5 -6 4 9399.18 520.662 22
-5 6 -4 9546.71 490.995 1
-5 6 -4 10347 264.154 11
5 -6 4 10683.6 678.39 42
-5 6 -5 130.876 36.2816 8
-5 6 -5 187.334 80.8502 4
5 -6 5 137.739 74.7066 22
-5 6 -5 152.123 39.633 11
5 -6 5 56.2171 119.3 42
5 -6 6 6008.56 400.337 22
-5 6 -6 6984.85 224.138 11
-5 6 -6 6296.57 201.412 8
5 -6 6 6495.15 542.07 42
-5 6 -7 4846.44 186.517 14
-5 6 -7 4548.46 184.328 11
-5 6 -7 4727.62 176.085 20
5 -6 7 4942.95 476.233 42
-5 6 -8 38655.2 538.481 11
-5 6 -8 38574.4 518.623 20
-5 6 -9 24623.3 428.321 11
-5 6 -9 25905.4 433.116 20
-5 6 -9 25789.1 451.553 17
5 -6 10 1054.17 197.309 35
-5 6 -10 961.556 88.8037 20
-5 6 -10 1128.5 90.2027 11
-5 6 -10 1045.67 94.2447 17
-5 6 -11 607.652 73.349 17
-5 6 -11 699.927 75.3096 20
-5 6 -12 4410.35 168.648 20
-5 6 -12 4370.58 167.788 17
-5 6 -13 16.5907 23.5593 20
-5 6 -13 17.8272 27.5819 17
-5 5 10 43.7571 21.1359 54
-5 5 10 19.4826 18.3625 47
5 -5 -9 259.087 45.1078 10
5 -5 -9 300.865 46.6199 51
-5 5 9 245.516 41.0201 47
5 -5 -8 116.34 44.4879 51
5 -5 -8 129.404 45.3964 10
-5 5 8 106.81 32.0177 48
-5 5 8 100.887 38.4544 47
-5 5 7 20.3918 30.5676 48
5 -5 -7 8.41755 36.8934 10
5 -5 -7 13.732 34.3921 51
-5 5 7 34.4423 31.9346 47
-5 5 6 6800.42 219.005 47
5 -5 -6 6997.37 286.685 51
5 -5 -6 7250.4 261.418 10
-5 5 6 7281.1 216.4 48
5 -5 -5 126.897 49.0485 10
5 -5 -5 123.053 55.4847 51
-5 5 5 111.574 40.2398 48
-5 5 5 119.118 42.5659 47
5 -5 -4 2787.58 347.93 38
-5 5 4 2286.59 129.095 47
5 -5 -4 2296.56 148.923 10
5 -5 -4 2338.8 172.964 51
-5 5 4 2324.02 126.001 48
-5 5 4 2268.87 116.789 8
-5 5 3 35609 1066.09 1
5 -5 -3 37674.1 1252.84 38
-5 5 3 38924.5 497.093 48
5 -5 -3 38097.3 663.991 51
5 -5 -3 38310.7 567.107 10
-5 5 3 38170.8 500.079 47
-5 5 3 38221.3 473.202 8
-5 5 2 693.276 152.441 1
5 -5 -2 837.315 185.708 38
-5 5 2 809.784 140.615 33
5 -5 -2 659.242 153.038 22
5 -5 -2 668.152 77.4642 10
5 -5 -2 777.521 94.9793 51
-5 5 2 656.329 66.8321 48
-5 5 2 705.083 70.5473 47
5 -5 -1 8498.85 551.978 38
-5 5 1 8614.03 418.121 33
5 -5 -1 7566.02 505.393 22
-5 5 1 7809 481.756 1
-5 5 0 -15.1452 50.1646 33
5 -5 0 24.5477 46.1531 22
-5 5 0 -51.4902 60.36 1
-5 5 -1 2782.98 241.102 33
5 -5 1 2661.83 295.537 22
-5 5 -1 2612.45 263.323 1
-5 5 -2 11435 487.379 33
-5 5 -2 11044.5 524.902 1
5 -5 2 10312.5 549.332 22
5 -5 2 12279.8 679.017 42
-5 5 -3 18426.8 624.189 33
5 -5 3 17350.3 685.883 22
-5 5 -3 18159.3 651.924 1
5 -5 3 19755.6 868.873 42
-5 5 -4 42.8187 32.3728 4
5 -5 4 -35.9248 85.7304 31
-5 5 -4 -2.21001 24.7532 1
5 -5 4 136.643 75.6221 22
5 -5 4 -23.0195 108.884 42
-5 5 -5 7515.77 426.762 4
5 -5 5 6447.31 472.976 31
5 -5 5 6945.65 412.675 22
5 -5 5 7062.46 548.136 42
5 -5 6 3720.67 298.278 22
-5 5 -6 3394.95 309.359 4
5 -5 6 4031.88 396.799 31
5 -5 6 3288.91 382.642 42
-5 5 -7 1268.17 200.143 4
5 -5 7 881.866 151.888 22
5 -5 7 859.592 209.878 31
-5 5 -7 870.533 81.2222 11
-5 5 -7 939.756 81.0088 20
5 -5 7 828.416 201.101 42
5 -5 8 97348.2 2039.35 31
-5 5 -8 95604.8 824.537 11
-5 5 -8 96103.1 814.334 20
-5 5 -8 95744.4 840.445 17
5 -5 9 26097.6 1096.2 31
-5 5 -9 24158 417.563 11
-5 5 -9 24590.6 437.074 17
-5 5 -9 25446.8 436.77 20
5 -5 9 25026.7 1069.78 42
-5 5 -10 5046.53 200.251 20
5 -5 10 5353.79 509.992 31
-5 5 -10 5075.64 201.736 17
-5 5 -11 402.782 65.9067 20
-5 5 -11 523.207 70.8772 17
-5 5 -12 11963.7 293.017 20
-5 5 -12 11676.6 289.103 17
-5 5 -13 248.649 49.9996 20
-5 5 -13 224.469 46.3736 17
-5 5 -14 359.087 45.3533 20
5 -4 -10 3188.88 117.104 10
-5 4 10 3495.68 117.46 47
5 -4 -9 468.515 64.4869 10
5 -4 -9 578.497 62.8115 19
-5 4 9 626.304 57.462 48
-5 4 9 505.76 56.6124 47
5 -4 -8 429.07 66.5952 51
5 -4 -8 444.131 69.3039 10
-5 4 8 407.737 56.1191 48
-5 4 7 581.125 135.509 41
5 -4 -7 675.635 84.743 10
5 -4 -7 728.977 92.8615 51
-5 4 7 671.702 72.8751 48
-5 4 6 2010.84 250.986 41
5 -4 -6 2401.49 151.985 10
-5 4 6 2130.82 122.228 48
5 -4 -6 2406.74 170.433 51
-5 4 5 20127.2 751.045 41
5 -4 -5 20813.6 989.805 38
5 -4 -5 20415.1 493.255 51
5 -4 -5 21663.3 434.04 10
-5 4 5 20060.8 365.434 48
-5 4 4 4840.8 361.334 41
5 -4 -4 5185.14 476.997 38
-5 4 4 4485.21 384.63 24
5 -4 -4 4781.59 218.709 58
5 -4 -4 4930.53 203.228 10
5 -4 -4 5114.91 246.325 51
-5 4 4 4768.68 175.704 48
-5 4 4 4751.04 162.929 8
5 -4 -3 209.586 96.2229 38
5 -4 -3 393.745 119.327 1
-5 4 3 336.645 104.448 24
5 -4 -2 4843.9 427.801 38
5 -4 -2 4035.83 350.865 22
-5 4 2 4309.77 343.582 1
5 -4 -1 376.914 114.349 22
-5 4 1 533.259 114.763 1
-5 4 0 1772.05 179.875 33
5 -4 0 1530.02 207.775 22
-5 4 0 1751.22 211.094 1
-5 4 -1 363.844 86.9097 33
5 -4 1 340.613 99.857 22
-5 4 -1 412.816 85.3712 24
-5 4 -1 354.618 97.703 1
5 -4 1 277.172 117.763 42
-5 4 -2 2427.76 217.381 33
5 -4 2 2205.81 232.241 31
5 -4 2 2587.78 252.919 22
-5 4 -2 2008.83 210.551 1
5 -4 2 2135.23 276.909 42
-5 4 -3 23711.1 615.946 4
-5 4 -3 24100.2 679.716 33
5 -4 3 23535.8 767.833 31
-5 4 -3 22893.7 677.651 1
5 -4 3 22313.9 716.994 22
5 -4 3 21453.9 861.997 42
-5 4 -4 13079.5 491.132 4
5 -4 4 12185.9 575.307 31
5 -4 4 12350.8 516.912 22
-5 4 -4 12734.6 483.377 1
-5 4 -4 13060.3 459.329 5
5 -4 4 12830.6 673.107 42
-5 4 -5 22779.9 690.218 4
5 -4 5 23947.8 832.548 31
5 -4 5 20814.4 655.037 22
-5 4 -5 23594.3 641.066 5
5 -4 5 23070.1 910.904 42
-5 4 -6 5464.94 365.284 4
5 -4 6 5560.82 428.944 31
5 -4 6 5345.48 328.882 22
-5 4 -6 5711.27 328.776 5
5 -4 6 5622.24 467.386 42
-5 4 -7 153.409 72.2217 4
5 -4 7 362.289 145.632 31
-5 4 -8 8288.21 511.286 4
5 -4 8 9191.56 607.865 31
-5 4 -8 8198.99 234.982 11
-5 4 -8 8816.82 246.282 20
5 -4 8 8640.45 605.577 42
5 -4 9 8652.03 618.498 31
-5 4 -9 8181.11 237.874 11
-5 4 -9 9103.11 261.672 20
-5 4 -9 8637 252.468 17
5 -4 9 8733.13 621.118 42
5 -4 10 -58.7171 102.086 42
5 -4 10 176.088 143.281 31
-5 4 -10 18.9418 31.2906 17
-5 4 -10 124.724 42.8622 20
-5 4 -11 103.67 41.5275 20
-5 4 -11 85.4445 37.0621 17
-5 4 -12 1701.76 120.074 20
-5 4 -12 1614.28 114.63 17
-5 4 -13 592.337 70.6669 20
-5 4 -13 639.784 71.4332 17
-5 4 -14 466.045 56.2766 20
-5 3 11 36.7281 17.2274 47
5 -3 -10 128.947 34.1757 10
-5 3 10 144.284 29.4687 48
5 -3 -10 185.129 37.1265 19
5 -3 -9 7506.13 221.846 9
-5 3 9 8078.78 205.414 48
5 -3 -9 8004.85 239.12 10
5 -3 -8 172.574 46.0662 9
-5 3 8 138.435 41.9875 48
5 -3 -8 106.74 47.1849 10
-5 3 7 15072.1 664.737 41
-5 3 7 15876 329.439 48
5 -3 -7 16013.2 372.987 10
5 -3 -7 15004.9 338.939 9
-5 3 6 34.7904 57.1166 41
5 -3 -6 20.8065 86.0104 38
5 -3 -6 19.8479 37.2322 10
5 -3 -6 41.7709 35.7009 51
-5 3 6 5.1753 30.1065 48
-5 3 5 54168 1203.37 41
5 -3 -5 53828.9 1571.07 38
5 -3 -5 53141.9 738.63 58
5 -3 -5 52345.1 645.018 10
5 -3 -5 51418.3 773.661 51
-5 3 5 52305.8 588.615 48
-5 3 4 -18.9057 57.7208 41
5 -3 -4 121.719 97.9003 38
5 -3 -4 152.304 79.3366 1
-5 3 4 178.627 87.3022 24
5 -3 -4 -7.10786 25.8792 58
-5 3 4 5.83721 28.4164 48
5 -3 -4 -1.82357 27.8949 51
-5 3 3 5590.14 353.359 41
5 -3 -3 6121.5 493.114 38
-5 3 3 5279.98 375.142 24
5 -3 -3 5669.37 400.439 1
-5 3 2 18525.4 662.411 1
5 -3 -2 18595.2 692.262 1
-5 3 2 17964.3 646.887 24
5 -3 -2 18379.3 685.599 22
-5 3 1 2729.36 235.717 24
5 -3 -1 2603.05 252.396 22
-5 3 1 2632.95 244.849 1
-5 3 0 12406.9 461.518 24
5 -3 0 13374.8 552.736 22
-5 3 0 13105.9 519.206 1
-5 3 -1 11271.5 402.842 24
5 -3 1 11438.2 493.461 22
-5 3 -1 11175.3 468.354 1
5 -3 1 11673.3 581.706 42
-5 3 -2 633.568 112.458 1
-5 3 -2 713.636 118.505 33
5 -3 2 596.527 114.354 31
5 -3 2 690.813 123.285 22
-5 3 -2 629.171 90.2692 24
5 -3 2 619.13 159.056 42
5 -3 3 392.945 132.365 42
-5 3 -3 350.25 67.0084 4
-5 3 -3 453.147 97.9267 33
5 -3 3 400.156 107.62 31
-5 3 -3 431.756 96.7021 1
5 -3 3 362.406 88.878 22
-5 3 -4 4657.12 270.857 4
-5 3 -4 4711.04 285.779 33
5 -3 4 5074.71 341.191 31
5 -3 4 5092.26 370.386 28
5 -3 4 4677.19 293.506 22
-5 3 -4 4353.57 263.926 1
5 -3 4 4654.66 373.413 42
-5 3 -5 4952.13 303.411 4
5 -3 5 5495.87 370.284 31
5 -3 5 5699.82 403.151 28
5 -3 5 5001.83 296.007 22
-5 3 -5 5554.1 313.166 5
5 -3 5 5023.61 398.748 42
-5 3 -6 23102.4 707.443 4
5 -3 6 24823.6 821.762 31
5 -3 6 24979.2 872.468 28
5 -3 6 22652.4 619.56 22
-5 3 -6 24062.6 677.334 5
5 -3 6 24961.7 897.828 42
-5 3 -7 8382.62 456.36 4
5 -3 7 8210.89 502.949 31
5 -3 7 8563.18 536.305 28
-5 3 -7 7864 407.45 5
5 -3 7 7960.96 531.283 42
-5 3 -8 4107.96 345.198 4
5 -3 8 4117.64 387.952 31
5 -3 8 4071.45 388.967 28
-5 3 -8 3859.23 309.048 5
5 -3 8 4649.03 426.831 42
-5 3 -9 10395.8 585.638 4
5 -3 9 12014.2 686.376 31
-5 3 -9 10536.8 281.284 12
5 -3 9 11317.4 680.516 28
-5 3 -9 10670.9 281.515 20
-5 3 -9 10302.5 264.629 17
5 -3 9 11595.4 689.537 42
5 -3 10 3477.74 400.46 31
-5 3 -10 2745.78 153.837 12
5 -3 10 3400.18 398.921 28
-5 3 -10 2681.17 149.132 20
-5 3 -10 2525.3 139.709 17
5 -3 10 3632.62 414.138 42
-5 3 -11 627.474 76.667 20
-5 3 -11 663.564 76.4251 17
5 -3 12 898.962 159.969 35
-5 3 -12 842.489 89.0752 20
-5 3 -12 772.094 83.1188 17
-5 3 -13 313.157 54.9241 15
-5 3 -13 499.445 69.565 20
-5 3 -14 112.862 39.3831 15
-5 3 -14 107.124 35.8214 20
-5 3 -15 924.044 64.0781 20
-5 2 11 1138.69 56.486 48
5 -2 -11 1044.82 70.3972 19
5 -2 -10 1751.9 100.983 10
5 -2 -10 1699.01 103.979 9
-5 2 10 1830.64 91.0995 48
5 -2 -9 3227.98 156.458 10
5 -2 -9 3155.35 154.156 9
-5 2 9 3256.99 139.027 48
5 -2 -8 41038.7 572.269 10
5 -2 -8 40273.7 558.195 9
-5 2 8 39908.9 512.489 48
-5 2 7 6622.4 444.086 41
5 -2 -7 6550.69 234.619 10
5 -2 -7 6566.95 229.584 9
-5 2 6 4013.48 340.578 41
5 -2 -6 4481.56 460.988 38
5 -2 -6 4437.64 222.417 58
5 -2 -6 3991.77 173.47 9
-5 2 5 1399.81 199.91 41
5 -2 -5 1408.33 252.901 38
-5 2 5 1599.98 223.929 24
5 -2 -5 1732.39 137.153 58
5 -2 -5 1237.41 203.994 2
5 -2 -5 1598.53 133.819 51
-5 2 4 13194.8 554.525 41
5 -2 -4 13255.3 738.281 38
-5 2 4 12331.5 585.096 24
5 -2 -4 12159.4 568.321 1
-5 2 3 14672.6 554.956 41
5 -2 -3 14084.6 727.842 38
5 -2 -3 12767.9 562.59 1
-5 2 3 13103.3 567.462 24
-5 2 2 424.721 95.0089 41
5 -2 -2 319.248 87.5022 1
-5 2 2 302.594 85.9742 24
-5 2 1 41200.7 811.111 41
-5 2 1 40159.9 858.253 24
5 -2 -1 38877.2 889.914 22
5 -2 -1 39782.1 898.539 1
-5 2 0 2662.71 224.904 1
-5 2 0 2502.9 199.992 24
5 -2 0 2494.6 218.972 22
-5 2 -1 32328.4 737.148 1
-5 2 -1 30507.4 633.057 24
5 -2 1 32043.3 748.582 22
5 -2 2 26176.8 657.171 22
5 -2 2 27201.6 639.694 31
5 -2 2 25603.1 715.641 28
-5 2 -2 25222.1 524.422 24
5 -2 2 27218.9 808.559 42
-5 2 -2 27309.5 649.723 1
-5 2 -3 15522.7 472.381 1
-5 2 -3 15721.3 417.015 4
-5 2 -3 16592 486.83 33
5 -2 3 15774.6 574.534 28
5 -2 3 15121.2 492.454 22
5 -2 3 16558.3 630.725 42
5 -2 4 5072.48 353.162 39
-5 2 -4 5360.16 271.868 4
-5 2 -4 5140.26 261.281 1
-5 2 -4 5459.11 289.685 33
5 -2 4 4673.77 327.448 28
5 -2 4 4899.85 271.558 22
5 -2 4 4879.56 261.259 1
-5 2 -5 7569.86 354.326 4
5 -2 5 7470.85 421.773 39
5 -2 5 7635.16 426.61 28
5 -2 5 7499.63 327.312 22
5 -2 5 7736.49 314.405 1
-5 2 -5 7958.83 369.197 5
-5 2 -6 9526.16 431.42 4
5 -2 6 9690.51 486.255 39
5 -2 6 9522.47 498.202 28
5 -2 6 9203.33 358.039 22
-5 2 -6 9356.32 426.283 5
-5 2 -7 9851.7 472.716 4
5 -2 7 10559.5 520.347 39
5 -2 7 10333.9 549.125 28
-5 2 -7 10606.2 480.762 5
-5 2 -8 22682 779.59 4
5 -2 8 24981.3 904.779 28
-5 2 -8 23087.2 745.12 5
-5 2 -9 28013.2 926.252 4
5 -2 9 30719.4 1062.05 28
-5 2 -10 6118.85 220.78 20
5 -2 10 6413.46 514.79 31
-5 2 -10 6035.33 223.464 12
5 -2 10 6121.14 501.133 28
-5 2 -10 5865.46 204.831 17
5 -2 11 237.454 126.706 42
5 -2 11 352.394 148.956 31
5 -2 11 475.205 154.485 28
-5 2 -11 278.884 57.9783 12
-5 2 -11 289.88 55.9688 20
-5 2 -11 302.082 54.0176 17
-5 2 -12 2636.59 151.884 15
-5 2 -12 2844.68 158.105 20
-5 2 -12 3077.3 169.083 12
-5 2 -12 2933.39 155.224 17
-5 2 -13 11049.1 299.528 15
-5 2 -13 11666.9 303.961 20
-5 2 -14 1415.94 103.979 15
-5 2 -14 1502.42 102.348 20
-5 2 -15 442.778 52.2887 15
-5 2 -15 466.002 49.882 20
-5 1 11 16.0383 16.7824 48
5 -1 -10 866.569 76.1521 10
5 -1 -10 923.97 83.3264 9
-5 1 10 860.917 68.4243 48
-5 1 9 4683.73 351.698 41
5 -1 -9 4764.96 187.527 10
5 -1 -9 4426.7 186.119 9
-5 1 9 4855.13 174.14 48
-5 1 8 346.699 114.446 41
5 -1 -8 558.263 74.8266 10
5 -1 -8 445.689 67.0494 9
-5 1 7 344.25 106.012 41
5 -1 -7 120.1 44.3466 9
-5 1 6 1678.52 228.776 41
5 -1 -6 1670.95 278.686 38
-5 1 6 1755.77 216.356 32
-5 1 6 1610.88 100.946 49
5 -1 -6 1814.09 142.538 58
5 -1 -6 1835.65 119.348 9
-5 1 5 21136.4 731.26 41
5 -1 -5 21062.4 940.288 38
-5 1 5 20472 693.652 32
-5 1 5 20311.2 763.723 24
-5 1 5 20234.2 341.368 49
5 -1 -5 19917.4 791.038 2
5 -1 -5 19747.2 360.521 9
5 -1 -5 20877 453.591 58
-5 1 4 829.477 137.948 41
5 -1 -4 1104.38 207.059 38
-5 1 4 923.207 145.023 32
5 -1 -4 914.36 149.176 1
-5 1 4 788.433 144.352 24
5 -1 -4 910.274 156.484 2
-5 1 3 265.324 85.0613 41
-5 1 3 202.01 62.9869 32
5 -1 -3 122.23 69.2115 1
-5 1 3 345.899 97.5638 24
-5 1 2 22958.1 616.414 41
-5 1 2 23676.6 581.307 32
-5 1 2 22326.3 663.007 24
5 -1 -2 22400.1 674.528 1
-5 1 1 20571.5 546.334 41
-5 1 1 19163.2 572.501 24
5 -1 -1 19692.6 601.671 1
-5 1 0 485.579 80.8613 41
5 -1 0 314.37 82.668 1
-5 1 0 475.285 92.1048 24
5 -1 0 298.594 79.8974 22
5 -1 0 527.92 117.419 42
-5 1 -1 317066 1975.21 24
5 -1 1 315288 2156.59 22
5 -1 1 327665 2256.16 1
5 -1 1 329500 2578.19 42
5 -1 2 23316.8 614.651 28
-5 1 -2 21906.7 477.379 24
5 -1 2 21055.5 536.934 22
5 -1 2 22436.3 570.192 1
5 -1 2 23687.9 688.971 42
-5 1 -3 32624.3 534.791 24
-5 1 -3 33698.1 563.689 4
5 -1 3 35255.4 909.802 39
-5 1 -3 34177 641.866 33
5 -1 3 32910.1 749.446 28
5 -1 3 32220.8 655.629 1
5 -1 3 33217.8 658.507 22
-5 1 -4 22679.1 527.849 4
5 -1 4 24113.7 744.511 39
5 -1 4 23757.8 532.856 1
-5 1 -4 24805.1 572.733 33
5 -1 4 22929.8 651.477 28
5 -1 4 23179.4 536.647 22
-5 1 -5 12685.1 430.417 4
5 -1 5 12862.3 551.591 39
-5 1 -5 13297.2 433.568 33
5 -1 5 12896.8 389.845 22
5 -1 5 13177.1 378 1
-5 1 -5 13888 485.51 5
-5 1 -6 13927.4 500.465 4
5 -1 6 15192.2 613.382 39
5 -1 6 14888.3 516.377 36
-5 1 -6 15986.8 555.283 5
5 -1 7 177.128 76.4119 39
-5 1 -7 -4.76233 40.8526 4
-5 1 -7 135.192 86.6928 5
5 -1 8 133.153 67.5622 39
-5 1 -8 119.366 74.3293 4
-5 1 -8 311.219 108.951 5
5 -1 9 8417.98 518.417 39
5 -1 9 7807.9 523.082 28
-5 1 -9 7329.02 461.161 4
-5 1 -10 3671.81 159.921 17
-5 1 -10 4015.13 180.001 12
5 -1 10 3985.42 402.906 28
-5 1 -10 3971.74 176.949 20
-5 1 -11 15.6785 32.9082 15
5 -1 11 71.1745 89.9654 28
-5 1 -11 94.4629 39.4665 12
-5 1 -11 24.231 32.8853 17
-5 1 -11 -15.7324 25.4519 20
-5 1 -12 361.967 61.5885 15
5 -1 12 614.081 179.021 31
-5 1 -12 474.791 74.2151 12
-5 1 -12 428.014 67.4559 20
-5 1 -13 8643.19 276.103 15
-5 1 -13 9120.17 279.738 12
-5 1 -13 8833.3 267.07 20
-5 1 -14 5509.45 208.479 15
-5 1 -14 5965.83 200.543 20
-5 1 -15 789.403 74.1848 15
-5 1 -15 845.712 64.691 20
5 0 -11 296.13 47.7994 9
-5 0 11 279.965 35.9347 48
5 0 -10 1453.34 105.035 9
-5 0 10 1483.55 90.1902 48
-5 0 9 2336.98 252.423 41
5 0 -9 2501.42 135.888 10
5 0 -9 2547.39 146.102 9
-5 0 8 3250.83 312.273 41
5 0 -8 3600.98 175.952 9
-5 0 8 3597.21 147.015 49
-5 0 7 872.559 165.498 41
5 0 -7 1165.29 117.34 58
5 0 -7 1098.39 99.2279 9
-5 0 7 947.601 82.3347 49
5 0 -6 2449.73 161.646 58
-5 0 6 2151.58 255.284 41
5 0 -6 2345.03 311.113 38
-5 0 6 2064.51 243.534 32
5 0 -6 2219.35 131.729 9
-5 0 6 2118.31 118.966 49
-5 0 5 3192.57 284.959 41
5 0 -5 3921.55 398.907 38
-5 0 5 3317.6 280.632 32
5 0 -5 3304.18 311.327 2
-5 0 5 3394.61 305.435 24
5 0 -5 3634.63 189.672 58
-5 0 4 5902.71 360.913 41
5 0 -4 6135.06 478.543 38
-5 0 4 5534.87 333.279 32
-5 0 4 5405.81 362.63 24
5 0 -4 5217.08 369.746 2
5 0 -4 5340.74 352.069 1
-5 0 3 7069.83 364.759 41
-5 0 3 6995.67 338.873 32
-5 0 3 6771.76 382.062 24
5 0 -3 6636.61 381.932 2
5 0 -3 6647.34 371.23 1
-5 0 2 41382.8 807.906 41
-5 0 2 42445.6 748.928 32
5 0 -2 41276.3 886.292 2
-5 0 2 41792.8 880.676 24
5 0 -2 42249.4 893.383 1
-5 0 1 3159.53 205.487 41
-5 0 1 3030.54 181.704 32
-5 0 1 2994.37 224.625 24
5 0 -1 2995.21 228.269 1
-5 0 0 27194.1 587.965 21
-5 0 0 25462 595.783 24
5 0 0 26797.7 652.274 1
5 0 1 41.2576 56.4309 42
5 0 1 156.184 54.4164 1
-5 0 -1 112.462 49.82 21
-5 0 -1 131.234 49.8373 24
5 0 2 4369.36 333.919 39
5 0 2 4227.58 239.113 28
-5 0 -2 4623.1 239.677 21
-5 0 -2 4178.94 210.848 24
5 0 2 4137.92 223.823 22
5 0 2 4288.03 242.225 1
5 0 3 22871.5 731.069 39
-5 0 -3 22380.1 382.227 3
-5 0 -3 22465.5 452.94 24
5 0 3 23070.6 496.674 22
5 0 3 21618.2 512.547 1
5 0 4 8242.41 438.674 39
-5 0 -4 7915.39 304.313 33
-5 0 -4 7917.56 258.433 3
-5 0 -4 7611.46 245.657 24
-5 0 -4 7473.85 302.597 21
5 0 4 7352.14 271.544 22
5 0 4 7646.87 291.691 1
-5 0 -4 7195.59 287.776 4
5 0 5 17788.3 653.726 39
-5 0 -5 17623.1 465.661 21
5 0 5 17995 586.366 36
-5 0 -5 17523.9 431.098 3
-5 0 -5 17269.7 466.751 33
5 0 5 16604.5 387.287 22
-5 0 -5 18227.7 551.065 5
5 0 5 17294 416.75 1
5 0 6 223.559 100.725 39
5 0 6 33.8381 58.2098 36
-5 0 -6 78.8779 46.3316 4
5 0 6 223.248 69.0227 29
-5 0 -6 94.619 44.78 6
-5 0 -6 89.9391 64.7325 5
5 0 7 87781.5 1570.56 39
5 0 7 88915.9 1397.66 36
5 0 7 88147.9 1323.71 29
-5 0 -7 85164.7 1171.57 6
-5 0 -7 89582.4 1389.16 5
5 0 8 24879.4 777.229 36
5 0 8 24541 734.484 29
-5 0 -8 23241.2 683.744 6
-5 0 -8 23149.7 756.732 5
5 0 9 746.204 141.469 29
5 0 9 536.713 123.989 25
-5 0 -9 632.952 138.251 6
-5 0 -10 772.246 81.3666 12
-5 0 -10 788.553 81.0527 20
5 0 10 771.766 152.459 25
-5 0 -11 3782.08 184.723 15
-5 0 -11 4322.86 193.243 12
-5 0 -11 3931.54 181.404 20
-5 0 -12 4156.63 198.536 15
-5 0 -12 4264.51 196.218 12
-5 0 -12 4170.49 188.508 20
-5 0 -13 239.302 59.1298 15
-5 0 -13 212.694 54.477 12
-5 0 -13 167.816 42.1866 20
-5 0 -14 319.945 61.4105 15
-5 0 -14 442.048 70.8893 12
-5 0 -14 342.523 52.7205 20
-5 0 -15 1283.49 96.9682 15
5 1 -11 2958.81 111.311 13
5 1 -11 3236.47 136.393 9
-5 -1 11 3166.63 107.18 48
5 1 -10 571.554 73.2393 9
-5 -1 10 551.731 50.2235 49
-5 -1 9 1860.69 229.396 41
5 1 -9 2024.35 120.731 10
5 1 -9 1957.48 131.079 9
-5 -1 9 1934.28 104.098 49
-5 -1 8 2175.61 253.809 41
5 1 -8 2312.56 144.289 9
-5 -1 8 2166.96 119.723 49
-5 -1 7 230.479 100.423 41
-5 -1 7 376.1 113.628 32
5 1 -7 168.212 50.766 58
5 1 -7 219.04 55.5528 9
-5 -1 7 312.848 52.4854 49
-5 -1 6 1289.69 201.844 41
-5 -1 6 1417.05 93.7166 8
-5 -1 6 1425.48 205.661 32
-5 -1 6 1414.72 93.9599 56
5 1 -6 1326.34 118.96 58
5 1 -6 1366.22 106.315 9
-5 -1 5 126.486 69.4106 41
5 1 -5 202.924 88.5134 38
-5 -1 5 -39.315 32.6405 32
-5 -1 5 117.404 63.1736 24
5 1 -5 212.621 94.876 2
-5 -1 4 2028.42 211.188 41
5 1 -4 1752.02 200.673 1
5 1 -4 1529.55 233.815 38
-5 -1 4 1603.85 181.505 32
-5 -1 4 1605.78 200.665 24
5 1 -4 1838.21 218.086 2
5 1 -3 5152.51 327.674 1
-5 -1 3 5358.04 314.615 41
-5 -1 3 5010.33 285.225 32
5 1 -3 5280.74 335.96 2
-5 -1 3 5030.87 323.955 24
-5 -1 2 1066.52 129.99 41
-5 -1 2 1004.54 116.663 32
5 1 -2 1049.1 133.991 2
-5 -1 2 1099.92 144.808 24
-5 -1 2 1076.96 121.422 21
5 1 -2 894.226 134.921 1
-5 -1 1 6444.86 320.321 24
-5 -1 1 6545.81 284.258 41
-5 -1 1 7189.92 303.207 21
5 1 -1 7013.64 344.998 1
5 1 -1 6572.77 312.9 2
5 1 0 3965.7 223.612 2
-5 -1 0 4162.21 241.55 24
-5 -1 0 4321.88 236.884 21
5 1 0 4269.47 259.272 1
-5 -1 -1 2356.07 172.753 24
5 1 1 2373.85 260.504 39
5 1 1 2342.48 156.2 2
5 1 1 2073.2 150.012 28
-5 -1 -1 2503.79 178.551 21
5 1 1 2041.84 172.941 1
5 1 2 29528.6 852.32 39
-5 -1 -2 29301.8 566.892 24
-5 -1 -2 29692.9 601.755 21
5 1 2 28493.1 607.999 1
5 1 3 4023.37 317.827 39
5 1 3 3509.1 136.5 2
-5 -1 -3 3561.5 189.887 24
-5 -1 -3 3469.39 206.624 21
5 1 3 3321.88 201.736 1
5 1 4 290305 1808.04 1
5 1 4 303500 2684.76 39
5 1 4 301631 2530.51 36
-5 -1 -4 292342 1684.06 33
-5 -1 -4 306691 1809.3 3
-5 -1 -4 295761 1660.69 24
-5 -1 -4 306098 1930.82 21
5 1 5 160673 2003.86 39
5 1 5 158964 1279.8 1
5 1 5 162806 1893.68 36
-5 -1 -5 151342 1238.51 33
-5 -1 -5 151936 1378.47 3
-5 -1 -5 160993 1405.07 21
-5 -1 -5 158156 1218.3 6
-5 -1 -5 169976 1638.42 5
-5 -1 -6 11064.9 447.213 5
5 1 6 9937.21 483.815 36
-5 -1 -6 9838.06 387.298 3
5 1 6 10439.1 473.66 29
-5 -1 -6 9775.82 348.923 21
-5 -1 -6 9726.32 352.501 6
5 1 7 14824.9 605.43 36
5 1 7 14547.3 574.803 29
-5 -1 -7 14931 493.423 6
-5 -1 -7 15013.5 553.449 5
-5 -1 -7 14227.1 422.061 21
5 1 8 9570.33 508.738 36
5 1 8 9305.71 479.71 29
-5 -1 -8 9155.86 432.718 6
-5 -1 -8 9630.89 475.483 5
5 1 9 4631.05 360.089 29
5 1 9 4403.36 360.482 25
-5 -1 -9 4703.42 346.758 6
-5 -1 -10 4594.02 197.249 15
5 1 10 5079.58 398.062 29
-5 -1 -10 4991.69 198.58 12
5 1 10 5229.21 418.257 25
-5 -1 -10 4966.17 389.794 6
-5 -1 -10 4643.76 187.217 20
-5 -1 -11 14296.2 363.893 15
5 1 11 16873.7 745.603 29
-5 -1 -11 15846.3 367.866 12
-5 -1 -11 15317 351.177 20
-5 -1 -12 2876.13 169.098 15
-5 -1 -12 2881.43 158.072 13
-5 -1 -12 2913.03 163.034 12
-5 -1 -12 2925.95 156.035 20
-5 -1 -13 917.26 98.0484 15
-5 -1 -13 798.786 87.2675 13
-5 -1 -13 971.207 98.1212 12
-5 -1 -14 1313.89 111.299 15
-5 -1 -14 1193.86 99.3492 13
-5 -1 -15 2241.45 114.851 13
-5 -2 11 970.273 60.8688 48
5 2 -11 1073.75 82.9607 9
5 2 -10 455.128 69.3505 9
-5 -2 10 345.369 44.1808 49
-5 -2 9 320.826 98.7465 41
-5 -2 9 281.449 46.194 49
5 2 -9 449.527 72.4185 9
-5 -2 8 1059.71 182.39 41
5 2 -8 850.574 94.6052 9
-5 -2 8 831.235 78.6738 49
-5 -2 7 619.011 141.969 41
-5 -2 7 747.788 150.731 32
-5 -2 7 904.14 79.296 56
5 2 -7 801.384 88.8927 9
-5 -2 6 3429.1 145.851 8
-5 -2 6 3273.67 296.299 32
-5 -2 6 3349.19 149.372 56
5 2 -6 3387.11 167.139 61
-5 -2 5 336.306 115 34
-5 -2 5 290.909 94.1512 32
5 2 -5 500.712 68.7994 64
-5 -2 5 459.472 117.366 24
5 2 -5 535.174 125.922 2
-5 -2 5 492.196 61.798 56
-5 -2 4 287.989 84.4112 24
5 2 -4 549.985 117.534 1
5 2 -4 467.41 107.375 2
5 2 -3 8238.85 415.108 1
-5 -2 3 8863.93 432.601 34
-5 -2 3 8026.69 406.9 24
5 2 -3 7955.17 413.591 2
5 2 -2 13534.1 507.377 1
-5 -2 2 13258.2 493.158 34
5 2 -2 12192.6 466.732 2
-5 -2 2 12794.3 483.036 24
-5 -2 2 13887.7 435.029 21
-5 -2 1 544.464 101.664 24
-5 -2 1 285.989 71.5385 21
5 2 -1 577.535 92.7357 2
5 2 -1 381.509 88.6692 1
5 2 0 46962.2 871.069 1
5 2 0 48723.7 769.676 2
-5 -2 0 48592.1 834.843 24
-5 -2 0 49165.2 803.059 21
5 2 1 248.65 112.929 39
5 2 1 326.047 76.2197 1
-5 -2 -1 382.928 76.105 24
-5 -2 -1 286.348 71.5063 21
5 2 2 17447.6 487.618 1
5 2 2 18009.9 686.308 39
5 2 2 18075.3 351.655 2
-5 -2 -2 17428 472.762 21
-5 -2 -2 16676.4 445.182 24
5 2 3 64131 903.811 1
5 2 3 65290.7 1280.01 39
-5 -2 -3 65226.7 854.297 24
-5 -2 -3 65877.3 916.493 21
5 2 4 18095.5 684.879 39
5 2 4 19429.9 486.988 1
5 2 4 19834.9 706.378 36
-5 -2 -4 19199 456.74 24
-5 -2 -4 18689 488.197 21
-5 -2 -4 18785.7 385.376 6
5 2 5 55213.3 1195.22 36
5 2 5 53264.5 785.036 1
5 2 5 50461.9 1109.3 29
-5 -2 -5 54233 895.142 3
-5 -2 -5 50999.1 807.295 21
-5 -2 -5 53869.5 765.327 6
-5 -2 -5 58229.1 935.92 5
5 2 6 3633.72 319.259 36
-5 -2 -6 3476.91 246.034 3
5 2 6 3413.92 293.064 29
-5 -2 -6 3042.53 202.349 21
-5 -2 -6 3414.23 222.274 6
-5 -2 -6 3649.1 248.915 5
5 2 7 35589 994.145 36
-5 -2 -7 33409.4 810.127 3
5 2 7 33534.9 936.788 29
-5 -2 -7 34058.2 669.098 21
-5 -2 -7 37095 804.428 6
-5 -2 -7 35936.6 834.056 5
5 2 8 11026.4 555.973 29
-5 -2 -8 11351.7 495.981 6
-5 -2 -8 11372 504.011 5
5 2 9 -5.56634 52.0674 29
-5 -2 -9 -13.7772 62.353 6
-5 -2 -10 197.045 49.5097 15
5 2 10 100.28 91.5823 29
-5 -2 -10 194.863 49.0964 12
-5 -2 -11 5192.91 224.17 15
-5 -2 -11 5310.8 220.4 13
5 2 11 5824.81 459.688 29
-5 -2 -11 5803.08 223.974 12
-5 -2 -12 65.4016 44.4737 15
5 2 12 126.475 100.923 36
-5 -2 -12 23.572 30.8478 13
-5 -2 -12 2.69566 31.4099 12
-5 -2 -13 6975.16 262.667 15
-5 -2 -13 6584.85 242.736 13
-5 -2 -14 -54.2467 38.7316 13
-5 -2 -14 34.035 38.3737 12
-5 -2 -15 299.312 51.4611 12
5 3 -11 75.1896 35.0874 9
-5 -3 11 38.6622 15.8181 49
5 3 -10 432.39 66.6007 9
-5 -3 10 414.059 47.8339 49
5 3 -9 22.352 41.6364 9
-5 -3 9 41.8092 31.5323 49
-5 -3 8 11642.6 576.692 41
-5 -3 8 12523.7 275.514 56
-5 -3 7 282.119 45.1202 8
-5 -3 7 226.094 87.7375 32
-5 -3 7 199.347 43.9234 56
5 3 -7 223.769 55.1264 61
5 3 -7 191.569 55.8293 9
-5 -3 6 3298.87 146.245 8
-5 -3 6 3088.54 302.218 34
5 3 -6 3134.82 167.301 61
-5 -3 6 3184.79 150.883 56
-5 -3 5 9731.59 247.423 8
-5 -3 5 10630.7 543.42 34
5 3 -5 10521.6 299.983 64
-5 -3 5 10713.6 522.506 24
5 3 -5 10384.1 563.849 2
5 3 -5 9851.52 279.254 61
-5 -3 5 11137.9 264.732 45
5 3 -4 18485.8 664.639 1
-5 -3 4 19065.7 684.542 34
5 3 -4 18245.4 692.358 2
-5 -3 4 18658.2 655.728 24
5 3 -3 15163.5 578.554 1
-5 -3 3 15274.4 577.812 34
5 3 -3 14857 577.482 2
-5 -3 3 15817.7 577.624 24
5 3 -2 113870 1513.26 1
-5 -3 2 114572 1446.71 34
-5 -3 2 111531 1442.23 24
-5 -3 2 117082 1303.58 21
5 3 -2 111127 1451.33 2
5 3 -1 91148.3 1302.86 1
-5 -3 1 92463.5 1203.45 34
5 3 -1 89188.4 1189.78 2
-5 -3 1 94728.1 1176.31 21
-5 -3 1 88310.7 1216.36 24
5 3 0 7008.2 348.585 1
5 3 0 6608.82 293.461 2
5 3 1 18729.5 735.692 39
5 3 1 17240.7 528.942 1
-5 -3 -1 18442.3 506.655 24
5 3 1 18807.7 434.28 2
-5 -3 -1 18537 513.639 21
5 3 2 121.116 76.9171 39
-5 -3 -2 41.453 42.4399 24
5 3 2 10.7841 47.0153 1
-5 -3 -2 79.0076 52.1869 21
5 3 2 233.131 45.0309 2
5 3 3 50347.4 1185.44 39
5 3 3 51293.9 1222.83 36
5 3 3 52503.7 869.723 1
-5 -3 -3 51282.6 797.604 24
-5 -3 -3 52688.3 865.286 21
5 3 4 56921.6 1299.5 36
5 3 4 55735 879.943 1
-5 -3 -4 57776.4 858.166 5
-5 -3 -4 57958.7 904.452 21
-5 -3 -4 58759.3 807.64 6
5 3 5 5609.35 316.488 37
5 3 5 6538.74 451.868 36
5 3 5 5694.55 279.409 1
5 3 5 5752.1 418.036 29
-5 -3 -5 5585.35 284.52 21
-5 -3 -5 6371.32 293.794 6
-5 -3 -5 6518.66 305.615 5
5 3 6 865.219 128.6 37
5 3 6 854.792 162.712 36
-5 -3 -6 1135.98 155.458 3
5 3 6 979.984 170.015 29
-5 -3 -6 1090.38 126.687 21
-5 -3 -6 1010.36 131.745 6
-5 -3 -6 851.034 122.017 5
5 3 7 18003.1 564.809 37
5 3 7 16621 731.931 36
-5 -3 -7 18403.4 632.041 3
5 3 7 16980.2 706.039 29
-5 -3 -7 17201.1 497.351 21
-5 -3 -7 18186.7 599.644 6
-5 -3 -7 18538.9 577.729 5
5 3 8 1766.14 186.041 37
-5 -3 -8 1541.29 201.588 3
5 3 8 1630.61 236.457 29
-5 -3 -8 1932.54 223.32 6
-5 -3 -8 1855.22 204 5
5 3 9 543.589 110.945 37
5 3 9 344.703 127.761 29
-5 -3 -9 370.558 110.264 6
-5 -3 -10 40344.2 606.316 15
-5 -3 -10 37960.3 581.738 13
5 3 10 44684.9 1265.84 29
-5 -3 -10 41315.9 573.032 12
-5 -3 -10 43676.4 1182.84 6
-5 -3 -11 657.988 84.5392 15
-5 -3 -11 668.656 86.3859 13
-5 -3 -11 678.87 80.7458 12
-5 -3 -12 14679.2 386.445 15
-5 -3 -12 15008 364.666 12
-5 -3 -13 17.382 38.1925 13
-5 -3 -13 53.256 34.8552 12
-5 -3 -14 -37.2201 39.9883 13
-5 -3 -14 0.58308 33.6635 12
-5 -3 -15 1022.63 78.5726 12
5 4 -11 2520.31 108.431 9
5 4 -10 94.7305 43.2734 9
-5 -4 10 126.667 32.4145 49
-5 -4 9 8990.78 209.358 56
-5 -4 9 9223.99 234.118 49
-5 -4 8 9708.36 522.02 41
-5 -4 8 10104.7 252.595 56
5 4 -8 10764.9 313.922 9
-5 -4 7 341.402 50.7582 8
-5 -4 7 502.35 133.459 34
5 4 -7 336.687 67.4917 61
-5 -4 7 422.925 61.4093 56
-5 -4 7 318.739 50.6143 45
-5 -4 6 7855.94 228.502 8
-5 -4 6 7916.97 494.815 34
5 4 -6 8207.77 276.337 61
-5 -4 6 8010.93 235.707 45
-5 -4 5 8362.94 233.925 8
-5 -4 5 8680.89 500.181 34
5 4 -5 8660.23 276.955 64
5 4 -5 8717.56 275.708 61
-5 -4 5 9133.76 484.047 24
5 4 -5 8550.09 523.605 2
-5 -4 5 8334.41 239.226 45
-5 -4 4 3116.5 289.327 34
5 4 -4 2835.73 266.586 1
5 4 -4 2822.01 283.698 2
-5 -4 4 2937.49 265.471 24
-5 -4 3 7964.42 422.076 34
5 4 -3 7339.74 417.465 1
-5 -4 3 7750.01 410.243 24
5 4 -3 7275.69 422.039 2
5 4 -2 15130.7 581.265 1
-5 -4 2 15815.4 548.061 34
-5 -4 2 16257.2 518.542 21
5 4 -2 14885.2 553.217 2
-5 -4 2 15019.6 543.039 24
5 4 -1 13947.6 534.305 1
-5 -4 1 14368.3 477.646 34
5 4 -1 14581.8 503.091 2
-5 -4 1 14197.7 480.945 21
-5 -4 1 13890.5 499.514 24
5 4 0 29275.2 648.293 2
5 4 0 29425.9 749.566 1
-5 -4 0 30522.7 635.825 34
-5 -4 0 31198.1 709.379 21
-5 -4 0 30166.2 705.345 24
5 4 1 15487.4 686.446 39
5 4 1 16123.1 542.909 1
-5 -4 -1 15970.1 504.817 21
-5 -4 -1 15595.8 490.163 24
5 4 2 21278.5 815.079 39
5 4 2 21554.2 611.764 1
-5 -4 -2 22481.2 571.264 24
-5 -4 -2 23231.7 606.644 21
5 4 3 3940.13 358.829 39
5 4 3 3829.82 376.853 36
5 4 3 3382.7 239.804 1
-5 -4 -3 3682.51 232.048 24
-5 -4 -3 3562.78 241 21
5 4 4 59806.4 1448.49 36
-5 -4 -4 60907 982.645 21
-5 -4 -4 60083.2 855.9 5
5 4 5 2078.05 215.319 37
5 4 5 1897.26 265.553 36
5 4 5 1857.7 253.615 29
5 4 5 2021.05 185.759 1
-5 -4 -5 2072.54 185.257 21
-5 -4 -5 1945.09 186.452 6
-5 -4 -5 1872.07 158.3 5
5 4 6 23883.3 697.321 37
5 4 6 24988.1 889.274 29
-5 -4 -6 23556.7 617.266 21
-5 -4 -6 25598.5 708.073 6
-5 -4 -6 23796.9 598.237 5
5 4 6 24907.6 636.274 1
5 4 7 18759 621.626 37
5 4 7 18877.9 821.543 36
-5 -4 -7 18148.5 663.187 3
5 4 7 17657.7 749.761 29
-5 -4 -7 18438.4 546.796 21
-5 -4 -7 19569.1 665.258 6
-5 -4 -7 19070.9 570.807 5
5 4 8 3675.55 287.601 37
-5 -4 -8 3823.12 331.902 3
5 4 8 3772.5 360.122 29
-5 -4 -8 4058.36 331.289 6
5 4 9 49897.1 1092.23 37
-5 -4 -9 49883.2 1238.95 3
5 4 9 48505.8 1318.84 29
-5 -4 -9 49413.1 1219.29 6
5 4 10 23123.6 768.739 37
-5 -4 -10 20158 442.53 13
5 4 10 22677.5 941.015 29
-5 -4 -10 22575.6 881.053 6
-5 -4 -10 22636 428.875 12
-5 -4 -10 21315.7 454.031 19
5 4 11 4582.7 354.408 37
-5 -4 -11 4305.55 208.742 13
5 4 11 4590.64 442.361 29
-5 -4 -11 4319.54 194.168 12
-5 -4 -11 4575.57 215.01 19
-5 -4 -12 6374.05 254.235 13
5 4 12 7424.26 569.248 29
-5 -4 -12 7313.53 253.14 12
-5 -4 -12 6327.45 247.681 19
-5 -4 -13 911.987 98.4164 13
-5 -4 -13 1080.05 96.8563 12
-5 -4 -13 1037.37 98.5174 19
-5 -4 -14 532.302 64.8022 12
-5 -4 -14 566.243 68.9576 19
-5 -4 -15 1329.52 81.6938 12
5 5 -10 2592.06 126.447 9
-5 -5 10 2399.29 83.4687 56
-5 -5 10 2429.24 100.179 49
5 5 -9 3714.75 157.904 15
-5 -5 9 3641.45 133.747 56
5 5 -9 3900.3 175.292 9
5 5 -8 1458.22 112.477 15
-5 -5 8 1281.97 93.565 56
5 5 -8 1581.09 125.962 9
-5 -5 8 1330.08 90.1554 45
-5 -5 7 13543.7 292.119 8
5 5 -7 13893.5 347.671 15
-5 -5 7 13964.6 663.889 34
5 5 -7 14113.1 372.77 61
-5 -5 7 13628.1 308.681 45
-5 -5 6 22.3471 26.1337 8
-5 -5 6 119.947 78.2474 34
5 5 -6 31.0457 40.5215 61
-5 -5 6 22.7457 30.4543 45
5 5 -5 208.451 46.5658 15
-5 -5 5 273.182 113.649 34
5 5 -5 174.372 47.4638 64
5 5 -5 158.008 52.0895 61
-5 -5 5 159.544 43.6515 45
-5 -5 5 219.645 39.795 43
5 5 -4 7338.04 243.618 15
-5 -5 4 7245.95 443.844 34
5 5 -4 7101.97 249.372 64
-5 -5 4 7488.68 427.631 24
5 5 -4 7654.16 260.248 61
5 5 -4 6828.59 463.033 2
-5 -5 4 7698.07 234.793 45
-5 -5 4 7246.09 219.285 43
-5 -5 3 1698.54 204.266 34
5 5 -3 1673.93 210.835 1
-5 -5 3 1823.37 200.356 24
5 5 -3 2034.06 231.897 2
-5 -5 2 2071.73 206.537 34
5 5 -2 1974.07 221.758 1
-5 -5 2 2315.23 209.689 21
5 5 -2 2072.33 220.913 2
-5 -5 2 2085.69 204.409 24
-5 -5 1 2857.97 216.699 34
5 5 -1 2625.29 250.995 1
-5 -5 1 2923.95 234.189 21
5 5 -1 2679.25 232.795 2
-5 -5 1 2947.83 241.27 24
5 5 0 6581.85 381.056 1
-5 -5 0 7148.36 363.237 21
5 5 0 6667.37 344.836 2
-5 -5 0 6767.13 349.714 24
-5 -5 -1 9541.56 402.589 24
5 5 1 8974.67 434.045 1
-5 -5 -1 10061.9 429.934 21
5 5 1 10148.7 397.219 2
5 5 2 2048.18 264.333 39
5 5 2 1989.06 205.967 1
-5 -5 -2 2197.92 195.098 24
-5 -5 -2 2347.94 207.087 21
5 5 3 6556.95 481.862 39
5 5 3 6432.37 496.352 36
5 5 3 6456.73 360.228 1
-5 -5 -3 6649.53 345.583 21
5 5 4 26392.1 993.917 36
5 5 4 26369.6 724.019 1
-5 -5 -4 27983.3 709.932 21
-5 -5 -4 26861.7 547.644 5
5 5 5 42780.4 1011.38 37
5 5 5 42857.5 1267.27 36
5 5 5 42668.5 927.665 1
-5 -5 -5 44244.4 894.406 21
-5 -5 -5 42594.6 729.899 5
5 5 6 27792.3 813.821 37
5 5 6 30051.7 1062.96 36
5 5 6 27897.1 975.734 29
5 5 6 30874.2 788.145 1
-5 -5 -6 31153.7 753.891 21
-5 -5 -6 30564.5 842.063 6
-5 -5 -6 27980.2 629.397 5
5 5 7 1689.5 205.487 37
5 5 7 1559.2 251.498 36
-5 -5 -7 1473.64 200.898 3
5 5 7 1554.94 249.653 29
-5 -5 -7 1575.43 173.708 21
-5 -5 -7 1680.04 209.822 6
5 5 8 22343.8 750.402 37
-5 -5 -8 24819.5 866.039 3
5 5 8 22844.6 914.559 29
-5 -5 -8 22904.4 818.341 6
5 5 9 5344.36 380.357 37
-5 -5 -9 5582.2 436.888 3
5 5 9 5319.2 460.359 29
-5 -5 -9 5081.35 200.169 12
-5 -5 -9 5281.41 214.677 53
-5 -5 -9 5487.11 426.55 6
-5 -5 -9 5049.62 222.133 19
5 5 10 76700.2 1774.69 29
-5 -5 -10 74741.6 786.363 12
-5 -5 -10 75128.4 870.123 19
5 5 11 18650.7 745.14 37
5 5 11 17499.9 873.407 29
-5 -5 -11 17488.3 386.476 12
-5 -5 -11 17297.1 423.03 19
5 5 12 16646.1 694.801 37
5 5 12 16874.2 902.894 36
-5 -5 -12 16456.4 371.719 12
-5 -5 -12 15301.5 388.119 19
-5 -5 -13 5773.28 211.25 12
-5 -5 -13 5397.65 216.455 19
-5 -5 -14 208.123 43.3522 12
-5 -5 -14 203.988 44.553 19
-5 -5 -15 1044.12 70.924 19
-5 -6 10 63.1899 17.8393 56
5 6 -10 28.8577 26.1817 9
-5 -6 10 53.1222 20.9899 49
5 6 -9 4171.88 165.423 15
-5 -6 9 4012.75 136.42 56
5 6 -9 4274.26 170.07 9
-5 -6 9 4046.09 143.785 49
-5 -6 9 4038.18 126 45
5 6 -8 40.9878 38.0723 15
-5 -6 8 21.8335 22.6049 8
5 6 -8 4.67345 42.3972 9
-5 -6 8 -40.5562 29.9419 45
-5 -6 8 7.33646 30.4311 56
5 6 -7 0.92805 35.9019 15
-5 -6 7 33.2919 25.6353 8
5 6 -7 15.5384 45.716 61
-5 -6 7 54.4923 33.7158 45
-5 -6 6 2942.06 144.513 8
5 6 -6 3027.07 171.721 15
-5 -6 6 2774.21 300.81 34
-5 -6 6 2972.75 155.302 45
5 6 -6 3098.08 181.929 61
-5 -6 6 2968.57 143.478 43
5 6 -5 214.306 56.3415 15
-5 -6 5 89.5504 89.9229 34
5 6 -5 118.165 44.3831 64
5 6 -5 83.7583 49.5676 61
-5 -6 5 134.146 45.348 45
-5 -6 5 137.368 40.8409 43
5 6 -4 6184.8 236.449 7
-5 -6 4 6856.21 436.817 34
5 6 -4 7058.73 263.219 61
5 6 -4 6413.82 241.186 64
-5 -6 4 6766.18 230.971 45
-5 -6 4 7024.45 228.642 43
5 6 -3 586.57 74.5875 7
-5 -6 3 587.856 123.42 34
5 6 -3 779.079 89.0844 61
-5 -6 3 605.377 120.109 24
5 6 -3 359.343 105.204 2
5 6 -3 557.731 137.241 1
-5 -6 3 740.653 75.9245 45
-5 -6 3 646.042 71.2746 43
-5 -6 2 4558.83 312.387 34
5 6 -2 5335.61 388.688 1
5 6 -2 5306.26 394.131 2
-5 -6 2 5101.27 336.441 21
-5 -6 2 5060.23 335.899 24
5 6 -1 32379.6 935.189 1
-5 -6 1 35097.2 863.606 21
5 6 -1 34000.9 926.263 2
-5 -6 1 33431.8 834.843 24
-5 -6 0 406.012 95.7487 24
-5 -6 0 374.842 98.7937 21
5 6 0 283.579 91.3957 1
5 6 1 5274.63 366.049 1
-5 -6 -1 5497.29 341.504 21
5 6 2 13939 589.075 1
-5 -6 -2 14921.9 559.127 21
5 6 3 13676.4 696.571 39
5 6 3 14217 741.502 36
-5 -6 -3 14765.1 552.618 21
5 6 3 13173.4 565.078 1
5 6 4 7363.16 537.126 36
-5 -6 -4 7034.28 382.165 21
5 6 4 6664.91 403.518 1
5 6 5 567.864 151.375 37
5 6 5 249.654 130.383 36
-5 -6 -5 322.844 87.9525 21
5 6 5 556.667 115.086 1
5 6 6 25084 832.615 37
5 6 6 24826.2 1001.18 36
5 6 6 24283.4 938.851 29
5 6 6 25320.9 768.436 1
-5 -6 -6 25840.5 732.11 21
5 6 7 8844.72 500.636 37
5 6 7 8435.83 599.735 36
-5 -6 -7 9560.62 541.335 3
5 6 7 8833.39 577.935 29
-5 -6 -7 8922.18 430.916 21
-5 -6 -7 9342.67 529.84 6
5 6 8 219.623 96.5663 37
5 6 8 191.54 118.021 36
5 6 8 -8.03242 51.4075 29
-5 -6 -8 53.2195 49.5012 3
-5 -6 -8 206.682 47.5605 53
-5 -6 -8 11.2265 68.9 6
-5 -6 -8 116.995 42.1229 19
-5 -6 -8 90.4276 31.5541 12
5 6 9 1034.1 177.809 37
5 6 9 919.423 213.224 36
5 6 9 901.408 203.943 29
-5 -6 -9 1375.21 107.712 12
-5 -6 -9 1183.26 105.831 53
-5 -6 -9 893.761 101.795 19
5 6 10 5151.82 406.909 37
5 6 10 5866.25 502.796 29
-5 -6 -10 5452.23 215.461 12
-5 -6 -10 5381.69 238.982 19
5 6 11 39892.1 1108.88 37
5 6 11 42527.3 1447.46 36
5 6 11 41010.1 1352.2 29
-5 -6 -11 38947.6 637.079 19
-5 -6 -11 39300.9 573.745 12
5 6 12 5132.35 390.391 37
5 6 12 5656.72 529.678 36
-5 -6 -12 5362.42 209.328 12
-5 -6 -12 5142.83 223.756 19
-5 -6 -13 7716.07 232.255 12
-5 -6 -13 7478.43 248.587 19
-5 -6 -14 1076.04 75.862 12
-5 -6 -14 1160.16 88.2676 19
-5 -6 -15 1303.93 72.4903 19
-5 -7 10 217.085 25.4847 49
5 7 -9 2377.15 117.682 15
-5 -7 9 2269.3 87.51 45
-5 -7 9 2395.75 96.7154 56
5 7 -9 2299.84 111.865 9
-5 -7 9 2278.8 97.3277 49
-5 -7 8 1081.22 70.4488 8
5 7 -8 1274.89 105.781 15
5 7 -8 1153.06 96.5281 9
-5 -7 8 1130.69 80.3303 45
-5 -7 8 1120.68 83.7291 56
5 7 -7 274.015 59.2818 15
-5 -7 7 241.628 43.0575 8
5 7 -7 280.365 64.6086 61
-5 -7 7 259.354 47.4555 45
-5 -7 7 293.76 47.4737 43
5 7 -6 1698.21 134.978 15
-5 -7 6 1584.57 214.244 34
5 7 -6 1662.93 134.916 61
-5 -7 6 1519.12 112.808 45
-5 -7 6 1451.35 105.215 43
5 7 -5 131.788 53.223 15
-5 -7 5 23.143 57.1835 34
5 7 -5 69.7607 48.1842 61
-5 -7 5 137.321 47.1641 45
-5 -7 5 98.8033 37.9615 43
-5 -7 4 -13.3967 59.6447 34
5 7 -4 61.1998 42.3825 61
-5 -7 4 71.5662 32.2025 63
5 7 -4 54.4598 40.2274 7
5 7 -4 80.2854 42.2631 64
-5 -7 4 63.6246 37.1751 45
-5 -7 4 53.6409 35.7598 43
5 7 -3 2681.17 164.225 7
-5 -7 3 2721.7 149.038 63
5 7 -3 3120.73 183.262 61
-5 -7 3 2668.05 145.846 45
-5 -7 3 2782.12 149.171 43
5 7 -2 3074.56 169.927 7
-5 -7 2 3238.19 155.004 65
-5 -7 2 3340.6 164.548 63
5 7 -2 3059.86 308.631 1
-5 -7 2 3340.4 156.598 45
-5 -7 2 3258.65 158.649 43
-5 -7 1 211.296 76.545 21
5 7 -1 90.2433 68.3704 1
5 7 0 6017.78 428.579 1
-5 -7 0 6270.35 336.692 22
-5 -7 0 6808.48 411.769 21
5 7 1 11108.6 576.376 1
-5 -7 -1 11304.1 428.226 22
-5 -7 -1 12089.4 547.097 21
5 7 2 1836.23 233.324 1
-5 -7 -2 1939.62 169.172 22
-5 -7 -2 2011.65 224.859 21
-5 -7 -3 1283.08 181.484 21
5 7 3 1131.8 187.894 1
5 7 4 108.169 59.5517 1
5 7 4 96.8945 85.4651 36
-5 -7 -4 192.53 85.6071 21
5 7 5 715.413 131.447 1
-5 -7 -5 455.435 111.981 21
5 7 6 890.232 170.492 37
5 7 6 542.325 168.519 36
5 7 6 555.708 123.018 1
-5 -7 -6 680.3 126.602 21
5 7 7 15134.2 687.806 37
5 7 7 15636.9 830.668 36
-5 -7 -7 16455.8 750.818 3
5 7 7 14407.2 759.948 29
-5 -7 -7 15987.5 365.05 53
-5 -7 -7 16010.5 359.364 52
-5 -7 -7 16847.9 753.463 6
-5 -7 -7 15339 379.925 19
5 7 8 2262.42 280.398 37
5 7 8 1983.79 305.868 36
5 7 8 2048.77 305.682 29
-5 -7 -8 2322.2 146.477 53
-5 -7 -8 2045.34 146.716 19
-5 -7 -8 2087.6 134.107 12
5 7 9 846.919 177.81 37
5 7 9 988.854 233.828 36
5 7 9 1032.14 225.961 29
-5 -7 -9 1082.68 98.8736 12
-5 -7 -9 1120.42 105.433 53
-5 -7 -9 1106.28 112.731 19
5 7 10 2500.2 289.827 37
5 7 10 2779.95 379.302 36
5 7 10 2829.2 362.332 29
-5 -7 -10 2639.97 151.751 12
-5 -7 -10 2843.84 165.969 53
-5 -7 -10 2859.65 177.298 19
5 7 11 2650.24 303.346 37
5 7 11 3145.34 396.096 36
-5 -7 -11 2947.14 156.991 12
-5 -7 -11 2923.28 175.395 19
-5 -7 -12 18301.5 367.695 12
-5 -7 -12 18086.2 405.119 19
-5 -7 -13 102.094 38.0336 12
-5 -7 -13 109.108 42.1298 19
-5 -7 -14 1555.64 95.3006 19
-5 -8 9 3353.63 97.8187 56
5 8 -9 3068.5 103.398 9
-5 -8 9 3166.16 94.9487 49
-5 -8 9 3010.47 86.2549 45
-5 -8 8 2985.43 102.681 8
5 8 -8 3089.07 141.495 15
-5 -8 8 2800.58 114.88 56
5 8 -8 2943.96 128.698 9
-5 -8 8 2903.37 113.146 45
-5 -8 7 2745.17 121.156 8
5 8 -7 2775.47 154.671 15
5 8 -7 2706.99 147.743 61
-5 -8 7 2805.21 130.123 45
-5 -8 7 2616.02 116.909 43
5 8 -6 584.319 84.1594 15
5 8 -6 584.088 81.91 61
-5 -8 6 395.041 61.9671 45
-5 -8 6 421.694 58.6109 43
5 8 -5 11612.6 342.89 15
5 8 -5 11370.3 335.219 61
-5 -8 5 10704.5 286.142 45
-5 -8 5 10698 285.516 43
5 8 -4 266.713 65.1322 61
-5 -8 4 115.733 40.3978 63
5 8 -4 185.467 59.2372 7
-5 -8 4 168.67 48.1142 45
-5 -8 4 117.103 42.1828 43
-5 -8 3 -44.0175 32.2624 63
5 8 -3 27.8686 47.7589 61
5 8 -3 19.9255 34.0962 7
-5 -8 3 29.0581 31.895 45
-5 -8 3 46.1565 38.4082 43
-5 -8 3 15.3133 30.1262 65
5 8 -2 141.678 50.623 61
-5 -8 2 183.89 49.7247 65
-5 -8 2 126.741 41.4968 63
5 8 -2 127.804 46.9676 7
-5 -8 2 116.429 39.2733 45
-5 -8 2 210.692 49.7626 43
5 8 -1 2907.28 176.938 7
-5 -8 1 3049.81 157.945 65
-5 -8 1 3069.63 161.956 63
-5 -8 1 3409.49 282.835 22
5 8 -1 3101.08 341.934 1
-5 -8 1 3003.01 146.135 45
-5 -8 1 3121.95 154.616 43
5 8 0 6988.42 264.487 7
-5 -8 0 6951.38 234.484 65
-5 -8 0 6924.51 235.811 63
-5 -8 0 6740.66 381.089 22
5 8 0 6219.4 469.244 1
-5 -8 0 7421.01 466.605 21
-5 -8 0 6838.38 209.331 45
5 8 0 6455.9 254.705 44
-5 -8 0 6857.14 219.175 43
-5 -8 -1 168.942 40.0842 65
5 8 1 140.276 47.1748 7
-5 -8 -1 66.3462 42.3045 22
-5 -8 -1 160.515 83.686 21
5 8 1 169.342 45.762 44
-5 -8 -1 100.213 33.3646 43
5 8 1 116.56 83.3669 1
5 8 2 696.481 152.041 1
-5 -8 -2 524.724 67.2021 65
-5 -8 -2 392.217 116.56 21
5 8 2 501.209 78.0327 62
5 8 3 25.8869 71.5469 1
-5 -8 -3 -113.81 72.8242 21
5 8 4 20817.9 928.334 36
-5 -8 -4 20577.5 387.941 65
5 8 4 20997 447.637 62
5 8 4 20162.3 806.281 1
-5 -8 -4 20856.9 754.029 21
-5 -8 -4 20612.2 403.416 52
-5 -8 -4 20171.3 415.524 19
5 8 5 4352.41 430.239 36
5 8 5 3756.88 163.65 7
-5 -8 -5 4409.61 179.001 65
5 8 5 4611.14 211.343 62
-5 -8 -5 4597.17 355.859 21
-5 -8 -5 4299.55 184.645 53
5 8 5 4467.48 378.212 1
-5 -8 -5 4254.05 187.93 52
-5 -8 -5 4138.09 194.307 19
5 8 6 1143.79 237.832 36
-5 -8 -6 1060.5 87.4747 65
-5 -8 -6 1175.78 102.761 53
-5 -8 -6 1260.43 189.72 21
-5 -8 -6 1155.3 100.571 52
-5 -8 -6 1159.34 109.948 19
5 8 7 475.337 134.872 37
5 8 7 603.083 176.297 36
-5 -8 -7 740.062 86.1115 53
-5 -8 -7 677.524 81.7504 52
-5 -8 -7 636.58 85.8711 19
5 8 8 3624.82 363.852 37
5 8 8 3004.64 382.56 36
-5 -8 -8 3572.12 177.211 12
-5 -8 -8 3767.1 189.438 53
-5 -8 -8 3779.6 197.265 19
5 8 9 3980.63 375.661 37
5 8 9 3830.01 447.043 36
5 8 9 4456.09 446.739 29
-5 -8 -9 4542.46 199.531 12
-5 -8 -9 4914.01 216.903 53
-5 -8 -9 4508.45 217.339 19
5 8 10 4348.3 389.071 37
5 8 10 4180.87 449.828 36
-5 -8 -10 4739.53 198.247 12
-5 -8 -10 4911.18 213.972 53
-5 -8 -10 4459.12 214.831 19
5 8 11 1634.94 226.733 37
-5 -8 -11 1351.97 102.239 12
-5 -8 -11 1388.77 120.67 19
-5 -8 -12 2090.43 114.906 12
-5 -8 -12 2260.13 139.018 19
-5 -8 -13 10719.3 261.388 19
-5 -8 -14 1078.13 71.0564 19
-5 -9 8 503.594 35.9871 8
5 9 -8 506.889 53.475 15
-5 -9 8 532.286 45.2565 56
5 9 -8 449.305 44.5641 9
-5 -9 8 455.446 39.3534 49
-5 -9 8 575.756 45.779 45
5 9 -7 -24.0707 35.2252 15
-5 -9 7 4.5046 17.0314 8
5 9 -7 -6.58389 33.1252 61
-5 -9 7 -7.47345 26.1073 56
5 9 -7 6.01452 30.947 9
-5 -9 7 33.6941 24.7728 45
-5 -9 7 -7.34488 19.0464 43
5 9 -6 3277.87 166.964 15
5 9 -6 3334.66 160.77 61
-5 -9 6 3230.65 137.628 43
-5 -9 6 3120.93 139.959 45
5 9 -5 1162.6 110.552 15
5 9 -5 1296.29 111.83 61
-5 -9 5 1075.59 92.0339 45
-5 -9 5 1063.62 90.2475 43
5 9 -4 795.123 94.6136 7
5 9 -4 725.756 91.1094 61
-5 -9 4 763.551 82.9418 45
-5 -9 4 701.124 79.2277 43
5 9 -3 1975.71 146.406 7
-5 -9 3 1908.56 122.443 65
-5 -9 3 1695.99 123.027 63
5 9 -3 1865.11 141.194 61
-5 -9 3 1716.32 115.911 45
-5 -9 3 1827.49 124.484 43
5 9 -2 988.879 109.028 7
-5 -9 2 1113.66 97.734 65
-5 -9 2 984.005 97.4993 63
5 9 -2 1087.26 112.341 61
-5 -9 2 1002.65 89.1651 45
-5 -9 2 1000.8 92.6954 43
5 9 -1 2897.3 177.226 7
-5 -9 1 2708.79 152.439 65
-5 -9 1 2744.63 157.706 63
-5 -9 1 2728.88 139.745 45
-5 -9 1 2606.58 144.026 43
5 9 0 832.752 97.6298 7
-5 -9 0 757.33 85.497 65
-5 -9 0 763.71 84.0636 63
-5 -9 0 889.835 78.8637 45
5 9 0 840.668 96.1679 44
-5 -9 0 778.183 80.0056 43
5 9 1 4516.61 210.883 7
-5 -9 -1 4842.04 201.006 65
-5 -9 -1 4855.57 198.65 52
5 9 1 4783.92 220.603 44
-5 -9 -1 4632.66 179.513 43
-5 -9 -2 71.6012 33.3681 65
5 9 2 67.9938 38.3498 7
-5 -9 -2 57.1965 33.8086 52
5 9 2 132.649 49.7878 44
5 9 2 -1.00537 49.5247 62
-5 -9 -2 65.8245 27.1039 43
5 9 3 15550.4 367.202 7
-5 -9 -3 16263.5 357.609 65
5 9 3 16190.7 399.773 62
5 9 3 15296.8 398.282 60
-5 -9 -3 16177.4 368.042 52
-5 -9 -3 15688 373.971 19
5 9 3 15819.9 406.422 44
-5 -9 -4 5114.05 199.07 65
5 9 4 5145.83 205.734 7
5 9 4 5248.64 231.604 62
-5 -9 -4 5102.26 210.74 52
-5 -9 -4 5163.1 219.124 19
5 9 5 1776.02 119.093 7
5 9 5 1650.12 135.107 62
-5 -9 -5 1787.64 122.305 53
-5 -9 -5 1682.75 123.54 52
-5 -9 -5 1907.56 122.011 65
-5 -9 -5 1635.44 129.204 19
5 9 6 2.67782 98.3254 36
-5 -9 -6 118.472 35.1223 65
5 9 6 49.0543 50.7356 62
5 9 6 53.5618 32.1538 7
-5 -9 -6 73.0512 38.9879 53
-5 -9 -6 37.4482 29.421 52
5 9 6 14.3019 36.3305 50
-5 -9 -6 71.0733 51.3673 19
5 9 7 16418 863.638 36
-5 -9 -7 16895.5 388.666 53
-5 -9 -7 16197.3 379.962 52
-5 -9 -7 16123.4 400.246 19
5 9 7 16051.9 398.84 62
-5 -9 -8 8089.78 261.271 12
-5 -9 -8 8392.34 276.272 53
-5 -9 -8 7897.15 282.238 19
5 9 9 3304.83 400.398 36
-5 -9 -9 3803.73 176.87 12
-5 -9 -9 3839.81 187.21 53
-5 -9 -9 3954.88 199.414 19
-5 -9 -10 5109.9 193.396 12
-5 -9 -10 5392.97 215.456 53
-5 -9 -10 5113.22 219.274 19
-5 -9 -11 1346.53 94.8995 12
-5 -9 -11 1267.14 108.411 19
-5 -9 -12 2537.52 133.144 19
-5 -9 -13 3.90479 26.0158 19
5 9 13 -4.58551 32.1722 62
-5 -10 7 364.68 34.7654 8
5 10 -7 319.859 46.2693 15
-5 -10 7 306.036 29.4614 49
-5 -10 7 349.815 38.4445 56
5 10 -7 289.762 34.9298 9
-5 -10 7 318.916 38.1661 45
-5 -10 7 324.583 34.0933 43
5 10 -6 23.2219 36.7661 15
-5 -10 6 9.74676 18.6692 8
5 10 -6 12.6585 30.3322 61
-5 -10 6 28.5667 20.4026 49
-5 -10 6 14.9994 23.115 45
-5 -10 6 30.2559 21.9551 43
5 10 -5 2119.5 132.259 15
5 10 -5 2014.31 122.094 61
-5 -10 5 2012.94 110.02 45
-5 -10 5 1908.77 107.3 43
5 10 -4 1135.88 105.162 15
5 10 -4 930.703 93.0873 7
-5 -10 4 921.614 76.241 65
5 10 -4 902.954 90.8988 61
-5 -10 4 894.83 79.8622 45
-5 -10 4 925.551 83.944 43
5 10 -3 2378.13 152.202 7
-5 -10 3 2257.3 128.451 65
5 10 -3 2326.63 146.272 61
-5 -10 3 2223.43 125.302 45
-5 -10 3 2307.7 133.045 43
-5 -10 2 463.979 64.2515 65
5 10 -2 441.712 73.5105 61
5 10 -2 523.943 81.0545 7
-5 -10 2 479.08 59.9755 45
-5 -10 2 512.934 66.7351 43
-5 -10 1 415.838 64.8239 65
5 10 -1 349.079 72.8188 7
-5 -10 1 406.032 56.0239 45
-5 -10 1 427.147 62.4347 43
-5 -10 0 139.261 42.7576 65
5 10 0 151.277 47.5384 7
-5 -10 0 189.094 45.376 52
-5 -10 0 216.69 41.0272 45
-5 -10 0 205.137 46.1768 43
5 10 1 4816.37 217.871 7
-5 -10 -1 4629.33 198.545 65
-5 -10 -1 4685.72 197.069 52
5 10 1 4611.29 208.424 44
-5 -10 -1 4857.44 182.65 43
5 10 2 593.523 81.6348 7
-5 -10 -2 567.954 73.2447 65
-5 -10 -2 625.332 75.811 52
5 10 2 623.702 84.1832 44
-5 -10 -2 611.51 65.1395 43
5 10 3 4706.41 205.633 7
-5 -10 -3 4778.47 196.991 65
-5 -10 -3 4747.18 204.21 52
5 10 3 4879.68 220.279 62
5 10 3 4578.4 216.451 44
-5 -10 -4 250.548 50.0963 65
5 10 4 302.822 70.7217 62
5 10 4 253.722 62.9311 60
5 10 4 300.159 59.8101 7
-5 -10 -4 239.255 53.5515 52
-5 -10 -4 231.234 57.835 19
5 10 4 289.159 65.4458 44
-5 -10 -5 5075.84 220.727 19
5 10 5 4928.31 198.461 7
-5 -10 -5 4799.89 190.002 65
5 10 5 4760.75 217.894 62
-5 -10 -5 5270.28 206.04 53
-5 -10 -5 4615.54 202.497 52
5 10 6 6396.25 218.485 7
-5 -10 -6 6405.53 211.333 65
5 10 6 6599.52 254.561 62
-5 -10 -6 6632.33 236.58 53
-5 -10 -6 6633.14 242.255 52
-5 -10 -6 6608.34 253.114 19
5 10 7 11205.4 276.378 7
-5 -10 -7 11264 309.861 53
5 10 7 11245.1 329.044 62
-5 -10 -7 10891.1 304.889 52
-5 -10 -7 11364.7 329.394 19
-5 -10 -8 2325.12 134.483 12
5 10 8 2431.29 157.327 62
-5 -10 -8 2432.59 145.446 53
-5 -10 -8 2346.15 151.137 19
5 10 8 2364.79 126.858 50
-5 -10 -9 14916.8 320.69 12
-5 -10 -9 15766.3 354.245 53
-5 -10 -9 15422.4 366.371 19
5 10 9 15510.9 365.549 62
-5 -10 -10 775.099 71.2341 12
-5 -10 -10 901.567 92.4486 19
5 10 10 928.53 96.6089 62
-5 -10 -11 897.67 82.2128 19
5 10 11 944.288 86.7676 62
-5 -10 -12 1470.12 90.6518 19
5 10 12 1358.72 88.5059 62
5 10 13 19.8332 21.0512 62
-5 -10 -13 -16.4514 22.857 19
5 11 -6 13.7367 23.8649 15
-5 -11 6 24.0069 16.1575 8
-5 -11 6 3.48724 16.1175 56
5 11 -6 -0.69798 16.8603 61
-5 -11 6 14.3941 17.3081 45
-5 -11 6 16.4127 18.375 43
5 11 -5 290.79 49.8781 15
5 11 -5 274.409 43.7297 61
-5 -11 5 213.79 34.63 56
-5 -11 5 239.944 38.1971 45
-5 -11 5 252.917 39.2202 43
5 11 -4 3147.52 151.594 15
-5 -11 4 2926.59 115.987 65
5 11 -4 2892.67 135.822 61
-5 -11 4 2893.72 121.255 45
-5 -11 4 2952.69 128.534 43
5 11 -3 4319.47 180.066 7
-5 -11 3 4133.61 156.471 65
5 11 -3 4429.72 178.723 61
-5 -11 3 4274.63 152.95 45
-5 -11 3 4273.81 162.885 43
5 11 -2 8607.29 267.652 7
-5 -11 2 8101.05 236.857 65
5 11 -2 8346.14 255.424 61
-5 -11 2 7828.1 208.781 45
-5 -11 2 8367.3 234.319 43
5 11 -1 38.1607 37.7225 61
-5 -11 1 20.47 35.1778 65
5 11 -1 -41.1023 46.8837 7
-5 -11 1 -7.08639 21.9472 45
-5 -11 1 20.533 26.7633 43
-5 -11 0 12.1027 30.8113 65
-5 -11 0 -7.37762 24.1608 52
5 11 0 6.51919 43.7526 7
-5 -11 0 7.64398 27.9008 43
-5 -11 -1 -7.17937 35.5304 65
5 11 1 13.7623 40.3381 7
-5 -11 -1 33.1099 29.8613 52
5 11 1 40.4562 39.6836 44
-5 -11 -1 20.807 22.7264 43
-5 -11 -2 158.549 47.1052 65
5 11 2 242.463 56.6637 7
-5 -11 -2 179.295 44.0722 52
5 11 2 175.613 50.0724 44
5 11 3 722.681 83.5062 7
-5 -11 -3 707.097 83.5855 52
5 11 3 674.697 84.6965 44
-5 -11 -3 806.758 84.4781 65
5 11 4 780.926 84.357 7
-5 -11 -4 721.057 77.1315 65
5 11 4 743.608 92.1687 62
-5 -11 -4 770.749 85.8944 52
5 11 4 743.48 90.2973 44
5 11 5 93.7528 35.3664 7
-5 -11 -5 148.817 39.5744 53
-5 -11 -5 110.762 45.4288 52
5 11 5 85.0923 53.5648 62
-5 -11 -5 102.372 35.8098 65
5 11 5 114.465 50.328 44
-5 -11 -6 350.696 69.1917 19
5 11 6 306.56 53.1959 7
5 11 6 399.463 72.0202 62
-5 -11 -6 443.715 63.9476 53
-5 -11 -6 412.434 67.2118 52
5 11 6 442.636 69.3523 60
-5 -11 -6 331.306 50.3001 65
5 11 7 2394.88 124.02 7
5 11 7 2543.89 153.131 62
-5 -11 -7 2430.12 147.219 19
-5 -11 -7 2492.03 138.535 53
5 11 8 20.0692 48.258 62
-5 -11 -8 13.7447 27.1021 12
-5 -11 -8 49.5218 36.5784 53
-5 -11 -8 -22.9605 42.5425 19
-5 -11 -9 347.887 48.8053 12
-5 -11 -9 334.966 53.4673 53
-5 -11 -9 420.001 64.2422 19
5 11 9 326.044 65.7365 62
-5 -11 -10 2564.58 102.922 12
5 11 10 2525.21 129.659 62
-5 -11 -10 2744.9 131.921 19
5 11 11 1251.03 82.5794 62
-5 -11 -11 1291.98 83.3259 19
5 11 12 1247.6 67.2832 62
-5 -11 -12 1204.78 65.8069 19
5 12 -5 -3.2209 21.7767 15
-5 -12 5 3.77739 13.2623 8
-5 -12 5 11.8978 15.9469 43
5 12 -4 848.057 69.1864 15
5 12 -4 839.081 61.6043 61
-5 -12 4 763.46 46.1451 56
-5 -12 4 777.537 51.2109 45
-5 -12 4 834.898 58.455 43
-5 -12 4 755.894 48.767 65
5 12 -3 809.585 74.9072 15
5 12 -3 701.463 65.6454 7
5 12 -3 765.221 66.9809 61
-5 -12 3 758.497 59.5729 65
-5 -12 3 685.73 53.1046 45
-5 -12 3 779.491 62.7248 43
5 12 -2 1221.59 91.6334 7
-5 -12 2 1267.15 86.6157 65
5 12 -2 1223.98 88.9825 61
-5 -12 2 1154.64 68.508 45
-5 -12 2 1189.94 80.7731 43
5 12 -1 2234.5 128.963 7
-5 -12 1 2092.33 117.232 65
5 12 -1 2048.18 118.597 61
-5 -12 1 1893.79 100.992 43
5 12 0 1913.55 123.935 7
-5 -12 0 1720.45 112.588 65
5 12 0 1825.81 116.372 61
-5 -12 0 1779.28 104.557 52
-5 -12 0 1673.56 95.533 43
5 12 1 5561.6 208.549 7
-5 -12 -1 5440.64 197.952 65
-5 -12 -1 5552.24 192.427 52
-5 -12 -1 5264.88 161.235 43
5 12 2 11272.1 292.194 7
-5 -12 -2 11012.5 276.845 65
-5 -12 -2 11023.7 279.104 52
-5 -12 -3 -4.59351 26.7718 65
5 12 3 47.1522 35.6877 7
-5 -12 -3 6.65277 29.7671 52
5 12 3 -3.36295 26.3668 44
-5 -12 -4 -1.64948 27.1669 65
5 12 4 -20.9097 32.5144 7
-5 -12 -4 54.2943 33.3689 52
5 12 4 -9.16404 32.6165 44
-5 -12 -5 66.338 29.5319 65
5 12 5 36.295 42.6386 62
5 12 5 89.396 37.4196 7
-5 -12 -5 37.0895 36.6014 52
5 12 5 93.0505 42.0605 44
5 12 6 2900.74 134.078 7
5 12 6 2868.35 146.985 62
-5 -12 -6 2751.5 116.64 65
-5 -12 -6 3091.76 134.89 53
-5 -12 -6 2867.03 142.756 52
5 12 6 2776.62 143.109 44
5 12 7 9562.61 255.223 62
5 12 7 9784.99 223.79 7
-5 -12 -7 10026.1 240.314 53
-5 -12 -7 9676.25 230.017 12
5 12 7 9351.26 253.334 44
-5 -12 -8 6.19349 19.8314 12
5 12 8 25.0759 37.5007 62
-5 -12 -8 9.40686 29.744 19
5 12 8 -3.47073 31.3968 44
-5 -12 -9 52.1405 23.6225 12
5 12 9 37.1722 33.865 62
-5 -12 -9 -10.9852 29.5405 19
5 12 9 -0.89713 33.5531 44
5 12 10 -2.86108 26.9364 62
-5 -12 -10 37.4566 25.8529 19
5 12 10 22.8556 27.08 44
5 13 -3 1189.18 69.3152 15
-5 -13 3 1034.74 52.8728 65
-5 -13 3 1101.2 55.0336 43
5 13 -2 5267.81 156.732 15
5 13 -2 5491.85 147.713 7
-5 -13 2 5299.26 139.241 65
5 13 -2 4960.29 132.71 61
-5 -13 2 5118 126.004 43
5 13 -1 228.975 38.6102 61
-5 -13 1 211.714 36.643 65
5 13 -1 263.683 43.4196 7
-5 -13 1 207.467 31.5243 43
-5 -13 0 105.451 33.5299 65
5 13 0 97.3611 35.7818 61
5 13 0 140.931 41.0832 7
-5 -13 0 87.0528 26.0729 52
-5 -13 0 135.672 26.434 43
5 13 1 760.06 71.8289 7
-5 -13 -1 923.785 73.3699 65
5 13 1 878.503 72.4346 61
-5 -13 -1 873.99 67.4637 52
5 13 2 1224.98 88.5061 7
-5 -13 -2 1207.92 83.7308 52
-5 -13 -2 1175.09 81.6465 65
-5 -13 -3 34.8226 28.5504 65
5 13 3 10.0362 29.0935 7
-5 -13 -3 36.6526 29.651 52
-5 -13 -4 135.854 32.3795 65
-5 -13 -4 113.19 36.1902 52
5 13 4 121.981 36.8921 7
-5 -13 -5 176.829 31.4583 65
5 13 5 237.472 43.2383 7
5 13 5 237.919 40.2459 44
-5 -13 -6 -20.9533 21.2037 12
5 13 6 -0.1902 24.6951 44
5 13 7 1065.95 62.5549 7
-5 -13 -7 1014.03 61.6473 12
5 13 7 1059.68 71.1733 44
5 13 8 1365.1 74.4286 44
5 14 0 1765.24 76.1361 7
-5 -14 0 1716.22 72.2595 65
5 14 1 1360.41 71.9152 7
-5 -14 -1 1269.67 65.8946 65
5 14 1 1173.99 59.1095 61
5 14 2 19.8522 19.1676 61
5 14 2 20.1318 19.8236 7
-5 -14 -2 -10.1414 17.1182 65
5 14 3 1087.41 66.7336 7
-5 -14 -3 1020.74 58.0678 65
5 14 3 1081.57 61.5759 61
5 14 4 6377.3 149.998 7
-5 -14 -4 5117.6 114.339 65
5 14 5 2113.39 81.3983 7
-5 -14 -5 1759.44 69.5709 12
6 -11 -2 45.2598 19.0953 53
6 -11 -1 1035.11 70.1135 53
-6 11 0 28.4394 18.1484 14
6 -11 0 8.3823 22.9523 53
-6 11 -1 9.83352 17.1514 14
6 -11 1 8.79458 27.6713 53
-6 11 -2 378.388 42.5449 14
6 -11 2 400.247 52.5179 53
-6 11 -3 197.282 33.9135 14
6 -11 3 205.973 40.9505 53
-6 11 -4 22.7789 21.8644 14
6 -11 4 -18.2503 20.4829 65
6 -11 4 2.86798 19.8626 55
6 -11 4 32.1541 24.7074 53
-6 11 -5 535.787 49.2907 14
6 -11 5 486.614 46.5983 65
6 -11 5 620.389 59.1243 57
6 -11 5 526.866 52.8466 55
6 -11 5 549.843 53.6488 53
-6 11 -6 264.8 35.0787 14
6 -11 6 292.819 37.0712 65
6 -11 6 236.451 31.7639 53
6 -11 6 256.363 38.4571 55
-6 11 -7 233.865 28.9479 14
6 -11 7 193.003 30.0029 65
6 -11 7 178.895 31.7061 55
-6 10 4 1490.66 65.2612 7
6 -10 -4 1525.14 76.5483 51
-6 10 3 285.81 34.2764 7
6 -10 -3 268.08 38.0589 53
6 -10 -3 345.236 43.8837 51
-6 10 2 421.491 42.1268 7
6 -10 -2 385.176 51.1829 53
6 -10 -2 496.358 56.4592 51
-6 10 1 2553.88 101.219 14
-6 10 1 2404.26 98.1162 7
6 -10 -1 2436.44 129.552 53
6 -10 -1 2393.59 118.876 51
-6 10 0 1152.88 76.234 14
6 -10 0 962.367 89.5505 53
6 -10 0 1167.26 84.2886 51
-6 10 -1 19.295 25.4275 14
6 -10 1 63.7551 31.628 57
6 -10 1 1.74425 33.501 53
-6 10 -2 1970.45 106.276 14
-6 10 -2 2039.35 96.3271 11
6 -10 2 1890.57 116.588 57
6 -10 2 1747.93 102.033 55
6 -10 2 1829.67 125.388 53
-6 10 -3 1064.58 82.3203 14
-6 10 -3 968.355 72.5868 11
6 -10 3 991.065 94.0364 53
6 -10 3 963.553 88.5476 57
6 -10 3 873.364 77.7788 55
-6 10 -4 911.302 76.8461 14
6 -10 4 786.629 76.953 55
6 -10 4 841.616 81.811 57
6 -10 4 842.182 85.4682 53
-6 10 -4 840.113 70.5813 11
-6 10 -5 280.605 46.6474 14
-6 10 -5 325.283 47.5705 11
6 -10 5 284.354 51.9256 57
6 -10 5 265.514 53.9053 53
6 -10 5 199.37 45.0133 55
-6 10 -6 20.0995 28.1503 14
-6 10 -6 16.5827 24.6084 11
6 -10 6 -4.17469 31.486 57
6 -10 6 11.6359 29.3374 55
6 -10 6 8.26913 26.1683 53
-6 10 -7 481.062 50.5874 14
6 -10 7 415.588 56.3843 55
6 -10 7 379.547 53.2973 57
-6 10 -7 448.041 51.4471 11
6 -10 7 438.831 50.2941 53
-6 10 -7 460.006 46.5101 17
-6 10 -8 364.326 38.8375 14
6 -10 8 319.785 42.7824 57
6 -10 8 387.244 49.9744 55
-6 10 -8 378.612 38.3194 17
6 -10 9 251.027 36.2987 65
6 -10 9 275.035 39.8664 55
-6 9 6 1159.48 54.9282 7
6 -9 -6 1307.92 67.8851 51
-6 9 5 30.0123 21.7205 7
6 -9 -5 19.5882 23.7778 51
-6 9 4 265.922 39.7663 7
-6 9 4 208.589 34.0891 54
6 -9 -4 257.823 47.2449 51
-6 9 3 9.49776 25.2028 7
6 -9 -3 16.7633 25.0158 53
6 -9 -3 43.5313 31.8758 51
-6 9 3 13.2595 25.1304 54
-6 9 2 504.148 50.1088 14
-6 9 2 591.167 58.555 7
6 -9 -2 451.243 64.4291 53
6 -9 -2 505.051 70.6 51
-6 9 2 505.845 53.4173 8
-6 9 1 195.412 38.3655 8
-6 9 1 270.274 43.7806 7
6 -9 -1 262.967 58.2846 53
6 -9 -1 234.958 57.117 51
6 -9 0 1057.92 97.5302 51
6 -9 0 1062.81 88.72 57
-6 9 0 999.438 73.8419 7
6 -9 0 1232.45 111.125 53
-6 9 0 1047.62 82.7522 8
-6 9 -1 32.1631 27.5386 8
6 -9 1 31.1695 26.6421 57
6 -9 1 23.7439 36.9516 53
6 -9 1 55.4238 34.4212 51
-6 9 -2 5514.24 180.252 11
6 -9 2 5259.63 210.6 57
6 -9 2 5195.2 195.009 55
6 -9 2 5309.48 231.258 53
-6 9 -2 5353.94 185.469 8
6 -9 3 1838.23 122.115 55
-6 9 -3 1971.49 114.396 11
6 -9 3 2080.51 147.703 53
6 -9 3 2100.43 137.235 57
-6 9 -4 44.3766 31.9993 11
-6 9 -4 32.6336 30.1296 14
6 -9 4 36.4007 39.3114 57
6 -9 4 24.1185 34.3254 55
6 -9 4 -7.48139 34.3611 53
-6 9 -5 3264.6 150.206 14
-6 9 -5 3094.14 145.78 11
6 -9 5 2914.28 161.559 57
6 -9 5 2981.94 160.747 55
6 -9 5 2885.06 166.166 53
6 -9 6 205.016 52.2063 53
-6 9 -6 117.041 36.8466 14
-6 9 -6 189.026 44.5715 11
6 -9 6 229.906 52.6833 57
6 -9 6 143.239 47.8431 55
-6 9 -7 11.202 24.1232 14
-6 9 -7 16.2664 30.1985 11
6 -9 7 10.734 30.4643 57
6 -9 7 57.4889 33.9578 53
6 -9 7 -23.479 36.9393 55
-6 9 -7 2.93194 22.3216 17
-6 9 -8 880.591 73.5663 11
6 -9 8 963.648 84.3535 57
-6 9 -8 843.125 68.0337 14
6 -9 8 925.838 87.3813 55
6 -9 8 912.398 80.0132 53
-6 9 -8 848.71 67.7799 17
-6 9 -9 558.929 56.7155 11
6 -9 9 615.944 61.6022 57
6 -9 9 586.104 68.1913 55
-6 9 -9 568.712 51.0953 17
-6 9 -10 82.045 21.4782 17
6 -9 10 40.7133 27.07 55
6 -9 11 589.633 45.4581 65
-6 8 7 5577.46 120.484 7
6 -8 -7 5554.3 141.084 51
-6 8 6 1573.39 78.9945 7
-6 8 6 1423.19 69.8843 54
6 -8 -6 1522.42 94.5899 51
-6 8 5 2063.2 100.789 7
-6 8 5 1808 87.8192 54
6 -8 -5 1967.98 121.077 51
-6 8 4 215.223 42.2143 7
-6 8 4 196.68 37.8407 54
6 -8 -4 210.434 52.9995 51
-6 8 3 163.962 34.4921 8
6 -8 -3 182.597 45.7452 53
-6 8 3 158.837 38.1576 7
-6 8 3 148.01 38.6255 54
6 -8 -3 107.388 44.9422 51
6 -8 -2 13436 350.435 53
6 -8 -2 13627.1 368.554 51
-6 8 2 14315.9 290.252 8
-6 8 2 14058.5 291.806 7
-6 8 1 212.06 42.6911 8
-6 8 1 213.257 44.3897 7
6 -8 -1 202.132 52.7128 53
6 -8 -1 162.329 53.4162 51
-6 8 0 -13.8474 28.0412 8
6 -8 0 44.986 34.07 57
-6 8 0 58.8729 29.4858 7
6 -8 0 -2.12073 35.5968 53
6 -8 0 38.0659 28.7794 51
6 -8 1 2873.8 160.142 57
6 -8 1 2663.83 171.734 53
6 -8 1 2728.21 169.968 51
-6 8 -1 2657.39 138.782 8
6 -8 2 1303.92 117.098 51
-6 8 -2 1458.92 99.0896 11
6 -8 2 1299.89 112.385 57
6 -8 2 1246.79 102.531 55
6 -8 2 1190.74 117.887 53
-6 8 -2 1357.46 101.166 8
-6 8 -3 2943.15 145.197 11
6 -8 3 2841.43 166.708 57
6 -8 3 2790.86 157.611 55
6 -8 3 2677.36 175.828 53
-6 8 -3 2895.03 144.368 8
-6 8 -4 8658.35 250.254 11
6 -8 4 8527.88 287.737 57
6 -8 4 7977.56 298.682 53
-6 8 -4 8276.21 239.209 8
6 -8 5 280.455 62.4902 53
-6 8 -5 391.829 59.4461 11
-6 8 -6 4719.23 184.748 14
-6 8 -6 4634.05 186.18 11
6 -8 6 4739.48 223.92 53
-6 8 -7 432.075 63.47 11
6 -8 7 324.58 62.1798 57
6 -8 7 372.049 66.7043 53
-6 8 -8 100.307 35.4192 14
-6 8 -8 115.549 38.6789 11
6 -8 8 60.5219 38.1879 57
6 -8 8 99.7985 44.231 53
-6 8 -8 123.846 35.5874 17
-6 8 -9 1380.67 94.2428 11
6 -8 9 1402.89 104.357 57
-6 8 -9 1331.81 88.5646 17
-6 8 -10 773.897 58.0847 20
-6 8 -10 776.675 66.4743 11
6 -8 10 838.661 71.3684 57
-6 8 -10 764.073 63.2637 17
-6 8 -11 2358.45 96.9682 17
6 -8 11 2686.79 124.857 55
-6 7 7 510.645 47.9221 7
-6 7 7 424.705 41.9836 54
6 -7 -7 462.417 54.9542 51
-6 7 7 456.354 45.1918 47
-6 7 6 2498.75 106.839 54
6 -7 -6 2494.34 137.968 51
6 -7 -6 2394.4 125.678 10
-6 7 6 2541.31 112.752 47
6 -7 -5 9465.79 267.703 10
-6 7 5 9107.13 216.212 54
6 -7 -5 9838 298.762 51
-6 7 5 9588.25 232.339 47
-6 7 4 30003.7 430.016 47
6 -7 -4 30829 505.92 10
-6 7 4 30076.5 407.582 54
6 -7 -4 29916.5 554.12 51
-6 7 4 30713.3 391.957 8
-6 7 3 25.2637 33.376 47
-6 7 3 25.07 26.9012 54
6 -7 -3 14.1948 38.7071 10
6 -7 -3 36.2847 33.1819 53
6 -7 -3 -23.8267 43.2918 51
-6 7 2 79.8209 36.6195 8
6 -7 -2 90.4647 44.1579 53
6 -7 -2 58.432 43.0725 10
6 -7 -2 78.2335 46.1736 51
-6 7 2 159.275 44.8781 47
6 -7 -1 1431.83 232.814 38
-6 7 1 1059.31 166.067 33
6 -7 -1 1175.1 105.581 10
6 -7 -1 1113.74 111.563 53
6 -7 -1 1050.34 112.691 51
-6 7 1 995.859 87.5114 47
-6 7 1 1043.34 87.0336 8
-6 7 0 1338.85 185.387 33
6 -7 0 1175.92 102.177 57
6 -7 0 1308.72 109.614 10
6 -7 0 1149.31 115.732 53
6 -7 0 1121.45 117.849 51
-6 7 0 1155.81 93.7994 8
6 -7 1 4801.14 233.719 53
6 -7 1 4851.1 209.074 57
-6 7 -1 5154.05 181.129 11
6 -7 1 4812.73 234.012 51
-6 7 -1 5290.04 193.448 8
-6 7 -2 11291.3 277.024 11
6 -7 2 11571.6 363.37 53
6 -7 2 11114.1 349.805 51
-6 7 -2 11813 288.139 8
-6 7 -3 2562.35 137.374 11
6 -7 3 2532.88 174.374 53
6 -7 3 2740.95 172.523 51
-6 7 -3 2635.39 137.472 8
-6 7 -4 960.198 87.1012 11
6 -7 4 986.877 110.515 53
-6 7 -4 1054.88 88.7782 8
6 -7 5 413.687 78.1805 53
-6 7 -5 450.634 63.4976 11
-6 7 -5 415.285 57.13 8
-6 7 -6 113.731 39.5217 11
6 -7 6 225.03 63.8385 53
-6 7 -7 1641.48 109.315 14
-6 7 -7 1604.6 112.95 11
6 -7 7 1653.23 138.453 53
6 -7 8 1915.85 243.926 35
-6 7 -8 1644.69 105.583 14
-6 7 -8 1572.03 109.676 11
6 -7 8 1575.35 131.62 53
-6 7 -8 1816.03 113.525 17
-6 7 -9 195.957 44.4307 11
6 -7 9 152.738 48.6537 53
-6 7 -9 193.378 41.7893 20
-6 7 -9 186.388 41.8085 17
-6 7 -10 83.4614 33.2383 11
6 -7 10 93.5513 34.9376 57
-6 7 -10 95.3717 33.6291 20
-6 7 -10 73.1489 26.8782 17
-6 7 -11 4225.43 147.712 20
-6 7 -11 4118.36 147.009 17
-6 7 -12 724.245 58.5204 20
-6 7 -12 651.346 54.7141 17
6 -6 -8 18.7676 22.9663 10
-6 6 8 31.3396 20.9872 7
-6 6 8 58.6578 22.5887 54
6 -6 -8 38.7278 24.2094 51
-6 6 8 59.5481 24.1286 47
-6 6 7 31.05 27.2298 54
6 -6 -7 39.903 32.1736 10
6 -6 -7 32.2468 28.3686 51
-6 6 7 42.2266 29.4885 47
6 -6 -6 1150.87 102.07 10
6 -6 -6 1335.95 115.349 51
-6 6 6 1228.08 87.3448 47
6 -6 -5 4068.56 193.333 10
6 -6 -5 4362.92 216.648 51
-6 6 5 4165.32 164.465 47
6 -6 -4 8218.96 280.924 10
6 -6 -4 8342.01 309.882 51
-6 6 4 8538.5 240.954 47
-6 6 4 8522.6 224.699 8
6 -6 -3 798.786 203.283 38
-6 6 3 827.933 156.552 33
6 -6 -3 829.674 94.0467 10
6 -6 -3 879.759 107.921 51
-6 6 3 885.359 82.7709 47
-6 6 3 903.127 79.9011 8
6 -6 -2 2507.43 321.596 38
-6 6 2 2404.47 240.046 33
6 -6 -2 2450.07 154.757 10
6 -6 -2 2436.15 161.876 53
6 -6 -2 2350.02 171.615 51
-6 6 2 2546.26 136.99 47
-6 6 2 2499.69 131.634 8
6 -6 -1 1908.82 279.167 38
-6 6 1 1943.48 228.537 33
6 -6 -1 1983.97 138.135 10
6 -6 -1 1837.7 143.222 53
6 -6 -1 2088.75 161.966 51
-6 6 1 2026.04 123.302 47
-6 6 1 1959.4 117.791 8
6 -6 0 1229.4 217.087 38
-6 6 0 1250.52 177.184 33
6 -6 0 1207.86 106.081 10
6 -6 0 1100.1 111.052 53
6 -6 0 1069.4 118.062 51
-6 6 0 1176.18 94.0096 47
-6 6 0 1298.45 98.4061 8
6 -6 1 2546.39 170.751 53
6 -6 1 2555.44 309.292 38
-6 6 -1 2110.96 241.417 33
-6 6 -1 2299.93 121.474 11
6 -6 1 2348.48 169.352 51
-6 6 -1 2509.56 132.297 8
-6 6 -2 1199.17 185.371 33
-6 6 -2 1286.91 202.195 1
-6 6 -2 1207.06 92.6777 11
6 -6 2 1315.16 126.026 53
6 -6 2 1283.19 126.929 51
-6 6 -2 1382.5 100.14 8
-6 6 -3 6382.52 210.879 11
6 -6 3 6505.37 274.237 53
6 -6 3 6571.4 274.068 51
-6 6 -3 6618 211.587 8
-6 6 -4 8451.45 246.131 11
6 -6 4 8890.96 313.473 51
-6 6 -4 8782.95 243.224 8
6 -6 4 9539.87 669.822 42
-6 6 -5 5481.3 201.617 11
-6 6 -5 5032.62 184 8
6 -6 5 5493.42 516.71 42
-6 6 -6 7636.95 240.575 11
-6 6 -6 7188.11 217.054 8
6 -6 6 8008.39 631.96 42
-6 6 -7 2336.47 137.123 11
6 -6 7 2369.71 344.832 42
-6 6 -8 9267.09 265.252 11
-6 6 -8 9573.67 251.821 20
-6 6 -9 -19.9811 31.8069 11
-6 6 -9 37.4464 28.0764 20
-6 6 -9 5.30828 28.1116 17
-6 6 -10 509.286 62.3741 11
-6 6 -10 473.827 60.7311 20
-6 6 -10 463.307 60.0952 17
6 -6 10 684.767 175.414 42
-6 6 -11 987.246 83.1291 20
-6 6 -11 891.658 78.0232 17
-6 6 -12 211.329 43.6754 20
-6 6 -12 154.099 35.4644 17
-6 6 -13 727.919 61.6373 20
6 -5 -9 1385.52 70.4651 10
-6 5 9 1351.27 63.1193 54
-6 5 9 1398.19 64.4516 47
6 -5 -8 83.8579 32.7802 10
6 -5 -8 90.6899 29.5027 51
-6 5 8 63.5631 26.7943 47
6 -5 -7 129.342 48.0193 10
6 -5 -7 135.382 43.2455 51
-6 5 7 199.703 44.0592 47
6 -5 -6 9675.26 290.887 10
6 -5 -6 9888.51 318.884 51
-6 5 6 9864.12 243.33 48
-6 5 6 9592.37 247.709 47
6 -5 -5 233.774 65.5185 51
-6 5 5 125.34 40.1775 48
-6 5 5 138.157 42.5642 47
6 -5 -4 865.799 201.506 38
-6 5 4 1090.21 161.486 33
6 -5 -4 1160.04 109.633 10
6 -5 -4 1363.36 131.428 51
-6 5 4 1236.75 97.4182 48
-6 5 4 1337.71 99.0977 47
-6 5 4 1246.17 88.5388 8
6 -5 -3 5800.26 502.871 38
-6 5 3 5142.7 348.498 33
6 -5 -3 4834.99 212.411 10
6 -5 -3 5334.27 260.033 51
-6 5 3 5304.12 194.878 48
-6 5 3 5078.19 190.411 47
-6 5 3 5508.94 187.948 8
6 -5 -2 91125.9 1977.38 38
6 -5 -2 89302.4 910.172 58
-6 5 2 86521.9 1418.92 33
6 -5 -2 88310.9 873.766 10
6 -5 -2 89781.5 1053.9 51
-6 5 2 87385.3 779.662 47
-6 5 2 89710.5 756.222 8
6 -5 -1 16140.3 814.449 38
-6 5 1 15056.7 597.265 33
6 -5 -1 15409.2 355.01 10
6 -5 -1 15262.6 361.049 58
6 -5 -1 15759.2 408.068 53
6 -5 -1 15911.8 441.071 51
-6 5 1 15932.9 324.668 47
-6 5 1 16149.3 319.297 8
6 -5 0 1644.11 255.223 22
6 -5 0 1961.26 273.27 38
-6 5 0 1801.35 212.141 33
6 -5 0 2008.87 129.688 10
6 -5 0 1784.91 140.072 53
-6 5 0 1840.76 110.373 47
6 -5 0 1754.77 149.195 51
-6 5 0 1975.29 112.868 8
-6 5 0 1908.02 252.507 1
-6 5 -1 3952.49 311.79 33
6 -5 1 3782.13 367.455 22
6 -5 1 4151.36 210.644 53
6 -5 1 4287.5 226.484 51
-6 5 -1 4138.19 160.626 8
-6 5 -1 3680.37 339.494 1
-6 5 -2 16245 619.839 33
6 -5 2 13984.9 693.917 22
-6 5 -2 14446.1 646.933 1
6 -5 3 150.991 78.648 22
-6 5 -3 322.483 110.675 33
-6 5 -3 551.619 123.372 1
6 -5 3 454.522 171.044 42
6 -5 4 7201.36 495.434 31
6 -5 4 6399.07 436.879 22
-6 5 -4 7619.38 223.874 11
-6 5 -4 6753.24 416.435 1
6 -5 4 6808.15 547.52 42
-6 5 -5 266.004 45.3393 8
6 -5 5 198.309 110.239 31
-6 5 -5 307.333 50.0256 11
6 -5 5 246.312 92.7795 22
6 -5 5 19.2635 124.646 42
6 -5 6 3587.59 391.8 31
-6 5 -6 3543.25 160.015 11
6 -5 6 3017.79 300.027 22
-6 5 -6 3363.04 144.823 8
6 -5 6 2594.66 369.682 42
6 -5 7 24398.1 1015.31 31
-6 5 -7 26074.8 437.855 11
-6 5 -7 25013.8 400.436 20
6 -5 8 834.373 224.356 31
-6 5 -8 682.248 78.515 11
-6 5 -8 825.423 80.6085 20
6 -5 8 626.301 206.137 42
6 -5 9 2162.49 333.87 31
-6 5 -9 2114.83 127.644 11
-6 5 -9 2166.27 128.684 20
6 -5 9 1858.04 327.614 42
-6 5 -10 1140.62 91.0295 11
-6 5 -10 1152.74 97.5211 20
-6 5 -10 1156.54 91.9477 17
6 -5 10 898.071 231.32 42
-6 5 -11 906.553 85.7889 20
-6 5 -11 968.401 84.2436 17
-6 5 -12 1221.4 94.4579 20
-6 5 -12 1105.87 84.8875 17
-6 5 -13 367.297 52.4504 20
-6 5 -14 35.3638 23.85 20
6 -4 -9 947.236 70.263 10
-6 4 9 990.451 62.0322 47
6 -4 -8 577.702 70.0562 10
-6 4 8 676.792 60.0265 48
-6 4 8 627.98 60.1061 47
6 -4 -7 13.9466 41.4304 10
6 -4 -7 -53.954 34.9198 51
-6 4 7 -20.0353 31.8621 48
-6 4 7 -5.59419 28.8638 47
6 -4 -6 2725.52 159.959 10
6 -4 -6 2863.46 179.023 51
-6 4 6 2694.79 136.062 48
-6 4 6 2632.96 133.261 47
6 -4 -5 7448.63 609.577 38
6 -4 -5 7228.69 254.916 10
-6 4 5 6836.86 217.441 48
6 -4 -5 7331.22 297.961 51
-6 4 5 7074.11 199.77 8
6 -4 -4 3722.39 424.677 38
6 -4 -4 4518.4 220.043 58
6 -4 -4 3944.15 188.025 10
6 -4 -4 4145.14 230.431 51
-6 4 4 3923.14 166.385 48
-6 4 4 3978.15 167.03 47
-6 4 4 4303.11 161.732 8
6 -4 -3 108574 2230.73 38
6 -4 -3 103557 1012.46 58
6 -4 -3 102837 917.779 10
6 -4 -3 107250 1152.52 51
-6 4 3 103032 835.361 48
-6 4 3 100852 811.204 47
-6 4 3 104886 792.884 8
6 -4 -2 37926 1274.92 38
-6 4 2 32860.8 991.358 24
6 -4 -2 36429.2 573.272 58
6 -4 -2 36746.1 532.032 10
6 -4 -2 36591.1 669.302 51
6 -4 -2 31370.6 1060.05 1
-6 4 2 37444.6 496.669 48
-6 4 2 35277.7 469.199 47
-6 4 2 36641.8 466.232 8
-6 4 1 3522.1 308.445 24
6 -4 -1 3938.64 360.356 22
6 -4 -1 3957.61 219.333 51
6 -4 -1 3186.41 325.982 1
-6 4 1 4123.97 162.952 48
-6 4 1 3959.74 152.089 8
-6 4 0 19248 747.118 1
-6 4 0 20488.1 661.258 33
-6 4 0 18292.8 649.177 24
6 -4 0 19658.9 802.641 22
-6 4 -1 605.976 126.358 33
6 -4 1 417.506 124.698 22
-6 4 -1 868.076 159.303 1
-6 4 -2 2091.8 217.982 33
6 -4 2 2014.36 245.996 22
-6 4 -2 1990.46 232.426 1
6 -4 2 2176.41 286.27 42
6 -4 3 1126.28 176.688 22
-6 4 -3 1383.96 180.274 33
6 -4 3 1236.52 193.389 31
-6 4 -3 1466.22 186.889 1
6 -4 3 1278.6 236.924 42
-6 4 -4 217.686 86.5032 33
6 -4 4 457.253 127.773 31
6 -4 4 345.534 100.861 22
-6 4 -4 376.08 95.4877 1
6 -4 4 428.642 157.375 42
6 -4 5 10866.9 594.391 31
6 -4 5 10216.6 507.097 22
-6 4 -5 11222.7 480.138 5
6 -4 5 10811.8 674.695 42
-6 4 -6 10536.8 516.138 4
6 -4 6 11422.7 633.63 31
6 -4 6 9426.52 473.708 22
6 -4 6 10472.8 678.47 42
-6 4 -7 45211.9 1137.82 4
6 -4 7 49018.9 1365.41 31
-6 4 -7 48504.2 573.204 11
-6 4 -7 46720.1 545.684 20
6 -4 7 47420.3 1455.04 42
-6 4 -8 53299.2 613.467 11
-6 4 -8 51181.5 594.21 20
6 -4 8 50766.9 1535.09 42
6 -4 9 1550.5 310.993 42
-6 4 -9 1560.28 109.213 11
6 -4 9 1708.53 311.321 31
-6 4 -9 1724.64 117.881 20
6 -4 10 9793.68 693.375 31
-6 4 -10 8617.65 260.055 20
-6 4 -10 8299.65 242.335 17
6 -4 10 9554.17 678.198 42
-6 4 -11 446.078 66.5171 20
-6 4 -11 378.799 56.2827 17
6 -4 11 293.699 167.503 42
-6 4 -12 117.977 43.1819 20
-6 4 -12 122.131 37.6881 17
-6 4 -13 109.539 44.3609 20
-6 4 -14 1738.7 96.8328 20
-6 4 -15 124.38 25.1224 20
-6 3 10 2113.82 73.8185 47
6 -3 -9 579.108 63 10
-6 3 9 607.974 53.116 48
-6 3 9 469.751 49.0661 47
6 -3 -8 77.1902 41.0293 10
-6 3 8 120.146 36.2724 48
6 -3 -7 3601.43 174.893 10
-6 3 7 3226.32 146.095 48
-6 3 6 5790.15 404.42 41
6 -3 -6 6150.81 232.74 10
6 -3 -6 6284.29 263.481 51
-6 3 6 5920.02 203.454 48
-6 3 5 13986.2 629.419 41
6 -3 -5 14961.9 862.845 38
6 -3 -5 14301.1 396.825 58
6 -3 -5 14317.6 351.705 10
6 -3 -5 14856.3 422.586 51
-6 3 5 14227.4 314.305 48
-6 3 5 14735.4 289.347 8
-6 3 4 -41.6906 68.2639 41
6 -3 -4 -89.7407 66.0767 38
6 -3 -4 113.149 47.9343 10
-6 3 4 31.3034 27.8702 8
6 -3 -4 9.31827 35.1939 58
6 -3 -4 6.74404 37.1508 51
-6 3 4 -26.741 40.4057 48
-6 3 3 2929.41 278.953 41
6 -3 -3 2473.22 349.684 38
-6 3 3 2535.63 284.697 24
6 -3 -3 2791.17 166.581 58
6 -3 -3 2870.42 189.601 51
-6 3 3 2796.29 137.151 48
6 -3 -3 2337.62 294.043 1
-6 3 3 2812.09 130.836 8
-6 3 2 3387.64 311.611 24
-6 3 2 3992.39 158.326 48
6 -3 -2 3360.54 333.864 1
-6 3 1 37671 963.92 24
6 -3 -1 38938.7 1077.02 1
-6 3 0 16451.1 592.078 24
6 -3 0 15239.6 652.257 22
6 -3 0 15016.8 643.811 1
-6 3 -1 12139.5 541.326 1
-6 3 -1 11873.2 477.06 33
-6 3 -1 10914.2 445.585 24
6 -3 1 11376.2 544.671 22
6 -3 1 10200.6 505.137 1
6 -3 1 13398.8 668.906 42
-6 3 -2 164.256 75.1841 33
6 -3 2 260.363 84.7507 22
-6 3 -2 121.18 71.9829 1
6 -3 2 102.602 97.3531 42
-6 3 -3 13748.8 535.441 1
-6 3 -3 14658.7 536.044 33
6 -3 3 14973.2 591.202 31
6 -3 3 14126 576.985 22
6 -3 3 12944.5 530.82 1
6 -3 3 12883.4 671.125 42
-6 3 -4 2942.1 244.751 33
6 -3 4 2959.61 279.66 31
6 -3 4 2690.49 247.191 22
6 -3 4 2464.05 225.391 1
6 -3 4 2611.32 311.824 42
6 -3 5 3859.95 332.544 31
6 -3 5 4009.92 365.808 28
6 -3 5 3630.49 276.844 22
6 -3 5 3837.09 276.875 1
-6 3 -5 3774.91 277.729 5
6 -3 5 4089.79 392.379 42
-6 3 -6 14001.5 564.942 4
6 -3 6 15592.2 686.471 31
6 -3 6 14599.4 712.01 28
6 -3 6 14058.4 536.962 22
-6 3 -6 14770.2 566.11 5
6 -3 6 14377.5 743.597 42
-6 3 -7 36708.6 978.18 4
6 -3 7 40360.2 1158.57 31
6 -3 7 37963.9 1193.09 28
-6 3 -7 38366.6 940.259 5
6 -3 7 41017.6 1273.76 42
-6 3 -8 3432 321.29 4
6 -3 8 3497.65 371.275 31
6 -3 8 4104.39 416.895 28
-6 3 -8 3597.75 154.814 11
-6 3 -8 3792.78 163.089 20
-6 3 -8 3122.22 288.981 5
6 -3 8 3924.11 419.12 42
6 -3 9 4321.96 438.289 31
-6 3 -9 3952.32 173.419 12
6 -3 9 4441.48 457.337 28
-6 3 -9 3781.08 162.252 11
-6 3 -9 4277.23 179.882 20
6 -3 9 3984.76 438.991 42
6 -3 10 190.842 132.126 42
6 -3 10 462.254 167.091 31
-6 3 -10 374.903 65.0787 12
-6 3 -10 323.941 59.8048 20
6 -3 11 4307.49 472.702 31
-6 3 -11 3344.29 167.213 20
-6 3 -11 3513.71 158.405 17
6 -3 11 3812.56 440.795 42
-6 3 -12 4652.93 194.781 20
-6 3 -12 4686.91 181.524 17
-6 3 -13 99.6229 41.615 20
-6 3 -14 250.746 44.8331 20
-6 3 -15 360.161 41.4654 20
-6 2 10 112.008 23.6098 48
-6 2 10 126.594 25.832 47
6 -2 -9 975.209 79.8934 10
-6 2 9 923.146 68.2087 48
6 -2 -9 862.334 69.5645 9
6 -2 -8 627.875 74.8546 10
6 -2 -8 622.111 67.85 9
-6 2 8 599.662 64.4593 48
-6 2 7 1854.76 232.471 41
6 -2 -7 2345.91 141.579 10
6 -2 -7 2229.02 127.225 9
-6 2 7 2247.63 125.555 48
-6 2 6 6059.35 413.309 41
6 -2 -6 6133.87 547.624 38
-6 2 6 6114.55 208.985 48
6 -2 -6 6317.7 230.342 10
-6 2 5 2292.63 255.327 41
6 -2 -5 2505 347.38 38
6 -2 -5 2453.55 168.944 51
-6 2 5 2484.13 122.606 49
-6 2 5 2567.18 138.108 48
6 -2 -5 2750.1 177.223 58
-6 2 5 2759.61 127.654 8
-6 2 4 3968.02 326.771 41
6 -2 -4 4344.68 457.78 38
6 -2 -4 4445.61 216.519 58
6 -2 -4 4172.82 223.671 51
-6 2 4 4118.56 154.61 49
-6 2 4 4068.96 167.446 48
6 -2 -4 4082.82 363.141 1
-6 2 4 4332.64 161.035 8
-6 2 3 1348.44 184.101 41
6 -2 -3 1444.01 262.757 38
-6 2 3 1413.52 210.397 24
6 -2 -3 1763.06 132.721 58
6 -2 -3 1698.42 145.096 51
-6 2 3 1652.95 106.497 48
6 -2 -3 1614.09 232.332 1
-6 2 3 1753.07 101.76 8
-6 2 2 193.138 65.7736 41
6 -2 -2 95.9459 66.6669 1
-6 2 2 111.97 62.2478 24
-6 2 1 2670.56 226.395 41
-6 2 1 2342.56 234.469 24
6 -2 -1 2547.04 256.995 1
6 -2 0 1014.24 158.955 1
-6 2 0 1188.88 156.36 24
6 -2 0 1343.66 174.511 22
6 -2 1 576.233 109.391 1
-6 2 -1 504.244 97.1701 24
6 -2 1 644.079 121.748 22
6 -2 1 451.158 133.452 42
-6 2 -2 10213.6 385.095 24
6 -2 2 9934.75 454.588 22
6 -2 2 10205.2 461.372 1
6 -2 2 9821.01 543.279 42
-6 2 -3 47431 898.954 33
6 -2 3 48392.5 966.317 31
6 -2 3 46925.9 1087.56 28
6 -2 3 45442.1 952.225 22
6 -2 3 46805.6 1175.37 42
-6 2 -4 51243.5 957.531 33
6 -2 4 47914 1122.81 28
6 -2 4 46776.4 934 22
6 -2 4 45652.1 909.498 1
6 -2 4 50270.7 1228.27 42
6 -2 5 284.951 118.693 42
6 -2 5 521.291 132.288 39
-6 2 -5 192.218 56.9762 4
6 -2 5 381.903 83.2227 1
-6 2 -5 441.167 98.7348 33
6 -2 5 212.374 108.866 28
6 -2 5 271.678 72.1715 22
-6 2 -5 334.116 100.081 5
-6 2 -6 9944.44 454.45 4
6 -2 6 10952.7 576.871 39
6 -2 6 10713.5 572.349 28
6 -2 6 10009.8 417.207 22
-6 2 -6 10885.9 485.856 5
6 -2 7 1099.53 183.246 39
-6 2 -7 990.103 161.298 4
6 -2 7 913.44 198.827 28
-6 2 -7 979.207 164.386 5
-6 2 -8 10087.2 531.637 4
6 -2 8 11662.5 655.155 28
-6 2 -8 11385.8 539.225 5
-6 2 -9 1676.23 229.527 4
-6 2 -9 1736.13 114.378 12
-6 2 -9 1937.94 122.427 20
-6 2 -9 1644.61 221.743 5
6 -2 10 5245.82 478.613 31
-6 2 -10 4528.34 191.377 12
6 -2 10 4938.01 479.687 28
-6 2 -10 4809.26 195.658 20
6 -2 10 4823.93 481.394 42
6 -2 11 1099.4 244.67 42
6 -2 11 1214.43 266.499 31
-6 2 -11 954.421 97.949 12
6 -2 11 917.572 223.195 28
-6 2 -11 1028.92 94.7666 20
-6 2 -12 11067.7 309.165 12
-6 2 -12 10763.3 299.096 20
-6 2 -13 973.002 89.8765 20
-6 2 -14 2155.08 118.125 20
-6 2 -15 407.019 47.5897 20
-6 1 10 270.28 33.9923 48
6 -1 -9 595.305 67.9539 10
6 -1 -9 553.734 63.425 9
-6 1 9 595.076 58.9488 48
6 -1 -8 5108.31 196.289 10
6 -1 -8 5123.31 189.818 9
-6 1 8 4979.98 175.84 48
-6 1 7 611.47 138.163 41
6 -1 -7 803.319 86.5076 10
6 -1 -7 755.384 80.9862 9
-6 1 7 743.152 65.8148 49
-6 1 7 855.499 82.7186 48
-6 1 6 2689.2 279.455 41
6 -1 -6 2777.53 371.388 38
6 -1 -6 3110.33 190.073 58
6 -1 -6 2720.03 144.265 9
-6 1 6 2810.41 131.141 49
-6 1 5 14376.6 624.127 41
6 -1 -5 15164.3 854.939 38
6 -1 -5 16485 425.685 58
6 -1 -5 15299.9 325.591 9
-6 1 5 15748.9 311.522 49
-6 1 5 16060.3 306.908 8
-6 1 4 69.0966 59.8465 41
6 -1 -4 155.607 110.466 38
-6 1 4 46.1324 29.6132 8
-6 1 4 -262.181 100.29 24
6 -1 -4 47.7585 36.4295 58
6 -1 -4 -134.926 71.3301 2
-6 1 4 32.5249 26.8726 49
6 -1 -4 -150.033 82.2519 1
-6 1 3 8036.5 425.48 41
6 -1 -3 7367.38 466.961 2
-6 1 3 8066.95 472.538 24
6 -1 -3 7600.07 463.905 1
-6 1 2 5060.92 321.239 41
-6 1 2 4420.18 331.536 24
6 -1 -2 4499.18 345.329 1
-6 1 1 105.8 51.6032 41
6 -1 -1 64.1136 50.671 1
-6 1 1 118.983 63.3386 24
-6 1 0 3109.28 219.986 41
-6 1 0 2799.39 230.607 24
6 -1 0 2894.57 254.893 1
-6 1 -1 15338.9 497.242 24
6 -1 1 15101.3 539.114 22
6 -1 1 15383.6 563.133 1
6 -1 1 15658.1 644.729 42
6 -1 2 6531.73 367.335 28
-6 1 -2 5670.83 282.852 24
6 -1 2 5573.15 316.771 22
6 -1 2 5491.49 325.362 1
6 -1 2 6461.33 409.707 42
-6 1 -3 203291 1748.87 33
6 -1 3 204360 2069.3 28
-6 1 -3 193402 1520.28 24
6 -1 3 196798 1800.68 22
6 -1 3 191699 1839.51 1
6 -1 3 200514 2246.87 42
6 -1 4 731.475 168.903 39
-6 1 -4 930.004 126.37 33
6 -1 4 788.471 144.363 28
6 -1 4 984.108 130.951 22
6 -1 4 1033.53 131.685 1
6 -1 5 738.681 165.307 39
-6 1 -5 836.639 114.686 4
-6 1 -5 906.933 128.311 33
6 -1 5 1072.94 171.437 28
6 -1 5 852.609 111.792 22
6 -1 5 908.79 119.38 1
6 -1 6 5221.44 403.208 39
6 -1 6 4475.28 353.807 28
-6 1 -6 5248.26 338.556 5
-6 1 -6 4531.35 295.92 4
6 -1 7 2259.98 270.653 39
6 -1 7 1973.89 253.622 28
-6 1 -7 2356.93 239.767 5
-6 1 -7 1726.93 194.109 4
6 -1 8 16.0472 48.2023 39
-6 1 -8 4.31578 41.7786 4
6 -1 8 -163.286 107.939 28
-6 1 -8 0.529 67.2213 5
6 -1 9 2104.62 272.997 39
6 -1 9 1760.35 287.21 28
-6 1 -9 1881.66 119.264 20
-6 1 -9 1932.81 251.583 5
-6 1 -9 1728.83 234.363 4
-6 1 -10 3246.8 162.162 12
-6 1 -10 3598.25 169.582 20
-6 1 -11 2947.79 160.699 12
6 -1 11 3100.26 398.812 28
-6 1 -11 2899.83 157.279 20
6 -1 12 471.202 191.979 31
-6 1 -12 492.912 69.9397 20
-6 1 -12 518.622 76.6816 12
-6 1 -13 3298.84 169.263 12
-6 1 -13 3133.81 159.051 20
-6 1 -14 1029.38 87.9986 15
-6 1 -14 1192.1 91.8793 20
-6 1 -15 -9.81717 23.6247 20
6 0 -10 1616.6 90.9966 9
-6 0 10 1515.02 75.008 48
6 0 -9 1471.64 99.1507 10
6 0 -9 1556.31 104.968 9
-6 0 9 1425.96 88.7761 48
-6 0 8 7545.96 434.153 41
6 0 -8 8039.49 244.447 10
6 0 -8 7553.99 237.047 9
-6 0 8 7760.99 196.841 49
-6 0 7 2311.44 255.282 41
6 0 -7 2554.25 143.568 9
-6 0 7 2520.64 124.716 49
-6 0 6 993.334 172.615 41
6 0 -6 1102.69 240.142 38
6 0 -6 1012.18 112.932 58
6 0 -6 1104.26 96.2246 9
-6 0 6 1006.75 84.4726 49
-6 0 6 1387.95 91.0631 8
-6 0 5 16.9268 57.3784 41
-6 0 5 12.1902 25.2081 8
6 0 -5 23.7157 36.1268 58
-6 0 5 20.3926 23.6041 56
-6 0 5 37.5495 27.0424 49
6 0 -5 -11.8459 29.3079 9
-6 0 4 289.266 93.5172 41
6 0 -4 234.226 114.651 38
-6 0 4 212.779 39.3081 8
6 0 -4 82.0306 74.3548 1
-6 0 4 69.7587 62.844 24
-6 0 4 171.101 33.5629 56
6 0 -4 209.251 55.1376 58
6 0 -4 277.709 99.431 2
-6 0 4 295.317 49.5588 49
6 0 -4 235.516 46.6419 9
-6 0 3 40141.6 924.296 41
-6 0 3 39052.7 1011.28 24
6 0 -3 41345.4 1058.67 2
6 0 -3 39508.1 1027.73 1
-6 0 2 282.948 77.193 41
-6 0 2 371.919 99.5263 24
6 0 -2 251.364 91.4432 1
6 0 -2 556.485 112.137 2
-6 0 1 25037 625.635 41
6 0 -1 25126.3 709.783 2
-6 0 1 25320.8 723.314 24
6 0 -1 24796.9 746.732 1
6 0 0 160.247 69.3991 1
-6 0 0 117.384 61.1923 24
-6 0 -1 4315.02 263.536 24
-6 0 -1 4968.13 285.462 21
6 0 1 4184.58 285.8 1
6 0 2 4592.24 282.029 28
-6 0 -2 4496.12 251.832 24
6 0 2 4408.59 282.581 1
6 0 2 5054.99 334.907 42
-6 0 -2 5081.56 284.924 21
6 0 3 7914.77 501.051 39
6 0 3 7489.29 369.998 28
-6 0 -3 7592.54 307.385 24
-6 0 -3 8135.31 354.958 21
6 0 3 7527.98 351.769 1
6 0 4 1622.65 237.583 39
-6 0 -4 1629.12 150.897 33
6 0 4 1330.75 131.446 22
-6 0 -4 1378.23 150.923 21
6 0 4 1328.52 143.868 1
6 0 5 2956.32 304.62 39
-6 0 -5 3296.23 219.429 33
6 0 5 3043.44 191.765 22
-6 0 -5 3248.57 229.229 21
6 0 5 3173.38 214.647 1
6 0 6 433.464 122.227 39
-6 0 -6 283.327 89.2445 5
6 0 7 3285.11 335.69 39
6 0 7 3569.44 300.326 36
-6 0 -7 3164.79 277.095 5
6 0 8 91.889 77.7564 39
6 0 8 -17.934 63.6052 36
-6 0 -8 64.3833 73.2115 5
6 0 9 50304.7 1388.17 39
-6 0 -9 49330.9 1202.51 5
-6 0 -10 8.90203 30.3075 12
-6 0 -10 12.7702 26.5615 20
-6 0 -11 5227.43 213.387 12
-6 0 -11 5282.47 209.579 20
-6 0 -12 33686.9 543.943 12
-6 0 -12 33893.6 526.647 20
-6 0 -13 4116.44 187.805 15
-6 0 -13 4606.76 200.205 12
-6 0 -13 4735.08 193.171 20
-6 0 -14 175.534 47.6008 15
-6 0 -14 248.587 60.5967 12
-6 0 -14 158.172 40.386 20
-6 0 -15 1278.94 78.5462 20
6 1 -10 4320.49 152.443 9
-6 -1 10 4148.87 123.238 48
6 1 -9 2165.82 116.225 10
6 1 -9 2056.57 122.509 9
-6 -1 9 2005.85 91.289 49
-6 -1 9 1947.14 102.584 48
-6 -1 8 4496.92 332.217 41
6 1 -8 4775.11 195.283 9
-6 -1 8 4672.66 161.761 49
-6 -1 7 3223.38 300.467 41
-6 -1 7 3112.87 143.4 49
6 1 -7 3113.63 160.513 9
-6 -1 6 4584.95 166.518 8
-6 -1 6 4153.38 343.997 41
6 1 -6 4486.07 223.87 58
-6 -1 6 4664.95 170.884 56
6 1 -6 4435.93 190.082 9
-6 -1 6 4483.94 178.126 49
-6 -1 5 88.6533 65.8671 41
-6 -1 5 9.66806 27.8629 8
6 1 -5 22.6712 34.4557 58
-6 -1 5 27.4268 28.4686 49
6 1 -5 6.24871 28.8353 9
-6 -1 5 73.1599 29.7494 56
-6 -1 4 17.443 23.9539 56
-6 -1 4 150.098 77.397 41
6 1 -4 -61.5233 81.8567 38
-6 -1 4 92.1397 29.0755 8
-6 -1 4 -98.5555 63.2093 24
6 1 -4 51.982 32.5473 61
6 1 -4 254.6 91.1379 1
6 1 -4 -32.2147 36.6374 58
6 1 -4 19.6695 44.8778 2
-6 -1 4 58.912 28.9336 49
-6 -1 3 11955.2 497.587 41
6 1 -3 11204.4 541.762 1
6 1 -3 11204.3 539.584 2
-6 -1 3 11951.6 553.802 24
-6 -1 2 349.526 87.6906 41
6 1 -2 227.253 90.5247 1
-6 -1 2 293.27 91.5783 24
6 1 -2 239.167 85.2489 2
6 1 -1 28854.7 740.894 2
-6 -1 1 28477.1 759.598 24
6 1 -1 28376.2 791.165 1
-6 -1 0 13374.6 464.648 21
6 1 0 13313.4 461.181 2
-6 -1 0 12758.8 479.595 24
6 1 0 13626.7 526.02 1
6 1 1 23023.3 550.833 2
-6 -1 -1 23227 606.465 21
6 1 1 22897.1 660.169 1
-6 -1 -1 22492.1 599.862 24
6 1 2 4648.67 398.287 39
6 1 2 4823.91 266.968 28
6 1 2 5207.25 235.405 2
-6 -1 -2 5221.73 274.762 24
-6 -1 -2 5284.77 287.735 21
6 1 2 4808.92 291.719 1
6 1 3 4505.05 383.333 39
-6 -1 -3 4491.83 267.575 21
-6 -1 -3 4656.33 250.273 24
6 1 3 4093.51 258.331 1
6 1 4 30416.9 679.884 1
6 1 4 30202.3 967.725 39
-6 -1 -4 29174.8 592.071 33
-6 -1 -4 32556.5 607.964 3
-6 -1 -4 31757.4 697.355 21
-6 -1 -4 29746.2 591.565 24
6 1 5 16867.1 487.022 1
6 1 5 16838.3 724.891 39
-6 -1 -5 16690.8 457.979 33
-6 -1 -5 17298.7 475.097 3
-6 -1 -5 16771.2 511.995 21
6 1 6 32708 1021.2 39
6 1 6 34556.8 977.215 36
-6 -1 -6 33761 718.044 3
-6 -1 -6 31551.9 702.826 21
-6 -1 -6 34656.6 843.447 5
6 1 7 1448.99 234.212 39
6 1 7 1482.28 215.361 36
-6 -1 -7 1469.69 156.996 21
-6 -1 -7 1415.56 183.868 5
6 1 8 3292.85 359.896 39
6 1 8 3592.16 331.041 36
6 1 8 3048.71 297.585 29
-6 -1 -8 3599.11 303.056 5
6 1 9 14034.5 757.364 39
6 1 9 14303.6 679.211 36
6 1 9 13322.5 627.459 29
-6 -1 -9 14525 640.306 5
6 1 10 13691.7 778.346 39
6 1 10 13699.1 686.799 36
6 1 10 13156.5 645.824 29
-6 -1 -10 12754 320.142 12
-6 -1 -10 13165.1 316.291 20
-6 -1 -11 3127.33 170.393 15
-6 -1 -11 3645.24 180.576 12
-6 -1 -11 3617.71 171.564 20
-6 -1 -12 876.053 94.351 15
6 1 12 952.269 215.911 39
-6 -1 -12 928.178 95.7824 12
-6 -1 -12 1046.08 95.4683 20
-6 -1 -13 146.226 50.1331 15
-6 -1 -13 121.696 46.9033 12
-6 -1 -13 149.928 41.7591 20
-6 -1 -14 6071.24 216.535 12
-6 -1 -14 5752.94 187.091 20
-6 -1 -15 656.138 71.5477 12
-6 -2 10 834.488 47.4103 49
-6 -2 10 812.896 56.5409 48
6 2 -9 46.1062 29.7289 10
6 2 -9 18.4094 35.4893 9
-6 -2 9 3.5728 21.8867 49
6 2 -8 2249.42 138.601 9
-6 -2 8 1921.12 107.546 49
-6 -2 7 1965.15 105.489 8
-6 -2 7 1864.49 228.935 41
-6 -2 7 1950.86 109.429 56
6 2 -7 1998.85 135.499 9
-6 -2 7 1841.63 114.046 49
-6 -2 6 -2.25447 45.8796 41
-6 -2 6 70.5736 29.911 8
6 2 -6 28.6592 32.1819 58
-6 -2 6 -29.798 25.9011 56
-6 -2 6 -14.4387 37.5633 49
6 2 -6 -56.1493 34.4253 9
-6 -2 5 13551.2 595.599 41
-6 -2 5 13806.3 315.001 49
-6 -2 5 14084.7 301.78 8
6 2 -5 14136 332.299 61
6 2 -5 13912.4 385.46 58
-6 -2 5 13947.6 307.67 56
-6 -2 4 13446 564.778 41
-6 -2 4 13862.9 297.064 8
6 2 -4 12913.5 607.22 1
-6 -2 4 14210.9 310.593 49
-6 -2 4 14271.1 630.319 24
6 2 -4 14584 350.81 64
6 2 -4 13814 379.061 58
-6 -2 4 13804.9 301.657 56
6 2 -4 13215.7 305.793 61
6 2 -4 13702.2 638.987 2
-6 -2 3 2953.89 249.395 41
6 2 -3 3325.58 299.307 1
-6 -2 3 3453.29 297.59 24
6 2 -3 3023.65 278.188 2
6 2 -2 51749 1122.31 1
6 2 -2 52505.9 1076.1 2
-6 -2 2 51558.4 1089.49 24
6 2 -1 3591.89 284.94 1
-6 -2 1 3574.36 272.1 24
-6 -2 1 3832.25 255.11 21
6 2 -1 3915.08 269.55 2
6 2 0 28262.8 765.826 1
6 2 0 28434.7 661.862 2
-6 -2 0 28261.8 719.334 24
6 2 1 1634.68 180.436 1
-6 -2 -1 2159.71 192.434 24
6 2 1 2172.97 161.916 2
-6 -2 -1 2079.68 188.076 21
6 2 2 7883.26 378.06 1
6 2 2 8648.59 546.436 39
-6 -2 -2 8297.1 365.803 21
-6 -2 -2 8146.57 353.041 24
6 2 3 97507.8 1273.18 1
6 2 3 99938.6 1797.19 39
-6 -2 -3 96179.3 1156.68 24
-6 -2 -3 99684.6 1256.19 21
6 2 4 13872.7 668.454 39
6 2 4 13220 456.572 1
-6 -2 -4 13445 421.63 24
-6 -2 -4 13667.6 468.061 21
6 2 5 13168.6 656.538 39
6 2 5 12299.1 427.685 1
6 2 5 12838 630.342 36
-6 -2 -5 12689.7 447.552 3
-6 -2 -5 13454.9 483.125 5
-6 -2 -5 13589.3 468.978 21
6 2 6 10314.7 596.403 39
6 2 6 11827.2 610.816 36
-6 -2 -6 11333.3 448.223 3
-6 -2 -6 10989 423.583 21
-6 -2 -6 12391.5 493.018 5
6 2 7 45149.1 1264.74 39
6 2 7 44307.4 1192.29 36
-6 -2 -7 45341 955.864 3
-6 -2 -7 41474.1 826.539 21
-6 -2 -7 45861.4 990.208 5
6 2 8 2606.06 303.58 36
-6 -2 -8 2789.53 259.621 3
6 2 8 2952.04 312.389 29
-6 -2 -8 2723.42 260.159 5
6 2 9 1202.14 213.015 36
6 2 9 1285.13 224.653 29
-6 -2 -9 983.328 165.457 5
-6 -2 -10 889.293 89.7975 15
6 2 10 1194.82 228.667 36
6 2 10 1243.28 215.069 29
-6 -2 -10 1086.33 98.4344 12
-6 -2 -10 1170.31 95.3585 20
-6 -2 -11 1474.82 119.957 15
6 2 11 1880.78 269.201 36
6 2 11 1791.49 259.175 29
-6 -2 -11 1537.67 118.856 12
-6 -2 -11 1543.31 110.982 20
-6 -2 -12 10.6024 30.932 15
6 2 12 -287.331 158.301 39
6 2 12 -284.285 116.854 36
6 2 12 112.002 88.0531 29
-6 -2 -12 133.923 46.7653 12
-6 -2 -12 101.665 32.9296 20
6 2 13 4550.1 461.779 39
-6 -2 -13 3976.57 186.248 12
-6 -2 -14 411.09 66.2551 12
-6 -2 -15 1146.93 87.0089 12
6 3 -10 1485.97 93.0976 9
-6 -3 10 1414.53 62.5594 49
-6 -3 10 1465.84 71.6557 48
-6 -3 9 1884.02 93.248 49
6 3 -9 1999.83 122.09 9
-6 -3 8 1757.98 96.027 56
6 3 -8 1809.73 127.12 9
-6 -3 8 1786.63 106.272 49
-6 -3 7 1507.53 93.7714 8
-6 -3 7 1445.69 194.606 41
-6 -3 7 1270.38 91.3629 56
6 3 -7 1448.99 119.722 9
-6 -3 7 1224.43 96.4004 49
-6 -3 6 293.487 108.554 41
-6 -3 6 391.59 54.2028 8
6 3 -6 345.441 64.1299 61
-6 -3 6 421.874 58.4633 56
-6 -3 6 398.438 61.2812 49
6 3 -5 21027.7 420.225 61
-6 -3 5 20857.3 734.499 41
-6 -3 5 21477.5 379.719 8
-6 -3 5 21329.2 388.881 56
6 3 -5 22374.6 463.277 64
-6 -3 5 21390.4 366.747 45
-6 -3 4 2271.07 232.576 41
-6 -3 4 2443.75 128.885 8
6 3 -4 2198.25 256.982 1
6 3 -4 2597.47 156.35 64
6 3 -4 2301.83 157.188 58
-6 -3 4 2404.14 263.702 24
6 3 -4 2429.57 272.605 2
-6 -3 4 2316.72 128.791 56
6 3 -4 2422.18 139.101 61
-6 -3 4 2418.81 126.162 45
6 3 -3 11352.5 556.743 1
-6 -3 3 12466.6 560.884 24
6 3 -3 11746.8 560.902 2
6 3 -2 8570.9 468.146 1
-6 -3 2 8447.12 440.548 24
6 3 -2 8939.15 450.128 2
6 3 -1 -67.7407 59.7549 1
-6 -3 1 53.7196 39.0921 21
6 3 -1 80.3076 42.3902 2
-6 -3 1 112.506 57.0471 24
6 3 0 14078.1 556.009 1
-6 -3 0 13646.6 510.783 24
6 3 0 13666.9 467.196 2
-6 -3 0 13368 485.337 21
6 3 1 29754.5 781.019 1
-6 -3 -1 27903.9 696.931 24
-6 -3 -1 29432 715.82 21
6 3 1 30210.3 618.217 2
6 3 2 7952.81 541.294 39
6 3 2 7742.69 385.769 1
-6 -3 -2 7652.44 353.608 24
-6 -3 -2 8533.14 385.606 21
6 3 3 4841.89 418.316 39
6 3 3 4453.43 284.148 1
-6 -3 -3 5019.05 277.467 24
-6 -3 -3 4935.36 292.248 21
6 3 4 35376.3 1108.4 39
6 3 4 33605.4 760.553 1
-6 -3 -4 36157.9 733.434 24
-6 -3 -4 36037.7 785.958 21
6 3 5 106148 1938.69 39
6 3 5 107003 1950.47 36
6 3 5 108241 1342.6 1
-6 -3 -5 110426 1375.78 21
-6 -3 -5 110165 1364.75 5
6 3 6 3075.03 341.882 39
6 3 6 3009.51 335.767 36
-6 -3 -6 3036.87 252.244 3
-6 -3 -6 3019.59 231.536 21
-6 -3 -6 3220.12 249.179 5
6 3 7 16838.1 784.655 36
-6 -3 -7 15530.7 592.036 3
6 3 7 15459.3 732.706 29
-6 -3 -7 16135.5 532.813 21
-6 -3 -7 16088.3 571.589 5
6 3 8 26595.4 998.28 36
-6 -3 -8 26964.9 826.379 3
6 3 8 26922.4 972.159 29
-6 -3 -8 27355.7 786.877 5
6 3 9 36215.1 1195.22 36
6 3 9 36410.6 1158.26 29
-6 -3 -9 36635.3 965.384 5
6 3 10 984.137 207.979 36
6 3 10 915.655 192.355 29
-6 -3 -10 984.972 94.2556 12
6 3 11 -1.76811 64.8219 36
-6 -3 -11 73.9889 36.081 13
6 3 11 44.7348 89.3052 29
-6 -3 -11 86.3372 39.5413 12
6 3 12 66.269 82.6749 36
-6 -3 -12 -1.30599 27.0399 13
-6 -3 -12 70.4984 39.7032 12
6 3 13 -65.732 96.7384 39
-6 -3 -13 181.147 49.5541 12
-6 -3 -14 3194.36 156.297 12
-6 -3 -15 47.3006 30.9367 12
6 4 -10 1634.47 93.4369 9
-6 -4 10 1506.16 63.2109 49
-6 -4 10 1556.33 68.3388 48
-6 -4 9 3799.36 113.175 56
6 4 -9 3966.77 167.349 9
-6 -4 9 3732.48 129.607 49
-6 -4 8 309.305 45.5521 56
6 4 -8 313.838 66.0128 9
-6 -4 8 352.95 53.4883 49
-6 -4 7 3284.19 292.522 41
-6 -4 7 3627.59 144.399 8
-6 -4 7 3556.6 152.005 56
6 4 -7 3792.85 189.528 9
-6 -4 7 3596.34 160.87 49
-6 -4 6 124.617 71.0857 41
-6 -4 6 53.1129 32.4996 8
6 4 -6 159.932 53.7162 61
-6 -4 6 78.1001 37.7423 56
-6 -4 6 80.4882 33.9262 45
-6 -4 5 8347.97 240.371 8
6 4 -5 9613.75 309.161 64
6 4 -5 8910.49 286.008 61
-6 -4 5 9200.01 263.065 56
-6 -4 5 8885.79 248.36 45
-6 -4 4 59.9286 31.9879 8
6 4 -4 62.8709 39.6518 64
6 4 -4 -0.52366 28.5289 61
-6 -4 4 50.4712 35.3164 56
-6 -4 4 98.1819 34.234 45
-6 -4 4 113.475 36.3338 43
-6 -4 3 1850.61 112.262 8
6 4 -3 1907.33 239.993 1
6 4 -3 2121.33 139.051 64
-6 -4 3 2005.91 231.867 24
6 4 -3 2127.63 132.105 61
6 4 -3 2047.12 235.806 2
-6 -4 3 2082.94 120.272 45
-6 -4 3 2023.38 113.741 43
6 4 -2 32065.7 932.766 1
-6 -4 2 32706.1 880.78 24
6 4 -2 31938.6 880.575 2
6 4 -1 19663.3 708.837 1
-6 -4 1 19306.4 650.087 24
6 4 -1 20508.5 651.004 2
-6 -4 1 21464.7 640.731 21
6 4 0 840.062 141.1 1
-6 -4 0 954.251 139.974 21
6 4 0 539.678 95.3655 2
-6 -4 0 635.372 118.897 24
6 4 1 1083.76 216.436 39
6 4 1 905.079 144.098 1
-6 -4 -1 824.48 129.827 21
-6 -4 -1 741.752 122.572 24
6 4 2 29504.5 1072.16 39
6 4 2 29690 794.314 1
-6 -4 -2 31172.4 773.188 21
-6 -4 -2 30057.7 727.295 24
6 4 3 34594.6 1157.68 39
6 4 3 34110.4 830.722 1
-6 -4 -3 35768 827.011 21
-6 -4 -3 33963.3 757.319 24
6 4 4 40678.6 1260.19 39
6 4 4 40920.8 888.704 1
-6 -4 -4 43510 910.364 21
-6 -4 -4 42836.4 796.196 5
6 4 5 41.1487 83.7628 39
6 4 5 28.0506 89.9744 36
-6 -4 -5 62.5937 52.0436 21
6 4 5 191.66 64.0357 1
-6 -4 -5 48.8283 43.387 5
6 4 6 19621.4 911.419 36
6 4 6 20070 617.852 1
-6 -4 -6 20353.3 622.932 21
-6 -4 -6 19606 581.522 5
6 4 7 4778.16 332.08 37
6 4 7 5082.24 475.19 36
-6 -4 -7 4627.67 344.871 3
6 4 7 4411.71 426.671 29
-6 -4 -7 4875.77 305.899 21
-6 -4 -7 5104.07 316.545 5
6 4 8 15635.1 814.534 36
-6 -4 -8 16395.9 674.04 3
6 4 8 15496.2 776.102 29
-6 -4 -8 16431.8 634.837 6
-6 -4 -8 15315.1 572.944 5
6 4 9 9460.08 648.41 36
-6 -4 -9 9147.81 532.374 3
6 4 9 9243.04 614.827 29
-6 -4 -9 9226.94 266.871 12
-6 -4 -9 9431.29 517.997 6
6 4 10 2138.22 316.696 36
6 4 10 2120.69 305.814 29
-6 -4 -10 2311.6 141.879 12
6 4 11 3870.01 424.559 36
6 4 11 4236.04 436.022 29
-6 -4 -11 3889.32 185.134 12
6 4 12 -318.294 133.902 36
-6 -4 -12 9.34139 33.5178 12
-6 -4 -13 8960.75 268.787 12
-6 -4 -14 671.508 74.1115 12
-6 -4 -15 991.342 75.1898 12
-6 -5 9 898.044 55.8602 56
6 5 -9 966.037 85.1675 9
-6 -5 9 974.08 67.1369 49
-6 -5 8 24.7614 27.5631 56
6 5 -8 24.2835 41.3375 9
-6 -5 8 2.22671 28.5293 49
-6 -5 7 1308.78 86.6389 8
6 5 -7 1283.13 117.33 61
-6 -5 7 1248.37 93.9156 56
6 5 -7 1343.75 117.845 9
-6 -5 7 1240.08 97.8567 49
-6 -5 7 1416.11 92.9272 45
-6 -5 6 4171.2 165.425 8
-6 -5 6 4292.38 179.53 56
6 5 -6 4348.1 209.396 61
-6 -5 6 4133.09 170.214 45
-6 -5 5 2851.47 142.398 8
6 5 -5 3002.2 175.887 64
6 5 -5 2930.06 173.58 61
-6 -5 5 2831 150.136 56
-6 -5 5 2774.93 145.175 45
-6 -5 5 2980.45 139.418 43
-6 -5 4 2526.9 136.096 8
-6 -5 4 2341.26 261.749 34
6 5 -4 2512 158.098 61
6 5 -4 2749.93 168.549 64
-6 -5 4 2550.91 139.553 45
-6 -5 4 2639.26 134.926 43
-6 -5 3 1858.04 224.714 34
6 5 -3 2064.75 144.471 64
6 5 -3 1945.46 136.268 61
6 5 -3 2186.88 256.382 2
6 5 -3 1681.43 226.465 1
-6 -5 3 2020.67 122.81 45
-6 -5 3 2185.45 237.347 24
-6 -5 3 1913.07 116.671 43
-6 -5 2 6288.44 376.086 34
6 5 -2 6341.91 219.739 7
6 5 -2 6381.91 437.818 1
6 5 -2 6121.64 407.248 2
-6 -5 2 6765.26 411.422 24
-6 -5 2 6334.62 208.435 45
6 5 -1 2971.28 288.518 1
-6 -5 1 3236.48 275.554 24
-6 -5 1 3746.19 286.824 21
6 5 -1 3207.12 274.709 2
6 5 0 28526.5 865.065 1
-6 -5 0 28479.8 786.291 24
-6 -5 0 30903.5 815.156 21
6 5 1 1666.02 207.62 1
-6 -5 -1 1935.96 206.11 21
-6 -5 -1 1876.46 198.731 24
6 5 2 5865.4 489.7 39
6 5 2 6204.3 386.345 1
-6 -5 -2 6479.46 355.993 24
-6 -5 -2 6816.31 381.629 21
6 5 3 89321.1 1946.88 39
6 5 3 88922.6 1441.07 1
6 5 4 785.832 187.697 39
-6 -5 -4 901.962 144.104 21
6 5 4 818.167 135.217 1
-6 -5 -4 737.361 105.59 5
6 5 5 3253.05 389.183 39
6 5 5 3212.32 392.938 36
6 5 5 3262.28 274.612 1
-6 -5 -5 3270.36 267.03 21
-6 -5 -5 2832.52 206.256 5
6 5 6 26758.9 1100.03 36
6 5 6 25924.5 765.803 1
-6 -5 -6 27176.8 761.113 21
-6 -5 -6 26068 649.427 5
6 5 7 1708.08 212.112 37
6 5 7 1595.47 285.817 36
-6 -5 -7 1765.92 222.022 3
-6 -5 -7 1941.38 208.574 21
-6 -5 -7 1724.36 174.97 5
6 5 8 1552.45 207.699 37
6 5 8 1423.81 255.823 36
-6 -5 -8 1742.79 230.43 3
6 5 8 1782.43 277.771 29
-6 -5 -8 1576.66 218.924 6
6 5 9 13199.5 598.499 37
6 5 9 13916.5 808.13 36
6 5 9 13324.1 758.026 29
-6 -5 -9 13952.5 335.159 12
-6 -5 -9 13041.3 346.288 19
6 5 10 1354.67 272.14 36
6 5 10 1546.77 266.113 29
-6 -5 -10 1463.89 114.015 12
-6 -5 -10 1219.78 111.062 19
6 5 11 69243.4 1835.37 36
6 5 11 66693.7 1726.4 29
-6 -5 -11 68118 763.802 12
-6 -5 -11 63773.8 774.561 19
6 5 12 2193.97 324.898 36
-6 -5 -12 2356.8 143.097 12
-6 -5 -12 2162.7 139.946 19
-6 -5 -13 993.032 91.0225 12
-6 -5 -13 678.786 75.2942 19
-6 -5 -14 1.15625 31.0104 12
-6 -5 -15 7903.87 187.475 12
-6 -6 9 266.478 32.6442 56
6 6 -9 286.258 47.0927 9
-6 -6 9 231.756 32.261 49
-6 -6 8 13377.1 217.574 8
-6 -6 8 12110.1 241.038 56
6 6 -8 13857.6 315.05 9
-6 -6 8 12557.5 252.491 49
-6 -6 7 4337.64 151.004 8
6 6 -7 4494.48 203.443 9
-6 -6 7 4297.22 168.258 49
-6 -6 7 4260.39 166.586 56
6 6 -7 4419.87 204.758 61
-6 -6 7 4378.21 161.79 45
-6 -6 6 1667.38 105.51 8
6 6 -6 1602.32 118.66 15
6 6 -6 1646.91 134.859 61
-6 -6 6 1600.49 112.199 56
-6 -6 6 1634.39 110.703 45
-6 -6 6 1525.62 95.4107 43
-6 -6 5 3599.34 161.158 8
6 6 -5 3780.42 183.619 15
6 6 -5 3626.58 188.839 64
6 6 -5 3692.63 200.258 61
-6 -6 5 3829.87 174.768 45
-6 -6 5 3883.14 164.347 43
6 6 -4 2113.18 142.017 15
-6 -6 4 2101.31 244.247 34
6 6 -4 2190.28 151.583 64
6 6 -4 2048.9 149.72 61
-6 -6 4 2002.85 128.648 45
-6 -6 4 1987.31 122.887 43
-6 -6 3 64.6722 66.8021 34
6 6 -3 89.5303 40.2158 64
6 6 -3 138.474 52.5661 61
6 6 -3 97.2144 45.3476 7
-6 -6 3 172.001 44.8056 45
-6 -6 3 181.749 43.3218 43
-6 -6 2 6018.25 371.858 34
6 6 -2 5759.79 224.691 7
6 6 -2 5619.39 426.964 1
-6 -6 2 5778.43 383.93 24
6 6 -2 5663.57 235.248 61
6 6 -2 5819.95 426.533 2
-6 -6 2 6095.49 212.315 45
-6 -6 2 6035.42 209.338 43
6 6 -1 29754.7 962.289 1
-6 -6 1 31074 868.316 24
-6 -6 1 30501.6 456.215 43
-6 -6 1 31467.4 870.563 21
-6 -6 1 30906 458.449 45
6 6 0 40518.4 1100.82 1
-6 -6 0 43021.2 999.245 24
-6 -6 0 44049.5 1025.62 21
6 6 1 8718.95 505.801 1
-6 -6 -1 9205.7 453.829 24
-6 -6 -1 9365.67 474.259 21
6 6 2 28920.3 895.654 1
-6 -6 -2 30687.3 850.964 21
6 6 3 19922.5 911.009 39
6 6 3 19382.1 725.468 1
-6 -6 -3 19919.9 683.115 21
6 6 4 5119.05 485.076 39
6 6 4 5611.98 385.534 1
-6 -6 -4 5870.39 371.439 21
6 6 5 7948.77 613.949 39
6 6 5 7142.44 588.326 36
6 6 5 8394.12 474.592 1
-6 -6 -5 7979.66 433.683 21
6 6 6 1159.51 244.09 36
-6 -6 -6 961.187 151.945 21
6 6 6 898.195 152.776 1
6 6 7 33466.6 1004.09 37
6 6 7 33498.8 1258.17 36
-6 -6 -7 34242.5 1038.86 3
-6 -6 -7 33826.8 890.117 21
6 6 8 9079.77 525.839 37
6 6 8 9015.86 667.7 36
-6 -6 -8 9335.07 559.093 3
6 6 8 8367.38 612.522 29
-6 -6 -8 9368.37 537.876 6
-6 -6 -8 9002.31 269.826 12
-6 -6 -8 8468.45 280.388 19
-6 -6 -8 8707.63 249.651 18
6 6 9 1133.18 191.073 37
6 6 9 1012.01 232.708 36
6 6 9 1071.47 241.993 29
-6 -6 -9 1311.06 107.654 12
-6 -6 -9 1246.85 115.359 19
6 6 10 7714.48 485.024 37
6 6 10 8276.43 650.429 36
6 6 10 7407.66 592.606 29
-6 -6 -10 7839.6 259.598 12
-6 -6 -10 7606.79 275.982 19
6 6 11 6060.56 556.545 36
6 6 11 5618.87 514.455 29
-6 -6 -11 5460.37 217.868 12
-6 -6 -11 4725.73 215.581 19
6 6 12 21898.6 1026.73 36
-6 -6 -12 21062.5 412.323 12
-6 -6 -12 19423.7 414.476 19
-6 -6 -13 488.534 66.3197 12
-6 -6 -13 419.413 64.4651 19
-6 -6 -14 507.971 59.4372 12
-6 -6 -14 506.565 57.653 19
-6 -6 -15 187.332 30.9961 12
6 7 -9 120.021 30.6331 9
-6 -7 9 146.61 22.0765 49
-6 -7 8 6011.65 132.652 8
-6 -7 8 5963.55 156.368 56
6 7 -8 6128.11 189.026 9
-6 -7 8 5819.25 153.172 49
-6 -7 7 2839.01 117.554 8
6 7 -7 2777.18 142.241 15
-6 -7 7 2595.91 125.187 56
6 7 -7 2873.92 158.539 61
6 7 -7 2724.54 147.929 9
-6 -7 7 2662.3 122.296 49
-6 -7 7 2703.34 121.795 45
-6 -7 6 626.6 67.1661 8
6 7 -6 682.729 82.56 15
6 7 -6 668.398 91.8006 61
-6 -7 6 613.839 74.9041 56
-6 -7 6 699.676 74.1196 45
-6 -7 6 659.294 67.2133 43
6 7 -5 167.234 53.5235 15
-6 -7 5 64.592 33.9528 8
6 7 -5 219.305 57.2372 64
6 7 -5 98.979 56.7237 61
-6 -7 5 77.1809 39.7272 45
-6 -7 5 48.5792 32.0566 43
6 7 -4 107.773 45.3046 15
6 7 -4 33.3369 49.365 61
6 7 -4 104.576 44.9444 64
-6 -7 4 107.039 40.3071 45
-6 -7 4 76.7348 36.1419 43
6 7 -3 79.9762 41.6252 64
6 7 -3 91.1311 45.5526 7
6 7 -3 79.4285 45.4808 61
-6 -7 3 124.693 44.9128 45
-6 -7 3 78.8361 35.5568 43
6 7 -2 179.186 50.9818 61
6 7 -2 268.384 63.6771 7
-6 -7 2 370.751 60.6081 45
-6 -7 2 292.692 55.1031 43
6 7 -1 16553.1 393.796 7
-6 -7 1 17275.1 355.266 65
6 7 -1 17114.4 771.32 1
-6 -7 1 17391.2 358.405 45
-6 -7 1 17957.6 369.915 43
6 7 0 3495.18 176.754 7
-6 -7 0 3743.7 166.619 65
6 7 0 3730.37 361.743 1
6 7 0 3881.97 208.362 60
-6 -7 0 4237.73 339.156 21
-6 -7 0 3932.72 164.902 45
6 7 0 3482.29 199.141 44
-6 -7 0 3865.41 166.607 43
-6 -7 -1 731.88 151.981 21
6 7 1 967.416 183.783 1
6 7 1 1004.61 110.549 44
-6 -7 -1 965.174 82.897 43
6 7 2 8770.97 531.742 1
-6 -7 -2 9696.5 511.362 21
6 7 3 9590.71 549.007 1
-6 -7 -3 10471.6 524.236 21
-6 -7 -4 856.646 154.611 21
6 7 4 874.712 167.364 1
6 7 5 936.278 208.927 39
6 7 5 1540.06 298.427 36
-6 -7 -5 1457.13 198.485 21
6 7 5 1668.44 226.585 1
6 7 6 10149 713.899 36
6 7 6 10643.9 319.08 62
-6 -7 -6 10421.2 271.84 65
6 7 6 10512 560.998 1
-6 -7 -6 10258.4 514.149 21
-6 -7 -6 10382.3 285.406 53
-6 -7 -6 10565.3 289.988 52
-6 -7 -6 9978.81 299.78 19
-6 -7 -6 10216 262.294 18
6 7 7 2775.04 379.486 36
-6 -7 -7 3219.75 150.856 65
-6 -7 -7 3063.97 161.973 53
-6 -7 -7 3092.56 173.289 19
-6 -7 -7 3078.46 146.275 18
6 7 8 75.328 82.0872 37
6 7 8 94.4662 135.147 36
-6 -7 -8 46.3706 33.1388 53
-6 -7 -8 -3.92369 33.3833 12
-6 -7 -8 22.6067 40.5757 19
-6 -7 -8 -0.43323 20.6079 18
6 7 9 18655.7 784.196 37
6 7 9 20011.4 1009.31 36
-6 -7 -9 18817.5 401.641 12
-6 -7 -9 18418.4 429.615 19
6 7 10 1536.35 229.589 37
6 7 10 1874.99 322.177 36
-6 -7 -10 1634.45 121.406 12
-6 -7 -10 1595.81 130.464 19
6 7 11 122.051 65.1918 37
6 7 11 32.9488 90.6826 36
-6 -7 -11 208.436 51.2762 12
-6 -7 -11 146.988 51.519 19
-6 -7 -12 1667.87 115.477 12
-6 -7 -12 1740.16 125.163 19
-6 -7 -13 5286.54 182.116 12
-6 -7 -13 5194.96 190.934 19
-6 -7 -14 416.482 46.4474 12
-6 -7 -14 468.626 53.6499 19
-6 -8 8 195.662 28.0056 56
-6 -8 8 197.025 27.4814 49
6 8 -8 226.88 38.8365 9
-6 -8 7 1255.78 80.3858 56
-6 -8 7 1282.17 72.4855 8
6 8 -7 1164.26 87.054 15
6 8 -7 1309.75 97.7851 61
6 8 -7 1242.01 91.762 9
-6 -8 7 1162.62 72.2348 49
-6 -8 7 1218.77 76.2666 45
-6 -8 6 347.355 50.7798 8
6 8 -6 344.685 59.0309 15
6 8 -6 402.133 72.2303 61
-6 -8 6 279.55 51.9292 56
-6 -8 6 314.835 45.165 49
-6 -8 6 386.657 54.8197 45
-6 -8 6 323.529 46.2146 43
-6 -8 5 11750.7 283.243 8
6 8 -5 12166.5 335.513 15
6 8 -5 12379.4 346.995 61
-6 -8 5 11569.8 283.686 45
-6 -8 5 11851.5 280.713 43
6 8 -4 26.571 39.6307 15
6 8 -4 32.9783 31.2546 64
-6 -8 4 15.432 33.7343 45
6 8 -4 -0.20969 47.99 61
-6 -8 4 40.9191 34.6492 43
6 8 -3 607.501 90.1156 61
6 8 -3 584.251 80.6864 64
6 8 -3 541.867 83.9785 7
-6 -8 3 581.091 72.0036 45
-6 -8 3 665.421 78.3438 43
6 8 -2 6033.87 258.91 7
-6 -8 2 6262.91 219.589 65
6 8 -2 5976.15 258.156 61
-6 -8 2 5986 215.923 45
-6 -8 2 6174.62 223.945 43
-6 -8 1 98.4525 43.2143 65
6 8 -1 86.6502 46.0092 7
-6 -8 1 87.7502 36.666 45
-6 -8 1 38.5776 34.9093 43
6 8 0 11837.8 347.599 7
-6 -8 0 11754.4 309.504 65
6 8 0 11714.5 354.347 60
-6 -8 0 12094.3 290.822 45
6 8 0 11746 359.367 44
-6 -8 0 12040.4 302.328 43
-6 -8 -1 12.576 28.6819 65
6 8 1 4.05762 43.4804 60
6 8 1 26.0889 35.9948 7
-6 -8 -1 49.638 30.2838 45
6 8 1 71.5716 48.7185 44
-6 -8 -1 14.0199 23.7531 43
6 8 2 755.287 85.3808 7
-6 -8 -2 815.163 84.2497 65
6 8 2 731.989 103.082 60
-6 -8 -2 688.903 75.4851 52
-6 -8 -2 800.366 72.9016 45
6 8 2 799.52 102.916 44
6 8 2 804.662 176.781 1
-6 -8 -2 805.36 76.5676 43
6 8 3 12276.2 321.379 7
-6 -8 -3 12827.8 315.363 65
6 8 3 12596.8 358.709 62
6 8 3 12152.1 380.466 60
6 8 3 12607.6 679.253 1
-6 -8 -3 12454.5 308.472 52
6 8 3 12472.1 377.475 44
-6 -8 -3 12534.3 280.973 43
6 8 4 8949.23 263.176 7
-6 -8 -4 9429.75 269.155 65
6 8 4 9857.88 316.882 62
6 8 4 9313.18 575.458 1
-6 -8 -4 9185.15 270.908 52
-6 -8 -4 8948.38 283.074 19
6 8 4 8868.61 319.508 44
6 8 5 12671.6 300.226 7
6 8 5 13377.8 366.955 62
-6 -8 -5 13551.7 320.427 65
6 8 5 13312.9 675.552 1
-6 -8 -5 13422.6 332.783 52
-6 -8 -5 13029.9 345.062 19
-6 -8 -5 13080.7 298.698 18
6 8 6 5513.76 519.588 39
6 8 6 5869.67 550.644 36
-6 -8 -6 5531.8 203.068 65
6 8 6 5783.41 244.002 62
-6 -8 -6 5734.24 218.643 53
-6 -8 -6 5594.94 219.66 52
-6 -8 -6 5972.88 238.933 19
-6 -8 -6 5827.62 199.043 18
6 8 7 1946.59 321.935 36
6 8 7 2207.4 155.227 62
-6 -8 -7 2221.8 128.15 65
-6 -8 -7 2307.09 144.127 53
-6 -8 -7 2253.06 150.437 19
-6 -8 -7 2117.63 120.159 18
6 8 8 241.656 140.151 36
-6 -8 -8 52.2981 35.3452 12
-6 -8 -8 84.3455 38.2861 53
-6 -8 -8 259.955 60.4537 19
6 8 9 2809.01 382.573 36
-6 -8 -9 3230.6 169.333 12
-6 -8 -9 3253.89 175.576 53
-6 -8 -9 3195.99 180.547 19
-6 -8 -10 47.0005 36.3917 12
-6 -8 -10 23.7358 40.8596 19
-6 -8 -11 10189.6 277.895 12
-6 -8 -11 9793.93 294.873 19
-6 -8 -12 790.014 75.3718 12
-6 -8 -12 786.57 82.8554 19
-6 -8 -13 38.6314 25.0672 12
6 8 13 28.1225 36.3478 62
-6 -8 -13 50.9842 36.7484 19
6 8 14 1352.52 77.0065 62
-6 -8 -14 1139.55 70.3235 19
-6 -9 7 1003.7 54.6361 8
6 9 -7 1004.8 68.7024 15
6 9 -7 991.812 68.6572 9
-6 -9 7 958.692 53.5138 49
-6 -9 7 976.655 60.7445 56
-6 -9 7 920.249 57.0352 45
6 9 -6 133.491 39.9402 15
-6 -9 6 219.86 36.6693 8
6 9 -6 199.877 50.1416 61
-6 -9 6 174.092 36.0021 56
-6 -9 6 161.946 31.4593 49
-6 -9 6 221.381 40.6281 45
-6 -9 6 199.761 35.6893 43
-6 -9 5 955.26 78.2482 8
6 9 -5 980.097 94.3472 15
6 9 -5 1146.84 104.6 61
-6 -9 5 928.226 78.5648 56
-6 -9 5 934.941 68.7122 49
-6 -9 5 997.163 82.6857 45
-6 -9 5 959.053 77.8227 43
6 9 -4 2418.22 151.884 15
6 9 -4 2517.79 157.758 61
-6 -9 4 2093.36 105.129 49
-6 -9 4 2370.73 129.929 45
-6 -9 4 2341.02 128.78 43
6 9 -3 743.349 93.4186 7
6 9 -3 463.976 66.1413 64
6 9 -3 564.835 85.7921 61
-6 -9 3 535.506 69.5849 45
-6 -9 3 563.612 72.8254 43
-6 -9 2 366.797 58.1824 65
6 9 -2 494.349 72.8583 64
6 9 -2 491.967 83.3808 61
6 9 -2 419.68 75.3827 7
-6 -9 2 386.183 60.8863 45
-6 -9 2 435.005 63.5453 43
6 9 -1 1065.66 115.637 7
-6 -9 1 956.8 91.9251 65
6 9 -1 1044.98 112.624 61
-6 -9 1 974.46 86.9387 45
-6 -9 1 1024.5 94.1972 43
6 9 0 1847.68 144.552 7
-6 -9 0 1648.53 120.126 65
-6 -9 0 1466.66 103.674 45
-6 -9 0 1570.58 111.088 43
6 9 1 14066.4 377.786 7
-6 -9 -1 14218.3 345.231 65
6 9 1 13233 369.578 60
-6 -9 -1 13498.9 295.812 45
6 9 1 13674.1 385.646 44
-6 -9 -1 13941.2 316.842 43
6 9 2 8417.69 283.949 7
-6 -9 -2 8799.67 269.794 65
6 9 2 8019.3 295.671 60
-6 -9 -2 8464.62 260.462 52
6 9 2 7979.08 297.624 44
-6 -9 -2 8257.05 237.672 43
6 9 3 9164.29 285.897 7
-6 -9 -3 9649.83 282.201 65
6 9 3 9189.1 310.959 62
6 9 3 9178.43 323.436 60
-6 -9 -3 9891.93 286.375 52
6 9 3 9752.56 332.58 44
-6 -9 -3 9490.06 245.455 43
6 9 4 20024 405.385 7
-6 -9 -4 20657.3 407.098 65
-6 -9 -4 20539.8 415.882 52
-6 -9 -4 20008.8 371.506 18
6 9 4 19219.3 471.221 60
6 9 4 20132.9 477.072 44
6 9 4 20889.9 463.189 62
6 9 5 6424.12 258.466 62
6 9 5 5944.11 213.265 7
-6 -9 -5 6230.22 222.397 65
-6 -9 -5 6508.31 238.835 52
-6 -9 -5 6343.16 246.311 19
-6 -9 -5 6468.29 208.324 18
6 9 6 5868.23 203.857 7
-6 -9 -6 6009.36 213.314 65
6 9 6 6103.47 250.665 62
-6 -9 -6 6294.38 227.738 53
-6 -9 -6 6170.1 233.507 52
-6 -9 -6 6168.24 245.749 19
6 9 7 2910.58 388.389 36
-6 -9 -7 2879.34 145.105 65
6 9 7 3054.9 178.938 62
-6 -9 -7 3085.48 164.4 53
-6 -9 -7 2867.47 170.893 19
6 9 8 417.589 151.478 36
-6 -9 -8 553.601 77.8169 12
6 9 8 622.685 87.7879 62
-6 -9 -8 682.685 82.56 53
-6 -9 -8 685.475 90.2323 19
-6 -9 -9 1143.47 99.9405 12
6 9 9 1193.32 113.809 62
-6 -9 -9 1093.4 107.075 19
-6 -9 -10 7838.73 241.23 12
6 9 10 7670.46 257.285 62
-6 -9 -10 7438.62 257.129 19
-6 -9 -11 1808.7 112.003 12
6 9 11 1786.1 122.659 62
-6 -9 -11 1958.65 127.625 19
-6 -9 -12 2579.66 116.575 12
6 9 12 2685.04 133.69 62
-6 -9 -12 2524.86 130.423 19
-6 -9 -13 2074.06 83.8213 12
6 9 13 2304.32 107.173 62
-6 -9 -13 2273.01 105.304 19
-6 -10 6 901.3 55.1985 8
6 10 -6 969.559 69.8304 15
6 10 -6 977.94 70.217 61
6 10 -6 862.991 62.9087 9
-6 -10 6 893.507 57.8049 56
-6 -10 6 960.266 60.3705 45
6 10 -5 17.1699 30.9352 15
-6 -10 5 27.1834 23.1335 8
-6 -10 5 19.6138 21.7784 56
6 10 -5 15.853 34.5405 61
-6 -10 5 -1.12253 22.603 45
-6 -10 5 19.5323 23.3375 43
6 10 -4 1008.1 92.9731 15
6 10 -4 880.434 88.2948 61
-6 -10 4 767.448 67.0271 56
-6 -10 4 871.755 72.9055 45
-6 -10 4 842.576 74.9405 43
6 10 -3 2615.48 153.931 7
-6 -10 3 2549.6 121.688 65
6 10 -3 2669.74 154.879 61
-6 -10 3 2411.89 118.954 56
-6 -10 3 2564.77 128.662 45
-6 -10 3 2574.24 131.717 43
6 10 -2 5546.92 231.343 7
6 10 -2 5627.74 228.74 61
-6 -10 2 5126.6 173.177 56
-6 -10 2 5216.01 190.556 65
-6 -10 2 5181.51 184.211 45
-6 -10 2 5334.91 195.452 43
6 10 -1 1618.65 132.735 7
-6 -10 1 1618.41 114.786 65
6 10 -1 1598.39 131.573 61
-6 -10 1 1575.86 103.596 45
-6 -10 1 1631.08 111.645 43
6 10 0 1311.89 120.68 7
-6 -10 0 1181.37 101.949 65
-6 -10 0 1253.78 90.6468 45
-6 -10 0 1349.56 102.144 43
6 10 1 2437.56 158.499 7
-6 -10 -1 2230.7 138.726 65
-6 -10 -1 2128.28 113.366 45
6 10 1 2177.57 150.564 44
-6 -10 -1 2334.89 129.218 43
6 10 2 5931.09 236.669 7
-6 -10 -2 6131.07 225.809 65
6 10 2 5931.83 238.392 60
-6 -10 -2 5971.74 218.203 52
6 10 2 5871.21 245.311 44
-6 -10 -2 5934.62 197.368 43
6 10 3 721.303 97.1452 60
6 10 3 917.099 94.1237 7
-6 -10 -3 893.326 89.5237 65
-6 -10 -3 828.378 86.4823 52
6 10 3 706.92 96.6845 44
-6 -10 -3 827.684 74.1657 43
6 10 4 13503.7 335.057 7
-6 -10 -4 13978.7 332.464 65
6 10 4 13511.4 365.128 62
6 10 4 13057.2 369.236 60
-6 -10 -4 13617.9 338.5 52
-6 -10 -4 13659.9 294.851 18
6 10 4 13695.7 380.764 44
6 10 5 4359.53 185.333 7
-6 -10 -5 4344.36 182.469 65
6 10 5 4297.91 217.345 60
6 10 5 4457.15 212.903 62
-6 -10 -5 4576.7 199.536 52
6 10 5 4464.82 221.8 44
6 10 6 1230.91 98.1667 7
-6 -10 -6 1241.22 97.4501 65
6 10 6 1122.42 113.343 62
-6 -10 -6 1348.95 103.88 53
-6 -10 -6 1208.26 106.178 52
-6 -10 -6 1234.06 112.962 19
6 10 6 1185.94 121.072 44
-6 -10 -7 394.672 54.0333 65
6 10 7 499.89 80.1325 62
-6 -10 -7 337.473 66.6366 19
-6 -10 -7 383.909 63.3643 53
6 10 8 189.073 59.43 62
-6 -10 -8 246.891 50.2128 12
-6 -10 -8 148.15 42.6871 53
-6 -10 -8 213.399 60.3551 19
-6 -10 -9 2237.19 126.863 12
-6 -10 -9 2441.49 148.566 19
6 10 9 2467.77 148.327 62
-6 -10 -10 2712.58 131.179 12
6 10 10 2898.94 152.756 62
-6 -10 -10 2882.13 150.725 19
-6 -10 -11 4180.22 144.986 12
6 10 11 4327.79 168.87 62
-6 -10 -11 4153.26 163.641 19
-6 -10 -12 11285 196.135 12
6 10 12 12144 243.608 62
-6 -10 -12 11807.6 242.589 19
-6 -10 -13 -15.7007 18.3504 19
6 10 13 -25.8339 23.222 62
6 10 13 -5.48598 24.1892 44
6 11 -5 -21.4216 24.7776 15
-6 -11 5 3.58285 16.2693 8
6 11 -5 -44.4205 25.6129 61
-6 -11 5 0.11174 14.9037 56
6 11 -4 156.817 38.7969 15
-6 -11 4 152.632 32.6766 8
6 11 -4 159.215 40.1629 61
-6 -11 4 183.564 30.8713 56
-6 -11 4 205.464 35.2166 45
-6 -11 4 173.001 33.9756 43
6 11 -3 699.014 75.9268 15
-6 -11 3 619.983 52.984 56
-6 -11 3 635.528 55.3045 65
6 11 -3 696.311 74.8887 61
-6 -11 3 673.201 60.6228 45
-6 -11 3 653.651 61.7533 43
-6 -11 2 24.5686 29.8944 65
6 11 -2 15.7704 37.2309 61
6 11 -2 6.5339 35.1653 7
-6 -11 2 46.9567 27.8716 45
-6 -11 2 17.6316 31.6091 43
6 11 -1 4749.79 200.099 7
-6 -11 1 4691.14 177.211 65
6 11 -1 4728.14 196.263 61
-6 -11 1 4523.67 154.429 45
-6 -11 1 4594.24 170.147 43
-6 -11 0 19.2821 35.5996 65
6 11 0 -14.4028 39.4609 61
6 11 0 31.5334 38.9728 7
-6 -11 0 6.47218 25.3752 45
-6 -11 0 -20.2462 26.6819 43
6 11 1 607.05 80.8122 7
-6 -11 -1 581.974 73.4037 65
-6 -11 -1 587.641 65.2311 52
-6 -11 -1 618.072 65.46 43
6 11 2 1088.08 101.848 7
-6 -11 -2 1035.59 92.7693 65
-6 -11 -2 1095.05 92.3495 52
6 11 2 1075.81 102.355 44
-6 -11 -2 1117.58 82.0904 43
6 11 3 513.46 71.4295 7
-6 -11 -3 424.921 64.601 65
-6 -11 -3 498.77 67.0038 52
-6 -11 -3 570.091 59.3735 18
6 11 3 531.811 76.6677 44
6 11 4 4177.3 181.426 7
-6 -11 -4 4143.38 173.774 65
-6 -11 -4 4117.89 181.876 52
6 11 4 4071.1 192.779 44
6 11 5 460.472 64.3699 7
6 11 5 452.112 74.0704 62
6 11 5 537.011 75.7421 60
-6 -11 -5 516.824 70.0648 52
-6 -11 -5 541.474 67.7936 65
6 11 5 523.975 81.521 44
6 11 6 16171.4 326.306 7
6 11 6 15008.9 360.762 60
6 11 6 16293 373.12 62
-6 -11 -6 16020.4 316.656 65
6 11 6 15936.3 379.872 44
-6 -11 -7 1329.37 87.93 65
6 11 7 1388.09 91.2084 7
-6 -11 -7 1637.41 110.829 12
6 11 7 1605.1 122.048 62
6 11 7 1463.33 119.806 60
-6 -11 -7 1595.69 119.798 19
6 11 7 1597.08 124.893 44
-6 -11 -8 807.269 76.2067 12
6 11 8 938.877 94.3338 62
-6 -11 -8 803.941 85.2564 19
6 11 8 723.356 88.6887 44
-6 -11 -9 1087.44 82.4237 12
6 11 9 1192.11 99.1884 62
-6 -11 -9 1268.09 98.6518 19
-6 -11 -10 26.5077 21.9085 12
6 11 10 22.1081 38.5995 62
-6 -11 -10 18.6474 34.066 19
6 11 11 129.845 36.6833 62
-6 -11 -11 84.9106 33.1796 19
-6 -11 -11 126.949 26.5158 12
6 11 11 95.3927 38.3159 44
6 11 12 1123.76 62.2343 62
-6 -11 -12 1158.46 63.2834 19
6 11 12 1138.34 68.3379 44
-6 -12 4 745.507 45.7454 8
6 12 -4 763.821 54.92 15
6 12 -4 713.711 49.4479 61
-6 -12 3 2854.95 100.865 8
6 12 -3 2969.85 120.925 15
-6 -12 3 2648.13 86.3198 65
6 12 -3 2809.18 111.023 61
-6 -12 3 2890.67 102.912 43
6 12 -2 31.1321 33.461 15
-6 -12 2 34.9825 22.3966 65
6 12 -2 5.27386 29.5478 61
6 12 -2 21.0335 28.0391 7
-6 -12 2 24.3145 21.3587 43
-6 -12 1 32.9216 24.4351 65
6 12 -1 44.5021 33.8667 61
6 12 -1 33.2881 30.1614 7
-6 -12 1 22.2868 24.25 43
6 12 0 566.002 70.1979 7
-6 -12 0 594.392 64.8564 65
6 12 0 620.906 70.7034 61
-6 -12 0 520.911 53.6521 43
6 12 1 1608.34 111.928 7
-6 -12 -1 1727.46 108.467 65
-6 -12 -1 1616.09 93.2913 52
-6 -12 -1 1463.38 82.854 18
-6 -12 -1 1543.51 86.934 43
6 12 2 1317.14 100.715 7
-6 -12 -2 1209.05 93.3908 65
-6 -12 -2 1270.31 90.1723 52
-6 -12 -3 39.5408 34.6379 65
6 12 3 103.566 42.6988 7
-6 -12 -3 82.0198 35.1357 52
6 12 3 40.9353 35.0483 44
6 12 4 378.416 58.0485 7
-6 -12 -4 403.407 56.9722 65
-6 -12 -4 361.726 57.2802 52
6 12 4 359.592 59.1786 44
-6 -12 -5 253.983 43.0553 65
6 12 5 270.545 48.4513 7
6 12 5 260.043 53.8433 44
-6 -12 -6 57.0912 26.013 65
6 12 6 -2.43818 24.8117 7
6 12 6 48.1469 36.289 44
6 12 7 419.344 48.6557 7
-6 -12 -7 407.088 53.9825 12
6 12 7 365.365 62.2333 62
6 12 7 423.917 63.887 44
-6 -12 -8 7239.77 185.756 12
6 12 8 7261.76 206.732 62
6 12 8 6947.52 193.533 60
6 12 8 7195.13 211.466 44
6 12 9 3880.45 135.627 60
-6 -12 -9 4077.88 124.174 12
6 12 9 4104.63 145.521 62
6 12 9 4326.37 154.561 44
6 12 10 851.168 63.6649 62
6 12 10 821.011 64.6433 44
6 13 -2 42.4965 20.8291 15
-6 -13 2 -6.81714 15.6508 8
-6 -13 1 435.744 38.1683 8
6 13 -1 529.682 52.3222 15
6 13 -1 495.574 48.8922 7
-6 -13 1 450.675 43.1305 65
6 13 -1 496.773 47.3891 61
6 13 0 2394.84 107.571 7
6 13 0 2306.16 102.871 61
-6 -13 0 2401.68 100.91 65
6 13 1 378.725 49.9582 7
-6 -13 -1 336.891 44.0999 65
6 13 1 367.386 49.6776 61
6 13 2 2073.43 107.197 7
-6 -13 -2 2030.14 100.408 65
6 13 2 2077.09 105.475 61
6 13 3 446.456 54.0282 7
-6 -13 -3 409.381 49.2692 65
6 13 4 31.2412 26.6959 7
-6 -13 -4 10.9514 20.158 65
6 13 5 1265.83 78.0815 7
-6 -13 -5 1130.39 68.7541 65
6 13 5 1220.26 76.9446 44
-6 -13 -6 138.211 29.5084 12
6 13 6 168.622 32.4205 7
6 13 6 152.29 35.3039 44
-6 -13 -7 454.483 43.6226 12
6 13 7 378.418 46.8415 44
-6 -13 -8 160.193 24.7603 12
6 13 8 146.097 30.451 44
6 14 1 49.6992 19.8351 7
-6 -14 -1 34.0273 15.812 65
-6 -14 -2 21.9753 16.5893 65
6 14 2 -20.488 16.7819 61
6 14 2 -5.12205 15.1006 7
-6 -14 -3 1594 66.3735 65
6 14 3 1587.19 70.6142 61
6 14 4 1434.21 66.194 7
6 14 4 1301.71 64.0539 61
-6 -14 -4 1289.34 62.9564 12
-6 -14 -5 383.692 33.5775 12
7 -11 1 38.5359 16.6098 53
-7 11 -2 638.437 41.8305 14
7 -11 2 605.648 50.3786 53
-7 11 -3 15.4075 14.2821 14
7 -11 3 4.42249 17.9143 53
-7 11 -4 815.981 50.0792 14
7 -11 4 820.857 57.602 53
-7 11 -5 131.454 23.8677 14
7 -10 -1 895.846 63.2161 53
7 -10 -1 1028.02 63.4348 51
-7 10 0 112.226 23.0433 14
7 -10 0 72.7654 24.5311 53
7 -10 0 146.481 28.6148 51
-7 10 -1 690.861 54.3198 14
7 -10 1 574.92 61.8735 53
-7 10 -2 23.7019 20.9277 14
7 -10 2 63.685 33.2094 53
-7 10 -3 1994.97 96.0375 14
-7 10 -3 1858.56 82.2604 11
7 -10 3 1818.76 100.792 57
7 -10 3 1920.63 113.712 53
-7 10 -4 167.605 33.7977 14
-7 10 -4 242.853 33.8901 11
7 -10 4 176.819 37.0383 57
7 -10 4 129.572 31.0537 55
7 -10 4 154.003 42.2197 53
-7 10 -5 378.462 45.5373 14
-7 10 -5 364.847 42.7491 11
7 -10 5 394.674 51.6868 57
7 -10 5 344.91 45.52 55
7 -10 5 422.377 56.9107 53
-7 10 -6 1.05448 21.7482 14
-7 10 -6 5.18188 19.3446 11
7 -10 6 22.3022 24.7228 57
7 -10 6 14.4336 21.9552 53
7 -10 6 -4.12577 21.7676 55
-7 10 -7 40.8164 21.3152 14
7 -10 7 51.5574 20.9509 53
7 -10 7 53.4803 28.152 57
7 -10 7 45.2601 27.0554 55
7 -10 8 551.816 48.8979 57
7 -10 8 474.726 46.4842 55
-7 9 4 671.648 42.5152 7
7 -9 -4 717.973 54.9331 51
-7 9 3 68.3467 22.5575 7
7 -9 -3 106.377 32.3976 51
-7 9 2 330.991 38.1405 7
7 -9 -2 227.575 38.2651 53
7 -9 -2 324.316 50.9311 51
-7 9 1 366.031 41.6298 14
-7 9 1 370.324 41.6187 7
7 -9 -1 246.317 45.4065 53
7 -9 -1 365.823 55.3087 51
-7 9 1 330.164 42.5092 8
-7 9 0 188.855 37.9496 8
7 -9 0 177.3 45.521 53
7 -9 0 176.299 43.6229 51
7 -9 1 1205.6 88.0045 57
7 -9 1 1256.59 105.105 53
7 -9 1 1236.36 95.8661 51
-7 9 -1 1268.31 84.2296 8
7 -9 2 223.199 46.9967 57
7 -9 2 323.272 63.8769 53
7 -9 2 339.085 54.7378 51
-7 9 -3 557.638 56.2433 11
7 -9 3 515.006 67.5172 57
7 -9 3 539.049 76.4142 53
-7 9 -4 104.589 35.406 14
-7 9 -4 63.1724 29.7329 11
7 -9 4 61.31 32.9598 57
7 -9 4 71.157 31.9976 55
7 -9 4 91.3224 44.2131 53
-7 9 -5 403.977 56.0264 14
-7 9 -5 422.315 53.3055 11
7 -9 5 367.335 59.8309 57
7 -9 5 354.755 55.9118 55
7 -9 5 353.756 64.1373 53
-7 9 -6 211.662 42.1705 14
-7 9 -6 221.827 42.8082 11
7 -9 6 207.827 47.1559 57
7 -9 6 191.158 45.7573 55
7 -9 6 183.494 47.9571 53
-7 9 -7 1701.74 92.7623 14
-7 9 -7 1685.31 96.2648 11
7 -9 7 1604.42 106.333 57
7 -9 7 1638.39 107.782 55
7 -9 7 1546.11 106.49 53
-7 9 -8 536.707 49.8529 14
-7 9 -8 548.552 54.7633 11
7 -9 8 594.78 64.6881 57
7 -9 8 552.542 64.3007 55
7 -9 8 483.087 57.0674 53
-7 9 -9 298.978 39.9755 11
7 -9 9 380.58 46.5509 57
7 -9 9 345.314 50.1831 55
7 -9 10 347.857 43.976 55
-7 8 5 1147.48 61.0628 7
7 -8 -5 1223.81 76.0955 51
-7 8 4 24.1119 21.8683 7
7 -8 -4 10.4225 26.2179 51
7 -8 -3 5389.78 200.192 51
-7 8 3 5418.08 144.976 8
-7 8 3 5641.99 158.092 7
7 -8 -2 1835.99 114.572 53
-7 8 2 1932.85 98.1165 7
7 -8 -2 2108.86 135.554 51
-7 8 2 2060.99 100.537 8
-7 8 1 21.4426 25.11 8
-7 8 1 24.6897 20.4977 7
7 -8 -1 14.8148 32.8863 53
7 -8 -1 31.6528 40.0905 51
7 -8 0 4390.4 199.5 53
7 -8 0 4586.33 208.424 51
-7 8 0 4883.9 172.336 8
7 -8 1 4218.5 175.806 57
7 -8 1 4039.11 198.081 53
7 -8 1 4356.56 202.991 51
-7 8 -1 4206.53 163.496 8
-7 8 -2 4.36582 30.9901 8
-7 8 -2 -9.02444 22.246 11
7 -8 2 15.7482 26.1973 57
7 -8 2 -31.8743 37.2194 53
7 -8 2 40.7597 38.708 51
-7 8 -3 1831.7 109.405 11
7 -8 3 1810.65 127.245 57
7 -8 3 1732.92 115.187 55
7 -8 3 1814.99 139.642 53
7 -8 3 1941.72 132.604 51
-7 8 -3 1824.53 111.474 8
-7 8 -4 3260.06 147.341 11
7 -8 4 3281.14 171.446 57
7 -8 4 3086.8 158.047 55
7 -8 4 3237.95 185.786 53
-7 8 -4 3370.52 147.26 8
-7 8 -5 10.1842 31.6799 11
7 -8 5 31.4989 36.1834 57
7 -8 5 -0.61587 39.9961 53
-7 8 -6 109.899 35.6465 14
-7 8 -6 76.0844 37.8584 11
7 -8 6 91.6638 43.6538 57
7 -8 6 117.724 47.3034 53
-7 8 -7 1574.4 99.6831 14
-7 8 -7 1522.49 102.139 11
7 -8 7 1597.55 119.62 57
7 -8 7 1459.66 119.477 53
-7 8 -8 321.256 45.4085 14
-7 8 -8 284.281 47.8279 11
7 -8 8 325.138 61.1977 57
7 -8 8 330.367 61.3376 53
-7 8 -9 159.705 37.1297 11
7 -8 9 232.312 46.7832 57
7 -8 9 252.047 47.4757 53
-7 8 -10 245.4 38.7335 11
7 -8 10 299.184 45.8996 57
7 -8 11 79.3002 31.2044 55
-7 7 6 2079.01 82.6978 7
7 -7 -6 2077.74 98.4172 51
-7 7 5 321.251 42.1407 7
7 -7 -5 268.428 43.1616 10
7 -7 -5 406.435 58.6461 51
7 -7 -4 920.934 81.3297 10
7 -7 -4 857.094 89.9008 51
-7 7 4 803.189 66.4902 47
-7 7 4 914.609 60.6084 8
7 -7 -3 2874.82 147.104 10
7 -7 -3 2925.23 169.352 51
-7 7 3 3073.25 124.688 8
7 -7 -2 3182.59 159.809 10
7 -7 -2 2825.56 156.283 53
7 -7 -2 3175.59 182.347 51
-7 7 2 3128.3 136.843 8
-7 7 1 138.771 40.5825 8
7 -7 -1 166.889 51.3 10
7 -7 -1 97.3966 43.5563 53
7 -7 -1 89.7884 47.6132 51
-7 7 0 5400.45 177.184 7
7 -7 0 5327.23 233.163 53
7 -7 0 5064.03 237.864 51
-7 7 0 5517.1 193.085 8
-7 7 -1 4.97158 30.2829 8
7 -7 1 39.1401 26.8674 57
7 -7 1 6.25712 32.3402 53
7 -7 1 -22.7557 38.3167 51
-7 7 -2 -10.6973 31.1748 8
-7 7 -2 45.2026 29.8951 11
7 -7 2 28.3471 31.4561 57
7 -7 2 4.6957 29.7429 53
7 -7 2 -12.9792 39.4754 51
-7 7 -3 8813.1 246.395 11
7 -7 3 9195.82 323.615 53
7 -7 3 9184.61 314.98 51
-7 7 -3 9188.97 252.946 8
-7 7 -4 6237.3 211.223 11
7 -7 4 6634.69 276.118 53
7 -7 4 6340.08 256.769 51
-7 7 -4 6350.53 209.606 8
-7 7 -5 4371.56 179.661 11
7 -7 5 4198.93 222.219 53
-7 7 -5 4507.87 174.388 8
-7 7 -6 -21.62 31.3322 11
7 -7 6 3.42781 46.6047 53
-7 7 -7 529.253 65.7529 14
-7 7 -7 487.01 66.5321 11
7 -7 7 408.322 78.1021 53
-7 7 -8 84.6567 30.6233 14
-7 7 -8 70.5865 33.4185 11
7 -7 8 148.683 48.6484 53
7 -7 9 1797.52 132.41 53
-7 7 -9 1689.99 105.562 11
-7 7 -10 1028.56 78.1681 11
7 -7 10 1166.1 94.1478 57
-7 7 -10 994.816 69.0481 20
7 -7 10 1098.46 94.7512 53
-7 7 -11 36.4162 21.3815 11
7 -7 11 78.1894 24.064 57
-7 7 -11 71.5549 26.4827 20
-7 7 -12 21.0134 16.6583 20
7 -6 -7 51.9465 23.0187 10
-7 6 7 83.3868 21.3271 7
-7 6 7 105.426 22.319 47
7 -6 -6 6247.9 186.846 10
-7 6 6 6238 144.15 54
7 -6 -6 6485.48 202.402 51
-7 6 6 6547.71 159.773 47
7 -6 -5 7693.53 233.537 10
-7 6 5 7357.01 175.815 54
7 -6 -5 7542.71 250.905 51
-7 6 5 6978.56 184.593 47
7 -6 -4 1461.76 114.801 10
-7 6 4 1524.04 87.5765 54
7 -6 -4 1365.62 121.753 51
-7 6 4 1493.21 94.269 47
-7 6 4 1712.54 93.5562 8
7 -6 -3 7512.99 559.047 38
7 -6 -3 7789.38 259.199 10
7 -6 -3 7930.95 295.009 51
-7 6 3 7919.34 220.409 47
-7 6 3 8393.34 224.387 8
7 -6 -2 955.225 196.776 38
-7 6 2 1164.83 170.453 33
7 -6 -2 1165.2 107.852 10
7 -6 -2 1190.55 122.783 51
-7 6 2 1203.89 92.718 47
-7 6 2 1273.46 94.5728 8
7 -6 -1 10023.6 644.188 38
-7 6 1 10897.5 526.335 33
7 -6 -1 11075 317.126 10
7 -6 -1 10540.5 328.909 53
7 -6 -1 10691.5 357.348 51
-7 6 1 10472.3 263.697 47
-7 6 1 11301.7 279.575 8
7 -6 0 2234.09 305.567 38
-7 6 0 2133.78 243.451 33
7 -6 0 2310.45 145.619 10
7 -6 0 2109.95 153.005 53
7 -6 0 2245.57 170.194 51
-7 6 0 2193.4 127.128 8
7 -6 1 2231.16 292.01 38
-7 6 -1 2274.4 249.004 33
-7 6 -1 2442.88 125.895 11
7 -6 1 2467.66 166.694 53
7 -6 1 2327.71 171.509 51
-7 6 -1 2458.03 135.157 8
-7 6 -2 4727.5 358.698 33
-7 6 -2 4706.1 178.695 11
7 -6 2 4503.46 228.034 53
7 -6 2 4382.45 232.817 51
-7 6 -2 4837.51 188.158 8
-7 6 -3 1328.82 98.7882 11
7 -6 3 1295.69 128.456 53
7 -6 3 1249.28 128.183 51
-7 6 -3 1320.62 99.9981 8
-7 6 -4 48.4077 30.5274 8
-7 6 -4 48.5323 29.907 11
7 -6 4 59.6831 43.8592 53
7 -6 4 83.4978 38.3285 51
-7 6 -5 673.894 75.0838 11
7 -6 5 575.017 84.3076 51
-7 6 -5 700.914 72.5358 8
-7 6 -6 3939.19 174.09 11
-7 6 -6 4090.12 163.473 8
7 -6 6 4043.18 457.121 42
-7 6 -7 4483.96 186.618 11
7 -6 7 4448.76 476.765 42
-7 6 -8 657.422 67.7312 14
-7 6 -8 682.797 74.6938 11
-7 6 -8 683.752 68.3104 20
7 -6 8 703.772 205.184 42
-7 6 -9 880.421 81.6014 11
-7 6 -9 826.434 73.4436 20
-7 6 -10 12.2849 24.0732 11
-7 6 -10 -6.37077 30.0235 20
7 -6 10 -16.7119 116.311 42
-7 6 -11 639.625 59.7297 11
-7 6 -11 655.913 63.8648 20
-7 6 -12 12.2133 22.6809 20
-7 6 -13 3888.8 120.604 20
-7 5 8 1952.16 70.1968 7
7 -5 -8 1684.4 74.3317 10
7 -5 -7 1698.85 97.2869 10
-7 5 7 1774.26 78.1827 54
7 -5 -7 1795.2 97.9073 51
-7 5 7 1870.73 82.7884 47
7 -5 -6 28.9913 35.9441 10
7 -5 -6 46.6918 35.6337 51
-7 5 6 45.5021 30.3037 47
7 -5 -5 252.803 58.7594 10
7 -5 -5 325.278 69.5208 51
-7 5 5 256.916 47.1172 47
7 -5 -4 4304.25 438.376 38
7 -5 -4 3743.18 183.11 10
7 -5 -4 4108.47 216.198 51
-7 5 4 3862.87 155.483 47
-7 5 4 4129.73 152.868 8
7 -5 -3 3186.67 380.074 38
-7 5 3 3189.14 278.541 33
7 -5 -3 2837.12 162.834 10
7 -5 -3 3171.27 198.308 51
-7 5 3 3032.91 143.328 47
-7 5 3 3227.65 143.218 8
7 -5 -2 19366.1 933.902 38
-7 5 2 18113.3 670.879 33
7 -5 -2 18907.3 408.986 10
7 -5 -2 18908.2 486.138 51
-7 5 2 18904 353.496 47
-7 5 2 20087.5 361.422 8
7 -5 -1 2257.89 313.888 38
-7 5 1 2414.46 253.985 33
7 -5 -1 2590.62 153.068 58
7 -5 -1 2509.66 151.268 10
7 -5 -1 2581.07 184.847 51
-7 5 1 2681.83 134.08 47
-7 5 1 2639.75 134.609 8
7 -5 0 4761.8 453.667 38
-7 5 0 4324.22 341.085 33
7 -5 0 4319.42 195.824 10
7 -5 0 4651.07 226.307 53
7 -5 0 4195.13 233.246 51
-7 5 0 4159.57 164.022 47
-7 5 0 4092.43 167.046 8
-7 5 -1 3999.52 337.018 33
-7 5 -1 3899.09 156.515 11
7 -5 1 3642.02 202.633 53
7 -5 1 3586.91 218.432 51
-7 5 -1 4055.75 166.179 8
-7 5 -2 3353 307.712 33
-7 5 -2 3306.45 147.929 11
7 -5 2 3141.03 191.335 53
7 -5 2 3182.82 205.518 51
7 -5 2 3258.82 189 46
-7 5 -2 3585.73 156.828 8
-7 5 -3 223.674 43.5977 11
-7 5 -3 297.156 53.2816 8
-7 5 -3 324.707 101.72 33
7 -5 3 304.977 70.5416 51
7 -5 3 220.541 60.2107 46
-7 5 -4 40.1828 26.3391 8
-7 5 -4 -4.27207 24.5132 11
7 -5 4 13.5198 38.8015 51
-7 5 -5 31.4068 23.9383 8
-7 5 -5 106.983 37.8187 11
7 -5 5 43.0177 52.767 51
7 -5 5 59.0853 125.553 42
7 -5 6 753.666 193.343 31
-7 5 -6 1005.99 90.5657 11
7 -5 6 970.189 117.518 51
-7 5 -6 923.528 79.4606 8
7 -5 6 848.882 256.446 42
7 -5 7 2498.86 333.211 31
-7 5 -7 2757.49 148.034 11
-7 5 -7 2755.9 132.113 20
7 -5 7 2389.6 366.618 42
7 -5 8 3400.36 408.56 31
-7 5 -8 3693.69 169.515 11
-7 5 -8 3645.04 156.38 20
7 -5 8 3332.57 431.492 42
-7 5 -9 396.266 60.1074 11
-7 5 -9 364.902 55.3333 20
7 -5 9 315.405 144.631 42
-7 5 -10 931.113 81.7121 11
-7 5 -10 1011.32 87.3707 20
7 -5 10 831.593 217.62 42
-7 5 -11 2511.39 120.016 11
-7 5 -11 2761.27 137.024 20
-7 5 -12 52.8455 36.4527 20
-7 5 -13 37.2379 26.6393 20
-7 5 -14 16.117 17.9802 20
7 -4 -8 883.299 66.4827 10
-7 4 8 987.103 55.3044 47
7 -4 -7 123.208 41.1 10
-7 4 7 119.868 30.8358 47
7 -4 -6 1275.99 104.948 10
7 -4 -6 1359.86 112.511 51
-7 4 6 1338.85 90.451 48
-7 4 6 1214.31 84.0119 47
7 -4 -5 3428.78 172.719 10
7 -4 -5 3522.34 197.295 51
-7 4 5 3242.22 148.478 48
-7 4 5 3328.47 143.961 47
-7 4 5 3632.6 137.667 8
7 -4 -4 2690.53 362.567 38
7 -4 -4 3002.28 164.735 10
7 -4 -4 2985.33 190.509 51
-7 4 4 2898.99 145.674 48
-7 4 4 2955.94 140.985 47
-7 4 4 2957.87 133.801 8
7 -4 -3 146.941 93.6629 38
-7 4 3 120.394 38.6081 8
7 -4 -3 134.981 51.9802 58
7 -4 -3 130.221 48.0013 10
7 -4 -3 103.698 52.0682 51
-7 4 3 115.09 42.2882 48
-7 4 3 124.102 39.0947 47
7 -4 -2 7493.17 599.309 38
-7 4 2 8040.24 449.908 33
7 -4 -2 7718.33 274.749 58
7 -4 -2 7881.37 258.798 10
7 -4 -2 7909.07 322.459 51
-7 4 2 8307.38 245.947 48
-7 4 2 8281.7 232.862 47
-7 4 2 8120.78 229.717 8
7 -4 -1 11216.5 715.153 38
-7 4 1 10643.3 518.095 33
7 -4 -1 10839.6 318.022 58
7 -4 -1 10889.3 296.034 10
7 -4 -1 11672.1 390.354 51
-7 4 1 10675.7 261.999 8
-7 4 0 306.103 49.1199 16
-7 4 0 332.174 50.8098 8
-7 4 0 239.2 94.1729 33
7 -4 0 333.636 59.3141 58
7 -4 0 348.681 59.2421 10
7 -4 0 457.269 91.1465 51
-7 4 -1 2436.59 252.186 33
7 -4 1 2103.31 273.889 22
7 -4 1 2490.43 166.274 53
7 -4 1 2464.47 183.633 51
7 -4 1 2603.43 297.751 1
7 -4 1 2682.27 174.214 46
-7 4 -1 2694.7 130.702 8
-7 4 -1 2544.84 132.077 16
-7 4 -2 23493.4 769.965 33
7 -4 2 20807.1 842.542 22
7 -4 2 23786.8 554.025 51
7 -4 2 19595.2 786.144 1
7 -4 2 22166.3 485.369 46
-7 4 -2 23515.7 381.51 8
-7 4 -2 22699.6 389.208 16
7 -4 2 23917.5 999.111 42
-7 4 -3 310.203 51.8317 16
-7 4 -3 374.076 53.2065 8
7 -4 3 132.262 63.2309 1
-7 4 -3 258.831 108.96 33
7 -4 3 277.508 103.906 22
7 -4 3 389.447 79.0007 51
7 -4 3 214.153 66.3394 46
7 -4 3 204.686 121.92 42
-7 4 -4 5510.37 372.562 33
7 -4 4 4942.57 396.543 31
7 -4 4 4727.04 381.061 22
7 -4 4 5336.58 261.406 51
7 -4 4 5112.72 378.73 1
7 -4 4 5230.67 229.38 46
-7 4 -4 5756.46 190.411 8
-7 4 -4 5520.42 191.17 16
7 -4 4 4995.85 484.66 42
-7 4 -5 165.336 38.7107 16
-7 4 -5 310.663 46.3606 8
7 -4 5 488.52 147.506 31
7 -4 5 432.848 88.435 51
7 -4 5 24.8022 75.0639 22
7 -4 5 360.06 169.361 42
7 -4 6 11390.5 658.707 31
7 -4 6 10264.6 532.015 22
-7 4 -6 11716.5 266.109 20
7 -4 6 10664.5 369.356 51
-7 4 -6 11376.9 273.054 16
7 -4 6 10585.6 732.371 42
7 -4 7 3048.5 360.724 31
-7 4 -7 3033.29 150.529 11
-7 4 -7 2833.71 137.962 20
7 -4 7 2652.13 386.783 42
7 -4 8 39403.5 1310.03 31
-7 4 -8 37443.4 526.842 11
-7 4 -8 37506.9 511.688 20
7 -4 8 36296.5 1361.8 42
7 -4 9 12066.3 747.637 31
-7 4 -9 12344.5 302.04 11
-7 4 -9 12333.2 301.341 20
7 -4 9 12079 799.818 42
-7 4 -10 3097.79 145.395 11
-7 4 -10 3210.67 158.085 20
7 -4 10 3223.07 418.56 42
-7 4 -11 4689.68 188.005 20
7 -4 11 4943.97 498.878 42
-7 4 -12 125.245 42.3217 20
-7 4 -13 12.4379 29.2833 20
-7 4 -14 357.951 44.9691 20
-7 4 -15 264.039 30.6486 20
7 -3 -8 62.1624 31.4487 10
-7 3 8 101.354 28.0027 48
-7 3 8 63.9838 21.9585 47
7 -3 -7 725.606 77.2969 10
-7 3 7 763.454 67.902 48
-7 3 7 676 60.656 47
7 -3 -6 11651.6 303.483 10
-7 3 6 11644.3 269.77 48
-7 3 6 11177.2 249.259 47
7 -3 -5 308.658 142.623 38
-7 3 5 180.274 37.1363 8
7 -3 -5 219.979 57.1059 10
7 -3 -5 123.286 48.8193 51
-7 3 5 160.953 47.5834 48
-7 3 5 131.288 37.2589 47
7 -3 -4 8454.62 656.796 38
7 -3 -4 8873.62 308.864 58
7 -3 -4 8218.66 265.341 10
7 -3 -4 8758.75 330.583 51
-7 3 4 8589.95 248.895 48
-7 3 4 8217.09 230.29 47
-7 3 4 8729.74 230.024 8
7 -3 -3 4550.37 482.952 38
7 -3 -3 4725.06 222.778 58
7 -3 -3 4420.5 193.019 10
7 -3 -3 4794.74 252.172 51
-7 3 3 4360.39 180.739 48
-7 3 3 4610.29 172.36 47
-7 3 3 4335.22 166.404 8
7 -3 -2 301.469 135.605 38
7 -3 -2 470.299 76.1833 58
7 -3 -2 478.426 68.5629 10
7 -3 -2 622.173 97.0857 51
-7 3 2 605.834 71.0971 48
-7 3 2 588.461 65.7065 8
-7 3 1 2831.82 290.412 24
7 -3 -1 3141.06 173.011 58
7 -3 -1 3121.85 153.139 10
7 -3 -1 3427.39 213.979 51
-7 3 1 3287.17 150.204 48
7 -3 -1 3399.83 353.266 1
7 -3 -1 3501.69 204.589 46
-7 3 1 3128.59 140.707 8
-7 3 1 3149.15 139.624 16
-7 3 0 43.8471 23.0884 16
-7 3 0 8.29547 21.7781 8
7 -3 0 100.595 75.0657 1
-7 3 0 -248.589 81.2079 24
7 -3 0 64.6327 41.8602 58
7 -3 0 31.4211 24.373 10
7 -3 0 -152.935 59.8093 51
-7 3 0 -0.8154 24.7709 48
7 -3 0 -55.9995 44.9188 46
7 -3 1 821.421 160.137 1
-7 3 -1 963.431 153.455 33
7 -3 1 769.649 154.888 22
-7 3 -2 47607.8 1052.37 33
7 -3 2 41410 1106.41 22
7 -3 2 40406.4 1082.93 1
7 -3 2 47177.4 1347.48 42
7 -3 3 38.8321 34.1992 1
-7 3 -3 8.8925 71.1824 33
7 -3 3 15.5198 40.576 22
7 -3 3 -4.07972 98.6959 42
7 -3 4 622.046 125.317 1
-7 3 -4 660.934 135.445 33
7 -3 4 702.502 160.795 31
7 -3 4 660.408 129.803 22
7 -3 4 586.325 184.335 42
7 -3 5 2700.14 294.133 31
7 -3 5 2489.05 252.078 22
-7 3 -5 2496.52 247.455 5
7 -3 5 3045.46 375.777 42
7 -3 6 161.948 143.771 42
7 -3 6 -193.119 101.183 31
-7 3 -6 81.7496 66.7492 5
7 -3 7 6205.28 484.848 31
7 -3 7 5778.36 497.482 28
-7 3 -7 5903.49 198.462 20
-7 3 -7 5726.99 381.635 5
-7 3 -7 5865.41 189.395 16
7 -3 7 5735.9 520.98 42
7 -3 8 69267.8 1658.09 31
7 -3 8 68653.2 1753.25 28
-7 3 -8 67451.3 686.595 11
-7 3 -8 67695.5 689.983 20
7 -3 8 70449.3 1839.61 42
7 -3 9 41021.3 1340.16 31
-7 3 -9 37567.8 515.011 12
7 -3 9 41039.3 1400.69 28
-7 3 -9 37596.2 514.122 11
-7 3 -9 38903.1 543.4 20
7 -3 9 41052.4 1429.08 42
7 -3 10 3641.76 427.542 31
-7 3 -10 3379.52 162.836 12
7 -3 10 3815.97 451.886 28
-7 3 -10 3243.66 149.322 11
-7 3 -10 3279.79 162.177 20
7 -3 10 3873.54 455.139 42
-7 3 -11 11140.3 296.748 20
7 -3 11 11555.4 780.091 42
7 -3 12 1461.8 263.067 42
-7 3 -12 1106.64 97.0273 20
-7 3 -13 113.563 41.3331 20
-7 3 -14 20.6181 26.38 20
-7 3 -15 3175.76 108.658 20
7 -2 -9 1312.05 73.7473 10
-7 2 9 1397.67 63.4492 48
7 -2 -8 31.0091 29.3615 10
-7 2 8 54.4687 26.7781 48
-7 2 8 43.0747 24.0354 47
7 -2 -7 511.651 69.0946 10
-7 2 7 550.393 63.0982 48
7 -2 -6 646.361 79.7119 10
-7 2 6 555.374 67.7363 48
-7 2 5 11020.3 543.012 41
7 -2 -5 11812.8 771.249 38
7 -2 -5 12394.4 371.798 58
7 -2 -5 12085.5 317.101 10
-7 2 5 12221.9 292.659 48
-7 2 5 12388.6 265.299 8
7 -2 -4 105.64 133.805 38
-7 2 4 159.351 39.6145 8
7 -2 -4 51.0091 37.4038 58
7 -2 -4 128.537 49.8009 51
-7 2 4 110.939 40.4458 48
-7 2 3 25061.9 796.857 41
7 -2 -3 25947.6 1146.64 38
7 -2 -3 24919.5 513.704 58
7 -2 -3 25273 569.111 51
-7 2 3 25816.7 427.819 48
-7 2 3 25702.9 399.632 8
7 -2 -2 14374.5 379.888 58
7 -2 -2 14844 443.885 51
-7 2 2 14844 315.527 48
-7 2 2 14096.1 293.542 8
-7 2 1 14006.3 622.634 24
7 -2 -1 15178.5 376.101 58
7 -2 -1 17288.7 479.257 51
-7 2 1 16574.7 325.904 48
7 -2 -1 17288.5 442.273 46
7 -2 -1 14654 694.316 1
-7 2 1 16073.9 307.492 8
-7 2 0 10811.5 513.558 24
7 -2 0 10219.5 562.504 1
-7 2 -1 11951.9 503.84 24
7 -2 1 11200.5 565.936 1
7 -2 2 538.04 126.423 1
-7 2 -2 675.411 130.186 33
7 -2 2 488.755 110.398 22
7 -2 2 796.062 181.899 42
-7 2 -3 18195.9 613.124 33
7 -2 3 15856.4 622.518 22
7 -2 3 16295.1 636.878 1
7 -2 3 17417.8 794.161 42
7 -2 4 234.58 109.509 42
7 -2 4 301.826 88.5549 1
-7 2 -4 100.771 64.4254 33
7 -2 4 273.666 114.573 28
7 -2 4 247.357 78.4847 22
7 -2 5 126.91 91.4862 42
-7 2 -5 82.9224 56.5024 33
7 -2 5 141.112 59.7534 1
7 -2 5 281.025 108.239 28
7 -2 5 71.094 42.8707 22
7 -2 6 777.04 198.733 42
7 -2 6 597.432 157.533 28
-7 2 -6 795.773 158.46 5
7 -2 7 754.602 210.126 42
7 -2 7 1046.7 206.202 39
7 -2 7 846.586 194.414 28
-7 2 -7 1071.73 175.764 5
7 -2 8 6450.34 497.097 39
7 -2 8 6043.16 507.308 28
-7 2 -8 6533.38 216.277 20
-7 2 -8 6336.93 417.041 5
-7 2 -8 5637.73 401.473 4
7 -2 8 6082.57 531.431 42
-7 2 -9 6527.45 216.55 12
7 -2 9 6819.22 563.583 28
-7 2 -9 7015.36 230.983 20
-7 2 -9 6821.59 213.928 11
7 -2 9 7297.44 592.159 42
7 -2 10 5660.03 509.381 31
-7 2 -10 5326.72 204.472 12
7 -2 10 6172.47 549.12 28
-7 2 -10 5231.99 205.358 20
7 -2 10 5410.67 527.885 42
7 -2 11 148.577 145.114 42
-7 2 -11 26.793 30.7149 20
-7 2 -11 24.3064 36.714 12
-7 2 -12 204.856 57.0825 12
-7 2 -12 142.556 46.5008 20
-7 2 -13 32.6059 35.6868 20
-7 2 -14 115.38 36.8451 20
-7 2 -15 515.883 48.4257 20
7 -1 -9 1014.49 69.7507 10
-7 1 9 986.116 57.9258 48
-7 1 9 976.991 51.6135 47
7 -1 -8 2364.81 123.179 10
7 -1 -8 2386.8 107.281 9
-7 1 8 2390.41 107.179 48
7 -1 -7 5555.62 202.225 10
7 -1 -7 5279.88 176.656 9
-7 1 7 5203.34 175.69 48
-7 1 6 241.227 93.8413 41
-7 1 6 118.549 31.1035 8
7 -1 -6 132.183 48.3973 10
-7 1 6 129.176 41.3015 48
-7 1 5 2032.78 233.971 41
7 -1 -5 2182.91 323.28 38
7 -1 -5 2349.03 167.125 58
-7 1 5 2282.09 120.13 49
-7 1 5 2165.49 127.004 48
-7 1 5 2242.54 116.526 8
-7 1 4 459.432 118.476 41
7 -1 -4 322.277 143.825 38
7 -1 -4 587.833 88.8488 58
-7 1 4 511.819 61.1699 49
-7 1 4 596.002 70.7637 48
-7 1 4 558.463 63.1628 8
-7 1 3 1364.95 181.866 41
7 -1 -3 1255.08 280.469 38
7 -1 -3 1630.83 136.391 58
-7 1 3 1573.32 104.111 49
-7 1 3 1727.74 111.519 48
-7 1 3 1724.64 106.489 8
-7 1 2 3033.32 263.518 41
7 -1 -2 2560.56 281.038 2
-7 1 2 3006.68 309.085 24
7 -1 -2 2905.33 194.554 51
-7 1 2 2946.27 135.248 49
-7 1 2 2978.34 139.975 48
7 -1 -2 2923.22 187.002 46
7 -1 -2 3079 177.678 58
7 -1 -2 2736.61 301.764 1
-7 1 2 2988.5 136.088 8
7 -1 -1 2027.57 233.234 2
-7 1 1 1530.77 205.093 24
7 -1 -1 1673.53 227.787 1
-7 1 0 31334.2 856.91 24
7 -1 0 31127.2 937.737 1
7 -1 1 1078.65 167.228 1
-7 1 -1 1057.33 146.812 24
7 -1 2 148.742 93.75 42
7 -1 2 178.68 78.3038 1
-7 1 -2 77.8986 47.0269 24
-7 1 -3 7257.93 368.245 33
7 -1 3 7371.18 439.603 28
7 -1 3 7131.67 403.096 1
7 -1 3 7581.33 495.668 42
7 -1 4 161.64 99.0243 42
-7 1 -4 235.713 81.3904 33
7 -1 4 433.983 96.4228 1
7 -1 4 339.575 108.323 28
7 -1 4 252.002 76.6846 22
7 -1 5 771.454 179.07 39
-7 1 -5 829.441 127.912 33
7 -1 5 757.538 126.604 1
7 -1 5 644.868 150.906 28
7 -1 5 896.87 126.297 22
7 -1 6 -15.9738 73.6403 39
7 -1 6 -85.8875 95.5821 28
-7 1 -6 -12.7286 70.4468 5
7 -1 7 14058.3 741.46 39
7 -1 7 14282.7 703.661 28
-7 1 -7 15348.5 634.851 5
7 -1 8 60741.7 1545.4 39
-7 1 -8 60784.5 645.649 20
-7 1 -8 60558.1 1290.5 5
7 -1 9 130.492 102.457 39
-7 1 -9 49.0926 33.6493 12
-7 1 -9 167.248 46.1084 20
7 -1 10 -96.8566 115.101 28
-7 1 -10 32.5106 32.212 12
-7 1 -10 14.9711 31.0816 20
-7 1 -11 2248.5 139.989 12
-7 1 -11 2411.44 141.914 20
7 -1 12 130.354 128.787 42
-7 1 -12 101.74 46.8726 12
-7 1 -12 18.6996 34.6481 20
7 -1 13 627.861 183.35 42
-7 1 -13 642.656 81.6588 12
-7 1 -13 590.06 72.5807 20
-7 1 -14 1682.66 103.939 20
-7 1 -15 40.9864 22.7611 20
7 0 -9 1967.39 95.0141 10
7 0 -9 1960.64 88.8723 9
-7 0 9 2027.38 84.3865 48
7 0 -8 18680.8 340.611 10
7 0 -8 17950.6 311.535 9
-7 0 8 17916.5 292.454 48
7 0 -7 11063.8 283.824 10
7 0 -7 10118.7 255.575 9
-7 0 7 10283.9 226.543 49
-7 0 7 10493.4 252.308 48
-7 0 6 56.7582 58.5525 41
-7 0 6 199.817 41.0988 8
7 0 -6 123.932 46.6431 58
7 0 -6 159.671 43.3184 9
-7 0 6 198.267 42.1275 49
-7 0 6 128.706 44.012 48
7 0 -5 267.159 151.756 38
-7 0 5 141.158 37.0482 8
7 0 -5 139.314 53.1693 58
7 0 -5 220.258 47.6695 9
-7 0 5 146.018 39.3073 49
-7 0 5 135.425 38.6297 48
-7 0 4 299.193 97.8738 41
7 0 -4 439.455 159.623 38
-7 0 4 250.972 46.1542 8
7 0 -4 290.827 66.8157 58
-7 0 4 228.467 46.5677 49
-7 0 4 256.827 50.3482 48
-7 0 3 3139.2 142.494 8
-7 0 3 2823.24 260.688 41
7 0 -3 2838.29 391.386 38
7 0 -3 3168.71 188.007 58
-7 0 3 3027.96 142.303 49
-7 0 3 3061.14 147.692 48
-7 0 2 25491.1 392.329 8
7 0 -2 22967 805.131 2
7 0 -2 24435.6 423.216 64
-7 0 2 24468.4 836.866 24
7 0 -2 26751.8 523.813 58
-7 0 2 26096.8 405.528 49
-7 0 2 25653.8 401.348 48
7 0 -2 26620.9 549.643 46
7 0 -2 23887.3 857.796 1
-7 0 1 7.9266 38.1592 24
7 0 -1 -40.2193 41.722 2
-7 0 0 34.3409 46.2768 24
7 0 0 -7.99021 30.0548 2
7 0 1 15761.4 541.576 2
-7 0 -1 14966.1 551.047 24
7 0 1 14239.4 595.31 1
-7 0 -2 39341.6 839.028 24
7 0 2 38949.2 946.181 1
7 0 3 1419.95 198.309 42
7 0 3 1553.53 188.147 28
-7 0 -3 1739.43 166.351 24
7 0 3 1364.12 174.751 1
7 0 4 8440.35 567.527 39
-7 0 -4 9456.06 393.847 33
7 0 4 8612.72 455.598 28
7 0 4 8806.77 421.513 1
7 0 5 6040.77 482.827 39
-7 0 -5 6030.44 324.456 33
7 0 5 5350.13 378.866 28
7 0 5 5820.13 334.999 1
7 0 6 10914.2 643.869 39
7 0 6 10677.8 560.013 28
-7 0 -6 11011.2 513.426 5
7 0 7 2973.86 353.335 39
7 0 7 2781.25 311.808 28
-7 0 -7 3021.4 285.706 5
7 0 8 5764.09 490.311 39
7 0 8 6361.95 484.632 28
-7 0 -8 6464.31 430.027 5
7 0 9 7187.29 565.355 39
-7 0 -9 6863.75 222.721 12
7 0 9 7029.76 533.816 28
-7 0 -9 6973.4 227.481 20
-7 0 -9 7199.64 470.131 5
7 0 10 7397.86 585.99 39
-7 0 -10 7353.76 242.06 12
7 0 10 7727.87 588.08 28
-7 0 -10 7457.07 242.828 20
7 0 11 1804.65 282.472 39
-7 0 -11 1748.21 124.579 12
7 0 11 1673.09 300.294 28
-7 0 -11 1890.33 125.887 20
-7 0 -12 3127.66 166.789 12
-7 0 -12 3076.38 159.758 20
-7 0 -13 6740.44 236.797 12
-7 0 -13 6571.37 221.058 20
-7 0 -14 2429.78 136.011 12
-7 0 -14 2176.65 118.767 20
-7 0 -15 1445.59 81.1733 20
7 1 -9 2026.91 96.1231 10
7 1 -9 1973.26 95.8008 9
-7 -1 9 2013.25 84.747 48
7 1 -8 1709.03 106.702 10
7 1 -8 1601.8 102.186 9
-7 -1 8 1689.97 84.293 49
-7 -1 8 1578.98 90.236 48
7 1 -7 -8.71105 33.5432 9
-7 -1 7 13.8584 30.0874 49
-7 -1 7 16.5277 31.9491 48
-7 -1 6 5888.05 378.21 41
7 1 -6 6471.88 266.592 58
7 1 -6 6317.33 217.514 9
-7 -1 6 6045.46 198.816 49
-7 -1 6 6303.95 188.278 8
-7 -1 5 2437.73 125.108 8
-7 -1 5 2212.76 236.494 41
7 1 -5 2762.63 181.849 58
-7 -1 5 2410.01 125.804 56
7 1 -5 2393.58 135.045 9
-7 -1 5 2387.57 130.653 49
-7 -1 4 3419.29 151.547 8
7 1 -4 3678.48 209.725 58
-7 -1 4 3668.86 157.815 56
7 1 -4 3387.21 155.725 9
-7 -1 4 3610.88 160.496 49
-7 -1 3 1439.56 99.3223 8
7 1 -3 1129.05 241.744 38
7 1 -3 985.249 181.622 1
7 1 -3 1275.28 122.797 58
-7 -1 3 1351.5 97.002 56
-7 -1 3 1321.43 97.1501 49
7 1 -3 1363.11 110.19 64
-7 -1 2 3583.46 149.774 8
7 1 -2 3231.17 319.179 1
7 1 -2 3253.99 296.553 2
-7 -1 2 3364.67 310.691 24
7 1 -2 3757.36 201.638 58
-7 -1 2 3863.7 157.616 56
7 1 -2 3408.21 162.924 64
-7 -1 2 3688.59 155.595 49
7 1 -1 1520.3 209.902 1
-7 -1 1 1379.52 185.518 24
7 1 -1 1644.03 193.058 2
7 1 0 4617.47 349.58 1
7 1 0 5022.1 317.727 2
-7 -1 0 5024.73 321.169 21
7 1 1 57532.1 1185 1
-7 -1 -1 56809.7 1074.75 24
7 1 2 8630.38 443.422 1
-7 -1 -2 8871.7 403.127 24
-7 -1 -2 9193.22 421.683 21
7 1 3 39072.2 908.878 1
7 1 3 40871.1 1279.73 39
-7 -1 -3 39722.6 811.296 24
-7 -1 -3 42533.6 904.521 21
7 1 4 14205.3 532.085 1
7 1 4 14793.8 757.252 39
-7 -1 -4 15293.9 473.227 33
-7 -1 -4 14519.6 467.675 24
-7 -1 -4 15150.7 538.298 21
7 1 5 23153.1 654.434 1
7 1 5 23623.3 948.015 39
-7 -1 -5 23613.4 596.13 33
-7 -1 -5 24201.8 681.641 21
7 1 6 14747.1 759.983 39
-7 -1 -6 15953.1 556.099 21
-7 -1 -6 16421.6 614.492 5
7 1 7 1078.21 218.324 39
-7 -1 -7 1131.63 169.524 5
7 1 8 785.286 199.132 39
7 1 8 654.929 154.963 36
-7 -1 -8 710.063 139.258 5
7 1 9 2386.44 333.23 39
7 1 9 2929.49 325.223 36
-7 -1 -9 2518.79 138.373 12
-7 -1 -9 2546.41 136.64 20
-7 -1 -9 2698.9 287.229 5
7 1 10 8327.49 629.838 39
-7 -1 -10 7639.93 248.611 12
-7 -1 -10 7744.92 245.014 20
7 1 11 1023.96 239.638 39
-7 -1 -11 812.993 88.8671 12
-7 -1 -11 788.235 82.7218 20
7 1 12 1777.18 299.906 39
-7 -1 -12 1394.01 115.01 12
-7 -1 -12 1448.15 108.564 20
-7 -1 -13 216.499 58.6945 12
-7 -1 -13 313.957 53.1041 20
-7 -1 -14 758.657 84.962 12
-7 -1 -14 687.174 68.123 20
-7 -1 -15 370.272 55.9232 12
7 2 -9 817.517 66.9522 9
-7 -2 9 808.114 55.1751 48
7 2 -8 85.4392 34.5572 10
7 2 -8 81.1971 38.3314 9
-7 -2 8 76.8742 27.3891 49
-7 -2 8 54.0093 27.5241 48
7 2 -7 563.772 72.3418 9
-7 -2 7 513.503 60.3263 49
-7 -2 7 503.811 50.1887 8
-7 -2 6 263.803 45.0292 8
7 2 -6 287.995 63.1344 58
-7 -2 6 268.735 46.8614 56
7 2 -6 257.363 55.8655 9
-7 -2 6 269.751 49.1051 49
-7 -2 5 3271.34 145.991 8
7 2 -5 3409.34 198.302 58
-7 -2 5 3132.05 146.626 56
7 2 -5 3188.75 161.771 9
-7 -2 5 3283.75 156.927 49
-7 -2 4 2184.51 124.812 8
7 2 -4 2273.82 131.313 61
7 2 -4 2249.48 164.645 58
-7 -2 4 2248.13 127.786 56
-7 -2 4 2196.22 129.221 49
-7 -2 3 14472.4 311.134 8
7 2 -3 14249.9 794.252 38
7 2 -3 13695.9 346.414 64
7 2 -3 13757.1 304.854 61
-7 -2 3 13642.2 308.171 56
7 2 -3 14662.3 410.732 58
-7 -2 3 14278.1 317.162 49
-7 -2 2 3370.72 147.751 8
7 2 -2 3373.08 319.351 1
7 2 -2 3368.54 165.965 64
-7 -2 2 3509.19 316.072 24
7 2 -2 3207.15 292.749 2
7 2 -2 3601.75 202.641 58
-7 -2 2 3756.06 158.357 56
-7 -2 2 3527.49 153.619 49
7 2 -1 8572.65 490.573 1
-7 -2 1 8729.71 471.753 24
7 2 -1 8872.35 452.045 2
-7 -2 1 9725.22 446.426 21
7 2 0 1989.1 232.263 1
-7 -2 0 1879.77 208.988 24
7 2 0 1757.07 185.713 2
-7 -2 0 2135.12 209.67 21
-7 -2 -1 717.29 131.531 24
7 2 1 762.13 142.853 1
-7 -2 -1 767.477 134.27 21
7 2 2 3588.61 287.413 1
-7 -2 -2 3412.49 257.18 24
-7 -2 -2 3603.85 270.863 21
7 2 3 40231.2 1297.63 39
7 2 3 38589.1 909.323 1
-7 -2 -3 40735.9 897.302 21
-7 -2 -3 40249.9 836.177 24
-7 -2 -4 223.212 68.2559 24
7 2 4 267.704 82.1924 1
-7 -2 -4 257.163 80.0103 21
7 2 5 702.502 161.426 39
7 2 5 635.664 114.365 1
-7 -2 -5 535.523 114.376 21
7 2 6 941.855 216.749 39
-7 -2 -6 611.44 116.237 21
-7 -2 -6 765.229 133.027 5
7 2 7 23924.4 1005.37 39
7 2 7 24692.6 955.4 36
-7 -2 -7 25038.1 715.99 3
-7 -2 -7 23742.3 690.316 21
-7 -2 -7 25116.7 775.314 5
7 2 8 10389.7 677.257 39
7 2 8 10270.8 623.815 36
-7 -2 -8 10266.6 519.425 5
7 2 9 98.617 116.613 39
-7 -2 -9 37.0145 31.4361 12
-7 -2 -9 48.4323 25.9843 20
-7 -2 -9 -2.33911 33.444 5
7 2 10 25348.2 1110.18 39
7 2 10 22967.9 959.162 36
-7 -2 -10 23671.7 441.863 12
-7 -2 -10 24265.7 426.327 20
-7 -2 -11 130.909 43.747 12
-7 -2 -11 138.075 38.2166 20
-7 -2 -12 9762.78 293.136 12
-7 -2 -12 9496.48 268.308 20
7 2 13 1276.98 253.186 39
-7 -2 -13 1073.85 100.599 12
-7 -2 -13 954.709 83.4899 20
-7 -2 -14 3344.37 159.488 12
-7 -2 -15 358.852 55.3313 12
7 3 -9 20.4094 26.6373 9
-7 -3 9 23.0306 17.5531 49
-7 -3 9 27.9778 19.4992 48
7 3 -8 -36.3796 35.731 9
-7 -3 8 6.21185 23.6032 49
-7 -3 8 2.4195 23.4606 48
-7 -3 7 2714.93 112.369 8
-7 -3 7 2607.63 115.533 56
7 3 -7 2668.11 147.783 9
-7 -3 7 2448.52 121.279 49
-7 -3 6 1364.97 91.5065 8
-7 -3 6 1170.53 88.5506 56
7 3 -6 1214.01 106.176 9
-7 -3 6 1212.39 94.8856 49
-7 -3 5 3931.17 162.031 8
7 3 -5 3809.26 178.31 61
7 3 -5 3884.27 206.567 58
-7 -3 5 3706.46 161.756 56
-7 -3 5 3685.1 165.803 49
-7 -3 4 9232.6 251.927 8
7 3 -4 9641.63 310.453 64
7 3 -4 8900.74 266.789 61
7 3 -4 9804.18 336.749 58
-7 -3 4 9109.9 258.142 56
-7 -3 4 9320.05 262.487 49
-7 -3 3 40390.3 524.739 8
7 3 -3 40839.7 615.921 64
7 3 -3 40597 688.5 58
-7 -3 3 41882.8 544.752 56
-7 -3 3 41613 544.691 49
-7 -3 3 40670.9 515.645 45
-7 -3 2 3266.71 147.951 8
7 3 -2 2653.6 282.789 1
7 3 -2 2927.95 161.536 64
-7 -3 2 2927.18 283.953 24
7 3 -2 2915.01 142.69 61
7 3 -2 2699.09 268.887 2
7 3 -2 2878.64 184.372 58
-7 -3 2 3052.87 145.822 56
-7 -3 2 3116.74 145.32 49
-7 -3 2 2905.82 138.647 45
7 3 -1 20499.9 773.288 1
-7 -3 1 20391.6 720.462 24
7 3 -1 21373.4 702.162 2
-7 -3 1 22739.2 692.081 21
-7 -3 0 2513.74 238.914 21
-7 -3 0 2119.02 229.325 24
7 3 1 1037.5 175.798 1
-7 -3 -1 1321.17 166.15 24
-7 -3 -1 1349.19 177.684 21
7 3 2 3066.77 390.581 39
7 3 2 2960.4 269.389 1
-7 -3 -2 3175.48 255.328 24
-7 -3 -2 3391.93 269.64 21
7 3 3 26938.3 1098.52 39
7 3 3 26065.3 765.524 1
-7 -3 -3 26022.1 696.089 24
-7 -3 -3 27117.7 750.516 21
7 3 4 119.749 119.904 39
-7 -3 -4 54.113 33.5255 24
7 3 4 171.602 59.8311 1
-7 -3 -4 145.981 66.0362 21
7 3 5 3691.8 434.544 39
7 3 5 3369.66 264.36 1
-7 -3 -5 3441.82 271.767 21
-7 -3 -5 3289 256.743 5
7 3 6 4273.94 439.573 39
7 3 6 4355.18 433.358 36
-7 -3 -6 4070.62 301.538 3
-7 -3 -6 3799.53 285.117 21
-7 -3 -6 3950.58 292.048 5
7 3 7 20580.2 962.219 39
7 3 7 20254.9 926.062 36
-7 -3 -7 20700 694.829 3
-7 -3 -7 19215.2 638.534 21
-7 -3 -7 20514.5 683.57 5
7 3 8 412.908 165.793 39
7 3 8 174.848 116.615 36
-7 -3 -8 368.999 108.75 3
-7 -3 -8 442.288 105.176 5
7 3 9 14243.4 829.696 39
7 3 9 14265.8 783.421 36
-7 -3 -9 14687.1 337.529 12
-7 -3 -9 15957.3 659.306 5
7 3 10 6081.58 557.343 39
7 3 10 6503.93 534.948 36
-7 -3 -10 6242.56 229.459 12
-7 -3 -10 6376.6 217.465 20
7 3 11 4497.66 487.582 39
7 3 11 4313.97 434.962 36
-7 -3 -11 4005.98 188.004 12
-7 -3 -11 4242.11 178.778 20
7 3 12 5083.3 521.073 39
7 3 12 4969.56 464.041 36
-7 -3 -12 4932.5 210.824 12
-7 -3 -12 4670.11 182.761 20
7 3 13 4331.52 459.707 39
-7 -3 -13 3420.79 169.543 12
-7 -3 -14 2708.97 140.855 12
-7 -3 -15 55.9483 35.454 12
7 4 -9 35.7278 26.4889 9
-7 -4 9 62.147 18.0012 49
-7 -4 9 55.7196 17.4223 48
7 4 -8 24.5305 37.9035 9
-7 -4 8 14.8152 23.5983 49
-7 -4 7 554.647 53.153 8
-7 -4 7 504.05 55.6296 56
-7 -4 7 517.373 60.9833 49
7 4 -7 418.7 68.3989 9
-7 -4 6 1954.12 107.809 8
-7 -4 6 1820.29 110.593 56
7 4 -6 1958.84 135.625 9
-7 -4 6 1947.25 118.815 49
-7 -4 5 161.858 43.4937 8
7 4 -5 115.842 44.6666 61
-7 -4 5 94.6452 38.9661 56
-7 -4 5 82.3948 38.8447 49
-7 -4 4 2267.16 127.97 8
7 4 -4 2535.77 166.667 64
-7 -4 4 2621.83 142.118 56
-7 -4 4 2492.04 139.067 49
-7 -4 4 2518.55 132.998 45
7 4 -4 2422.94 147.424 61
-7 -4 3 7385.34 230.366 8
7 4 -3 7886.04 283.487 64
7 4 -3 7361.88 292.08 58
7 4 -3 7782.37 254.54 61
-7 -4 3 7575.79 239.115 56
-7 -4 3 7734.05 236.475 49
-7 -4 3 7712.17 233.874 45
-7 -4 2 7376.05 225.229 8
7 4 -2 7251.54 483.285 1
7 4 -2 7172.99 261.861 64
7 4 -2 7416.99 239.508 61
7 4 -2 7305.55 295.436 58
7 4 -2 7589.02 460.651 2
-7 -4 2 7942.33 238.418 56
-7 -4 2 7036.8 442.431 24
-7 -4 2 7453.89 224.617 49
-7 -4 2 7354.34 226.41 45
-7 -4 1 8234.67 231.595 8
7 4 -1 7813.6 490.823 1
7 4 -1 8331.31 312.494 58
-7 -4 1 8617.91 239.266 56
-7 -4 1 8651.68 442.73 21
-7 -4 1 7968.41 457.153 24
-7 -4 1 8670.97 231.715 49
-7 -4 1 8378.64 235.628 45
7 4 0 7786.95 477.607 1
-7 -4 0 8143.87 446.364 24
-7 -4 0 7847.01 420.718 21
-7 -4 -1 89.4915 55.8447 24
7 4 1 33.0983 67.3886 1
-7 -4 -1 -114.157 70.6385 21
7 4 2 877.73 217.286 39
-7 -4 -2 733.467 122.711 24
7 4 2 576.807 127.491 1
-7 -4 -2 918.924 146.534 21
7 4 3 36365.9 1335.22 39
7 4 3 34732.7 922.072 1
-7 -4 -3 35985.2 851.545 24
7 4 4 9829.29 690.635 39
7 4 4 9526.82 473.965 1
-7 -4 -4 10670.8 487.125 21
-7 -4 -4 9573.74 417.739 5
7 4 5 7947.91 619.558 39
7 4 5 7123.86 405.871 1
-7 -4 -5 8203.11 430.01 21
-7 -4 -5 8428.56 402.276 5
7 4 6 4.83087 112.767 39
7 4 6 26.4696 109.24 36
-7 -4 -6 -42.2439 64.2702 3
-7 -4 -6 59.5521 56.4511 21
-7 -4 -6 273.495 75.6214 5
7 4 7 6565.12 567.321 39
7 4 7 6737.23 570.372 36
-7 -4 -7 7062.66 435.24 3
-7 -4 -7 6112.34 372.352 21
-7 -4 -7 7014.53 392.264 5
7 4 8 2047.98 335.599 39
7 4 8 2333.89 336.464 36
-7 -4 -8 2713.13 283.732 3
-7 -4 -8 2578.03 139.646 12
-7 -4 -8 2667.53 138.492 18
-7 -4 -8 2616.97 252.15 5
7 4 9 1042.66 248.067 39
7 4 9 1531.29 278.483 36
-7 -4 -9 1110.03 100.448 12
7 4 10 424.162 165.94 39
7 4 10 619.358 185.185 36
-7 -4 -10 591.869 68.065 20
-7 -4 -10 584.564 76.7486 12
7 4 11 1147.87 254.075 39
7 4 11 1435.45 269.3 36
-7 -4 -11 1225.09 108.019 12
7 4 12 179.941 141.333 39
7 4 12 232.644 108.084 36
-7 -4 -12 273.957 59.3023 12
7 4 13 2068.74 322.543 39
-7 -4 -13 2455.37 142.973 12
-7 -4 -14 674.537 75.3444 12
-7 -4 -15 212.487 40.314 12
-7 -5 8 147.793 28.4076 56
7 5 -8 94.9095 42.1683 9
-7 -5 8 93.5431 28.435 49
-7 -5 7 887.125 64.1244 8
-7 -5 7 903.63 72.1603 56
7 5 -7 995.164 96.5924 9
-7 -5 7 997.229 80.1632 49
-7 -5 6 1404.78 91.8276 8
-7 -5 6 1289.25 94.7725 56
7 5 -6 1176.1 108.321 61
-7 -5 6 1291.02 97.4629 49
-7 -5 5 7664.74 226.067 8
7 5 -5 8160.35 277.797 61
-7 -5 5 8241.32 243.633 56
-7 -5 5 8302.68 245.329 49
-7 -5 5 8316.63 234.684 45
-7 -5 4 9274.28 257.876 8
7 5 -4 9667.85 322.799 64
7 5 -4 9415.7 300.481 61
-7 -5 4 9207.79 265.016 56
-7 -5 4 9418.03 265.501 49
-7 -5 4 9429.37 262.738 45
-7 -5 3 8532.05 249.549 8
7 5 -3 9288.81 315.429 64
7 5 -3 9051.19 290.949 61
-7 -5 3 9051.46 262.065 56
-7 -5 3 8811.47 253.336 49
-7 -5 3 8961.8 259.602 45
-7 -5 3 8928.79 248.278 43
-7 -5 2 6508.66 216.673 8
7 5 -2 6191.32 255.147 64
7 5 -2 6199.41 234.171 61
-7 -5 2 6704.98 221.516 56
-7 -5 2 6729.31 215.424 49
-7 -5 2 6646.66 221.098 45
-7 -5 2 6814.3 219.586 43
-7 -5 1 2124.38 121.883 8
7 5 -1 2061.81 129.355 7
7 5 -1 2103.41 268.493 1
-7 -5 1 2153.94 240.924 24
7 5 -1 1987.12 132.156 61
7 5 -1 2034.93 162.15 58
-7 -5 1 2161 123.943 56
-7 -5 1 2045.84 115.947 49
-7 -5 1 2091.93 122.997 45
-7 -5 1 2059.92 122.526 43
-7 -5 0 396.517 54.5545 8
7 5 0 558.075 67.807 7
-7 -5 0 458.331 58.263 56
-7 -5 0 313.487 94.374 21
7 5 0 292.706 94.7906 1
-7 -5 0 389.546 104.531 24
-7 -5 0 528.271 62.7102 45
-7 -5 0 303.687 50.5736 43
7 5 1 8034.19 492.927 1
-7 -5 -1 8695.99 458.051 24
-7 -5 -1 8923.09 469.513 21
7 5 2 11320.7 749.461 39
7 5 2 10627.1 550.307 1
-7 -5 -2 11491.9 511.857 24
-7 -5 -2 12241.3 550.96 21
-7 -5 -3 126.336 60.6958 24
-7 -5 -3 26.7314 51.7035 21
7 5 3 113.389 59.0906 1
7 5 4 16555 936.203 39
7 5 4 15430.1 639.55 1
-7 -5 -4 17628.6 659.018 21
-7 -5 -5 173.568 79.1634 21
7 5 5 71.8968 53.7524 1
7 5 6 19917.5 1020.57 39
7 5 6 21743.8 1087.67 36
-7 -5 -6 20779.8 711.131 21
-7 -5 -6 21186.8 630.833 5
7 5 7 12870.7 822.213 39
7 5 7 13616.7 842.308 36
-7 -5 -7 13166.1 620.692 3
-7 -5 -7 12685.8 560.292 21
-7 -5 -7 13213.9 301.257 18
-7 -5 -7 13502.5 523.791 5
7 5 8 213.465 139.293 39
7 5 8 50.0826 116.107 36
-7 -5 -8 87.0854 83.554 3
-7 -5 -8 325.559 56.7134 12
-7 -5 -8 126.412 38.9015 18
-7 -5 -8 274.156 88.2718 5
7 5 9 18091.8 959.431 36
-7 -5 -9 16966.4 373.915 12
7 5 10 26747.9 1166.88 36
-7 -5 -10 26162 470.04 12
-7 -5 -11 7570.36 255.682 12
7 5 11 7740.58 631.974 36
7 5 12 376.494 168.999 39
7 5 12 192.502 103.464 36
-7 -5 -12 147.411 46.9385 12
-7 -5 -13 27.4688 33.0506 12
-7 -5 -14 79.7209 37.029 12
-7 -5 -15 236.092 40.467 12
-7 -6 8 1468.33 67.899 56
7 6 -8 1383.83 89.6544 9
-7 -6 8 1329.29 67.9306 49
-7 -6 7 2887.84 106.37 8
-7 -6 7 2799.03 117.954 56
7 6 -7 3053.13 153.155 9
-7 -6 7 2822.93 119.37 49
-7 -6 6 4915.12 162.558 8
-7 -6 6 4998.14 178.2 56
7 6 -6 5277.22 217.824 61
-7 -6 6 4756.64 170.683 49
-7 -6 5 1077.46 87.689 8
7 6 -5 1188.39 115.738 61
-7 -6 5 1205.76 98.3688 56
-7 -6 5 1151.53 93.4591 49
-7 -6 5 1098.4 89.586 45
-7 -6 4 25.9311 31.6959 8
7 6 -4 44.5014 48.545 64
-7 -6 4 25.3377 38.5275 56
-7 -6 4 41.4913 39.0753 49
-7 -6 4 80.5321 37.8112 45
-7 -6 4 4.34476 29.6275 43
-7 -6 3 44.3745 34.6309 8
7 6 -3 105.869 53.6737 64
7 6 -3 29.5021 38.7606 61
-7 -6 3 25.8777 35.7269 56
-7 -6 3 39.3905 34.3822 49
-7 -6 3 57.2536 38.2128 45
-7 -6 3 55.9952 35.6307 43
-7 -6 2 7618.99 236.827 8
7 6 -2 7740.9 294.386 64
7 6 -2 7624.03 277.748 61
-7 -6 2 7832.23 242.413 56
-7 -6 2 8047.2 235.287 49
-7 -6 2 7957.2 248.344 45
-7 -6 2 7866.41 242.319 43
7 6 -1 12735.7 333.458 7
7 6 -1 12862.7 352.135 61
-7 -6 1 13694.6 312.009 56
-7 -6 1 13045.4 286.153 49
-7 -6 1 13669.8 317.379 45
-7 -6 1 13259.3 311.322 43
7 6 0 11238.5 302.415 7
7 6 0 11091.8 620.899 1
-7 -6 0 10925.7 272.018 65
-7 -6 0 11692.4 558.494 24
7 6 0 10707.8 366.419 58
-7 -6 0 11371.4 273.22 56
-7 -6 0 11848.6 563.743 21
-7 -6 0 11853.8 289.175 45
-7 -6 0 11683 290.413 43
7 6 1 29897 473.951 7
7 6 1 29825.2 1000.93 1
-7 -6 -1 30720.5 460.611 65
-7 -6 -1 32287.7 909.025 24
7 6 1 29392 620.979 58
7 6 1 32163 635.483 60
-7 -6 -1 31243 432.207 56
-7 -6 -1 32985.3 941.953 21
-7 -6 -1 33023.9 468.77 45
7 6 1 31330.8 590.342 44
-7 -6 -1 32998.5 473.579 43
7 6 2 2939 313.024 1
7 6 2 3165.29 205.954 60
-7 -6 -2 3282.27 303.073 21
7 6 2 3078.05 187.23 44
-7 -6 -2 3267 147.848 43
7 6 3 10698.6 573.433 1
-7 -6 -3 11755.5 563.971 21
7 6 4 1332.95 266.412 39
-7 -6 -4 1697.37 216.927 21
7 6 4 1514.4 209.802 1
7 6 5 15063.5 898.652 39
7 6 5 14495.2 654.414 1
-7 -6 -5 16103.6 660.121 21
-7 -6 -6 11624.8 289.597 65
7 6 6 11636.9 797.578 39
7 6 6 12246.4 834.027 36
-7 -6 -6 11258.4 553.507 21
-7 -6 -6 10771.9 305.527 19
-7 -6 -6 11932.8 288.601 18
7 6 7 487.127 193.196 39
7 6 7 96.2487 133.238 36
-7 -6 -7 38.9528 67.7821 3
-7 -6 -7 491.914 64.8078 65
7 6 7 367.017 66.0821 62
-7 -6 -7 333.696 56.2987 12
-7 -6 -7 507.605 115.38 21
-7 -6 -7 411.446 70.2644 19
-7 -6 -7 246.859 48.8286 18
7 6 8 35779.4 1405.03 39
7 6 8 36982.1 1407.61 36
-7 -6 -8 35783.9 539.547 12
7 6 8 34821 549.17 62
-7 -6 -8 33476.5 550.147 19
-7 -6 -8 35837.4 515.735 18
7 6 9 9017.5 699.75 36
-7 -6 -9 8822.93 275.302 12
-7 -6 -9 8509.68 281.214 19
7 6 10 25666.9 1162.31 36
-7 -6 -10 25939.8 470.026 12
-7 -6 -10 24337.1 471.49 19
-7 -6 -11 450.621 73.9814 12
-7 -6 -11 328.627 60.5291 19
-7 -6 -12 2995.54 156.251 12
-7 -6 -12 2725.45 146.582 19
-7 -6 -13 171.028 46.7719 12
-7 -6 -14 4855.61 165.724 12
-7 -6 -15 29.8889 22.8995 12
7 7 -8 8.91739 22.085 9
-7 -7 8 5.07995 12.3957 49
-7 -7 7 970.162 57.9801 8
-7 -7 7 896.45 64.0508 56
7 7 -7 1003.04 83.7679 9
-7 -7 7 929.097 62.2528 49
-7 -7 6 4175.13 144.543 8
-7 -7 6 4236.62 155.876 56
-7 -7 6 4042.44 144.169 49
-7 -7 5 25.1059 31.028 8
7 7 -5 28.1263 50.6985 61
-7 -7 5 16.9859 35.5909 56
-7 -7 5 12.0671 29.7852 49
-7 -7 5 28.9506 32.9477 45
-7 -7 4 12935.4 302.403 8
7 7 -4 13982.2 363.854 64
7 7 -4 13842.3 382.256 61
-7 -7 4 14004.8 320.892 56
-7 -7 4 13324.5 294.466 49
-7 -7 4 13709.5 315.926 45
-7 -7 4 13400.5 301.337 43
-7 -7 3 2240.98 132.361 8
7 7 -3 2284.02 162.643 61
-7 -7 3 2177.42 132.67 56
7 7 -3 2353.17 160.298 64
-7 -7 3 2339.07 126.707 49
-7 -7 3 2397.49 139.997 45
-7 -7 3 2144.41 129.634 43
7 7 -2 451.691 82.2809 64
7 7 -2 385.146 72.789 61
7 7 -2 305.936 62.1241 7
-7 -7 2 480.606 66.7034 56
-7 -7 2 431.596 57.1438 49
-7 -7 2 348.941 61.1717 45
-7 -7 2 446.015 66.6734 43
7 7 -1 1435.85 123.052 7
-7 -7 1 1411.34 100.787 65
7 7 -1 1368.35 127.61 61
-7 -7 1 1528.75 109.14 56
-7 -7 1 1437.43 109.539 45
-7 -7 1 1429.12 108.716 43
-7 -7 0 18.2127 23.2742 65
7 7 0 33.5479 36.1387 7
-7 -7 0 6.55828 24.0815 56
-7 -7 0 27.2141 29.136 45
-7 -7 0 -1.6817 28.0747 43
7 7 1 3277.35 170.445 7
-7 -7 -1 3434.42 162.641 65
7 7 1 3622.47 219.024 60
7 7 1 3419.39 211.793 58
-7 -7 -1 3344.21 144.547 56
-7 -7 -1 3505.66 158.722 45
7 7 1 3323.8 204.021 44
-7 -7 -1 3476.64 160.6 43
7 7 2 11560.5 303.465 7
-7 -7 -2 11819.1 298.424 65
7 7 2 10981.7 625.254 1
7 7 2 10762.4 379.098 58
7 7 2 11572.9 390.438 60
7 7 2 11498 374.608 44
-7 -7 -2 11842.1 286.451 43
-7 -7 -3 37330.3 527.593 65
7 7 3 35368.7 1112.06 1
7 7 3 36366.6 689.465 60
7 7 3 38172.6 674.471 44
7 7 4 5743.53 197.845 7
-7 -7 -4 6038 214.528 65
7 7 4 6031.21 247.54 62
7 7 4 5762.28 442.557 1
7 7 4 6026.84 285.331 60
7 7 4 5976.05 268.243 44
7 7 5 1394.54 288.388 39
7 7 5 1554.41 128.392 62
-7 -7 -5 1559.23 111.559 65
-7 -7 -5 1600.57 122.774 19
-7 -7 -5 2021.15 123.835 18
7 7 5 1453.22 218.422 1
7 7 5 1382.16 133.06 44
7 7 6 5633.68 546.981 39
7 7 6 5034.18 225.968 62
-7 -7 -6 5236.91 220.615 19
-7 -7 -6 5077.86 192.906 18
-7 -7 -6 4815.93 190.825 65
7 7 7 8322.64 680.648 39
7 7 7 8439.78 689.131 36
7 7 7 8311.4 284.123 62
-7 -7 -7 8545.74 252.454 65
-7 -7 -7 7901.18 271.789 19
-7 -7 -7 8530.32 250.515 18
7 7 8 8082.38 675.404 39
7 7 8 7576.08 654.309 36
-7 -7 -8 7895.72 260.556 12
7 7 8 7688.45 270.461 62
-7 -7 -8 7500.55 268.379 19
-7 -7 -8 7944.97 243.02 18
7 7 9 16318.4 952.909 39
7 7 9 17379.7 971.981 36
-7 -7 -9 16874.3 381.459 12
7 7 9 17262 395.574 62
-7 -7 -9 17415 406.521 19
7 7 10 1052.9 243.662 39
-7 -7 -10 935.642 93.8812 12
7 7 10 1028.29 100.804 62
-7 -7 -10 739.678 89.5832 19
7 7 11 19129.7 1015.78 39
7 7 11 19611.4 1003.05 36
-7 -7 -11 19598 397.291 12
7 7 11 19225.6 389.081 62
-7 -7 -11 18463 397.488 19
-7 -7 -12 5742.95 206.6 12
7 7 12 5926.21 203.091 62
-7 -7 -13 14.5781 28.0782 12
-7 -7 -13 11.7442 28.9113 19
-7 -7 -14 38.4905 24.6568 12
-7 -7 -14 21.4242 19.1821 19
-7 -8 7 283.688 27.7345 8
-7 -8 7 248.315 30.8663 56
-7 -8 7 252.533 29.5401 49
7 8 -7 275.113 41.6716 9
-7 -8 6 1142.55 70.2452 8
7 8 -6 1233.76 96.6746 61
-7 -8 6 1063.3 73.5473 56
7 8 -6 1191.16 92.6171 9
-7 -8 6 1052.39 66.7687 49
-7 -8 5 503.215 58.4005 8
7 8 -5 444.853 73.8088 61
-7 -8 5 462.705 58.7199 56
-7 -8 5 428.736 49.396 49
-7 -8 5 495.89 59.1277 45
-7 -8 4 515.729 66.1891 8
7 8 -4 607.023 74.9646 15
7 8 -4 426.528 67.1421 64
7 8 -4 416.343 76.7511 61
-7 -8 4 463.614 62.1456 56
-7 -8 4 409.389 52.6397 49
-7 -8 4 479.93 63.9237 45
-7 -8 4 539.686 64.7682 43
-7 -8 3 881.541 85.8926 8
7 8 -3 1008.05 101.433 15
7 8 -3 930.852 98.3031 64
7 8 -3 1033.2 113.765 61
-7 -8 3 890.627 82.8173 56
-7 -8 3 898.492 75.1336 49
-7 -8 3 896.512 88.2329 45
-7 -8 3 893.358 87.1746 43
7 8 -2 1015.97 112.778 7
7 8 -2 857.605 99.629 64
7 8 -2 1020.26 114.377 61
-7 -8 2 947.93 87.1242 56
-7 -8 2 962.174 91.9536 45
-7 -8 2 952.883 90.9777 43
7 8 -1 8334.04 298.993 7
-7 -8 1 8243.67 245.603 65
7 8 -1 8214.23 305.332 61
-7 -8 1 7908.23 232.667 56
-7 -8 1 8245.5 249.998 45
-7 -8 1 8253.1 257.524 43
7 8 0 340.969 70.1106 7
-7 -8 0 426.885 62.945 65
-7 -8 0 369.302 52.0603 56
-7 -8 0 409.539 61.1875 45
-7 -8 0 370.036 61.5517 43
-7 -8 -1 487.085 66.5014 65
7 8 1 430.375 88.9776 60
7 8 1 471.11 75.2514 7
-7 -8 -1 491.452 61.9455 45
7 8 1 491.493 88.4626 44
-7 -8 -1 410.005 62.4995 43
7 8 2 997.227 124.772 60
7 8 2 955.042 97.7838 7
7 8 2 970.949 119.186 44
-7 -8 -2 1025.46 89.6441 43
7 8 3 17067.8 374.818 7
-7 -8 -3 17747.8 376.887 65
7 8 3 17617.2 476.685 60
7 8 3 17728.3 465.972 44
7 8 4 17047.5 360.054 7
-7 -8 -4 18397.7 380.869 65
7 8 4 18242.8 437.698 62
7 8 4 18124.6 486.59 60
-7 -8 -4 17947.8 363.776 18
7 8 4 18725.2 477.281 44
-7 -8 -5 25307.3 445.433 65
7 8 5 25188.5 510.521 62
-7 -8 -5 24525 474.142 19
-7 -8 -5 25287.9 428.594 18
7 8 5 24389.3 564.636 60
7 8 5 25893 557.19 44
7 8 6 2553.64 166.929 62
-7 -8 -6 2426.91 140.049 65
-7 -8 -6 2287.55 150.628 19
-7 -8 -6 2481.81 135.226 18
7 8 6 2268.51 169.708 44
7 8 7 164.717 56.6625 62
-7 -8 -7 78.9132 48.5052 19
-7 -8 -7 163.703 39.5433 18
-7 -8 -7 213.584 46.795 65
7 8 8 2127.59 346.036 39
7 8 8 1659.54 305.565 36
-7 -8 -8 1874.41 129.677 12
7 8 8 1934.98 141.988 62
-7 -8 -8 1684.92 131.062 19
-7 -8 -8 1931.33 117.997 18
7 8 9 608.797 204.647 39
7 8 9 592.947 81.7845 62
-7 -8 -9 348.628 64.3111 12
-7 -8 -9 338.528 68.5365 19
7 8 10 6335.53 581.798 39
7 8 10 6478.92 585.532 36
-7 -8 -10 6997.44 239.678 12
7 8 10 6710.58 242.46 62
-7 -8 -10 7221.49 254.779 19
-7 -8 -11 4632.94 188.313 12
7 8 11 4414.58 187.414 62
-7 -8 -11 4323.85 188.671 19
-7 -8 -12 2127.94 120.308 12
7 8 12 2198.4 123.109 62
-7 -8 -12 1902.07 117.724 19
-7 -8 -13 6732.96 185.644 12
7 8 13 6751.52 183.86 62
-7 -8 -14 959.336 58.3407 12
-7 -8 -14 749.293 51.7887 19
-7 -9 6 160.605 26.4854 8
-7 -9 6 136.243 27.4495 56
-7 -9 6 155.65 23.6456 49
7 9 -6 208.478 40.0291 9
-7 -9 5 850.519 64.5377 8
7 9 -5 884.95 74.3224 15
7 9 -5 947.733 85.2467 61
-7 -9 5 841.285 63.8909 56
-7 -9 5 750.763 52.7299 49
7 9 -4 192.156 51.513 15
-7 -9 4 158.014 40.6628 8
7 9 -4 234.295 45.7461 64
7 9 -4 234.416 60.7414 61
-7 -9 4 207.525 42.9921 56
-7 -9 4 221.701 35.2571 49
-7 -9 4 239.179 46.4277 45
-7 -9 4 227.837 43.3579 43
-7 -9 3 1248.28 94.9522 8
7 9 -3 1300.74 109.372 15
7 9 -3 1219.84 99.6957 64
7 9 -3 1280.59 117.557 61
-7 -9 3 1220.64 89.9686 56
-7 -9 3 1271.39 95.9954 45
-7 -9 3 1168.83 92.3807 43
7 9 -2 3042.91 179.209 7
-7 -9 2 2867.21 134.326 65
7 9 -2 2721.71 156.495 64
7 9 -2 3029.86 178.151 61
-7 -9 2 2906.47 137.085 56
-7 -9 2 2953.05 145.357 45
-7 -9 2 2918.09 146.292 43
7 9 -1 1752.72 141.067 7
-7 -9 1 1584.15 110.278 65
7 9 -1 1739.47 141.915 61
-7 -9 1 1600.43 101.259 56
-7 -9 1 1532.99 106.861 45
-7 -9 1 1657.17 115.583 43
-7 -9 0 40.7108 37.9385 65
7 9 0 71.8822 51.5556 61
7 9 0 -32.3126 43.3729 7
-7 -9 0 7.38145 27.2596 45
-7 -9 0 64.1593 34.9401 43
7 9 1 813.146 97.5004 7
-7 -9 -1 873.623 87.3253 65
7 9 1 904.052 108.579 60
-7 -9 -1 830.523 77.4772 45
-7 -9 -1 804.036 81.7624 43
-7 -9 -2 361.63 60.7455 65
7 9 2 425.341 83.9976 60
7 9 2 412.68 71.3304 7
7 9 2 339.408 77.23 44
-7 -9 -2 412.332 61.0875 43
7 9 3 4228.88 195.167 7
-7 -9 -3 4303.39 190.351 65
-7 -9 -3 4534.34 189.024 52
7 9 3 4474.94 234.648 60
7 9 3 4266.96 225.24 44
7 9 4 1059.94 97.3082 7
-7 -9 -4 911.596 89.9669 65
7 9 4 787.434 106.448 60
-7 -9 -4 909.221 84.0424 18
7 9 4 771.695 105.138 44
7 9 5 378.368 86.4222 60
7 9 5 508.253 65.4097 7
-7 -9 -5 268.743 55.8972 65
7 9 5 318.805 71.3152 62
-7 -9 -5 314.439 53.4097 18
7 9 5 349.474 79.2815 44
-7 -9 -6 7761.46 245.058 65
7 9 6 7208.15 271.784 62
-7 -9 -6 7311.13 263.422 19
-7 -9 -6 7158.79 222.12 18
7 9 6 7476.08 292.18 44
-7 -9 -7 1579.26 109.47 65
7 9 7 1524.27 127.324 62
-7 -9 -7 1474.84 123.334 19
-7 -9 -7 1418.84 97.4285 18
7 9 7 1472.23 134.436 44
7 9 8 205.897 64.0177 62
-7 -9 -8 195.179 49.716 12
-7 -9 -8 334.984 67.0658 19
-7 -9 -8 223.3 42.4905 18
7 9 9 -3.53672 40.05 62
-7 -9 -9 13.2059 32.5053 12
-7 -9 -9 36.8308 40.3633 19
-7 -9 -10 4866.33 188.959 12
7 9 10 4503.53 191.245 62
-7 -9 -10 4795.36 200.069 19
-7 -9 -11 17160.7 329.555 12
7 9 11 16827.6 341.462 62
-7 -9 -12 5514.92 170.085 12
7 9 12 5755.24 180.307 62
-7 -9 -12 5169.91 173.598 19
-7 -9 -13 118.227 28.4629 12
7 9 13 120.545 31.3529 62
-7 -9 -13 106.719 29.8011 19
7 9 13 168.711 38.0951 44
-7 -10 5 3019.26 97.607 8
-7 -10 5 2796.89 92.7701 56
7 10 -5 3161.52 122.712 61
-7 -10 4 1154.79 73.2019 8
7 10 -4 1015.48 78.0914 15
7 10 -4 1103.62 88.6218 61
-7 -10 4 1078.25 67.5177 56
-7 -10 3 1527.92 92.9931 8
7 10 -3 1502.08 106.017 15
7 10 -3 1497.62 111.27 61
-7 -10 3 1387.72 82.7746 56
-7 -10 3 1444.09 89.917 45
-7 -10 3 1452.19 92.7995 43
-7 -10 2 1180.89 88.413 8
7 10 -2 1294.52 112.251 7
-7 -10 2 1148.89 81.5787 65
7 10 -2 1329.83 113.747 61
7 10 -2 1163.74 90.4298 64
-7 -10 2 1159.69 79.2999 56
-7 -10 2 1268.01 88.5972 45
-7 -10 2 1277.42 92.258 43
-7 -10 1 12.0898 25.1456 65
7 10 -1 13.1197 38.0281 64
7 10 -1 -16.6254 42.6428 61
7 10 -1 -6.24187 42.7186 7
-7 -10 1 0.40993 22.7381 56
-7 -10 1 -13.6403 28.9899 45
-7 -10 1 45.5042 33.4703 43
-7 -10 0 30.6624 28.5342 65
7 10 0 65.754 49.1938 61
7 10 0 63.0504 45.0096 7
-7 -10 0 27.4796 28.9671 43
7 10 1 4495.39 207.177 7
-7 -10 -1 4649.77 190.585 65
-7 -10 -1 4508.67 175.378 43
-7 -10 -2 298.675 56.5802 65
7 10 2 230.405 60.6119 60
7 10 2 319.067 66.3574 7
7 10 2 378.134 75.9924 44
-7 -10 -2 359.617 51.9871 43
7 10 3 4536.67 198.055 7
-7 -10 -3 4549.37 190.974 65
7 10 3 4681.24 219.357 60
-7 -10 -3 4779.74 180.644 18
7 10 3 4481.89 218.478 44
7 10 4 652.302 77.7315 7
-7 -10 -4 656.687 77.9574 65
7 10 4 678.754 94.6009 60
-7 -10 -4 711.707 71.4237 18
7 10 4 715.027 100.542 44
7 10 5 527.415 67.7483 7
-7 -10 -5 580.531 73.6982 65
7 10 5 548.429 86.4799 62
7 10 5 571.793 92.1591 60
-7 -10 -5 528.713 61.0257 18
7 10 5 551.649 87.7565 44
7 10 6 1036.44 86.7041 7
-7 -10 -6 1083.42 91.6886 65
7 10 6 1157.89 111.429 62
7 10 6 1057.41 115.371 60
-7 -10 -6 1022.81 79.8018 18
7 10 6 1183.44 118.176 44
-7 -10 -7 372.729 54.7874 65
7 10 7 350.235 66.6369 62
7 10 7 471.334 85.5185 60
-7 -10 -7 370.807 67.8882 19
7 10 7 480.862 82.3593 44
-7 -10 -8 858.718 85.7541 12
7 10 8 763.705 91.4311 62
-7 -10 -8 956.042 95.3967 19
7 10 8 820.93 99.0332 44
7 10 9 104.653 51.4275 62
-7 -10 -9 103.348 43.1459 12
-7 -10 -9 146.732 47.3222 19
7 10 9 105.607 54.2697 44
-7 -10 -10 236.414 47.4941 12
7 10 10 248.633 52.1684 62
-7 -10 -10 294.586 57.4086 19
7 10 10 229.578 57.3705 44
-7 -10 -11 1558.13 90.8588 12
7 10 11 1598.01 99.3484 62
-7 -10 -11 1696 102.419 19
7 10 11 1585.32 108.699 44
-7 -10 -12 1617.7 79.4547 12
7 10 12 1537.11 84.3922 62
-7 -10 -12 1570.34 85.5643 19
7 10 12 1676.96 96.4362 44
7 10 13 5483.73 151.159 60
7 11 -4 29.9744 18.6616 15
-7 -11 4 14.2741 15.5154 8
7 11 -4 15.4468 23.1359 61
-7 -11 3 326.047 40.2029 8
7 11 -3 408.536 50.6455 15
7 11 -3 416.974 55.2732 61
-7 -11 3 348.072 35.1834 56
-7 -11 2 626.211 57.0776 8
7 11 -2 600.747 64.9387 15
-7 -11 2 634.479 53.2789 65
7 11 -2 772.2 76.8248 61
-7 -11 1 1.12327 24.4568 8
-7 -11 1 -24.4299 25.4589 65
7 11 -1 57.3892 32.6385 64
7 11 -1 38.969 40.0457 61
7 11 -1 3.1966 41.4667 7
-7 -11 1 20.2601 27.2758 43
7 11 0 3428.66 166.95 7
-7 -11 0 3176.76 141.999 65
7 11 0 3246.6 163.867 61
-7 -11 0 3104.15 133.733 43
7 11 1 4806.72 198.445 7
-7 -11 -1 4613.37 178.181 65
7 11 1 4390.38 192.287 61
7 11 2 836.515 86.8928 7
-7 -11 -2 779.431 80.6689 65
-7 -11 -2 673.825 66.4967 18
7 11 3 3055.33 154.412 7
-7 -11 -3 3133.66 151.852 65
7 11 3 2736.19 148.928 60
-7 -11 -3 2807.23 126.679 18
7 11 3 3104.35 166.449 44
7 11 4 5553.16 200.696 7
-7 -11 -4 5383.61 194.834 65
7 11 4 5026.71 204.754 60
-7 -11 -4 5143.66 167.148 18
7 11 4 5505.32 221.716 44
7 11 5 1964.83 116.707 7
-7 -11 -5 2037.95 118.634 65
7 11 5 1855.95 130.789 60
7 11 5 2077.98 140.613 44
7 11 6 1298.31 88.6252 7
-7 -11 -6 1193.29 89.2679 65
7 11 6 1098.1 104.505 60
7 11 6 1178.21 108.03 44
-7 -11 -7 2176.85 110.693 65
-7 -11 -7 2238.34 125.303 12
7 11 7 2145.43 132.68 62
7 11 7 2397.83 147.538 60
7 11 7 2216.74 141.548 44
-7 -11 -8 1718.62 106.446 12
7 11 8 1860.6 120.595 62
7 11 8 1612.18 119.729 60
7 11 8 1864.66 125.806 44
7 11 9 237.632 51.1117 62
-7 -11 -9 200.658 41.9854 12
7 11 9 198.91 54.5928 60
7 11 9 214.55 54.3203 44
7 11 10 225.029 50.7857 60
-7 -11 -10 267.051 40.559 12
7 11 10 237.386 47.1554 62
7 11 10 284.033 54.6179 44
-7 -11 -11 5.29811 17.2285 12
7 11 11 19.3195 27.9899 62
7 11 11 -17.8403 31.5662 60
7 11 11 12.4948 26.6038 44
-7 -12 3 23.3306 13.7746 8
7 12 -3 2.07089 17.6731 61
-7 -12 2 508.366 42.352 8
7 12 -2 565.856 51.4865 15
7 12 -2 564.222 54.7055 61
7 12 -1 148.175 36.9265 15
-7 -12 1 132.56 27.1654 8
-7 -12 1 122.071 27.5649 65
7 12 -1 103.796 37.5759 61
-7 -12 0 116.506 26.4141 8
-7 -12 0 111.368 30.9356 65
7 12 0 74.3516 34.833 61
7 12 0 146.417 40.5059 7
-7 -12 0 109.434 27.7607 18
-7 -12 -1 6356.76 154.097 8
7 12 1 7618.58 216.877 7
-7 -12 -1 7153.92 194.802 65
7 12 1 7105.59 210.04 61
-7 -12 -1 6580.93 164.388 18
-7 -12 -2 4.20832 29.5192 65
7 12 2 1.76942 30.2662 7
-7 -12 -2 -0.33718 16.4632 18
7 12 3 2286.78 122.444 7
-7 -12 -3 2226.56 115.873 65
-7 -12 -3 2096.71 92.1022 18
-7 -12 -4 128.349 38.0679 65
7 12 4 186.35 41.2011 7
7 12 4 149.827 43.2968 44
-7 -12 -5 2221.74 109.711 65
7 12 5 2447.88 116.643 7
7 12 5 2108.91 122.11 44
-7 -12 -6 3.33785 22.7512 65
-7 -12 -6 18.3722 27.8407 12
7 12 6 61.3217 37.6234 60
7 12 6 31.0362 26.4316 7
7 12 6 19.962 35.8916 44
-7 -12 -7 253.369 42.4525 12
7 12 7 255.715 49.1922 60
7 12 7 296.073 55.6339 44
-7 -12 -8 86.3003 28.9848 12
7 12 8 109.11 34.9066 60
7 12 8 101.402 40.5102 44
-7 -12 -9 1790.16 83.3615 12
7 12 9 1713.46 91.22 60
7 12 9 2004.98 103.27 44
-7 -12 -10 4242.88 108.102 12
7 12 10 4541.73 134.836 44
7 13 0 20.6377 20.0298 15
-7 -13 0 29.7946 16.1492 65
7 13 0 18.4863 20.8911 61
7 13 1 1142.12 71.1463 7
-7 -13 -1 1129.1 65.8561 65
7 13 1 1199.12 72.931 61
-7 -13 -2 32.8878 22.7049 65
7 13 2 32.9024 27.8565 61
7 13 2 3.83205 23.0079 7
7 13 3 593.079 54.4164 7
-7 -13 -3 610.551 53.0794 65
7 13 3 516.858 55.3536 61
7 13 4 124.048 31.0781 7
-7 -13 -4 182.775 33.3143 65
7 13 5 457.888 44.6508 7
-7 -13 -5 414.521 42.2381 65
-7 -13 -5 469.08 48.5264 12
7 13 6 505.497 41.855 7
-7 -13 -6 564.103 50.4154 12
7 13 6 442.798 47.9371 44
-7 -13 -7 34.2171 19.8819 12
7 13 7 49.6614 23.9556 44
-7 -13 -8 940.385 51.323 12
7 13 8 869.368 56.9529 44
8 -10 1 1251.24 65.5073 53
-8 10 -2 2409.07 81.9369 14
8 -10 2 2288.76 95.9681 53
-8 10 -3 392.351 37.0704 14
8 -10 3 416.102 46.4894 53
-8 10 -4 1285.48 64.9179 14
8 -10 4 1277.56 77.1503 53
-8 10 -5 30.3516 18.4855 14
8 -10 5 -4.73227 18.2316 57
8 -10 5 11.5327 19.7029 53
-8 10 -6 560.133 40.1361 14
8 -10 6 546.797 46.3948 57
8 -10 6 540.508 46.7551 53
8 -9 -2 5.04156 16.5621 51
8 -9 -1 5466.2 151.734 51
-8 9 0 499.785 41.6875 14
8 -9 0 432.597 48.0952 53
8 -9 0 505.214 52.4676 51
-8 9 -1 11.1163 19.8824 14
8 -9 1 -24.9288 27.3032 53
8 -9 1 -19.2607 25.1331 51
-8 9 -2 291.402 40.7404 14
8 -9 2 216.456 33.9243 57
8 -9 2 293.185 48.8755 53
8 -9 2 203.56 37.5522 51
-8 9 -3 1356.45 80.1876 14
-8 9 -3 1206.64 66.4025 11
8 -9 3 1202.84 80.4989 57
8 -9 3 1215.16 92.6701 53
-8 9 -4 112.855 32.6085 14
-8 9 -4 132.361 26.8553 11
8 -9 4 81.6129 31.0218 57
8 -9 4 87.3941 36.773 53
-8 9 -5 91.1216 27.3578 14
-8 9 -5 83.224 26.9054 11
8 -9 5 60.6124 26.3637 57
8 -9 5 48.6561 29.0308 55
8 -9 5 87.9885 36.9489 53
-8 9 -6 105.899 28.3209 14
-8 9 -6 99.4674 27.0976 11
8 -9 6 93.6529 33.3962 57
8 -9 6 61.9893 25.9436 55
8 -9 6 64.6549 32.428 53
-8 9 -7 999.38 62.5294 14
-8 9 -7 956.58 64.1282 11
8 -9 7 1005.2 74.9788 57
8 -9 7 888.723 68.3498 55
8 -9 7 981.135 76.5437 53
-8 9 -8 486.231 38.7328 14
-8 9 -8 504.639 45.9919 11
8 -9 8 459.864 49.7045 57
8 -9 8 488.46 50.7325 55
8 -9 8 440.147 48.341 53
8 -9 9 3936.28 119.235 57
8 -9 9 3979.88 124.057 55
-8 8 3 27.3574 15.5119 7
8 -8 -3 71.1625 28.4209 51
-8 8 2 2243.82 83.374 7
8 -8 -2 2254.86 116.684 51
-8 8 2 2234.9 85.7163 8
-8 8 1 74.0376 26.1036 8
8 -8 -1 9.56711 20.1636 53
8 -8 -1 76.1624 34.8538 51
8 -8 0 2596.65 131.716 53
8 -8 0 2641.45 141.917 51
-8 8 0 2713.51 114.085 8
8 -8 1 387.047 61.1375 53
8 -8 1 558.256 72.737 51
-8 8 -1 501.801 56.3204 8
-8 8 -2 127.706 36.885 8
8 -8 2 148.49 37.749 57
8 -8 2 125.056 42.7913 53
8 -8 2 144.796 45.807 51
8 -8 3 288.161 50.8172 57
8 -8 3 403.571 68.1469 53
8 -8 3 402.364 62.5729 51
-8 8 -3 409.712 53.014 8
-8 8 -3 337.057 45.1023 11
-8 8 -4 489.971 54.4711 11
8 -8 4 526.114 68.189 57
8 -8 4 436.319 71.6781 53
8 -8 4 515.901 65.979 51
-8 8 -4 547.804 58.2951 8
-8 8 -5 2475.32 118.508 11
8 -8 5 2298.11 133.787 57
8 -8 5 2347.61 124.384 55
8 -8 5 2413.73 148.918 53
-8 8 -6 145.665 36.5834 14
-8 8 -6 127.558 35.448 11
8 -8 6 104.313 41.6651 57
8 -8 6 59.496 32.6279 55
8 -8 6 69.6375 40.4024 53
-8 8 -7 36.8646 26.1404 14
-8 8 -7 13.6626 27.1553 11
8 -8 7 -4.24435 33.0476 57
8 -8 7 34.1251 33.2372 53
-8 8 -8 965.059 65.7218 14
-8 8 -8 1012.71 73.1435 11
8 -8 8 1029.36 86.1391 57
8 -8 8 969.16 86.8223 53
-8 8 -9 1289.65 77.949 11
8 -8 9 1434.8 91.5029 57
8 -8 9 1346.24 90.3715 53
-8 8 -10 454.477 42.1069 11
8 -8 10 521.59 50.5386 57
8 -8 10 530.903 55.65 55
8 -8 11 -6.78478 17.5295 55
-8 7 4 342.917 37.1542 7
8 -7 -4 333.834 46.9465 51
-8 7 3 86.273 23.3838 8
-8 7 3 159.469 32.2942 7
8 -7 -3 86.4165 36.7497 51
-8 7 2 535.982 52.0786 7
8 -7 -2 502.031 70.8188 51
-8 7 2 553.922 54.3345 8
-8 7 1 439.983 49.0294 7
8 -7 -1 386.831 58.7352 53
8 -7 -1 509.339 76.9966 51
-8 7 1 482.145 53.6143 8
8 -7 0 3820.99 177.968 53
8 -7 0 4010.4 197.079 51
-8 7 0 4110.38 153.874 8
8 -7 1 3195.73 171.78 53
8 -7 1 3462.52 188.23 51
-8 7 -1 3582.62 149.219 8
-8 7 -2 1515.6 92.3678 11
8 -7 2 1284.69 98.5616 57
8 -7 2 1469.25 121.234 53
8 -7 2 1384.97 123.323 51
-8 7 -2 1508.35 101.083 8
-8 7 -3 257.483 50.4035 8
-8 7 -3 260.556 43.8772 11
8 -7 3 235.109 48.5485 57
8 -7 3 307.184 63.0785 53
8 -7 3 188.631 54.8841 51
-8 7 -4 252.98 46.5203 8
-8 7 -4 210.292 44.4949 11
8 -7 4 266.03 61.64 53
8 -7 4 229.913 54.0092 51
-8 7 -5 6394.57 204.405 11
8 -7 5 6755.28 267.183 53
8 -7 5 6120.98 235.432 51
-8 7 -5 6457.92 197.624 8
-8 7 -6 111.063 39.3221 11
8 -7 6 164.051 54.7955 53
-8 7 -7 163.521 41.5416 11
8 -7 7 161.812 53.0456 53
-8 7 -8 785.748 66.1718 14
-8 7 -8 815.249 74.7815 11
8 -7 8 947.394 98.9871 53
-8 7 -9 105.326 31.4631 11
8 -7 9 137.419 44.5327 53
-8 7 -10 184.094 37.2118 11
8 -7 10 174.79 43.131 57
8 -7 10 228.199 43.1817 53
-8 7 -11 57.1724 22.9977 11
8 -7 11 53.7247 23.0963 57
8 -7 12 22.1022 23.0299 55
8 -6 -5 2403.55 103.385 10
8 -6 -5 2390.99 111.798 51
8 -6 -4 318.118 50.7948 10
8 -6 -4 322.696 54.1635 51
-8 6 4 287.123 34.0497 8
8 -6 -3 444.911 61.9775 10
8 -6 -3 494.194 72.5361 51
-8 6 3 593.029 56.1724 8
8 -6 -2 8935.19 256.122 10
8 -6 -2 8969.23 298.968 51
-8 6 2 9357.15 228.478 8
-8 6 1 268.425 46.3618 8
8 -6 -1 173.182 44.8679 10
8 -6 -1 232.92 61.3177 51
-8 6 0 20.0768 32.2483 8
8 -6 0 -4.57391 24.9605 53
8 -6 0 -51.3107 48.0129 51
8 -6 1 1649.2 258.799 38
-8 6 -1 2101.45 232.297 33
8 -6 1 1934.09 140.955 53
8 -6 1 1841.03 149.617 51
-8 6 -1 2115.85 123.052 8
-8 6 -2 281.199 45.5343 11
8 -6 2 364.217 69.0209 53
8 -6 2 227.537 62.9423 51
-8 6 -2 368.659 58.6851 8
-8 6 -3 64.6505 39.8212 8
-8 6 -3 107.181 35.7458 11
8 -6 3 89.1522 48.2621 53
8 -6 3 86.9658 48.4665 51
-8 6 -4 1255.29 98.2531 11
8 -6 4 1176.25 124.492 53
8 -6 4 1107.95 117.633 51
-8 6 -4 1219.11 94.4518 8
-8 6 -5 67.036 32.4765 8
-8 6 -5 69.5462 37.1337 11
8 -6 5 116.574 58.2852 53
8 -6 5 -49.3813 52.2457 51
-8 6 -6 3.37922 22.5024 8
-8 6 -6 -6.01271 29.5293 11
8 -6 6 50.158 41.6702 53
8 -6 6 -21.0493 42.0022 51
-8 6 -7 86.4802 40.098 11
8 -6 7 146.292 60.2793 53
8 -6 7 30.0636 81.3097 42
-8 6 -8 2992.54 145.79 11
8 -6 8 3251.78 390.849 42
-8 6 -9 449.419 59.871 11
-8 6 -9 470.903 51.8047 20
8 -6 9 510.996 81.5077 53
8 -6 9 348.841 123.809 42
-8 6 -10 3929.84 149.354 11
-8 6 -10 4025.04 140.291 20
8 -6 10 4325.28 199.973 53
-8 6 -11 1235.62 76.3687 11
-8 6 -11 1261.75 76.262 20
-8 6 -12 282.266 36.6419 20
-8 6 -13 175.32 25.4872 20
8 -5 -6 8175.8 188.644 10
8 -5 -5 402.474 55.7693 10
8 -5 -5 411.797 58.8102 51
-8 5 5 447.637 43.9603 47
8 -5 -4 5741.56 203.199 10
8 -5 -4 5975.66 229.856 51
-8 5 4 5498.59 156.286 47
-8 5 4 6248 168.154 8
8 -5 -3 535.39 72.8218 10
8 -5 -3 596.222 88.7027 51
-8 5 3 573.956 58.7646 47
-8 5 3 632.215 63.595 8
8 -5 -2 3012.76 360.608 38
8 -5 -2 3319.82 167.878 10
8 -5 -2 3085.58 188.896 51
-8 5 2 3167.95 132.83 47
-8 5 2 3295.74 143.115 8
8 -5 -1 317.149 117.597 38
-8 5 1 397.279 117.651 33
8 -5 -1 550.903 74.2444 10
8 -5 -1 603.197 93.0918 51
-8 5 1 625.664 69.2045 8
8 -5 0 1468.49 255.22 38
-8 5 0 1883.2 235.621 33
8 -5 0 1884.73 126.042 10
8 -5 0 1617.23 145.965 51
-8 5 0 1814.5 114.479 8
8 -5 1 2751.15 342.021 38
-8 5 -1 3263.83 299.553 33
-8 5 -1 2999.52 135.462 11
8 -5 1 2855.18 178.125 53
8 -5 1 2782.11 191.976 51
-8 5 -1 3026.93 146.074 8
-8 5 -2 1051.07 183.014 33
-8 5 -2 1092.8 87.2725 11
8 -5 2 944.255 106.225 53
8 -5 2 983.01 117.321 51
-8 5 -2 1020.6 89.406 8
-8 5 -3 5527.2 394.275 33
-8 5 -3 5415.53 193.586 11
8 -5 3 5415.25 252.554 53
8 -5 3 5298.02 264.475 51
-8 5 -3 5307.4 195.431 8
-8 5 -4 14.6256 27.3214 11
8 -5 4 -20.3112 36.4488 53
8 -5 4 -101.323 56.2167 51
8 -5 4 -79.2501 44.2623 46
-8 5 -5 1.36369 27.3543 8
-8 5 -5 48.3998 33.6824 11
8 -5 5 -122.347 58.5859 51
8 -5 5 -165.833 53.8125 46
8 -5 5 -307.628 169.325 42
-8 5 -6 581.269 70.1353 11
8 -5 6 626.49 100.411 51
-8 5 -6 729.198 70.255 8
8 -5 6 482.404 183.701 42
-8 5 -7 24.4916 32.4263 11
8 -5 7 -14.0033 46.3685 51
8 -5 7 -36.4556 97.1006 42
-8 5 -8 1300.8 102.679 11
-8 5 -8 1325.32 91.6294 20
8 -5 8 1301.57 264.507 42
-8 5 -9 53.9223 33.3936 11
-8 5 -9 90.6113 30.9029 20
8 -5 9 -3.03793 78.5216 42
-8 5 -10 6688.92 205.04 11
-8 5 -10 6690.98 201.897 20
8 -5 10 6627.08 554.987 42
-8 5 -11 1225.1 80.9875 11
-8 5 -11 1331.79 89.9951 20
-8 5 -12 731.847 65.4234 20
8 -5 12 950.915 87.6371 53
-8 5 -13 674.314 55.4041 20
-8 5 -14 5971.09 127.709 20
8 -4 -7 354.33 41.228 10
8 -4 -6 2686.33 124.632 10
-8 4 6 2433.47 87.5031 47
-8 4 5 45.7731 20.0127 8
8 -4 -5 45.4456 35.8545 10
8 -4 -5 4.22585 30.2702 51
-8 4 5 22.8702 23.5105 47
8 -4 -4 6673.13 227.857 10
8 -4 -4 6692.42 259.439 51
-8 4 4 6303.83 177.935 47
-8 4 3 244.742 48.359 8
8 -4 -3 249.45 54.6489 10
8 -4 -3 136.433 59.5047 51
-8 4 3 242.571 41.6795 47
8 -4 -2 922.07 211.601 38
-8 4 2 1156.02 176.712 33
8 -4 -2 1067.84 105.155 58
8 -4 -2 985.593 96.8463 10
8 -4 -2 980.362 117.443 51
-8 4 2 1069.6 87.2272 8
8 -4 -1 6580.74 553.807 38
-8 4 1 6181.7 404.751 33
8 -4 -1 6297.64 243.103 58
8 -4 -1 6254.3 229.876 10
8 -4 -1 6498.04 293.183 51
-8 4 1 6283.42 204.932 8
8 -4 0 549.023 156.625 38
-8 4 0 900.955 162.496 33
8 -4 0 853.21 90.8329 58
8 -4 0 1091.42 96.7756 10
8 -4 0 915.703 115.241 51
-8 4 0 948.991 83.2774 8
-8 4 -1 1713.79 221.775 33
8 -4 1 1640.98 135.341 53
8 -4 1 1499.27 149.272 51
8 -4 1 1563.25 138.827 46
-8 4 -1 1734.56 110.325 8
-8 4 -1 1603.24 109.336 16
-8 4 -2 1165.4 186.944 33
8 -4 2 1169.16 118.333 53
8 -4 2 1273.88 139.453 51
8 -4 2 1250.28 126.589 46
-8 4 -2 1273.68 96.857 8
-8 4 -2 1319.19 100.735 16
-8 4 -3 153.017 44.3985 16
-8 4 -3 100.666 35.2573 8
-8 4 -3 212.1 90.8411 33
8 -4 3 22.8024 51.2716 51
8 -4 3 21.2066 49.0592 46
8 -4 3 3.6709 96.558 42
-8 4 -4 2645.38 271.144 33
8 -4 4 2742.3 199.151 51
8 -4 4 2533.08 171.848 46
-8 4 -4 2870.54 139.835 8
-8 4 -4 2730.27 141.002 16
8 -4 5 5513.44 278.358 51
8 -4 5 5454.81 243.424 46
-8 4 -5 5893.26 199.754 8
-8 4 -5 5855.41 203.586 16
8 -4 5 5418.06 528.264 42
8 -4 6 1616.69 264.017 31
8 -4 6 1593.7 154.645 51
-8 4 -6 1812.84 108.288 8
8 -4 6 1584.65 134.172 46
-8 4 -6 1867.34 116.365 16
8 -4 6 1657.21 313.009 42
8 -4 7 15344.5 800.857 31
-8 4 -7 16679.1 356.708 11
-8 4 -7 16413.1 323.481 20
8 -4 7 14410.1 439.726 51
8 -4 7 14246.7 868.583 42
8 -4 8 21308.2 963.25 31
-8 4 -8 21809 404.915 11
-8 4 -8 21674.1 381.756 20
8 -4 8 20217.5 510.074 51
-8 4 -9 2869.08 148.016 11
-8 4 -9 2850.26 142.588 20
8 -4 9 2644.27 386.011 42
-8 4 -10 135.77 37.9584 11
-8 4 -10 263.004 49.5591 20
8 -4 10 299.668 180.136 42
-8 4 -11 121.97 33.2371 11
-8 4 -11 135.591 41.9083 20
-8 4 -12 -0.60926 27.925 20
-8 4 -13 994.5 74.3622 20
-8 4 -14 180.884 31.813 20
8 -3 -7 95.2295 30.8626 10
8 -3 -6 8157.02 225.667 10
-8 3 6 7307.71 162.531 47
-8 3 5 70.8449 26.6121 8
8 -3 -5 22.965 34.7511 10
-8 3 5 36.5645 33.4392 48
-8 3 5 56.9071 25.5595 47
8 -3 -4 348.227 60.7726 10
8 -3 -4 334.455 66.6492 51
-8 3 4 384.497 57.1459 48
-8 3 4 372.584 50.293 8
8 -3 -3 13051.2 802.635 38
8 -3 -3 13299.5 366.198 58
8 -3 -3 13157.2 328.353 10
8 -3 -3 13949.3 414.544 51
-8 3 3 13272.3 306.585 48
-8 3 3 13409.3 286.496 8
8 -3 -2 19474.9 988.952 38
8 -3 -2 18932.8 435.584 58
8 -3 -2 19257.9 397.294 10
8 -3 -2 19819.1 512.542 51
-8 3 2 20200 381.355 48
-8 3 2 19221.4 349.434 8
8 -3 -1 17879.9 932.14 38
-8 3 1 17372.1 676.286 33
8 -3 -1 17342.4 412.558 58
8 -3 -1 17940.5 377.032 10
8 -3 -1 17918.3 495.368 51
-8 3 1 17950.2 360.146 48
-8 3 1 17517.7 339.273 8
-8 3 0 22253.4 771.923 33
8 -3 0 21305 448.253 58
8 -3 0 22018.8 408.911 10
8 -3 0 22448 561.402 51
8 -3 0 21394.3 509.157 46
-8 3 0 21815.2 376.864 8
-8 3 0 21697.2 379.391 16
-8 3 -1 152.796 39.7184 16
-8 3 -1 83.0605 33.6955 8
-8 3 -1 -24.726 62.6953 33
8 -3 1 142.061 42.7985 58
8 -3 1 94.4664 48.0887 51
8 -3 1 117.977 56.3078 46
-8 3 -2 1844.94 225.305 33
8 -3 2 1848.95 165.73 51
8 -3 2 1753.24 149.483 46
-8 3 -2 1908.05 112.381 8
-8 3 -2 1788.34 113.378 16
8 -3 2 1668 277.681 42
-8 3 -3 1280.55 193.972 33
8 -3 3 1339.66 215.512 1
8 -3 3 896.012 176.675 22
8 -3 3 1405.98 150.794 51
8 -3 3 1390.18 130.06 46
-8 3 -3 1452.93 98.0721 8
-8 3 -3 1407.87 101.336 16
8 -3 3 1421.96 263.45 42
-8 3 -4 994.486 169.789 33
8 -3 4 571.806 137.533 1
8 -3 4 681.768 150.042 22
8 -3 4 839.315 121.436 51
8 -3 4 683.257 90.7691 46
-8 3 -4 738.348 70.1147 8
-8 3 -4 876.484 79.571 16
8 -3 4 469.043 189.122 42
8 -3 5 10959.2 563.706 22
8 -3 5 10460.9 387.925 51
8 -3 5 10846.7 343.692 46
-8 3 -5 12030.6 272.651 8
-8 3 -5 11612.3 279.156 16
8 -3 5 10446.8 704.198 42
8 -3 6 10009.3 602.29 31
-8 3 -6 10277.4 255.079 20
8 -3 6 9953.25 324.218 46
-8 3 -6 10210.6 262.323 16
8 -3 6 9261.24 684.187 42
8 -3 7 741.441 242.127 42
8 -3 7 879.432 208.32 31
-8 3 -7 935.973 83.7328 20
-8 3 -7 1114.41 90.1996 16
8 -3 8 1280.19 280.044 42
8 -3 8 1077.96 230.066 31
-8 3 -8 1131.55 95.8648 11
-8 3 -8 1211.72 97.1313 20
-8 3 -8 1176.15 90.1328 16
8 -3 9 6753.16 559.125 31
-8 3 -9 6515.17 218.831 11
-8 3 -9 6461.12 220.579 20
8 -3 9 5858.39 567.293 42
-8 3 -10 139.513 39.3977 11
-8 3 -10 233.461 57.8041 20
8 -3 11 266.496 141.926 42
-8 3 -11 173.83 44.9462 20
-8 3 -12 73.2712 40.3967 20
-8 3 -13 691.561 69.0058 20
-8 3 -14 26.7341 24.5664 20
-8 3 -15 111.024 22.459 20
8 -2 -7 -7.45232 32.0777 10
-8 2 7 -18.8784 22.2384 48
8 -2 -6 1328.34 99.9208 10
-8 2 6 1217.28 83.6222 48
-8 2 6 1257.97 72.5963 47
-8 2 5 31.8806 23.8292 8
8 -2 -5 21.3432 36.037 10
-8 2 5 43.4 36.3343 48
8 -2 -4 5761.57 538.053 38
8 -2 -4 6079.6 254.265 58
8 -2 -4 5767.76 215.112 10
8 -2 -4 5697.95 252.629 51
-8 2 4 6031.83 203.738 48
-8 2 4 5854.84 184.094 8
8 -2 -3 20387.2 1033.39 38
8 -2 -3 20858.3 470.594 58
8 -2 -3 21000.7 411.049 10
8 -2 -3 20983.9 514.191 51
-8 2 3 21671.9 390.115 48
-8 2 3 21291 365.169 8
8 -2 -2 13685.5 848.724 38
8 -2 -2 13190.2 372.392 58
8 -2 -2 13853.7 432.271 51
-8 2 2 13604.8 309.617 48
-8 2 2 12948.4 288.778 8
8 -2 -1 2584.14 163.935 58
8 -2 -1 3178.14 216.091 51
-8 2 1 2875.26 143.336 48
8 -2 -1 2733.85 187.951 46
-8 2 1 2645.1 132.361 8
8 -2 0 11031.5 328.775 58
-8 2 0 11827.4 290.552 48
8 -2 0 11846.4 379.722 46
-8 2 0 11430.6 269.975 8
-8 2 0 11564 272.434 16
-8 2 -1 5315.76 366.474 33
8 -2 1 4939.09 214.551 58
8 -2 1 5828.6 292.682 51
8 -2 1 4932.8 244.875 46
-8 2 -1 5507.08 185.189 8
-8 2 -1 5173.08 184.496 16
-8 2 -2 4877.1 349.352 33
8 -2 2 4475.5 198.749 58
8 -2 2 4683.29 261.502 51
8 -2 2 4512.64 230.093 46
8 -2 2 4288.54 373.12 1
-8 2 -2 4802.54 170.563 8
-8 2 -2 4770.14 177.612 16
-8 2 -3 23.9888 22.3782 16
-8 2 -3 16.5925 24.7857 8
-8 2 -3 -24.1637 61.5557 33
8 -2 3 51.3961 59.2714 1
8 -2 3 -2.35002 45.5708 59
8 -2 3 100.406 62.0537 51
8 -2 3 58.0395 54.0726 46
8 -2 3 117.273 108.995 42
8 -2 4 195.417 143.071 42
-8 2 -4 211.862 43.547 16
-8 2 -4 195.154 38.0724 8
-8 2 -4 206.889 93.5161 33
8 -2 4 463.317 114.321 1
8 -2 4 198.155 63.1572 46
-8 2 -5 5510.18 363.384 33
8 -2 5 5477.63 412.253 31
8 -2 5 4864.69 356.154 22
8 -2 5 5433.9 243.445 46
-8 2 -5 5602.53 187.918 16
8 -2 5 5690.1 509.575 42
8 -2 6 2834.06 311.912 31
8 -2 6 2689.96 340.813 28
-8 2 -6 2524.42 130.501 20
8 -2 6 2729.7 174.246 46
-8 2 -6 2652.75 281.536 5
-8 2 -6 2759.41 133.333 16
8 -2 6 2530.29 351.009 42
8 -2 7 14378.9 724.701 31
8 -2 7 14419.8 789.169 28
-8 2 -7 13269.2 304.375 20
8 -2 7 13014 369.021 46
-8 2 -7 13784.8 296.141 16
8 -2 7 13667.9 806.845 42
8 -2 8 18571.4 858.831 31
8 -2 8 18378.6 914.4 28
-8 2 -8 17360.8 356.464 20
-8 2 -8 16858.2 325.594 16
8 -2 8 17015.7 922.425 42
8 -2 9 12008.1 717.253 31
8 -2 9 11099.9 733.353 28
-8 2 -9 11234.9 282.441 11
-8 2 -9 10902.2 289.57 20
8 -2 9 10529.6 750.525 42
8 -2 10 3809.62 431.923 31
-8 2 -10 3520.12 159.565 12
-8 2 -10 3457.06 152.39 11
-8 2 -10 3292.16 162.663 20
8 -2 10 3769.03 460.16 42
8 -2 11 345.125 172.487 42
-8 2 -11 228.786 50.0429 12
-8 2 -11 129.171 43.1606 20
8 -2 12 476.504 178.498 42
-8 2 -12 540.98 70.6099 20
-8 2 -13 1790.22 110.576 20
-8 2 -14 320.47 46.9066 20
-8 2 -15 94.5129 24.0374 20
8 -1 -8 61.0111 25.8752 10
-8 1 8 71.5748 20.4875 48
8 -1 -7 3043.37 134.145 10
-8 1 7 3042.72 114.468 48
-8 1 6 35.5548 18.2688 8
8 -1 -6 45.8665 38.8567 10
-8 1 6 -12.9379 29.0688 48
8 -1 -5 1332.58 124.539 58
8 -1 -5 1251.69 102.918 10
-8 1 5 1227.94 91.7565 48
-8 1 5 1286.9 83.936 8
8 -1 -4 535.33 182.508 38
8 -1 -4 373.182 78.0848 58
-8 1 4 351.683 56.5261 48
-8 1 4 464.71 57.1431 8
8 -1 -3 67.3528 101.678 38
-8 1 3 138.241 37.0602 8
8 -1 -3 144.329 53.4032 58
-8 1 3 191.392 44.6908 48
8 -1 -2 688.222 197.107 38
8 -1 -2 626.869 88.0849 58
8 -1 -2 682.651 99.7745 51
-8 1 2 797.575 78.5476 48
-8 1 2 700.462 71.1107 8
8 -1 -1 948.887 108.222 58
8 -1 -1 1138.8 130.668 51
-8 1 1 928.941 81.7059 48
8 -1 -1 962.373 113.995 46
-8 1 1 915.54 81.463 8
-8 1 0 219.47 42.6328 16
-8 1 0 201.246 40.8869 8
-8 1 0 147.357 84.7579 24
8 -1 0 309.18 65.1789 58
8 -1 0 112.92 60.1731 51
-8 1 0 185.929 41.3122 48
8 -1 0 155.754 54.0337 46
-8 1 -1 106.576 34.656 16
-8 1 -1 150.916 36.9601 8
8 -1 1 -4.00056 51.7207 1
-8 1 -1 176.905 68.8137 24
8 -1 1 148.324 48.8859 58
8 -1 1 25.5456 54.1647 51
-8 1 -1 82.915 29.4234 48
8 -1 1 45.3459 42.3248 46
8 -1 2 20145.3 475.687 59
8 -1 2 20348.8 540.72 51
8 -1 2 20507.4 482.49 46
8 -1 2 19237.2 766.453 1
-8 1 -2 21638 351.642 8
-8 1 -2 21418.9 361.048 16
8 -1 3 594.997 163.349 42
-8 1 -3 416.513 104.317 33
8 -1 3 366.358 101.043 1
-8 1 -4 7303.53 399.817 33
8 -1 4 6258.53 409.894 1
8 -1 4 7801.73 554.987 42
-8 1 -5 3262.93 270.557 33
8 -1 5 3227.28 332.805 28
8 -1 5 2800.4 270.743 1
8 -1 5 3154.35 356.477 42
8 -1 6 16311.8 775.656 28
-8 1 -6 15963 660.621 5
-8 1 -6 15396.7 304.687 16
8 -1 6 16552.9 827.022 42
8 -1 7 21138.5 975.919 39
8 -1 7 20668 903.116 28
-8 1 -7 21315.9 781.198 5
-8 1 -7 19702.5 346.012 16
8 -1 7 20048.7 936.573 42
8 -1 8 3456.88 405.594 39
8 -1 8 3640.21 415.212 28
-8 1 -8 3037.69 153.034 20
-8 1 -8 2877.75 133.005 16
8 -1 9 492.136 172.738 39
8 -1 9 279.107 147.149 28
-8 1 -9 198.091 48.1025 12
-8 1 -9 292.633 56.6101 20
-8 1 -10 2790.31 146.095 12
8 -1 10 3279.43 420.773 28
-8 1 -10 3001.19 157.069 20
8 -1 11 -115.626 143.387 42
-8 1 -11 33.7297 36.8725 12
-8 1 -11 -9.28651 36.5788 20
8 -1 12 56.8224 108.689 42
-8 1 -12 17.004 37.6307 12
-8 1 -12 15.7861 30.5612 20
-8 1 -13 470.357 68.2575 12
-8 1 -13 403.186 59.1368 20
-8 1 -14 272.759 45.5909 20
-8 1 -15 820.206 58.6363 20
8 0 -8 135.377 32.0303 10
-8 0 8 170.192 27.4222 48
8 0 -7 4369.73 161.847 10
-8 0 7 4341.24 138.611 48
-8 0 6 2.3421 17.7018 8
8 0 -6 40.3665 38.8403 10
-8 0 6 -2.54946 29.4153 48
8 0 -5 7180.42 280.889 58
-8 0 5 6497.28 202.981 48
-8 0 5 6672.12 190.667 8
8 0 -4 7714.42 620.778 38
8 0 -4 7950.22 302.573 58
-8 0 4 7322.38 223.727 48
-8 0 4 7474.83 214.827 8
-8 0 3 210.722 44.9754 8
8 0 -3 136.659 56.2989 58
-8 0 3 144.443 40.6047 49
-8 0 3 163.155 41.531 48
-8 0 2 38.2159 30.8764 8
8 0 -2 21.1997 49.5511 58
-8 0 2 28.5987 25.334 49
-8 0 2 3.15019 24.117 48
-8 0 1 7663.02 222.037 8
8 0 -1 8032.57 296.64 58
-8 0 1 7778.32 225.865 48
8 0 -1 8281.77 326.499 46
-8 0 0 1965.6 111.616 8
8 0 0 2011.17 118.12 64
-8 0 0 1707.09 224.277 24
8 0 0 1846.99 140.808 58
8 0 0 2143.63 183.952 51
-8 0 0 1821.87 107.512 48
8 0 0 2053.71 163.039 46
-8 0 0 1847.42 106.07 16
8 0 0 1895.21 253.197 1
-8 0 -1 22531.8 362.934 8
-8 0 -1 21681.4 733.765 24
8 0 1 22537.9 531.047 59
8 0 1 21805 460.278 58
8 0 1 22725.1 582.208 51
8 0 1 22203.3 510.798 46
-8 0 -1 21462.9 357.546 16
8 0 2 57.6771 50.4781 1
-8 0 -2 212.18 74.5634 24
-8 0 -3 2229.34 216.397 33
8 0 3 2071.66 237.434 1
8 0 4 6961.87 424.127 1
-8 0 -4 6867.96 369.96 33
8 0 4 7102.72 504.917 42
8 0 5 928.359 232.349 39
-8 0 -5 791.833 130.44 33
8 0 5 646.112 165.046 28
8 0 5 769.065 135.434 1
8 0 6 9332.39 653.187 39
8 0 6 10877.5 608.432 28
-8 0 -6 10486.9 535.209 5
-8 0 -7 26.099 21.5599 16
8 0 7 -136.454 120.539 39
8 0 7 -80.9633 89.2486 28
8 0 8 9431.83 671.759 39
8 0 8 9455.19 619.358 28
-8 0 -8 10151.4 243.486 16
8 0 9 9045.75 646.879 39
-8 0 -9 8127.64 240.628 12
8 0 9 8365.53 606.445 28
-8 0 -9 8524.94 256.242 20
8 0 10 11732 752.092 39
-8 0 -10 11526 297.494 12
8 0 10 12003.5 753.083 28
-8 0 -10 11560.2 302.866 20
-8 0 -11 33278.7 513.334 12
-8 0 -11 34023.3 520.589 20
-8 0 -12 -12.1282 35.9335 12
-8 0 -12 25.2149 32.212 20
-8 0 -13 6840.86 227.062 12
-8 0 -13 6773.74 216.113 20
-8 0 -14 305.291 53.8987 12
-8 0 -14 191.231 38.5362 20
-8 0 -15 285.78 37.0011 20
8 1 -8 863.559 65.5379 10
-8 -1 8 927.773 54.9826 48
8 1 -7 296.919 51.6181 10
8 1 -7 330.961 46.6912 9
-8 -1 7 322.965 43.1153 48
8 1 -6 1116.04 83.2641 9
-8 -1 6 1140.15 82.8427 48
-8 -1 6 1166.68 74.2835 8
-8 -1 5 182.39 40.4355 8
8 1 -5 229.569 64.4077 58
8 1 -5 211.956 44.5532 9
-8 -1 5 204.025 44.8916 49
-8 -1 5 213.03 45.4184 48
-8 -1 4 1790.09 108.655 8
8 1 -4 2030.45 157.819 58
-8 -1 4 1812.84 114.421 49
-8 -1 4 1748.86 111.325 48
-8 -1 3 520.239 64.9286 8
8 1 -3 329.147 143.722 38
8 1 -3 496.188 86.2297 58
-8 -1 3 614.554 70.6009 49
-8 -1 3 507.589 62.3381 48
-8 -1 2 2996.11 144.059 8
8 1 -2 2741.54 154.617 64
8 1 -2 2903.71 188.707 58
-8 -1 2 2634.83 138.344 49
-8 -1 2 2853.02 137.5 48
-8 -1 1 46415 548.986 8
8 1 -1 44631.6 586.46 64
8 1 -1 46092.7 723.034 58
-8 -1 1 47382.7 562.137 49
-8 -1 1 45248.4 523.973 48
8 1 -1 46817.8 767.653 46
-8 -1 0 77.1613 28.6648 16
-8 -1 0 35.5545 24.0956 8
8 1 0 37.3064 27.4481 64
-8 -1 0 -34.8572 31.2305 24
8 1 0 28.7437 39.2354 58
8 1 0 29.2784 57.3747 1
-8 -1 0 91.5356 32.8978 49
8 1 0 -71.6331 46.3839 46
-8 -1 -1 3331.6 140.595 8
8 1 1 3307.34 324.12 1
-8 -1 -1 3167.42 282.339 24
8 1 1 4095.23 237.699 59
8 1 1 3258.65 185.001 58
8 1 2 28138.9 899.826 1
-8 -1 -2 29038.7 808.95 24
8 1 3 9358.14 501.896 1
-8 -1 -3 10131.5 453.656 24
8 1 4 16346.2 891.371 39
-8 -1 -4 16340 540.681 33
-8 -1 -4 17754.9 643.173 21
8 1 5 398.361 166.659 39
8 1 5 458.45 125.756 28
8 1 5 351.529 101.222 1
-8 -1 -5 526.303 120.416 21
8 1 6 13578.2 799.828 39
8 1 6 13900.6 664.922 28
-8 -1 -6 14286.4 611.025 5
8 1 7 11023.3 724.905 39
-8 -1 -7 11782.4 573.972 5
8 1 8 10056.7 701.851 39
-8 -1 -8 9449.97 252.759 12
8 1 9 18644.6 964.001 39
-8 -1 -9 17362.7 356.879 12
-8 -1 -9 18244.1 371.835 20
-8 -1 -10 240.236 53.0295 12
-8 -1 -10 240.027 52.3396 20
-8 -1 -11 725.646 81.9212 12
-8 -1 -11 756.49 81.4427 20
8 1 12 452.231 138.03 39
-8 -1 -12 466.839 72.7449 12
-8 -1 -12 551.918 70.486 20
-8 -1 -13 865.642 87.7932 12
-8 -1 -13 907.617 83.1073 20
-8 -1 -14 902.051 84.0051 12
-8 -1 -14 702.542 66.9426 20
-8 -1 -15 85.8758 34.2685 12
-8 -1 -15 92.7644 23.9454 20
8 2 -8 985.336 68.2262 10
-8 -2 8 1014.67 56.4656 48
8 2 -7 91.7596 37.3626 10
8 2 -7 80.1323 34.0436 9
-8 -2 7 77.703 27.5798 48
8 2 -6 3848.22 157.817 9
-8 -2 6 3682.36 142.446 49
-8 -2 6 3750.49 142.904 48
-8 -2 6 4115.73 137.707 8
-8 -2 5 100.548 34.4389 8
8 2 -5 124.595 48.3102 58
8 2 -5 132.49 43.1217 9
-8 -2 5 104.784 37.4228 49
-8 -2 5 137.606 38.2279 48
-8 -2 4 398.559 55.4169 8
-8 -2 4 386.077 56.6013 56
-8 -2 4 360.095 57.4478 49
8 2 -4 376.811 57.7125 9
-8 -2 4 263.331 47.8144 48
-8 -2 3 2329.79 128.317 8
8 2 -3 2328.63 172.566 58
-8 -2 3 2335.72 131.623 56
-8 -2 3 2155.6 125.735 49
-8 -2 3 2054.33 117.102 48
-8 -2 2 4673.58 180.72 8
8 2 -2 4711.5 206.512 64
8 2 -2 5129.47 253.697 58
-8 -2 2 4833.86 186.292 56
-8 -2 2 4894.71 189.078 49
-8 -2 2 4746.38 172.891 48
-8 -2 1 4195.59 168.604 8
8 2 -1 4173.56 225.714 58
-8 -2 1 4318.47 174.97 56
-8 -2 1 4090.54 168.821 49
8 2 -1 3800.08 180.142 64
-8 -2 0 6983.19 211.822 8
8 2 0 6508.15 460.014 1
-8 -2 0 6548.55 424.967 24
8 2 0 7135.19 325.281 59
8 2 0 6802.37 281.83 58
-8 -2 0 6956.92 216.732 56
-8 -2 0 7330.5 423.537 21
-8 -2 0 7036.42 212.543 49
8 2 0 6175.09 218.734 64
8 2 0 7107.47 301.739 46
-8 -2 -1 1887.68 108.311 8
8 2 1 2020.64 248.679 1
-8 -2 -1 2064.95 229.936 24
8 2 1 2094.07 179.522 59
8 2 1 2010.22 150.938 58
-8 -2 -1 2050.04 226.514 21
-8 -2 -1 1998.28 111.58 49
8 2 2 15521.2 666.661 1
-8 -2 -2 15605 601.028 24
8 2 3 5170.53 372.4 1
-8 -2 -3 5424.33 339.209 24
-8 -2 -3 5473.75 362.009 21
8 2 4 16489.9 646.171 1
-8 -2 -4 16560.3 566.375 24
8 2 5 35266.6 1315.98 39
-8 -2 -5 36012.5 923.103 21
8 2 6 1305.56 277.906 39
-8 -2 -6 1349.16 185.855 21
-8 -2 -6 1444.9 194.385 5
8 2 7 1716.5 317.144 39
-8 -2 -7 2016.66 226.171 21
-8 -2 -7 1943.53 116.841 18
-8 -2 -7 1816 221.695 5
8 2 8 2999.7 403.506 39
-8 -2 -8 2861 143.199 12
-8 -2 -8 3079.73 293.384 5
8 2 9 16042.6 887.318 39
-8 -2 -9 14084.4 326.111 12
8 2 10 10981.1 754.419 39
-8 -2 -10 11258.5 302.895 12
-8 -2 -10 11418.3 295.728 20
8 2 11 2227.75 335.244 39
-8 -2 -11 2270.31 141.654 12
-8 -2 -11 2322.43 135.556 20
8 2 12 16113.4 901.913 39
-8 -2 -12 15941.4 365.186 12
-8 -2 -12 15759.1 338.078 20
-8 -2 -13 4147.55 182.203 12
-8 -2 -13 3837.28 158.821 20
-8 -2 -14 8961.24 246.684 12
-8 -2 -14 8035.66 204.19 20
-8 -2 -15 1222.16 84.8643 12
8 3 -8 789.004 59.0998 9
-8 -3 8 785.847 47.2388 48
-8 -3 7 36.8413 18.2716 8
8 3 -7 74.4334 33.7228 9
-8 -3 7 73.8418 27.4589 49
-8 -3 7 47.518 24.6235 48
-8 -3 6 241.819 39.297 8
8 3 -6 182.005 46.5901 9
-8 -3 6 160.315 37.3797 49
-8 -3 6 152.58 37.9092 48
-8 -3 5 1395.93 92.0376 8
8 3 -5 1398.24 121.907 58
-8 -3 5 1405.97 94.8135 56
8 3 -5 1455.25 109.034 9
-8 -3 5 1389.02 99.4095 49
-8 -3 5 1460.89 94.6475 48
-8 -3 4 8.11853 31.3247 8
8 3 -4 -6.55397 26.6315 61
8 3 -4 42.5793 40.7412 58
-8 -3 4 -6.75935 28.5389 56
-8 -3 4 3.09932 28.3411 49
-8 -3 3 5625.52 199.94 8
8 3 -3 5530.71 236.347 64
8 3 -3 5811.48 205.621 61
8 3 -3 5876.1 271.77 58
-8 -3 3 5606 203.57 56
-8 -3 3 5599.03 202.702 49
-8 -3 2 6242.93 211.12 8
8 3 -2 6328.02 247.197 64
8 3 -2 6693.68 294.868 58
-8 -3 2 6625.74 220.643 56
-8 -3 2 6565.53 217.696 49
-8 -3 1 5413.86 193.87 8
8 3 -1 5199.46 258.743 58
8 3 -1 4728.24 206.248 64
-8 -3 1 5138.36 191.694 56
-8 -3 1 5098.26 186.125 49
-8 -3 0 272.939 46.2185 8
8 3 0 231.511 55.8284 64
-8 -3 0 220.727 79.6868 24
8 3 0 142.979 77.9955 59
8 3 0 205.386 65.6874 58
8 3 0 171.39 101.648 1
-8 -3 0 263.078 50.4007 56
-8 -3 0 320.299 97.5077 21
-8 -3 0 289.638 49.145 49
-8 -3 -1 6303.94 197.936 8
8 3 1 6110.23 437.975 1
-8 -3 -1 5929.01 392.297 24
8 3 1 6188.58 272.961 58
-8 -3 -1 6332.99 202.587 56
-8 -3 -1 6856.84 412.999 21
8 3 1 6289.26 316.101 59
-8 -3 -1 6349.15 196.351 49
8 3 2 11306.2 577.303 1
-8 -3 -2 11101.6 513.891 24
-8 -3 -2 12634.5 564.828 21
8 3 3 26147.6 854.302 1
-8 -3 -3 26848.5 768.91 24
8 3 4 16656.9 944.974 39
8 3 4 15644.1 641.071 1
-8 -3 -4 16070 578.871 24
8 3 5 5976.58 574.835 39
8 3 5 4858.22 351.275 1
-8 -3 -5 6121.67 394.748 21
-8 -3 -5 5866.96 368.982 5
8 3 6 578.923 196.451 39
-8 -3 -6 275.498 88.0008 21
-8 -3 -6 698.752 134.95 5
8 3 7 4497.63 500.038 39
-8 -3 -7 4764.61 342.055 21
-8 -3 -7 5235.27 190.421 18
-8 -3 -7 4876.3 354.841 5
8 3 8 14454.3 863.907 39
-8 -3 -8 14668.3 325.464 12
-8 -3 -8 15509.5 335.882 18
8 3 9 293.519 141.437 39
8 3 9 116.66 100.589 36
-8 -3 -9 100.145 39.6729 12
8 3 10 4523.13 512.84 39
8 3 10 3524.75 412.039 36
-8 -3 -10 3723.74 178.281 12
-8 -3 -10 3772.62 169.038 20
8 3 11 -0.92426 36.5565 36
-8 -3 -11 11.2598 38.485 12
-8 -3 -11 61.9292 32.2785 20
8 3 12 1722.43 306.05 39
-8 -3 -12 1700.59 124.694 12
-8 -3 -12 1738.72 111.981 20
-8 -3 -13 106.43 47.129 12
-8 -3 -13 77.6532 27.9623 20
-8 -3 -14 5863.55 198.385 12
-8 -3 -15 24.4554 29.3498 12
8 4 -7 1171.87 87.1205 9
-8 -4 7 1073.03 68.204 49
-8 -4 7 988.645 60.5854 48
-8 -4 7 1142.94 58.6544 8
-8 -4 6 40.7402 22.4884 8
-8 -4 6 37.6626 27.5703 56
8 4 -6 32.1051 33.3003 9
-8 -4 6 50.7303 31.9946 49
-8 -4 6 15.9778 23.7303 48
-8 -4 5 10889.4 247.73 8
-8 -4 5 11320 261.993 56
8 4 -5 11647.2 303.846 9
-8 -4 5 11291.3 268.989 49
-8 -4 4 3.58902 29.6681 8
8 4 -4 -37.2887 36.9125 61
8 4 -4 -63.9328 42.157 58
-8 -4 4 12.1198 33.0231 56
-8 -4 4 -4.33187 31.1445 49
-8 -4 3 8844.3 249.679 8
8 4 -3 9327.77 314.818 64
8 4 -3 9060.98 269.245 61
8 4 -3 9240.91 336.626 58
-8 -4 3 9024.11 258.182 56
-8 -4 3 8975.5 256.194 49
-8 -4 2 5862.26 206.036 8
8 4 -2 5515.86 239.234 64
8 4 -2 5619.24 208.371 61
8 4 -2 5798.41 277.05 58
-8 -4 2 5692.24 206.912 56
-8 -4 2 5879.03 204.697 49
-8 -4 1 484.957 64.6626 8
8 4 -1 384.268 70.2833 64
8 4 -1 475.204 63.3649 61
8 4 -1 344.664 80.6714 58
-8 -4 1 413.49 60.8058 56
-8 -4 1 428.045 57.7998 49
-8 -4 0 16911.5 337.633 8
8 4 0 17228.3 517.867 59
8 4 0 16433.5 469.372 58
-8 -4 0 17327.3 343.718 56
-8 -4 0 16894.6 327.931 49
-8 -4 -1 2307.21 122.682 8
8 4 1 2127.2 261.263 1
-8 -4 -1 2097.64 234.793 24
8 4 1 2212.48 197.509 59
8 4 1 2196.9 173.895 58
-8 -4 -1 2448.74 126.862 56
-8 -4 -1 2364.05 250.465 21
-8 -4 -1 2213.22 116.146 49
-8 -4 -2 7555.69 212.552 8
8 4 2 7369.3 479.357 1
-8 -4 -2 7800.71 441.512 24
8 4 2 8072.58 304.021 60
8 4 2 7886.82 360.964 59
8 4 2 7862.85 316.254 58
-8 -4 -2 8063.22 222.173 56
-8 -4 -2 8345.24 469.019 21
8 4 3 2585.67 405.253 39
8 4 3 2365.07 266.945 1
-8 -4 -3 2744.84 272.729 21
-8 -4 -3 2620.95 249.77 24
8 4 4 2988.85 422.674 39
8 4 4 3279.66 304.898 1
-8 -4 -4 3447 278.682 24
-8 -4 -4 3858.75 320.882 21
8 4 5 7267.66 648.162 39
8 4 5 6791.29 427.947 1
-8 -4 -5 7483.62 445.585 21
-8 -4 -5 7631.31 412.217 5
8 4 6 16.4542 46.7229 60
-8 -4 -6 39.9724 65.3667 21
-8 -4 -6 21.234 31.393 18
-8 -4 -6 151.435 66.586 5
8 4 7 4007.21 464.713 39
-8 -4 -7 3674.21 162.715 12
-8 -4 -7 3788.65 317.224 21
-8 -4 -7 3863.92 167.01 18
-8 -4 -7 3745.91 302.915 5
-8 -4 -8 17183.2 361.588 12
-8 -4 -8 17250.9 359.983 18
8 4 9 553.722 202.626 36
-8 -4 -9 585.64 74.0507 12
8 4 10 2317.24 374.11 39
8 4 10 2580.35 364.633 36
-8 -4 -10 2649.25 150.702 12
-8 -4 -10 2806.09 145.279 20
8 4 11 8203.17 625.201 36
-8 -4 -11 8376.12 267.723 12
-8 -4 -11 8181.25 239.815 20
8 4 12 -69.8644 105.225 36
-8 -4 -12 42.4319 37.1814 12
-8 -4 -13 1707.65 117.598 12
-8 -4 -14 1111.97 89.8988 12
-8 -4 -15 725.094 63.7002 12
-8 -4 -16 1803.29 74.4493 12
-8 -5 7 100.96 19.6994 8
8 5 -7 116.347 34.5764 9
-8 -5 7 114.379 27.7233 49
-8 -5 7 99.192 20.1856 48
-8 -5 6 3778.99 127.141 8
-8 -5 6 3709.92 135.61 56
8 5 -6 3919.85 170.694 9
-8 -5 6 3856.52 141.544 49
-8 -5 6 3633.93 117.872 48
-8 -5 5 1749.85 99.8722 8
8 5 -5 1808.05 124.092 61
-8 -5 5 1834.06 109.147 56
-8 -5 5 1912.72 111.615 49
-8 -5 4 519.419 64.381 8
8 5 -4 574.468 86.8848 64
8 5 -4 470.978 72.4847 61
-8 -5 4 492.667 65.5891 56
-8 -5 4 512.082 65.412 49
-8 -5 3 1086.47 91.6496 8
8 5 -3 1224.37 123.189 64
8 5 -3 1156.87 105.879 61
-8 -5 3 1220.59 99.138 56
-8 -5 3 1155.09 95.1979 49
-8 -5 2 4466.12 182.005 8
8 5 -2 4650.88 230.748 64
8 5 -2 4474.87 199.449 61
8 5 -2 4716.27 243.191 58
-8 -5 2 4583.89 187.475 56
-8 -5 2 4739.61 183.035 49
-8 -5 1 4880.93 188.685 8
8 5 -1 4918.99 232.545 64
8 5 -1 5312.67 212.385 61
8 5 -1 5194.98 268.394 58
-8 -5 1 5340.37 198.747 56
-8 -5 1 5305.88 188.659 49
-8 -5 0 8.0622 27.0717 8
8 5 0 21.6311 33.7357 61
8 5 0 66.2299 47.619 58
-8 -5 0 38.9466 24.7532 49
-8 -5 -1 24311.3 398.219 8
8 5 1 22851 418.347 61
8 5 1 24754.5 567.055 60
8 5 1 23486.8 604.606 59
8 5 1 23761 576.419 58
-8 -5 -1 25360.9 406.998 56
-8 -5 -1 24239.5 374.634 49
-8 -5 -1 24089.8 400.022 65
-8 -5 -2 6200.36 195.531 8
8 5 2 6124.43 206.166 7
8 5 2 5472.4 433.451 1
-8 -5 -2 6168.45 206.62 65
-8 -5 -2 6368.94 410.929 24
8 5 2 6296.34 288.34 60
8 5 2 6187.62 325.678 59
8 5 2 6139.51 295.61 58
-8 -5 -2 6184.59 195.152 56
-8 -5 -2 6967.57 438.811 21
8 5 3 28136.8 1300.95 39
8 5 3 28294.4 949.743 1
-8 -5 -3 30264.6 460.738 65
-8 -5 -3 29767.7 869.291 24
8 5 3 30261 627.642 60
8 5 3 29835 639.535 58
8 5 3 29850.1 541.739 44
-8 -5 -4 217.386 45.6859 65
8 5 4 297.291 76.0441 60
-8 -5 -4 196.706 89.9546 21
8 5 4 149.46 66.7025 1
-8 -5 -4 326.469 54.3945 18
8 5 5 9988.49 790.229 39
8 5 5 10231.9 551.339 1
8 5 5 11337.7 390.171 60
-8 -5 -5 12149.8 581.19 21
-8 -5 -5 11207.6 282.113 18
8 5 5 10722.2 319.618 44
8 5 6 414.11 176.829 39
-8 -5 -6 326.608 50.3148 12
-8 -5 -6 626.164 130.24 21
-8 -5 -6 449.729 60.1236 18
8 5 6 457.394 75.8052 44
8 5 7 1708.4 318.259 39
-8 -5 -7 1597.94 112.574 12
-8 -5 -7 1544.84 109.189 18
8 5 7 1551.28 121.03 44
8 5 8 1135.67 279.946 39
-8 -5 -8 1052.17 94.579 12
-8 -5 -8 1139.78 96.8548 18
8 5 8 990.064 99.3142 44
8 5 9 65.2254 132.489 39
8 5 9 248.145 141.11 36
-8 -5 -9 380.186 62.5007 18
8 5 10 30557.5 1314.07 39
8 5 10 31020.3 1286.41 36
-8 -5 -10 30455.9 504.643 12
-8 -5 -10 30122 446.991 20
8 5 11 4.53601 77.5486 39
-8 -5 -11 100.853 44.9172 12
8 5 12 -11.9855 90.8629 39
-8 -5 -12 236.493 54.1074 12
-8 -5 -13 1002.42 90.1329 12
-8 -5 -14 4558.72 164.745 12
-8 -5 -15 19.8518 22.6723 12
8 6 -7 842.159 68.7822 9
-8 -6 7 793.786 50.7685 49
-8 -6 6 352.986 40.4346 8
-8 -6 6 352.501 46.5901 56
-8 -6 6 274.151 40.6784 49
8 6 -6 349.767 56.6632 9
-8 -6 5 1180.08 81.4893 8
8 6 -5 1236.73 105.572 61
-8 -6 5 1275.53 90.6914 56
-8 -6 5 1211.21 85.4216 49
-8 -6 4 180.471 45.2109 8
8 6 -4 233.291 61.3035 64
8 6 -4 237.982 56.6379 61
-8 -6 4 256.295 51.1821 56
-8 -6 4 222.648 46.0645 49
-8 -6 3 3664.83 161.232 8
8 6 -3 3841.73 192.961 61
-8 -6 3 3768.22 167.288 56
8 6 -3 3761.37 207.891 64
-8 -6 3 3838.94 160.801 49
-8 -6 2 5996.24 209.866 8
8 6 -2 5852.4 261.745 64
8 6 -2 6042.4 241.431 61
-8 -6 2 6159.74 214.183 56
-8 -6 2 6080.59 201.609 49
-8 -6 1 12458.9 301.771 8
8 6 -1 12439.3 382.595 64
8 6 -1 12539 344.34 61
8 6 -1 11759.8 381.122 58
-8 -6 1 12504.5 301.113 56
-8 -6 1 12461.5 282.464 49
-8 -6 0 4547.04 180.625 8
8 6 0 4189.39 199.436 61
8 6 0 4161.87 238.911 58
-8 -6 0 4521.52 178.518 56
-8 -6 0 4492.91 164.257 49
-8 -6 -1 9155.57 248.863 8
8 6 1 9107.51 270.467 7
-8 -6 -1 8950.09 252.095 65
8 6 1 8932.85 285.429 61
8 6 1 9308.22 363.652 60
8 6 1 8795.49 358.784 58
-8 -6 -1 9356.8 247.777 56
-8 -6 -2 4282.64 164.993 8
8 6 2 4301.81 180.417 7
-8 -6 -2 4443.99 181.654 65
8 6 2 4344.39 265.499 59
8 6 2 4267.71 251.452 60
8 6 2 4337.88 256.68 58
-8 -6 -2 4478.04 165.105 56
8 6 3 2617.05 134.494 7
-8 -6 -3 2598.09 141.696 65
8 6 3 2662 201.301 60
8 6 3 2111.44 196.076 59
8 6 3 2552.96 207.489 58
8 6 3 2511.57 175.773 44
8 6 4 1958.46 348.495 39
8 6 4 1914.83 262.115 1
-8 -6 -4 2145.09 130.31 65
8 6 4 2391.44 191.869 60
-8 -6 -4 2299.07 134.168 18
8 6 4 2292.44 165.942 44
8 6 5 1800.7 346.205 39
-8 -6 -5 1858.33 120.826 65
8 6 5 2173.15 183.705 60
8 6 5 1806.93 255.112 1
-8 -6 -5 2053.01 126.454 18
8 6 5 2138.5 159.151 44
8 6 6 356.703 164.33 39
-8 -6 -6 567.655 70.6361 18
8 6 6 443.539 80.7458 44
8 6 7 26763.1 1269.27 39
-8 -6 -7 27693.4 469.779 12
-8 -6 -7 27537.3 455.508 18
8 6 7 26573.5 528.897 44
8 6 8 1221.54 284.306 39
-8 -6 -8 1048.61 97.2579 12
-8 -6 -8 1130.73 97.6717 18
8 6 8 1134.79 114.006 44
8 6 9 -89.8722 137.644 39
8 6 9 117.079 98.1877 36
-8 -6 -9 77.7975 39.3391 12
-8 -6 -9 47.0419 34.3358 18
8 6 9 56.8054 41.1853 44
8 6 10 5082.26 542.549 39
8 6 10 5610.55 544.247 36
-8 -6 -10 5282.54 211.92 12
8 6 11 418.843 175.637 39
8 6 11 578.653 191.208 36
-8 -6 -11 493.035 73.606 12
-8 -6 -12 51.4729 37.3626 12
-8 -6 -13 99.4351 38.1212 12
-8 -6 -14 846.558 71.0126 12
-8 -6 -15 13.0631 21.03 12
-8 -7 6 -4.18407 18.2826 8
-8 -7 6 40.8332 23.237 56
-8 -7 6 32.7807 20.195 49
8 7 -6 28.816 30.2874 9
-8 -7 5 466.55 51.6927 8
8 7 -5 484.605 72.7251 61
-8 -7 5 418.683 53.118 56
-8 -7 5 399.025 46.8856 49
-8 -7 4 721.079 71.3602 8
8 7 -4 675.953 86.3997 64
8 7 -4 729.516 91.7051 61
-8 -7 4 764.235 74.3224 56
-8 -7 4 616.362 62.3036 49
-8 -7 3 4666.41 178.468 8
8 7 -3 4872.3 222.903 64
8 7 -3 4940.4 221.775 61
-8 -7 3 4734.67 181.253 56
-8 -7 3 4586.67 164.701 49
-8 -7 2 1542.92 107.862 8
8 7 -2 1834.39 160.309 64
8 7 -2 1721.47 150.784 61
-8 -7 2 1487.95 105.897 56
-8 -7 2 1599 99.8138 49
-8 -7 1 696.821 76.1071 8
8 7 -1 891.816 112.086 64
8 7 -1 654.537 91.6303 61
-8 -7 1 756.569 78.0289 56
-8 -7 1 755.744 68.9954 49
-8 -7 0 1456.71 103.485 8
8 7 0 1658.96 128.869 7
-8 -7 0 1772.31 112.989 65
8 7 0 1770.46 141.709 61
-8 -7 0 1735.11 111.155 56
-8 -7 -1 37.4972 28.1288 8
-8 -7 -1 87.2109 36.0463 65
8 7 1 139.425 57.1346 61
8 7 1 109.473 40.4375 7
8 7 1 14.1924 54.3528 58
-8 -7 -1 126.044 36.5381 56
-8 -7 -2 8050.73 227.386 8
8 7 2 8268.92 258.777 7
-8 -7 -2 8098.06 249.327 65
8 7 2 8053.59 337.223 60
8 7 2 7795.55 335.411 58
8 7 3 12069 300.435 7
8 7 3 12384.2 419.849 60
8 7 3 11548.1 413.009 58
-8 -7 -3 11807.8 302.104 65
8 7 3 12455.4 401.411 44
8 7 4 925.239 82.9538 7
-8 -7 -4 1006.3 92.4048 65
8 7 4 1060.82 135.049 60
-8 -7 -4 983.351 91.4542 18
8 7 4 1009.74 124.199 44
-8 -7 -5 23180.4 428.206 65
8 7 5 22846.4 569.915 60
-8 -7 -5 22816.9 419.399 18
8 7 5 23959.3 536.822 44
-8 -7 -6 448.633 69.4371 65
8 7 6 456.907 77.4573 62
8 7 6 505.076 105.308 60
-8 -7 -6 575.01 73.3892 18
8 7 6 490.838 84.8185 44
8 7 7 194.846 54.2441 62
-8 -7 -7 212.473 50.0804 12
-8 -7 -7 211.705 52.7861 19
-8 -7 -7 251.667 53.0684 18
8 7 7 212.681 67.0072 44
8 7 8 2408.33 387.164 39
-8 -7 -8 2321.6 141.665 12
8 7 8 2420.37 148.57 62
-8 -7 -8 2097.76 140.582 19
-8 -7 -8 2255.43 134.247 18
8 7 8 2262.26 158.505 44
8 7 9 3441.05 439.01 39
-8 -7 -9 4049.07 186.135 12
-8 -7 -9 3685.61 182.351 19
-8 -7 -9 4148.21 176.259 18
8 7 9 4239.93 207.047 44
8 7 10 6525.85 602.702 39
8 7 10 7005.69 615.578 36
-8 -7 -10 7280.49 244.541 12
-8 -7 -10 6759.79 236.609 19
8 7 10 6875.1 251.934 44
8 7 11 2401.86 365.173 39
-8 -7 -11 2582.57 144.551 12
-8 -7 -11 2270.99 130.716 19
8 7 11 2296.73 139.105 44
-8 -7 -12 2909.85 146.168 12
8 7 12 2873.27 142.314 44
-8 -7 -13 934.598 78.7504 12
-8 -7 -14 4240.2 136.987 12
-8 -8 6 3951.97 95.6346 8
-8 -8 6 4035.25 104.651 56
-8 -8 5 138.565 29.8146 8
8 8 -5 41.8698 35.7204 61
-8 -8 5 80.3783 26.5749 56
-8 -8 5 58.6947 23.3835 49
-8 -8 4 3867.45 144.854 8
8 8 -4 3971.94 178.737 61
-8 -8 4 3504.15 135.204 56
-8 -8 4 3409.06 119.616 49
-8 -8 3 939.216 83.2699 8
8 8 -3 717.879 85.2011 64
8 8 -3 903.316 101.742 61
-8 -8 3 826.607 75.6079 56
-8 -8 3 822.168 64.8267 49
-8 -8 2 46.0819 38.7953 8
8 8 -2 21.3439 44.5264 64
8 8 -2 -12.9706 49.3213 61
-8 -8 2 47.772 32.4734 56
-8 -8 2 9.7118 27.4441 49
-8 -8 1 16605.3 340.199 8
8 8 -1 16805.4 423.535 64
8 8 -1 17711 432.896 61
-8 -8 1 16545.8 325.978 56
-8 -8 0 13187 304.26 8
8 8 0 13711.6 365.749 7
-8 -8 0 13265.1 305.846 65
8 8 0 14125.1 390.187 61
-8 -8 0 13336.8 287.219 56
-8 -8 -1 2108.36 121.717 8
8 8 1 2259.38 148.484 7
-8 -8 -1 2124.43 128.646 65
8 8 1 2255.31 160.044 61
-8 -8 -2 488.592 59.2777 8
8 8 2 500.816 72.2098 7
-8 -8 -2 630.853 76.2295 65
8 8 2 530.048 98.071 60
8 8 2 505.925 93.6561 58
8 8 3 2703.12 150.888 7
-8 -8 -3 3022.67 158.631 65
8 8 3 3197.21 213.041 60
8 8 3 3083.96 207.884 58
8 8 3 2991.27 198.16 44
-8 -8 -4 280.835 55.212 65
8 8 4 246.478 83.0598 60
8 8 4 272.013 53.8389 7
-8 -8 -4 292.071 53.5155 18
8 8 4 224.355 71.5093 44
-8 -8 -5 391.293 62.902 65
8 8 5 402.953 100.226 60
-8 -8 -5 327.848 56.8945 18
8 8 5 317.862 82.3299 44
-8 -8 -6 407.242 62.6067 65
8 8 6 400.921 74.2856 62
8 8 6 335.134 90.784 60
-8 -8 -6 371.728 57.2559 18
8 8 6 366.385 80.7781 44
-8 -8 -7 11025.3 302.554 12
8 8 7 11287.5 324.33 62
-8 -8 -7 11189.7 319.711 19
-8 -8 -7 11265.7 285.187 18
8 8 7 11154.2 353.676 44
8 8 8 226.698 122.901 39
8 8 8 152.177 54.5716 62
-8 -8 -8 196.324 50.0417 12
-8 -8 -8 270.176 60.11 19
-8 -8 -8 168.661 46.1896 18
8 8 8 206.45 57.8097 44
8 8 9 122.28 47.2736 62
-8 -8 -9 156.374 46.4054 12
-8 -8 -9 114.683 45.3369 19
8 8 9 66.604 51.8357 44
-8 -8 -10 190.098 51.2784 12
8 8 10 156.797 45.9745 62
-8 -8 -10 134.847 43.7621 19
8 8 10 54.5273 43.2752 44
-8 -8 -11 795.939 83.1116 12
8 8 11 673.865 70.8207 62
-8 -8 -11 679.872 73.3165 19
8 8 11 685.036 82.1164 44
-8 -8 -12 700.348 70.3274 12
-8 -8 -12 650.412 63.5574 19
8 8 12 699.082 74.2528 44
-8 -8 -13 333.073 45.8591 12
-8 -8 -13 262.182 36.7012 19
8 8 13 303.981 44.5749 44
-8 -8 -14 36.8224 20.3564 12
-8 -9 5 28.5604 16.0863 8
-8 -9 5 10.6782 14.6117 56
8 9 -5 26.2405 26.3888 9
-8 -9 4 27.6695 23.9913 8
8 9 -4 35.6134 36.7587 61
-8 -9 4 57.841 23.6268 56
-8 -9 3 -10.6382 26.8574 8
8 9 -3 10.4173 32.1493 64
8 9 -3 -33.4684 40.1779 61
-8 -9 3 -19.0044 25.2689 56
-8 -9 2 2508.92 125.216 8
8 9 -2 2544.53 144.943 64
8 9 -2 2807.84 161.336 61
-8 -9 2 2518.14 117.121 56
-8 -9 1 2897.35 137.237 8
-8 -9 1 3254.57 137.876 65
8 9 -1 3054.3 168.525 64
8 9 -1 3175.89 177.825 61
-8 -9 1 2989.3 128.996 56
-8 -9 0 -5.12754 24.6671 8
-8 -9 0 -35.4981 27.1012 65
8 9 0 90.1927 50.1491 7
8 9 0 68.0856 53.1925 61
-8 -9 0 43.0127 26.9956 56
-8 -9 -1 3983.99 159.62 8
8 9 1 4250.16 201.786 7
-8 -9 -1 4233.51 178.474 65
8 9 1 4222.68 209.704 61
-8 -9 -2 7129.15 206.024 8
8 9 2 8103.7 269.779 7
-8 -9 -2 7623.02 245.291 65
8 9 2 7469.34 292.879 60
8 9 3 16272.1 367.606 7
-8 -9 -3 16152 357.261 65
8 9 3 16491.5 438.101 60
8 9 3 15744.1 423.29 58
-8 -9 -3 15992.4 341.07 18
8 9 3 16584 438.923 44
8 9 4 967.7 90.417 7
-8 -9 -4 903.695 90.6543 65
8 9 4 844.431 120.094 60
8 9 4 1028.82 122.249 58
-8 -9 -4 1013.22 89.8847 18
8 9 4 968.33 116.002 44
8 9 5 7036.54 221.572 7
-8 -9 -5 7095.04 236.312 65
8 9 5 7312.99 301.372 60
-8 -9 -5 7033.16 222.647 18
8 9 5 7252.44 289.305 44
-8 -9 -6 109.293 40.4739 65
8 9 6 104.809 53.8455 62
8 9 6 63.0151 63.4175 60
-8 -9 -6 89.6837 32.7339 18
8 9 6 140.812 64.1561 44
-8 -9 -7 1019.82 95.3081 12
8 9 7 1040.74 103.668 62
8 9 7 1138.66 127.666 60
-8 -9 -7 999.876 84.1104 18
8 9 7 1033.03 114.271 44
8 9 8 -20.8385 42.7034 62
-8 -9 -8 98.852 42.5323 12
8 9 8 32.471 61.7972 60
-8 -9 -8 -11.1626 24.0509 18
8 9 8 -24.886 46.0616 44
-8 -9 -9 9800.05 269.744 12
8 9 9 9502.6 270.886 62
-8 -9 -9 9916.14 280.755 19
8 9 9 10107.3 304.938 44
-8 -9 -10 412.571 61.9607 12
8 9 10 386.102 61.7657 62
-8 -9 -10 376.307 59.6011 19
8 9 10 471.626 74.9896 44
-8 -9 -11 917.478 79.5026 12
8 9 11 990.875 80.2089 62
-8 -9 -11 796.253 73.5439 19
8 9 11 815.684 84.261 44
-8 -9 -12 189.359 37.0789 12
8 9 12 237.735 40.472 62
-8 -9 -12 141.043 32.3057 19
8 9 12 149.705 38.703 44
-8 -9 -13 83.9123 24.8018 12
8 9 13 97.0883 31.4062 44
-8 -10 4 2511.23 84.9119 8
-8 -10 4 2425.52 77.5008 56
-8 -10 3 404.254 44.2671 8
8 10 -3 493.149 60.8315 61
-8 -10 3 380.049 39.7258 56
-8 -10 2 1077.22 74.3825 8
8 10 -2 1029.76 78.9025 15
8 10 -2 1156.57 81.0383 64
8 10 -2 1172.34 96.3563 61
-8 -10 2 1080.83 65.8291 56
-8 -10 1 4520.29 154.644 8
8 10 -1 4841.89 179.996 15
-8 -10 1 4643.49 149.769 65
8 10 -1 4756.96 180.85 64
8 10 -1 5036.1 200.279 61
-8 -10 1 4523.97 135.438 56
-8 -10 0 4212.82 153.238 8
8 10 0 4655.66 198.178 7
-8 -10 0 4330.9 161.387 65
8 10 0 4067.03 181.005 64
8 10 0 4328.93 193.887 61
-8 -10 -1 821.736 69.8401 8
8 10 1 843.762 91.952 7
-8 -10 -1 784.649 76.505 65
8 10 1 940.473 98.337 61
-8 -10 -2 1665.75 95.0552 8
8 10 2 1938.89 128.691 7
-8 -10 -2 1963.61 121.809 65
8 10 3 6207.13 219.93 7
-8 -10 -3 6010.51 212.122 65
8 10 3 5686.34 235.889 60
-8 -10 -3 6028.67 197.59 18
-8 -10 -4 343.093 58.9613 65
8 10 4 350.851 75.6756 60
8 10 4 345.335 59.9062 7
8 10 4 229.847 61.9762 58
-8 -10 -4 265.497 50.2315 18
8 10 4 372.49 75.7918 44
8 10 5 741.113 74.901 7
-8 -10 -5 838.84 83.1249 65
8 10 5 971.386 110.274 60
-8 -10 -5 811.227 73.8405 18
8 10 5 976.668 110.253 44
-8 -10 -6 29.8403 28.0521 65
8 10 6 6.00232 49.8342 60
-8 -10 -6 20.536 25.3558 18
8 10 6 19.2463 50.2535 44
-8 -10 -7 541.156 69.6087 12
8 10 7 532.498 75.0489 62
8 10 7 606.934 91.274 60
-8 -10 -7 495.571 56.4973 18
8 10 7 533.953 83.458 44
8 10 8 58.5361 41.4558 62
-8 -10 -8 53.1043 34.9322 12
8 10 8 39.8163 52.9849 60
-8 -10 -8 19.6502 21.344 18
8 10 8 101.052 56.785 44
-8 -10 -9 418.882 58.7712 12
8 10 9 420.804 63.0866 62
8 10 9 459.951 81.7564 60
8 10 9 504.106 74.7214 44
-8 -10 -10 2645.36 124.463 12
8 10 10 2522.45 123.529 62
8 10 10 2507.42 148.046 60
8 10 10 2652.51 140.84 44
-8 -10 -11 1831.07 94.5034 12
8 10 11 1656.96 90.2339 62
8 10 11 1795.62 117.236 60
8 10 11 1782.86 105.361 44
-8 -10 -12 445.351 42.9603 12
8 10 12 452.503 42.5283 62
8 10 12 482.1 59.8869 60
8 10 12 469.388 49.8991 44
-8 -11 3 24.5663 14.9613 8
8 11 -3 20.6536 21.3707 61
-8 -11 3 14.1283 13.7011 18
8 11 -2 58.0116 23.3593 15
-8 -11 2 29.7559 19.0955 8
8 11 -2 94.3292 34.0828 61
8 11 -1 26.7878 26.4955 15
-8 -11 1 24.5269 18.893 8
-8 -11 1 -7.5412 17.6574 65
8 11 -1 59.5075 27.7822 64
8 11 -1 31.945 33.6818 61
-8 -11 0 487.768 48.9515 8
-8 -11 0 404.825 49.3068 65
8 11 0 435.738 56.9484 64
8 11 0 355.227 57.301 61
-8 -11 -1 2674.47 107.005 8
8 11 1 3006.27 144.473 7
-8 -11 -1 2855.74 126.933 65
8 11 1 3027.78 148.3 61
-8 -11 -1 2891.25 123.246 18
8 11 2 14030.5 308.231 7
-8 -11 -2 13663.9 285.969 65
8 11 2 13879.2 318.36 61
-8 -11 -2 13027.1 260.92 18
8 11 3 1001.57 85.294 7
-8 -11 -3 1026.78 85.3615 65
-8 -11 -3 962.126 74.5339 18
-8 -11 -4 3.13366 30.2694 65
8 11 4 -24.5492 44.5726 60
8 11 4 -14.555 29.7268 7
-8 -11 -4 30.8812 24.1104 18
8 11 4 57.2104 46.9427 44
8 11 5 2294.93 116.709 7
-8 -11 -5 2422.26 125.162 65
8 11 5 2072.82 131.222 60
-8 -11 -5 2204.26 104.941 18
8 11 5 2298.87 141.083 44
-8 -11 -6 9049.7 226.928 65
-8 -11 -6 9245.33 241.012 12
8 11 6 8831.1 263.858 60
8 11 6 8474.57 256.652 58
-8 -11 -6 8662.65 195.342 18
8 11 6 9158.8 271.306 44
-8 -11 -7 3439.56 144.461 12
8 11 7 3128.48 158.868 60
8 11 7 3292.42 162.708 44
-8 -11 -8 1065.63 81.2925 12
8 11 8 913.2 91.3862 60
8 11 8 1071.48 93.6633 44
-8 -11 -9 2072.73 102.999 12
8 11 9 1774.75 114.099 60
8 11 9 2032.06 116.729 44
-8 -11 -10 1348.69 77.2332 12
8 11 10 1371.94 93.7676 60
8 11 10 1353.31 89.5554 44
-8 -11 -11 941.843 56.4423 12
8 11 11 929.591 69.8579 60
8 11 11 915.036 64.5014 44
8 12 -1 24.5219 21.2227 61
-8 -12 1 39.726 16.0014 18
-8 -12 0 699.091 43.2188 8
8 12 0 617.323 52.1014 15
-8 -12 0 698.532 48.8179 65
8 12 0 840.77 65.4776 61
-8 -12 0 708.6 48.5069 18
8 12 1 128.298 34.3152 7
-8 -12 -1 107.195 27.8044 65
8 12 1 114.422 30.2943 64
8 12 1 130.171 37.0815 61
-8 -12 -1 108.461 25.1768 18
-8 -12 -2 79.2685 28.4778 65
8 12 2 165.866 42.4822 61
8 12 2 70.2351 32.7186 7
-8 -12 -2 126.428 28.7172 18
-8 -12 -3 79.6768 29.8277 65
8 12 3 108.587 40.4172 61
8 12 3 78.0688 31.1527 7
-8 -12 -3 78.5443 22.719 18
-8 -12 -4 54.2489 28.9531 65
8 12 4 39.535 26.1067 7
-8 -12 -4 13.2818 14.2007 18
8 12 5 4555.91 140.041 7
-8 -12 -5 4334.09 142.039 65
-8 -12 -6 249.45 42.7016 12
8 12 6 270.644 46.9334 60
8 12 6 238.23 45.4779 44
-8 -12 -7 325.33 43.8218 12
8 12 7 353.355 50.9882 60
8 12 7 313.309 50.7992 44
-8 -12 -8 10.5554 21.7858 12
8 12 8 1.91933 28.3116 60
8 12 8 -1.54603 28.9298 58
8 12 8 34.5021 30.777 44
-8 -12 -9 2191.69 86.206 12
8 12 9 1908.71 87.6565 60
8 12 9 1802.8 86.7139 58
8 12 9 2198.22 98.9548 44
8 12 10 2.74664 19.9586 44
8 13 2 26.0669 21.5263 61
-8 -13 -3 50.4524 19.9594 12
8 13 3 76.5202 25.3812 61
8 13 3 51.2319 20.3783 7
8 13 4 666.631 45.7411 7
-8 -13 -4 619.468 47.2264 12
8 13 4 658.662 53.7877 61
-8 -13 -5 4222.4 117.874 12
8 13 5 4420.45 127.166 61
-8 -13 -6 2342.63 85.4406 12
-8 -13 -7 65.9152 19.5478 12
-9 9 -2 15.1123 13.2852 14
-9 9 -3 7.07377 14.8424 14
9 -9 3 39.8858 18.3415 53
-9 9 -4 299.676 33.5518 14
9 -9 4 239.413 37.7029 53
-9 9 -5 5.99709 13.9727 14
-9 9 -5 21.389 12.591 11
9 -9 5 -8.36849 18.9961 57
9 -9 5 11.837 19.3691 53
-9 9 -6 646.261 43.3824 14
-9 9 -6 588.809 40.411 11
9 -9 6 580.826 47.8593 57
9 -9 6 625.076 53.9146 53
9 -9 7 700.202 50.5541 57
9 -8 -1 1770.82 84.9821 51
9 -8 0 1005.52 71.7757 51
-9 8 0 1032.41 56.7411 8
-9 8 -1 176.568 29.7331 8
9 -8 1 190.419 32.9189 53
9 -8 1 182.057 39.0836 51
9 -8 2 604.572 59.9434 53
9 -8 2 695.009 66.2528 51
-9 8 -2 685.432 54.9052 8
-9 8 -3 963.144 56.8282 11
9 -8 3 885.1 64.1855 57
9 -8 3 928.543 78.1534 53
9 -8 3 956.284 76.4758 51
-9 8 -3 1032.36 66.7681 8
-9 8 -4 23.2277 19.4261 11
9 -8 4 -10.2154 20.398 57
9 -8 4 22.9979 26.3605 53
9 -8 4 14.5989 21.9947 51
-9 8 -5 1409.83 80.5445 14
-9 8 -5 1249.75 73.0305 11
9 -8 5 1226 83.366 57
9 -8 5 1240.14 93.8468 53
-9 8 -6 1288.92 74.7206 14
-9 8 -6 1276.74 74.1633 11
9 -8 6 1192.83 83.519 57
9 -8 6 1133.23 70.5806 55
9 -8 6 1273.47 94.7375 53
-9 8 -7 29.1296 18.8889 14
-9 8 -7 15.4941 18.4985 11
9 -8 7 7.37428 23.855 57
9 -8 7 1.62195 18.2981 55
9 -8 7 21.3521 28.8003 53
-9 8 -8 689.816 45.4155 14
-9 8 -8 713.291 53.527 11
9 -8 8 680.236 61.0172 57
9 -8 8 637.507 55.7 55
9 -8 8 643.722 62.9224 53
-9 8 -9 52.6422 19.4369 11
9 -8 9 78.1427 24.9519 57
9 -8 9 75.4461 25.904 55
9 -8 9 60.5082 22.9042 53
9 -7 -2 381.543 47.581 51
-9 7 2 412.894 36.2886 8
9 -7 -1 624.359 66.3663 51
-9 7 1 624.74 50.2963 8
9 -7 0 1084.81 93.8753 51
-9 7 0 1187.54 74.178 8
-9 7 -1 204.982 39.1818 8
9 -7 1 185.068 38.9595 53
9 -7 1 155.102 43.3876 51
9 -7 2 2347.06 132.931 53
9 -7 2 2454.97 143.238 51
-9 7 -2 2618.38 117.154 8
-9 7 -3 821.215 64.0308 11
9 -7 3 788.268 71.1322 57
9 -7 3 649.735 77.3832 53
9 -7 3 873.433 89.4561 51
-9 7 -3 786.032 67.5085 8
-9 7 -4 2126.49 104.509 11
9 -7 4 2246.37 124.408 57
9 -7 4 2149.12 136.479 53
9 -7 4 2313.64 138.556 51
-9 7 -4 2169.59 107.635 8
-9 7 -5 33.2336 26.1256 8
-9 7 -5 58.7832 29.7365 11
9 -7 5 18.9834 27.5319 57
9 -7 5 26.2382 39.6675 53
9 -7 5 13.7037 34.4494 51
-9 7 -6 785.38 69.2006 11
9 -7 6 739.81 76.8218 57
9 -7 6 666.873 81.4479 53
-9 7 -7 283.303 42.1012 14
-9 7 -7 313.249 48.333 11
9 -7 7 313.447 61.7343 53
-9 7 -8 420.636 44.9793 14
-9 7 -8 339.609 47.1904 11
9 -7 8 444.635 66.8245 53
-9 7 -9 43.5638 26.0526 11
9 -7 9 57.3181 33.1034 57
9 -7 9 1.59966 34.6261 53
-9 7 -10 9.31267 19.4402 11
9 -7 10 33.1846 24.1485 57
9 -7 10 -7.24387 22.7743 53
9 -7 11 83.2705 25.9082 55
-9 6 3 1292.63 64.2057 7
9 -6 -3 1313.04 86.7335 51
-9 6 3 1409.3 63.9531 8
-9 6 2 2687.49 98.1597 7
9 -6 -2 2555.88 108.339 10
9 -6 -2 2608.04 137.602 51
-9 6 2 2685.91 102.788 8
-9 6 1 6464.64 157.166 7
9 -6 -1 6145.58 225.365 51
-9 6 1 6568.56 175.58 8
9 -6 0 369.152 67.2504 51
-9 6 0 420.764 54.7488 8
9 -6 1 5821.41 239.224 51
-9 6 -1 6171.75 188.905 8
-9 6 -2 65.8794 33.8705 8
-9 6 -2 21.5874 20.7658 11
9 -6 2 30.5696 32.9907 53
9 -6 2 -23.2996 40.4722 51
-9 6 -3 96.9055 33.7521 8
-9 6 -3 123.626 35.1008 11
9 -6 3 140.091 40.8917 57
9 -6 3 153.881 48.2668 53
9 -6 3 141.05 50.9117 51
-9 6 -4 168.632 38.5737 8
-9 6 -4 167.041 38.6183 11
9 -6 4 158.04 54.7001 53
9 -6 4 110.873 45.5443 51
-9 6 -5 1130.55 88.0457 11
9 -6 5 1128.96 114.194 53
9 -6 5 1136.01 112.165 51
-9 6 -5 1193.41 84.914 8
-9 6 -6 5206 183.197 11
9 -6 6 5268.76 236.231 53
9 -6 6 5104.61 222.391 51
-9 6 -6 4998.98 163.683 8
-9 6 -7 183.586 43.1922 11
9 -6 7 236.162 64.7627 53
9 -6 7 239.274 54.9937 51
-9 6 -8 891.119 68.6337 14
-9 6 -8 828.346 76.7492 11
9 -6 8 911.069 102.927 53
-9 6 -9 285.956 46.6237 11
9 -6 9 258.419 59.9855 53
-9 6 -10 567.733 55.2755 11
9 -6 10 620.309 77.7166 53
-9 6 -11 40.5796 22.7732 11
9 -6 11 3.13746 26.2158 53
-9 5 4 93.0494 18.4772 8
9 -5 -4 66.3549 25.4459 10
9 -5 -3 382.73 50.9703 10
9 -5 -3 453.25 64.3561 51
-9 5 3 470.263 46.411 8
9 -5 -2 1076.92 86.1693 10
9 -5 -2 982.416 99.6445 51
-9 5 2 1146.6 78.3212 8
9 -5 -1 3211.19 149.694 10
9 -5 -1 2905.53 172.158 51
-9 5 1 3297.19 138.053 8
9 -5 0 1252.25 121.446 51
-9 5 0 1234.19 90.4173 8
-9 5 -1 0.64282 31.4001 8
9 -5 1 -8.08528 49.6264 51
9 -5 2 4367.49 424.566 38
-9 5 -2 5106.92 174.11 11
9 -5 2 4755.2 217.243 53
9 -5 2 4840.45 242.89 51
-9 5 -2 5322.84 188.786 8
9 -5 3 2896.11 331.827 38
-9 5 -3 2473.67 128.139 11
9 -5 3 2413.03 161.945 53
9 -5 3 2450.09 178.914 51
-9 5 -3 2408.35 130.808 8
-9 5 -4 5004.02 183.558 11
9 -5 4 4772.75 230.247 53
9 -5 4 4689.65 243.339 51
-9 5 -4 5391.63 188.885 8
-9 5 -5 17114.8 344.969 11
9 -5 5 16799.3 438.762 53
9 -5 5 16902.3 456.727 51
-9 5 -5 16914.5 323.928 8
-9 5 -6 1221.59 95.5893 11
9 -5 6 1171.95 125.044 51
-9 5 -6 1421.7 94.1204 8
-9 5 -7 14.5797 27.8166 11
9 -5 7 123.403 99.9192 42
-9 5 -8 1176.42 93.596 11
9 -5 8 1018.22 109.153 51
9 -5 8 1133.97 249.24 42
-9 5 -9 503.904 62.0446 11
-9 5 -9 517.055 53.6206 20
-9 5 -10 202.123 41.557 11
-9 5 -10 176.232 36.3521 20
-9 5 -11 648.647 57.1788 11
-9 5 -11 686.119 58.572 20
-9 5 -12 1436.55 75.1865 20
9 -5 12 1515.3 101.32 53
-9 5 -13 165.004 25.2618 20
9 -4 -5 146.249 32.5781 10
9 -4 -4 3326.85 139.273 10
9 -4 -4 3295.78 147.362 51
-9 4 4 3618.08 113.958 8
-9 4 3 29.5678 23.0304 8
9 -4 -3 -13.9052 32.9741 10
9 -4 -3 -21.2101 34.0921 51
9 -4 -2 5678.6 203.874 10
9 -4 -2 6199.96 253.143 51
-9 4 2 6235.74 184.578 8
9 -4 -1 2936.55 159.523 58
9 -4 -1 3087.37 153.934 10
9 -4 -1 3168.81 193.372 51
-9 4 1 3066.65 137.722 8
9 -4 0 586.735 172.852 38
-9 4 0 326.075 51.9114 8
-9 4 0 403.304 115.973 33
9 -4 0 430.891 65.5678 58
9 -4 0 220.085 64.6975 51
-9 4 -1 7000.66 441.807 33
9 -4 1 6844.88 234.509 58
-9 4 -1 7150.54 203.429 11
9 -4 1 6660.57 294.589 51
-9 4 -1 6937.1 214.586 8
-9 4 -2 6986.27 445.476 33
9 -4 2 6509 261.823 53
9 -4 2 7057.97 307.4 51
-9 4 -2 6912.5 216.255 8
-9 4 -3 758.814 151.367 33
9 -4 3 567.961 89.1545 53
9 -4 3 583.527 97.6105 51
9 -4 3 616.68 92.4511 46
-9 4 -3 766.807 75.4255 8
9 -4 4 2844.59 185.96 53
9 -4 4 2886.91 203.905 51
9 -4 4 2814.16 181.674 46
-9 4 -4 2914.16 141.96 8
-9 4 -4 2625.07 139.924 16
9 -4 5 1309.74 142.417 51
9 -4 5 1415.67 128.841 46
-9 4 -5 1351.72 96.8073 8
-9 4 -5 1278.16 98.9335 16
9 -4 5 1372.96 265.209 42
-9 4 -6 1154.49 96.0303 11
9 -4 6 1267.52 141.754 51
9 -4 6 1084.25 112.492 46
-9 4 -6 1163.36 86.709 8
9 -4 6 1063.76 249.236 42
-9 4 -7 19388.8 377.543 11
9 -4 7 19085.3 502.522 51
9 -4 7 18377.5 968.076 42
-9 4 -8 1889.38 120.159 11
-9 4 -8 1760.21 103.752 20
9 -4 8 1750.49 155.471 51
9 -4 8 1671.04 313.994 42
-9 4 -9 588.048 68.6497 11
-9 4 -9 581.591 63.2686 20
9 -4 9 551 89.8972 51
9 -4 9 444.446 162.666 42
-9 4 -10 292.003 48.8189 11
-9 4 -10 362.759 53.4626 20
-9 4 -11 1311.26 83.5734 11
-9 4 -11 1597.52 98.2134 20
-9 4 -12 1198.65 80.2611 20
-9 4 -13 1566.81 80.8945 20
-9 4 -14 2818.61 89.0458 20
9 -3 -6 1331.66 73.2096 10
9 -3 -5 3500.79 138.199 10
-9 3 5 3493.43 98.9571 8
9 -3 -4 897.541 81.222 10
9 -3 -4 924.768 87.701 51
-9 3 4 951.317 65.9321 8
9 -3 -3 2021.52 123.403 10
9 -3 -3 1910.25 140.306 51
-9 3 3 2078.25 106.076 8
9 -3 -2 3476.15 179.681 58
9 -3 -2 3290.81 159.233 10
9 -3 -2 3252.31 195.79 51
-9 3 2 3445.94 144.125 8
9 -3 -1 202.007 96.3294 38
-9 3 1 122.67 38.492 8
-9 3 1 116.375 75.5472 33
9 -3 -1 23.8305 35.0096 58
9 -3 -1 106.99 42.1137 10
9 -3 -1 98.7398 44.1564 51
9 -3 0 1812.56 294.371 38
-9 3 0 1597.02 212.542 33
9 -3 0 1465.75 119.535 58
9 -3 0 1573.97 113.171 10
9 -3 0 1704.24 155.78 51
-9 3 0 1469.05 102.069 8
-9 3 -1 2337.77 261.16 33
9 -3 1 2334.88 147.092 58
9 -3 1 2353.33 184.025 51
9 -3 1 2379.52 174.055 46
-9 3 -1 2519.12 130.948 8
-9 3 -1 2563.45 134.185 16
-9 3 -2 69.9279 32.7179 16
-9 3 -2 46.2925 32.4989 8
-9 3 -2 -71.3358 70.5433 33
9 -3 2 76.6649 36.5987 58
9 -3 2 -142.136 65.9784 51
9 -3 2 -17.5874 57.3348 46
-9 3 -3 41.238 31.1762 16
-9 3 -3 67.255 32.4942 8
-9 3 -3 79.9978 70.9432 33
9 -3 3 61.8646 43.1495 53
9 -3 3 -5.5882 61.6074 51
9 -3 3 37.1053 50.1274 46
-9 3 -4 4423.23 351.014 33
9 -3 4 4586.48 263.556 51
9 -3 4 4506.85 233.702 46
-9 3 -4 4990.2 181.768 8
-9 3 -4 4790.35 186.958 16
9 -3 4 4077.25 446.143 42
9 -3 5 6514.97 313.252 51
9 -3 5 6452.73 275.292 46
-9 3 -5 6902.76 212.269 8
-9 3 -5 6651.15 217.937 16
9 -3 5 6169.47 555.286 42
-9 3 -6 6883.98 205.095 20
9 -3 6 6099.27 304.562 51
9 -3 6 6417.64 268.721 46
-9 3 -6 6559.31 216.554 16
9 -3 6 5848.65 552.054 42
-9 3 -7 13401.3 293.935 20
9 -3 7 12442.5 427.729 51
9 -3 7 13723.6 383.354 46
-9 3 -7 13650.9 305.86 16
9 -3 7 12335.9 807.219 42
-9 3 -8 2136.47 128.272 11
-9 3 -8 2044.43 120.911 20
9 -3 8 1994.88 176.27 51
-9 3 -8 2077.78 118.489 16
9 -3 8 1589.53 312.002 42
-9 3 -9 4228.26 175.481 11
-9 3 -9 4007.02 168.518 20
-9 3 -10 1236.61 92.8929 11
-9 3 -10 1268.48 95.1361 20
9 -3 10 1100.34 261.733 42
-9 3 -11 2754.46 122.493 11
-9 3 -11 2757.32 135.657 20
9 -3 11 2637.9 365.982 42
-9 3 -12 23.6218 31.4321 20
-9 3 -13 363.626 48.291 20
-9 3 -14 49.961 23.138 20
9 -2 -6 41.3869 25.5465 10
-9 2 5 202.8 29.7063 8
9 -2 -5 210.957 46.9186 10
9 -2 -4 694.047 75.7449 10
-9 2 4 595.657 64.6408 48
-9 2 4 638.459 58.1798 8
-9 2 3 203.21 43.4687 8
9 -2 -3 198.35 56.994 58
9 -2 -3 203.822 51.2619 10
9 -2 -3 243.546 55.9059 51
-9 2 3 246.466 48.4571 48
9 -2 -2 149.298 125.913 38
-9 2 2 46.8983 31.8577 8
9 -2 -2 -27.3378 45.3068 58
9 -2 -2 59.154 37.1252 10
9 -2 -2 -41.14 40.4501 51
-9 2 2 47.731 32.1536 48
9 -2 -1 4625.72 485.813 38
-9 2 1 4358.45 338.448 33
9 -2 -1 4601.5 216.7 58
9 -2 -1 4791.26 194.875 10
9 -2 -1 4608.12 252.254 51
-9 2 1 4832.62 177.698 8
-9 2 0 3085.71 296.801 33
9 -2 0 3207.38 179.39 58
9 -2 0 3447.33 162.691 10
9 -2 0 3405.08 223.91 51
9 -2 0 3063.34 201.848 46
-9 2 0 3073.97 143.739 8
-9 2 0 3335.9 149.266 16
-9 2 -1 604.761 137.256 33
9 -2 1 739.19 89.5598 58
9 -2 1 567.645 98.1952 51
9 -2 1 762.534 107.499 46
-9 2 -1 804.659 76.8376 8
-9 2 -1 761.288 75.6342 16
-9 2 -2 726.572 152.591 33
9 -2 2 649.303 84.1738 58
9 -2 2 613.411 108.089 51
9 -2 2 675.322 98.2424 46
-9 2 -2 667.498 69.2368 8
-9 2 -2 773.093 78.0778 16
-9 2 -3 337.93 57.0201 16
-9 2 -3 306.797 50.3504 8
-9 2 -3 264.19 98.8473 33
9 -2 3 325.732 59.9134 58
9 -2 3 304.813 86.3067 51
9 -2 3 296.771 78.4724 46
-9 2 -4 2217.13 246.002 33
9 -2 4 2079.81 157.116 59
9 -2 4 2155.79 188.089 51
9 -2 4 2171.31 170.115 46
-9 2 -4 2326.5 124.018 8
-9 2 -4 2184.83 125.89 16
9 -2 4 2155.11 331.156 42
-9 2 -5 18593.1 690.563 33
9 -2 5 19896.4 462.121 59
9 -2 5 17186.5 513.139 51
9 -2 5 19047.9 477.058 46
-9 2 -5 20154.3 350.734 8
-9 2 -5 19555.6 368.004 16
9 -2 5 17286.4 915.04 42
9 -2 6 137.134 150.481 42
-9 2 -6 214.567 46.7651 16
-9 2 -6 106.717 34.4162 20
9 -2 6 190.761 68.5821 46
9 -2 7 7115.43 520.983 31
-9 2 -7 7716.73 232.067 20
9 -2 7 7413.69 293.98 46
-9 2 -7 7678.24 229.402 16
9 -2 7 7024.2 608.156 42
9 -2 8 7176.12 546.921 31
-9 2 -8 7313.27 231.867 20
9 -2 8 7128.67 282.183 46
-9 2 -8 7215.24 219.043 16
9 -2 8 6993.25 625.799 42
-9 2 -9 3948.53 169.669 11
-9 2 -9 3645.43 166.796 20
9 -2 9 3916.21 475.979 42
-9 2 -10 29485.4 440.46 11
-9 2 -10 29475.5 465.843 20
9 -2 10 29378.4 1250.06 42
9 -2 11 724.175 222.65 42
-9 2 -11 523.754 68.7242 20
-9 2 -12 84.4419 38.9681 20
-9 2 -13 94.262 34.4167 20
-9 2 -14 245.227 37.8447 20
-9 2 -15 36.5651 15.9676 20
9 -1 -6 3055.04 126.461 10
9 -1 -5 1106.66 87.4088 10
-9 1 5 1128.12 75.8016 48
-9 1 5 1260.45 70.7837 8
9 -1 -4 4151.8 202.458 58
9 -1 -4 4179.86 172.732 10
-9 1 4 4124.75 154.327 48
-9 1 4 4243.79 145.978 8
9 -1 -3 1620.34 132.358 58
9 -1 -3 1561.5 112.008 10
-9 1 3 1601 104.058 48
-9 1 3 1602.47 100.23 8
9 -1 -2 13928.4 863.48 38
9 -1 -2 14989.9 398.783 58
9 -1 -2 14474.7 424.483 51
-9 1 2 15345.1 319.779 48
-9 1 2 15587.8 313.074 8
9 -1 -1 3154.42 186.215 58
9 -1 -1 3368.33 217.729 51
-9 1 1 3322.25 150.932 48
-9 1 1 3075.04 143.519 8
9 -1 0 2582.75 167.781 58
9 -1 0 3024.62 217.105 51
-9 1 0 2822.61 139.322 48
9 -1 0 3039.96 201.14 46
-9 1 0 2693.91 135.355 8
-9 1 0 2768.09 134.317 16
-9 1 -1 7612.05 449.747 33
9 -1 1 7139.19 271.591 58
9 -1 1 7837.94 351.268 51
9 -1 1 7157.68 305.315 46
-9 1 -1 7091.54 214.434 8
-9 1 -1 7244.26 220.327 16
-9 1 -2 25.1232 30.6837 16
-9 1 -2 51.308 29.3845 8
-9 1 -2 6.28495 48.086 33
9 -1 2 17.3755 32.3714 58
9 -1 2 40.8848 67.828 51
9 -1 2 31.5689 51.964 46
-9 1 -3 674.384 136.013 33
9 -1 3 450.544 85.6879 59
9 -1 3 593.468 81.8459 58
9 -1 3 574.927 115.827 51
9 -1 3 646.682 100.108 46
-9 1 -3 634.03 66.1157 8
-9 1 -3 638.049 70.7904 16
-9 1 -4 187.339 43.6074 16
-9 1 -4 193.302 37.0992 8
-9 1 -4 77.7738 58.6774 33
9 -1 4 225.554 61.8962 59
9 -1 4 178.467 51.6255 58
9 -1 4 192.884 65.3858 46
9 -1 5 1456.53 263.699 42
-9 1 -5 1401.66 193.008 33
9 -1 5 1721.08 148.847 59
9 -1 5 1570.73 147.793 46
-9 1 -5 1670.01 109.447 16
9 -1 6 90.9314 136.674 42
-9 1 -6 66.0446 30.402 16
9 -1 6 248.606 75.786 59
9 -1 6 154.543 66.9633 46
9 -1 7 32666.5 1186.47 28
9 -1 7 33365.6 609.487 59
-9 1 -7 33650.7 491.207 20
-9 1 -7 33884.4 474.174 16
9 -1 7 32915.3 1259.95 42
9 -1 8 10701.2 704.307 28
-9 1 -8 10057.8 276.208 20
-9 1 -8 9977.96 256.059 16
9 -1 8 9777.15 706.785 42
-9 1 -9 46068.6 596.567 20
9 -1 9 48832.3 1597.53 42
-9 1 -10 7477.25 220.942 11
-9 1 -10 7596.94 243.883 20
9 -1 10 7592.69 645.07 42
9 -1 11 1816.95 341.345 42
-9 1 -11 1603.44 106.567 12
-9 1 -11 1719.6 116.656 20
9 -1 12 1976.33 331.745 42
-9 1 -12 2158.7 120.883 12
-9 1 -12 1834.38 115.928 20
-9 1 -13 587.191 64.8528 20
-9 1 -14 998.529 71.6634 20
-9 1 -15 731.544 50.5261 20
9 0 -7 -1.16787 19.5903 10
9 0 -6 502.484 56.7345 10
-9 0 6 518.913 46.6027 48
-9 0 6 606.847 40.1357 8
-9 0 5 -0.82295 20.2403 8
9 0 -5 61.0766 35.4599 10
-9 0 5 -10.0025 23.8101 48
9 0 -4 1261.02 118.274 58
-9 0 4 1213.21 85.9254 48
-9 0 4 1227.36 82.8149 8
9 0 -3 3861.77 458.794 38
9 0 -3 3735.16 205.148 58
-9 0 3 3902.85 156.29 48
-9 0 3 4004.54 156.513 8
9 0 -2 9197.2 722.545 38
9 0 -2 9074.64 322.178 58
-9 0 2 9080.88 241.434 48
-9 0 2 9354.04 246.837 8
-9 0 1 36.5015 29.4528 8
9 0 -1 16.7247 44.7745 58
-9 0 1 12.2327 23.7761 48
9 0 -1 -5.07122 42.6229 46
9 0 0 12212.2 367.983 58
9 0 0 12544.6 439.675 51
-9 0 0 12157.5 278.765 48
9 0 0 12460.6 409.029 46
-9 0 0 12531.1 280.854 16
-9 0 0 12323.7 286.822 8
-9 0 -1 235.098 45.4861 16
-9 0 -1 240.485 44.4144 8
9 0 1 301.339 63.5628 58
9 0 1 290.294 83.3705 51
-9 0 -1 158.57 35.8846 48
9 0 1 120.815 65.8159 46
-9 0 -2 935.33 153.818 33
9 0 2 859.157 114.87 59
9 0 2 798.77 95.4402 58
9 0 2 837.158 130.994 51
9 0 2 878.481 116.695 46
-9 0 -2 901.043 78.9263 8
-9 0 -2 872.478 80.4986 16
-9 0 -3 530.829 117.522 33
9 0 3 489.486 95.0283 59
9 0 3 462.315 75.4212 58
9 0 3 631.352 117.587 51
9 0 3 495.459 87.958 46
-9 0 -3 488.544 58.1215 8
-9 0 -3 543.048 64.2313 16
-9 0 -4 1185.12 177.291 33
9 0 4 824.766 158.802 1
9 0 4 1254.62 136.903 59
9 0 4 1235.28 113.779 58
9 0 4 1444.35 140.105 46
-9 0 -4 1392.12 91.3587 8
-9 0 -4 1215.81 91.5863 16
9 0 5 64.2778 109.965 42
-9 0 -5 34.4254 26.161 16
-9 0 -5 127.796 68.9429 33
9 0 5 37.0309 58.5796 59
9 0 5 142.919 55.798 58
9 0 6 -24.238 102.923 42
-9 0 -6 58.6929 29.5693 16
9 0 6 80.5486 89.8944 28
9 0 6 253.886 80.6306 59
9 0 7 6227.55 504.906 28
9 0 7 6250.74 279.858 59
9 0 7 6793.85 565.921 42
-9 0 -7 7091.77 216.518 16
9 0 8 1199.43 273.417 39
9 0 8 1289.2 238.52 28
-9 0 -8 1207.93 91.2471 16
9 0 9 20910.1 1042.04 39
9 0 9 21088 984.544 28
-9 0 -9 21933 412.574 20
9 0 10 1991.12 314.705 39
-9 0 -10 2289.4 128.502 12
-9 0 -10 2279.94 136.127 20
9 0 11 -79.9148 96.125 42
9 0 11 -36.6525 56.0979 39
-9 0 -11 74.6764 35.1905 12
-9 0 -11 102.912 40.9895 20
-9 0 -12 142.336 44.1683 12
-9 0 -12 108.308 39.664 20
-9 0 -13 2625.09 132.163 12
-9 0 -13 2607.66 128.55 20
-9 0 -14 871.752 68.9347 20
-9 0 -15 153.272 26.6651 20
9 1 -7 64.4952 25.9043 10
9 1 -6 1091.91 82.0438 10
-9 -1 6 1031.7 64.2329 48
-9 -1 6 1161.37 58.606 8
9 1 -5 1051.57 106.16 58
-9 -1 5 973.181 71.2362 48
-9 -1 5 1049.22 70.1103 8
-9 -1 4 48.4145 28.8777 8
9 1 -4 50.5041 39.8736 58
-9 -1 4 39.0886 29.3954 48
-9 -1 3 84.0913 37.0676 8
9 1 -3 7.69347 43.4256 58
-9 -1 3 59.5195 31.2667 48
9 1 -2 2093.69 352.322 38
9 1 -2 2539.29 179.183 58
-9 -1 2 2392.61 123.833 48
-9 -1 2 2546.79 132.13 8
-9 -1 1 776.039 77.0085 8
9 1 -1 890.828 111.138 58
-9 -1 1 803.697 72.6561 48
9 1 -1 778.729 105.538 46
-9 -1 0 6340.35 206.76 8
9 1 0 6211.83 220.096 64
9 1 0 6298.08 273.411 58
9 1 0 6335.24 296.351 46
-9 -1 0 6316.7 198.806 16
-9 -1 -1 94.4 34.1246 16
-9 -1 -1 13.3081 29.6069 8
9 1 1 30.874 27.4825 64
9 1 1 111.477 48.7383 58
9 1 1 -25.484 47.3314 51
9 1 1 69.5002 55.9967 46
-9 -1 -2 12516.3 286.511 16
9 1 2 13678.7 445.652 59
9 1 2 12678.9 373.207 58
9 1 2 13005.2 469.965 51
9 1 2 13083.7 416.657 46
-9 -1 -2 12884.7 284.961 8
-9 -1 -3 287.99 50.9821 16
-9 -1 -3 329.122 47.7821 8
-9 -1 -3 337.504 90.0789 33
9 1 3 199.764 77.0268 59
9 1 3 365.023 70.5446 58
9 1 3 415.664 81.6515 46
-9 -1 -4 560.631 64.4481 16
-9 -1 -4 528.113 114.972 33
9 1 4 753.177 156.573 1
9 1 4 600.005 107.998 59
9 1 4 580.607 84.5147 58
-9 -1 -4 544.116 58.7282 8
9 1 5 155.244 125.198 42
-9 -1 -5 180.351 42.2262 16
9 1 5 224.836 80.469 59
9 1 5 143.922 53.5389 58
-9 -1 -6 10108.6 255.941 16
9 1 6 9693.77 730.711 39
9 1 6 9694.5 361.464 59
9 1 6 9767.9 310.381 58
-9 -1 -6 10007.5 253.535 18
9 1 7 322.531 169.213 39
9 1 7 578.999 159.527 28
9 1 7 452.297 74.0548 58
-9 -1 -7 572.002 66.2184 16
9 1 8 1489.76 287.012 39
9 1 8 943.682 223.663 28
-9 -1 -8 1604.47 103.464 16
9 1 9 -37.0276 84.2948 39
-9 -1 -9 38.8432 21.9573 12
-9 -1 -9 33.3886 33.0846 20
9 1 10 472.452 176.95 39
-9 -1 -10 473.827 66.6251 12
-9 -1 -10 400.966 63.392 20
9 1 11 3040.11 387.772 39
-9 -1 -11 3086.6 154.38 12
-9 -1 -11 3229.97 159.388 20
-9 -1 -12 1568.42 113.682 12
-9 -1 -12 1580.25 108.607 20
-9 -1 -13 691.613 75.9901 12
-9 -1 -13 705.682 69.8775 20
-9 -1 -14 384.12 55.6153 12
-9 -1 -14 345.174 47.1366 20
-9 -1 -15 -30.4002 18.7016 20
9 2 -7 2614.15 103.01 10
-9 -2 6 72.1556 19.2273 8
9 2 -6 94.0237 39.7306 10
-9 -2 6 90.6191 24.5498 48
-9 -2 5 15.0643 21.9325 8
9 2 -5 -30.7794 37.5627 58
-9 -2 5 -3.21325 22.7731 48
9 2 -4 3286.33 190.571 58
-9 -2 4 3357.94 134.715 48
-9 -2 4 3493.04 138.905 8
-9 -2 3 14.5533 33.0109 8
9 2 -3 83.2208 50.657 58
-9 -2 3 39.5181 34.1557 49
-9 -2 3 84.7428 27.858 48
-9 -2 2 268.072 51.2615 8
9 2 -2 236.225 69.0115 58
-9 -2 2 240.656 51.0998 49
-9 -2 2 246.098 42.9612 48
-9 -2 1 4401.83 174.835 8
9 2 -1 4743.7 204.259 64
9 2 -1 4698.4 246.75 58
-9 -2 1 4683.97 181.47 49
-9 -2 0 2788.36 131.808 16
-9 -2 0 2786.14 139.531 8
9 2 0 2872.43 155.752 64
9 2 0 3059.09 199.65 58
9 2 0 3161.97 212.573 46
-9 -2 -1 905.36 80.768 16
-9 -2 -1 893.612 79.332 8
9 2 1 897.586 87.838 64
9 2 1 858.753 139.243 59
9 2 1 981.902 117.353 58
9 2 1 896.807 122.895 46
-9 -2 -2 82.467 32.7967 16
-9 -2 -2 111.732 36.1188 8
9 2 2 48.7891 27.5996 64
9 2 2 129.06 86.515 59
9 2 2 80.914 54.0862 58
9 2 2 219.952 66.9255 46
-9 -2 -3 4590.17 166.69 8
9 2 3 4648.14 273.342 59
9 2 3 4451.18 228.34 58
9 2 4 9289.47 538.684 1
9 2 4 10010.5 292.347 60
9 2 4 10262.5 391.996 59
9 2 4 9698.59 327.84 58
-9 -2 -4 10025.9 249.693 18
9 2 5 173.036 82.358 59
9 2 5 131.851 53.1585 58
-9 -2 -5 217.1 46.4279 18
9 2 6 3183.13 445.04 39
9 2 6 3223.89 187.577 58
-9 -2 -6 3224 150.192 18
-9 -2 -7 143.739 39.9558 16
9 2 7 184.527 159.612 39
9 2 7 122.168 109.83 28
9 2 7 136.31 47.8248 58
-9 -2 -7 148.675 38.5022 18
-9 -2 -8 562.753 64.2407 16
9 2 8 880.58 236.036 39
9 2 8 563.995 157.325 28
9 2 8 535.464 82.0242 58
9 2 9 3054.34 426.946 39
-9 -2 -9 2630.2 141.196 12
9 2 9 2748.01 366.413 28
9 2 10 3665.68 450.99 39
-9 -2 -10 3150.96 156.505 12
-9 -2 -10 3143.74 157.485 20
9 2 11 174.423 108.718 39
-9 -2 -11 223.575 53.7022 12
-9 -2 -11 225.299 52.3054 20
9 2 12 5870.39 547.404 39
-9 -2 -12 5687.95 208.676 12
-9 -2 -12 5938.71 202.692 20
-9 -2 -13 931.074 86.4639 12
-9 -2 -13 885.466 76.3855 20
-9 -2 -14 4617.82 165.09 12
-9 -2 -14 4164.23 140.35 20
-9 -2 -15 985.213 70.6028 12
9 3 -6 1004.93 67.0872 9
-9 -3 6 980.869 57.1499 48
-9 -3 6 1124.93 58.5679 8
9 3 -5 1455.23 111.239 58
9 3 -5 1269.24 85.2537 9
-9 -3 5 1301.97 76.2219 48
-9 -3 5 1284.71 76.9324 8
-9 -3 4 299.579 47.7947 8
9 3 -4 219.403 61.2355 58
-9 -3 4 286.289 51.0678 49
9 3 -4 296.138 49.9248 9
-9 -3 4 281.955 42.8549 48
-9 -3 3 1360.5 95.4187 8
9 3 -3 1408.13 135.148 58
9 3 -3 1413.55 98.7333 9
-9 -3 3 1365.92 97.391 49
-9 -3 3 1333.9 86.5502 48
-9 -3 2 1278.29 97.815 8
9 3 -2 1261.09 116.044 64
9 3 -2 1250.4 131.571 58
-9 -3 2 1382.29 101.145 49
-9 -3 1 150.795 43.4868 8
9 3 -1 68.51 43.0441 64
9 3 -1 25.9859 48.9496 58
-9 -3 1 77.6525 36.0473 49
-9 -3 0 20572.3 352.711 16
-9 -3 0 20806.7 378.202 8
9 3 0 20416.9 426.778 64
9 3 0 20937.2 528.135 58
-9 -3 0 21313.4 378.796 49
-9 -3 -1 7492.34 224.149 8
9 3 1 7216.2 248.249 64
9 3 1 7146.92 353.478 59
9 3 1 7236.28 310.561 58
9 3 1 7359.29 325.347 46
-9 -3 -2 28671.8 424.843 8
9 3 2 27154.9 466.105 64
9 3 2 29779.9 706.384 59
9 3 2 27434.5 590.383 58
-9 -3 -2 28553.9 428.358 18
9 3 2 27817.7 627.06 46
-9 -3 -3 8976.34 232.151 8
-9 -3 -3 8277.68 461.543 24
9 3 3 8880.61 299.401 60
9 3 3 8843.14 386.754 59
9 3 3 8784.4 331.176 58
-9 -3 -3 9111.89 245.482 18
9 3 4 4742.87 390.701 1
9 3 4 5752.3 242.85 60
9 3 4 5423.55 305.404 59
9 3 4 5368.89 258.334 58
-9 -3 -4 5192.91 188.086 18
9 3 5 9190.03 757.125 39
9 3 5 8466.23 504.184 1
9 3 5 9067.53 299.022 60
9 3 5 9063.02 327.651 58
-9 -3 -5 9008.43 251.41 18
9 3 6 399.82 200.532 39
9 3 6 325.874 65.8765 60
9 3 6 262.221 65.7315 58
-9 -3 -6 401.053 59.9486 18
9 3 7 736.023 238.981 39
9 3 7 700.656 89.3992 60
9 3 7 709.84 96.4203 58
-9 -3 -7 744.887 77.4385 18
9 3 8 65.1342 104.451 39
-9 -3 -8 98.7587 39.8449 12
-9 -3 -8 196.547 48.5226 18
9 3 9 2063.63 352.181 39
-9 -3 -9 2052.89 126.88 12
9 3 10 303.451 157.866 39
-9 -3 -10 205.123 47.6457 12
-9 -3 -10 269.71 52.165 20
9 3 11 3788.1 447.063 39
-9 -3 -11 3844.76 176.887 12
-9 -3 -11 3903.63 168.255 20
9 3 12 1768.94 303.556 39
-9 -3 -12 1634.17 116.299 12
-9 -3 -12 1604.96 105.738 20
-9 -3 -13 84.628 41.0033 12
-9 -3 -13 101.337 33.345 20
-9 -3 -14 881.538 76.3762 12
-9 -3 -14 737.191 56.0506 20
-9 -3 -15 369.181 45.5745 12
9 4 -6 1675.68 88.7189 9
-9 -4 6 1646.68 67.924 8
9 4 -5 5728.33 181.687 9
-9 -4 5 5684.7 165.034 49
-9 -4 5 5865.39 156.757 8
-9 -4 4 114.433 35.5757 8
9 4 -4 91.0772 45.786 58
-9 -4 4 103.873 36.9596 49
9 4 -4 53.6108 32.7936 9
-9 -4 3 1944.87 112.901 8
9 4 -3 1906.5 149.764 58
-9 -4 3 1850.67 114.147 56
-9 -4 3 1907.13 113.499 49
-9 -4 2 74.0106 33.1427 8
9 4 -2 102.845 54.006 58
-9 -4 2 88.189 38.3081 56
-9 -4 2 117.427 38.1654 49
9 4 -2 233.471 62.0427 64
-9 -4 1 9072.53 252.575 8
9 4 -1 8985.93 299.853 64
9 4 -1 9150.24 358.111 58
-9 -4 1 9358.8 260.15 56
-9 -4 1 9106.8 249.142 49
-9 -4 0 2239.65 126.904 8
9 4 0 2601.07 164.352 64
9 4 0 2448.93 191.491 58
-9 -4 0 2451.28 134.485 56
-9 -4 0 2316.43 125.225 49
-9 -4 -1 105.416 39.8859 8
9 4 1 107.213 53.5325 64
9 4 1 68.6163 88.4674 59
9 4 1 143.201 72.5842 58
-9 -4 -1 59.7782 30.1661 49
-9 -4 -2 14573 305.936 8
9 4 2 14860 518.531 59
9 4 2 14424.2 445.96 58
-9 -4 -2 14651.9 319.982 18
-9 -4 -3 929.85 77.4327 8
9 4 3 790.821 106.348 60
9 4 3 829.962 143.833 59
9 4 3 863.957 118.246 58
-9 -4 -3 885.23 82.5107 18
9 4 4 2516.22 176.004 60
9 4 4 2562.96 226.922 59
9 4 4 2302.72 178.953 58
-9 -4 -4 2282.51 128.635 18
9 4 5 7064.54 694.445 39
9 4 5 6938.42 285.459 60
9 4 5 6955.31 299.891 58
-9 -4 -5 7030.57 225.494 18
9 4 6 4232.54 533.907 39
9 4 6 4193.54 221.178 60
9 4 6 3970.29 225.223 58
-9 -4 -6 4134.49 176.444 18
9 4 7 2384 411.338 39
-9 -4 -7 2359.61 131.437 12
9 4 7 2116.51 157.745 60
-9 -4 -7 2288.85 133.94 18
9 4 8 259.478 174.368 39
-9 -4 -8 210.164 43.5871 12
9 4 8 259.472 66.779 60
-9 -4 -8 257.518 52.2497 18
9 4 9 1561.84 322.642 39
-9 -4 -9 1810.84 119.401 12
9 4 9 1747.48 137.279 60
9 4 10 4642.9 515.992 39
-9 -4 -10 4549.64 192.342 12
-9 -4 -10 4402.23 178.882 20
9 4 11 7473.61 640.384 39
-9 -4 -11 7774.3 249.403 12
-9 -4 -11 7523.88 226.651 20
-9 -4 -12 6292.09 219.106 12
-9 -4 -12 5995.65 190.375 20
-9 -4 -13 2279.93 126.619 12
-9 -4 -14 -9.3436 31.627 12
-9 -4 -15 3072.75 113.726 12
9 5 -6 2542.24 106.174 9
-9 -5 6 2634.2 80.4413 8
-9 -5 5 18613.9 270.212 8
9 5 -5 19126.5 335.088 9
-9 -5 5 19433.2 292.127 49
-9 -5 4 4774.21 157.954 8
9 5 -4 4951.87 189.037 9
-9 -5 4 4951.4 165.408 49
-9 -5 3 2853.88 133.383 8
9 5 -3 2957.35 176.631 64
9 5 -3 2951.39 147.272 61
9 5 -3 2676.93 160.606 58
-9 -5 3 2829.85 136.735 56
-9 -5 3 2895.35 133.527 49
-9 -5 2 5936.13 199.033 8
9 5 -2 6309.52 261.358 64
9 5 -2 6232.47 216.622 61
9 5 -2 5752.66 259.119 58
-9 -5 2 5867.57 200.632 56
-9 -5 2 6130.87 199.611 49
-9 -5 1 1461.93 104.96 8
9 5 -1 1381.18 129.299 64
9 5 -1 1439.66 106.115 61
9 5 -1 1281.34 137.813 58
-9 -5 1 1473.66 105.916 56
-9 -5 1 1356.81 97.7342 49
-9 -5 0 1681.25 110.863 8
9 5 0 1674.52 140.316 64
9 5 0 1669.57 164.502 58
-9 -5 0 1721.1 113.761 56
-9 -5 0 1569.65 102.455 49
-9 -5 -1 3769.98 161.272 8
9 5 1 3728.57 254.764 59
9 5 1 3521.53 234.683 58
-9 -5 -1 3855.23 163.216 56
-9 -5 -1 3687.16 151.241 49
-9 -5 -2 1277.36 92.7204 8
9 5 2 1274.34 165.481 59
9 5 2 1197.58 143.501 58
-9 -5 -3 1438.52 94.5883 8
9 5 3 1420.51 148.643 60
9 5 3 1469.47 181.825 59
9 5 3 1365.5 150.749 58
-9 -5 -3 1338.67 103.114 18
9 5 4 18578.3 496.353 60
9 5 4 18175.6 582.66 59
9 5 4 18214.1 512.83 58
-9 -5 -4 17835.5 362.621 18
9 5 5 5436.11 631.574 39
9 5 5 5367.17 270.205 60
9 5 5 5450.17 281.967 58
-9 -5 -5 5089.26 196.525 18
9 5 5 5072.28 221.428 44
9 5 6 9758.44 819.328 39
9 5 6 9384.42 352.448 60
-9 -5 -6 9150.59 263.617 18
9 5 6 8645.11 280.008 44
9 5 7 3145.76 478.098 39
-9 -5 -7 3769.28 167.064 12
9 5 7 3740.23 221.993 60
-9 -5 -7 3665.97 169.378 18
9 5 7 3663.88 180.223 44
9 5 8 3988.65 509.945 39
-9 -5 -8 3601.71 167.492 12
9 5 8 3937.47 221.874 60
-9 -5 -8 3908.35 175.195 18
9 5 9 5392.49 574.065 39
-9 -5 -9 5209.63 203.361 12
-9 -5 -10 23.2455 33.392 12
-9 -5 -10 -6.41583 23.0621 20
9 5 11 2643.37 385.136 39
-9 -5 -11 2942.56 153.667 12
-9 -5 -11 2816.35 131.76 20
-9 -5 -12 1074.08 93.5457 12
-9 -5 -13 2841.61 137.6 12
-9 -5 -14 26.2973 26.4976 12
-9 -5 -15 350.185 41.2006 12
-9 -6 5 2025.18 86.3806 8
9 6 -5 2122 112.473 9
-9 -6 5 2057.76 87.9356 49
-9 -6 4 354.06 49.2014 8
-9 -6 4 378.275 52.107 56
-9 -6 4 269.297 43.0221 49
-9 -6 3 437.647 57.126 8
9 6 -3 338.091 69.6177 64
9 6 -3 355.435 60.1668 61
-9 -6 3 293.486 52.7611 56
-9 -6 3 398.184 53.8472 49
-9 -6 2 2974.61 141.456 8
9 6 -2 3395.79 196.364 64
9 6 -2 3215.92 164.178 61
-9 -6 2 3129.35 146.861 56
-9 -6 2 3156.06 137.595 49
-9 -6 1 8411.44 239.065 8
9 6 -1 8817.39 315.836 64
9 6 -1 8634.65 268.214 61
9 6 -1 7774.21 302.608 58
-9 -6 1 8148.79 234.698 56
-9 -6 1 8172.97 219.843 49
-9 -6 0 10008.3 261.016 8
9 6 0 10038.7 340.207 64
9 6 0 10718.5 298.637 61
9 6 0 9443.78 358.295 58
-9 -6 0 10170 262.11 56
-9 -6 0 10029.6 241.881 49
-9 -6 -1 124.863 35.0427 8
9 6 1 109.208 39.7408 61
9 6 1 91.78 67.9858 58
-9 -6 -1 154.815 42.7254 56
-9 -6 -2 1300.64 93.0775 8
9 6 2 1314.42 159.432 59
9 6 2 1281.32 148.872 58
-9 -6 -2 1378.43 94.7122 56
9 6 3 2503.23 198.331 60
9 6 3 2474.3 218.312 59
9 6 3 2419.4 204.148 58
-9 -6 -3 2511.98 141.791 18
9 6 4 5037.34 276.812 60
9 6 4 4630.43 292.183 59
9 6 4 4584.22 273.778 58
-9 -6 -4 4454.19 187.563 18
9 6 4 4619.19 230.166 44
9 6 5 53.5802 79.572 39
9 6 5 17.5759 58.5304 60
9 6 5 -16.7027 66.4815 58
-9 -6 -5 40.1574 37.6829 18
9 6 5 65.9595 54.7141 44
9 6 6 275.13 183.148 39
-9 -6 -6 107.684 31.2887 12
9 6 6 69.4801 59.4502 60
-9 -6 -6 232.184 49.1453 18
9 6 6 89.4892 44.9689 44
9 6 7 1024.34 280.131 39
-9 -6 -7 1024.45 91.3477 12
9 6 7 797.262 116.403 60
-9 -6 -7 892.464 86.9553 18
9 6 7 879.929 96.4931 44
9 6 8 10954.7 828.395 39
-9 -6 -8 11626 300.464 12
9 6 8 11541.9 384.959 60
-9 -6 -8 11837.1 302.316 18
9 6 8 11379 320.188 44
9 6 9 7050.63 666.778 39
-9 -6 -9 6594.04 228.047 12
-9 -6 -9 6505.55 223.425 18
9 6 9 6490.15 233.365 44
9 6 10 612.434 205.583 39
-9 -6 -10 1124.88 98.2747 12
-9 -6 -11 5803.12 208.873 12
-9 -6 -12 153.699 44.5911 12
-9 -6 -13 2343.51 121.055 12
-9 -6 -14 1536.61 88.0018 12
9 6 14 1653.32 94.6458 60
-9 -6 -15 734.547 49.297 12
-9 -7 5 2826.87 91.9894 8
9 7 -5 3020.93 121.486 9
-9 -7 4 555.7 53.4827 8
9 7 -4 550.946 66.0398 61
-9 -7 4 460.062 49.2462 56
-9 -7 4 460.888 44.101 49
-9 -7 3 87.9773 35.2037 8
9 7 -3 58.7284 45.7333 64
9 7 -3 98.0039 50.2185 61
-9 -7 3 53.1328 32.3983 56
-9 -7 3 64.9574 27.0067 49
-9 -7 2 726.352 72.2508 8
9 7 -2 844.506 102.102 64
9 7 -2 976.059 98.353 61
-9 -7 2 859.109 77.1301 56
-9 -7 2 773.474 66.1366 49
-9 -7 1 39.2125 32.28 8
9 7 -1 32.4368 54.7278 64
9 7 -1 -17.9606 42.8595 61
-9 -7 1 -11.8461 26.6876 56
-9 -7 1 43.5418 27.7463 49
-9 -7 0 4654.73 176.49 8
9 7 0 4957.26 243.483 64
9 7 0 4978.45 215.417 61
9 7 0 4755.88 234.091 58
-9 -7 0 4656.56 173.462 56
-9 -7 -1 974.647 84.0024 8
9 7 1 1065.36 103.857 61
9 7 1 974.481 121.44 58
-9 -7 -1 941.022 79.498 56
-9 -7 -2 10611.4 256.368 8
-9 -7 -2 11013.7 282.857 65
9 7 2 11235.3 320.498 61
9 7 2 10463.4 385.674 58
-9 -7 -2 10818.8 249.052 56
9 7 3 192.865 43.0282 7
-9 -7 -3 186.939 47.8158 65
9 7 3 176.246 79.5753 60
9 7 3 299.158 90.9788 59
9 7 3 240.26 82.2337 58
-9 -7 -3 255.532 54.2101 18
9 7 4 17.3989 60.4988 60
9 7 4 -22.4455 67.515 59
9 7 4 13.1208 60.153 58
-9 -7 -4 -19.7667 34.6845 18
9 7 4 18.0322 54.7742 44
-9 -7 -5 349.35 57.0348 12
9 7 5 291.94 86.961 60
9 7 5 300.504 91.2479 58
-9 -7 -5 301.491 54.2485 18
9 7 5 298.229 75.0795 44
-9 -7 -6 10711.8 280.646 12
9 7 6 11014.6 394.029 60
-9 -7 -6 11149.2 291.154 18
9 7 6 11596.4 362.486 44
9 7 7 228.201 180.482 39
-9 -7 -7 60.3666 32.1494 12
9 7 7 211.845 77.938 60
-9 -7 -7 170.329 47.6387 18
9 7 7 116.645 52.5887 44
-9 -7 -8 524.179 69.5941 12
9 7 8 555.798 100.631 60
-9 -7 -8 637.758 76.9142 18
9 7 8 471.989 79.936 44
-9 -7 -9 28361.4 463.902 12
9 7 9 27969.7 574.334 60
-9 -7 -9 27596.3 442.162 18
9 7 9 26960.9 489.666 44
-9 -7 -10 5456.16 202.83 12
9 7 10 5172.95 202.902 44
-9 -7 -11 166.977 43.8704 12
9 7 11 208.287 49.1636 44
-9 -7 -12 194.727 45.147 12
-9 -7 -13 1802.7 99.0949 12
9 7 13 1697.08 110.487 60
-9 -7 -14 137.568 29.6888 12
9 7 14 92.1525 32.5934 60
-9 -8 4 662.039 50.5496 8
9 8 -4 735.668 66.2221 61
9 8 -4 725.885 67.2512 9
-9 -8 4 692.29 47.4696 18
-9 -8 3 904.972 68.2362 8
9 8 -3 1017.87 88.2633 61
-9 -8 3 914.914 66.3294 56
-9 -8 3 861.682 55.488 49
-9 -8 2 969.884 76.6849 8
9 8 -2 1012.66 98.809 64
9 8 -2 1251.61 105.542 61
-9 -8 2 980.916 73.1485 56
-9 -8 1 2940.8 134.618 8
9 8 -1 2995.61 171.574 64
9 8 -1 3216.11 172.146 61
-9 -8 1 2772.27 124.662 56
-9 -8 0 239.489 46.3171 8
9 8 0 294.891 73.349 64
9 8 0 345.164 65.6215 61
-9 -8 0 246.862 45.1014 56
-9 -8 -1 12675.3 278.546 8
-9 -8 -1 12989.1 292.041 65
-9 -8 -1 12428 255.368 56
-9 -8 -2 -20.6105 30.4795 8
9 8 2 32.478 33.3497 7
-9 -8 -2 27.2858 32.1852 65
9 8 2 60.0521 41.4166 61
9 8 2 -21.2645 48.9183 58
-9 -8 -3 76.8109 37.7972 65
9 8 3 21.5442 27.2437 7
9 8 3 -11.1153 63.2277 60
9 8 3 61.3782 54.6216 58
-9 -8 -3 11.5072 31.9745 18
9 8 4 4977.97 184.472 7
-9 -8 -4 4888.53 195.561 65
9 8 4 5258.63 264.513 60
9 8 4 5134.4 267.492 58
-9 -8 -4 4741.11 188.807 18
9 8 4 5229.49 253.69 44
9 8 5 6356.71 292.696 60
9 8 5 6256.75 293.951 59
9 8 5 6429.91 299.991 58
-9 -8 -5 6358.76 217.162 18
9 8 5 6545.11 277.755 44
-9 -8 -6 11623.1 293.715 12
9 8 6 12334.9 400.392 60
-9 -8 -6 11575.3 289.716 18
9 8 6 12067.5 363.622 44
-9 -8 -7 2124.37 127.672 12
9 8 7 2189.84 173.741 60
-9 -8 -7 2150.12 126.148 18
9 8 7 2191.36 156.696 44
-9 -8 -8 2130.81 128.649 12
9 8 8 2315.02 176.432 60
-9 -8 -8 2282.68 126.968 18
9 8 8 2232.37 150.271 44
-9 -8 -9 2196.65 129.473 12
9 8 9 2109.28 163.686 60
9 8 9 2062.37 138.423 44
-9 -8 -10 1119 90.9807 12
9 8 10 1180.41 122.007 60
9 8 10 1060.16 96.914 44
-9 -8 -11 1281.27 92.9887 12
9 8 11 1399.87 120.878 60
9 8 11 1217.09 93.5542 44
-9 -8 -12 5699.18 175.245 12
9 8 12 5525.94 205.441 60
9 8 12 5679.6 168.093 44
-9 -8 -13 234.473 38.7014 12
9 8 13 233.324 49.9793 60
-9 -8 -14 3706.27 101.954 12
-9 -9 4 4524.2 102.071 8
9 9 -4 4488.05 126.973 9
-9 -9 3 955.555 59.241 8
9 9 -3 988.689 76.396 61
-9 -9 2 70.8649 27.2465 8
9 9 -2 54.9196 32.8269 64
9 9 -2 70.8617 35.2785 61
-9 -9 2 69.1516 25.3508 56
-9 -9 1 525.12 55.92 8
9 9 -1 425.241 66.8614 64
9 9 -1 490.465 71.14 61
-9 -9 1 451.668 47.9524 56
-9 -9 0 146.391 36.8276 8
9 9 0 216.47 61.4906 64
9 9 0 170.046 53.7444 61
-9 -9 0 216.019 37.2682 56
-9 -9 -1 1254.67 85.2421 8
-9 -9 -1 1254.81 90.8888 65
9 9 1 1309.57 112.778 61
-9 -9 -2 2124.56 105.922 8
9 9 2 2307.8 136.76 7
-9 -9 -2 2382.96 129.265 65
9 9 2 2614.46 155.916 61
-9 -9 -2 2482.77 131.396 18
9 9 3 2318.35 133.032 7
-9 -9 -3 2281.49 130.878 65
9 9 3 2468.07 171.521 60
9 9 3 2313.07 159.053 58
-9 -9 -3 2516.17 133.59 18
-9 -9 -4 184.507 48.9991 65
9 9 4 143.453 41.452 7
9 9 4 144.9 67.9618 60
9 9 4 183.527 61.6627 58
-9 -9 -4 176.832 46.8436 18
9 9 5 14800.6 409.978 60
9 9 5 14544.1 412.045 58
-9 -9 -5 14276.2 306.755 18
9 9 5 14747.1 395.415 44
-9 -9 -6 -25.9748 33.7105 12
9 9 6 32.4407 59.7477 60
9 9 6 9.77532 49.7923 58
-9 -9 -6 0.52567 29.4745 18
9 9 6 -8.5327 55.102 44
-9 -9 -7 6638.95 217.257 12
9 9 7 7139.08 285.146 60
-9 -9 -7 6799.09 205.144 18
9 9 7 7061.17 260.67 44
-9 -9 -8 497.136 63.9947 12
9 9 8 372.164 87.6543 60
-9 -9 -8 433.912 56.1533 18
9 9 8 350.129 70.4118 44
-9 -9 -9 24.453 29.0839 12
9 9 9 -18.3176 58.1095 60
9 9 9 61.4196 44.3021 44
-9 -9 -10 8808.74 228.748 12
9 9 10 8353.83 273.925 60
9 9 10 8431.98 242.909 44
-9 -9 -11 10818 236.337 12
9 9 11 10589.5 285.012 60
9 9 11 10502.6 243.347 44
-9 -9 -12 383.858 45.6753 12
9 9 12 382.233 61.6055 60
9 9 12 373.082 44.8789 44
-9 -9 -13 242.091 31.2556 12
9 9 13 272.994 44.0922 60
-9 -10 2 1321.86 66.0375 8
9 10 -2 1523.2 86.3899 61
-9 -10 2 1313.51 69.4053 18
-9 -10 1 55.2652 21.8828 8
9 10 -1 44.1358 30.9664 64
9 10 -1 100.315 38.4455 61
-9 -10 1 76.7774 27.1108 18
-9 -10 0 266.848 38.9023 8
9 10 0 251.606 49.6625 64
9 10 0 318.911 54.0172 61
-9 -10 0 314.087 45.8182 18
-9 -10 -1 -17.9855 19.1058 8
9 10 1 9.41114 36.9395 64
9 10 1 0.71711 39.0357 61
-9 -10 -1 25.0198 25.4044 18
-9 -10 -2 1376.32 93.4443 65
9 10 2 1425.98 109.279 61
-9 -10 -2 1293.86 89.4124 18
9 10 3 7571.86 220.087 7
-9 -10 -3 7368.85 214.626 65
9 10 3 7406.85 237.859 61
-9 -10 -3 7348.4 205.865 18
9 10 4 11115.4 256.898 7
-9 -10 -4 11363.2 270.669 65
9 10 4 10951.3 315.264 60
-9 -10 -4 10869.1 250.063 18
9 10 5 1749.71 135.756 60
9 10 5 1696.93 129.504 58
-9 -10 -5 1687.3 99.6943 18
9 10 5 1754.64 133.403 44
-9 -10 -6 73.6178 33.9746 12
9 10 6 42.6159 51.4969 60
9 10 6 70.2614 49.4515 58
-9 -10 -6 89.9273 32.8431 18
9 10 6 104.476 53.5823 44
-9 -10 -7 -46.2607 30.2066 12
9 10 7 39.1415 48.1127 60
9 10 7 10.1431 47.9227 58
-9 -10 -7 19.7951 25.1655 18
9 10 7 52.3748 51.1155 44
-9 -10 -8 585.019 63.7334 12
9 10 8 522.318 82.5372 60
-9 -10 -8 513.039 51.5808 18
9 10 8 537.404 75.0597 44
-9 -10 -9 499.242 56.8204 12
9 10 9 495.156 77.5683 60
9 10 9 485.633 66.4584 44
-9 -10 -10 627.577 59.4295 12
9 10 10 665.091 80.1148 60
9 10 10 632.991 68.3667 44
-9 -10 -11 2561 102.341 12
9 10 11 2601.51 125.426 60
9 10 11 2407.71 106.79 44
-9 -10 -12 -3.51954 17.5029 12
9 10 12 -24.5537 26.9479 60
-9 -11 1 186.041 24.8228 8
9 11 -1 190.516 33.4253 61
-9 -11 1 182.222 27.4188 18
-9 -11 0 100.183 23.3227 8
9 11 0 118.014 30.3391 64
9 11 0 82.3165 31.8826 61
-9 -11 0 93.2136 25.1977 18
-9 -11 -1 345.277 34.3712 8
9 11 1 352.146 49.6678 64
9 11 1 368.821 51.9682 61
-9 -11 -1 360.467 43.6132 18
9 11 2 1859.83 106.595 64
9 11 2 1938.06 108.657 61
-9 -11 -2 1846.72 90.5979 18
9 11 3 70.8775 38.6156 61
-9 -11 -3 67.0032 28.2098 18
9 11 4 3085.64 123.449 7
9 11 4 3050.35 137.671 61
-9 -11 -4 2946.52 114.907 18
-9 -11 -5 84.2847 30.3797 12
9 11 5 92.0557 46.0969 60
-9 -11 -5 96.2425 28.8807 18
-9 -11 -6 15.8325 23.3836 12
9 11 6 12.7811 39.6614 60
9 11 6 81.7842 38.3114 58
-9 -11 -6 21.1762 19.3698 18
9 11 6 35.9668 38.8363 44
-9 -11 -7 1583.52 90.5182 12
9 11 7 1594.14 108.542 60
9 11 7 1500.22 103.892 58
-9 -11 -7 1459.27 72.6968 18
9 11 7 1683.58 107.887 44
-9 -11 -8 9.56294 20.5745 12
9 11 8 23.1237 42.1368 60
9 11 8 -7.8114 33.1353 58
9 11 8 -9.60539 34.7939 44
-9 -11 -9 2063.1 92.6252 12
9 11 9 2135.35 112.951 60
9 11 9 1973.07 111.071 58
9 11 9 1960.31 104.39 44
-9 -11 -10 3846.09 114.705 12
9 11 10 3958.79 137.248 60
9 11 10 3816.18 138.945 58
9 11 10 3848.3 127.598 44
9 12 1 1190.7 65.9839 61
-9 -12 -1 1078.32 51.5093 18
9 12 2 257.29 35.3368 64
9 12 2 236.886 35.9772 61
-9 -12 -2 191.411 25.1001 18
-9 -12 -3 2445.69 87.5213 12
9 12 3 2276.87 95.8283 64
9 12 3 2470.15 103.031 61
-9 -12 -3 2305.45 80.7045 18
-9 -12 -4 518.415 45.5793 12
9 12 4 506.877 53.692 61
-9 -12 -4 485.66 38.6201 18
-9 -12 -5 1551.82 76.1899 12
9 12 5 1458.3 81.5025 61
-9 -12 -5 1381.93 59.7563 18
-9 -12 -6 1428.8 73.0692 12
-9 -12 -7 89.9122 23.1048 12
-9 -12 -8 1480.61 69.261 12
-10 8 -3 795.249 45.9373 14
-10 8 -4 1036.93 54.102 14
10 -8 4 944.786 59.6802 53
-10 8 -5 4.23745 13.5519 14
10 -8 5 8.59517 16.6048 53
10 -8 6 -31.8274 18.8196 53
10 -7 0 2630.77 103.682 51
-10 7 0 2598.25 79.8274 8
10 -7 1 1086.23 75.5636 51
-10 7 -1 1159.04 60.5803 8
10 -7 2 372.795 40.9182 53
10 -7 2 524.879 57.9123 51
-10 7 -2 460.802 43.0454 8
10 -7 3 2772.43 118.048 53
10 -7 3 2857.72 129.205 51
-10 7 -3 2804.23 100.856 8
-10 7 -4 4281.5 119.458 11
10 -7 4 4083.04 127.205 57
10 -7 4 4037.86 150.771 53
10 -7 4 4362.23 157.735 51
-10 7 -4 4280.8 123.916 8
-10 7 -5 338.846 38.7294 11
10 -7 5 349.372 46.0738 57
10 -7 5 292.527 48.7851 53
10 -7 5 276.616 44.9115 51
-10 7 -6 20.423 18.4651 14
-10 7 -6 26.1314 22.3161 11
10 -7 6 21.5329 22.8245 57
10 -7 6 45.2371 30.7112 53
10 -7 6 9.49244 24.8456 51
-10 7 -7 1680.04 75.9948 14
-10 7 -7 1747.43 81.7502 11
10 -7 7 1858.81 97.6906 57
10 -7 7 1577.06 98.4322 53
-10 7 -8 11.5219 16.6614 11
10 -7 8 21.1407 25.1441 57
10 -7 8 11.6228 14.5298 55
10 -7 8 -16.3644 27.1745 53
-10 7 -9 2741.06 90.4925 11
10 -7 9 2958.45 110.124 57
10 -7 9 2910.3 115.755 53
10 -6 -1 1091.63 76.5046 51
-10 6 1 1093.66 57.2833 8
10 -6 0 1560.45 99.4355 51
-10 6 0 1667 79.2529 8
10 -6 1 584.259 71.5044 51
-10 6 -1 654.337 55.2223 8
10 -6 2 286.003 47.1642 53
10 -6 2 341.348 59.5726 51
-10 6 -2 306.793 42.7937 8
-10 6 -3 214.387 37.6933 8
-10 6 -3 172.823 30.1338 11
10 -6 3 246.14 44.6833 53
10 -6 3 207.151 51.1709 51
-10 6 -4 1203.19 76.1885 11
10 -6 4 1117.49 80.709 57
10 -6 4 1018.33 91.4214 53
10 -6 4 1111.04 98.8524 51
-10 6 -4 1251.85 78.7494 8
-10 6 -5 497.398 54.1569 11
10 -6 5 470.603 59.8763 57
10 -6 5 551.682 72.7582 53
10 -6 5 617.214 77.9345 51
-10 6 -5 468.404 48.956 8
-10 6 -6 377.787 48.3064 11
10 -6 6 408.333 64.4851 53
10 -6 6 340.907 56.722 51
-10 6 -6 244.131 36.0584 8
-10 6 -7 1308.46 83.2051 11
10 -6 7 1254.96 104.067 53
10 -6 7 1295.17 97.111 51
-10 6 -8 343.346 38.5227 14
-10 6 -8 379.935 47.1838 11
10 -6 8 315.169 56.1928 53
-10 6 -9 1736.68 86.5297 11
10 -6 9 1908.89 116.064 53
-10 6 -10 3705.87 112.724 11
10 -6 10 3997.71 151.227 53
10 -6 11 2222.17 91.0828 57
-10 5 2 146.753 24.0446 8
10 -5 -2 129.453 32.2044 51
-10 5 1 242.077 36.3305 8
10 -5 -1 170.604 42.7698 51
-10 5 0 -11.5187 25.4157 8
10 -5 0 30.1926 33.9559 51
10 -5 1 580.418 79.7575 51
-10 5 -1 690.054 64.9318 8
-10 5 -2 80.2948 32.5301 8
-10 5 -2 46.0622 18.9487 11
10 -5 2 -1.72421 36.2551 51
-10 5 -3 98.0602 34.4012 8
-10 5 -3 72.7162 28.5396 11
10 -5 3 35.2796 31.3626 53
10 -5 3 -1.41715 46.4751 51
-10 5 -4 2207.54 112.573 11
10 -5 4 2047.79 136.587 53
10 -5 4 2281.81 156.879 51
-10 5 -4 2291.93 114.299 8
-10 5 -5 690.294 67.5702 11
10 -5 5 775.704 90.5437 53
10 -5 5 660.019 87.7399 51
-10 5 -5 598.919 59.4061 8
-10 5 -6 1489.44 98.1516 11
10 -5 6 1417.42 121.262 53
10 -5 6 1681.06 137.288 51
-10 5 -6 1419.83 84.7224 8
-10 5 -7 -7.24339 30.3987 11
10 -5 7 27.9217 45.2958 53
10 -5 7 -65.6386 49.4041 51
-10 5 -8 5703.45 180.313 11
10 -5 8 5923.28 236.883 53
10 -5 8 5887.2 224.67 51
-10 5 -9 546.892 59.0219 11
10 -5 9 739.578 89.2477 53
-10 5 -10 289.141 40.8459 11
10 -5 10 289.131 59.2828 53
-10 5 -11 576.59 45.9136 11
-10 5 -11 522.922 38.9342 20
10 -5 12 352.631 45.5185 53
10 -4 -3 2784.07 102.978 10
10 -4 -3 2618.09 110.445 51
-10 4 3 2999.75 91.8856 8
-10 4 2 155.4 31.777 8
10 -4 -2 149.739 33.9803 10
10 -4 -2 123.322 39.6463 51
-10 4 1 11.3748 25.3092 8
10 -4 -1 -62.8467 27.9956 10
10 -4 -1 -34.5472 35.2207 51
10 -4 0 749.625 91.4807 51
-10 4 0 883.826 73.662 8
10 -4 1 3136.61 185.517 51
-10 4 -1 3413.81 141.588 8
-10 4 -2 -4.43846 29.6722 8
-10 4 -2 63.2154 24.2964 11
10 -4 2 41.3619 42.8094 51
-10 4 -3 34.8622 33.2854 8
-10 4 -3 60.6345 29.104 11
10 -4 3 15.7311 41.4562 53
10 -4 3 45.4984 48.4213 51
-10 4 -4 1064.01 85.7012 11
10 -4 4 1035.85 104.377 53
10 -4 4 945.808 115.765 51
-10 4 -4 1111.08 86.6984 8
-10 4 -5 242.398 43.3668 8
-10 4 -5 222.722 46.0489 11
10 -4 5 184.088 53.1326 53
10 -4 5 129.177 61.3819 51
10 -4 5 248.029 66.1156 46
-10 4 -6 92.9765 31.2097 8
-10 4 -6 100.298 37.9998 11
10 -4 6 35.5973 54.4817 51
10 -4 6 27.2908 41.6966 46
10 -4 6 101.722 115.306 42
-10 4 -7 1247.27 96.4413 11
10 -4 7 1130.7 122.118 51
10 -4 7 1094.95 101.41 46
10 -4 7 1120.15 235.019 42
-10 4 -8 469.902 63.0494 11
10 -4 8 414.722 78.5155 51
-10 4 -9 1009.59 81.5523 11
-10 4 -9 1046.66 72.3104 20
10 -4 9 946.581 105.694 51
-10 4 -10 562.334 59.0773 11
-10 4 -10 616.426 57.017 20
10 -4 10 520.61 75.7252 51
-10 4 -11 128.316 30.4037 11
-10 4 -11 117.35 30.9617 20
-10 4 -12 2344.44 92.0415 20
-10 4 -13 178.15 23.9986 20
10 -3 -4 806.357 58.8341 10
10 -3 -3 4839.66 155.838 10
-10 3 3 5159.3 135.504 8
10 -3 -2 448.463 55.8443 10
10 -3 -2 481.992 66.4777 51
-10 3 2 566.881 56.4277 8
-10 3 1 168.726 41.3773 8
10 -3 -1 116.983 42.1263 58
10 -3 -1 181.496 40.4645 10
10 -3 -1 142.659 53.1875 51
-10 3 0 205.09 42.9124 8
10 -3 0 285.34 59.0232 58
10 -3 0 191.911 56.5949 51
-10 3 -1 341.816 52.269 8
10 -3 1 292.91 55.2325 58
10 -3 1 393.492 81.9552 51
10 -3 2 8427.57 257.354 58
10 -3 2 8266.11 327.13 51
-10 3 -2 8707.77 232.683 8
-10 3 -2 8507.67 235.426 16
-10 3 -3 2482.14 266.112 33
10 -3 3 2349.22 183.464 51
10 -3 3 2337.35 166.409 46
-10 3 -3 2559.21 129.312 8
-10 3 -3 2505.55 133.72 16
-10 3 -4 692.022 145.208 33
10 -3 4 648.662 85.7421 53
10 -3 4 545.583 97.2831 51
10 -3 4 488.109 85.2835 46
-10 3 -4 627.774 66.7464 8
-10 3 -4 624.085 72.3984 16
10 -3 5 1573.18 158.044 51
10 -3 5 1377.49 132.642 46
-10 3 -5 1549.89 99.4261 8
-10 3 -5 1379.96 101 16
10 -3 5 1064.15 242.248 42
-10 3 -6 15.2089 32.789 16
10 -3 6 97.9352 69.0313 51
10 -3 6 -25.634 47.1849 46
10 -3 6 -54.8397 42.3011 42
-10 3 -7 24.5214 30.1755 16
-10 3 -7 47.4252 25.024 20
10 -3 7 87.3602 72.1437 51
10 -3 7 30.5224 44.7228 46
-10 3 -8 3103.34 148.773 11
-10 3 -8 3017.41 133.468 20
10 -3 8 2917.12 203.547 51
10 -3 8 3155.43 175.436 46
10 -3 8 2940.26 392.463 42
-10 3 -9 498.964 61.8679 11
-10 3 -9 413.54 53.9227 20
10 -3 9 559.001 99.589 51
10 -3 9 317.755 159.798 42
-10 3 -10 4869.62 168.509 11
-10 3 -10 4743.55 165.14 20
10 -3 10 4785.08 233.055 51
-10 3 -11 426.034 48.9357 11
-10 3 -11 466.223 54.7795 20
10 -3 11 487.095 79.3284 51
-10 3 -12 465.03 51.2312 20
-10 3 -13 1239.91 69.5104 20
10 -2 -4 1640.37 89.5946 10
-10 2 4 1737.56 71.3908 8
-10 2 3 158.57 31.1861 8
10 -2 -3 180.714 41.911 10
10 -2 -2 950.923 92.7611 58
10 -2 -2 828.845 77.0303 10
10 -2 -2 731.495 82.8839 51
-10 2 2 809.16 67.1771 8
10 -2 -1 2788.79 158.505 58
10 -2 -1 2865.07 141.019 10
10 -2 -1 2689.64 173.806 51
-10 2 1 3044.11 131.737 8
10 -2 0 12776.5 336.45 58
10 -2 0 13342.2 301.166 10
10 -2 0 12499.7 391.196 51
-10 2 0 13242.7 283.21 8
10 -2 1 1835.12 131.477 58
10 -2 1 1949.9 165.994 51
10 -2 1 1996.09 157.903 46
-10 2 -1 2091.71 117.415 8
-10 2 -1 1920.24 112.567 16
-10 2 -2 1016.85 171.329 33
10 -2 2 797.749 89.9078 58
10 -2 2 766.25 115.474 51
10 -2 2 883.317 111.185 46
-10 2 -2 1033.5 84.1308 8
-10 2 -2 850.077 79.6137 16
-10 2 -3 563.932 132.278 33
10 -2 3 629.064 77.3115 58
10 -2 3 572.204 103.389 51
10 -2 3 628.327 100.378 46
-10 2 -3 597.73 67.1232 8
-10 2 -3 602.446 74.1865 16
-10 2 -4 378.115 119.148 33
10 -2 4 577.375 106.563 51
10 -2 4 569.095 95.4513 46
-10 2 -4 639.786 68.0643 8
-10 2 -4 616.319 73.0107 16
10 -2 5 7264.93 335.847 51
10 -2 5 7315.38 300.038 46
-10 2 -5 7712.58 217.577 8
-10 2 -5 7589.45 231.802 16
-10 2 -6 20415.6 352.449 20
10 -2 6 20066.9 486.299 46
-10 2 -6 20617.9 378.552 16
-10 2 -7 38.4825 31.2058 16
-10 2 -7 73.009 35.5262 20
10 -2 7 150.111 91.9097 51
10 -2 7 61.217 50.0229 46
-10 2 -8 1347.5 99.1038 20
10 -2 8 1437.34 132.257 46
-10 2 -8 1363.04 96.6455 16
10 -2 8 1203.99 269.984 42
-10 2 -9 1920.57 117.065 11
-10 2 -9 1741 110.624 20
10 -2 9 1948.13 142.049 46
-10 2 -9 1775.76 103.992 16
10 -2 9 1778.16 316.972 42
-10 2 -10 571.067 64.0567 11
-10 2 -10 630.673 70.161 20
-10 2 -11 1512.72 88.4967 11
-10 2 -11 1386.93 95.2144 20
-10 2 -12 185.622 40.1432 20
10 -2 12 253.107 61.1398 51
-10 2 -13 1598.98 87.0233 20
-10 2 -14 41.0163 19.1978 20
10 -1 -5 270.1 37.8327 10
10 -1 -4 2370.73 112.282 10
-10 1 4 2355.33 89.1833 8
10 -1 -3 13906.1 288.847 10
-10 1 3 13869.2 246.843 8
10 -1 -2 5941.54 231.821 58
10 -1 -2 5856.89 196.439 10
-10 1 2 5763.09 175.523 8
10 -1 -1 10693.6 319.849 58
10 -1 -1 10869.7 274.271 10
10 -1 -1 9937.17 336.776 51
-10 1 1 10900.9 252.586 8
10 -1 0 35354.5 587.492 58
10 -1 0 37257.2 505.726 10
10 -1 0 34441.5 672.322 51
-10 1 0 36081.3 470.682 8
-10 1 0 36248.4 452.717 16
-10 1 -1 495.205 118.078 33
10 -1 1 518.304 78.3015 58
10 -1 1 541.363 95.5991 51
10 -1 1 442.493 84.3133 46
-10 1 -1 492.578 62.1674 8
-10 1 -1 459.898 61.34 16
-10 1 -2 340.221 52.8836 16
-10 1 -2 310.891 102.963 33
10 -1 2 301.495 64.6941 58
10 -1 2 224.305 71.5338 51
10 -1 2 250.997 72.1543 46
-10 1 -2 385.221 55.7147 8
-10 1 -3 6432.95 411.775 33
10 -1 3 6538.31 252.433 58
10 -1 3 7050.06 335.418 51
10 -1 3 6532.74 291.053 46
-10 1 -3 6613.57 205.257 8
-10 1 -3 6731.23 218.135 16
-10 1 -4 4169.59 329.646 33
10 -1 4 4395.26 203.487 58
10 -1 4 4534.27 272.836 51
10 -1 4 4342.98 238.992 46
-10 1 -4 4574.14 168.979 8
-10 1 -4 4405.28 178.242 16
-10 1 -5 84.8577 38.01 16
-10 1 -5 -12.9073 22.335 8
-10 1 -5 163.896 90.0029 33
10 -1 5 41.3659 57.1555 59
10 -1 5 141.168 92.9572 51
10 -1 5 30.9796 54.0861 46
-10 1 -6 270.909 51.0726 16
10 -1 6 146.921 59.4141 59
10 -1 6 209.598 76.0255 46
10 -1 6 322.936 147.683 42
10 -1 7 4168.3 219.278 59
-10 1 -7 4126.44 171.815 20
10 -1 7 3913.64 224.031 46
-10 1 -7 3938.71 166.55 16
10 -1 8 436.999 166.63 42
-10 1 -8 579.193 71.1879 20
10 -1 8 627.46 99.9548 46
-10 1 -8 511.008 62.4299 16
-10 1 -9 56.1163 30.0454 16
-10 1 -9 90.1923 41.1648 20
10 -1 9 90.448 52.6378 46
-10 1 -10 4541.81 168.52 11
-10 1 -10 4360.38 177.434 20
10 -1 10 4579.99 215.855 46
10 -1 10 4534.31 494.231 42
10 -1 11 1083.59 248.501 42
-10 1 -11 1046.11 88.9986 20
-10 1 -12 511.242 62.1818 20
-10 1 -13 1433.9 87.4917 20
-10 1 -14 11.5707 19.625 20
10 0 -5 954.091 67.5367 10
10 0 -4 3850.9 145.868 10
-10 0 4 3893.74 118.868 8
10 0 -3 8629.89 276.501 58
10 0 -3 8153.49 224.689 10
-10 0 3 8079.68 193.912 8
-10 0 2 -13.3086 30.3447 8
10 0 -2 -4.71218 46.9208 58
10 0 -1 6130.81 255.39 58
-10 0 1 5939.32 190.343 8
-10 0 0 4993.77 356.833 33
10 0 0 5177.58 237.045 58
10 0 0 5195.7 266.225 51
10 0 0 5265.6 259.704 46
-10 0 0 5244.11 183.569 8
-10 0 0 5320.35 176.781 16
-10 0 -1 2650.78 258.826 33
10 0 1 3155.87 186.202 58
10 0 1 3085.35 221.904 51
10 0 1 3150.63 208.694 46
-10 0 -1 3316.6 147.968 8
-10 0 -1 3374.53 148.424 16
-10 0 -2 338.321 54.7779 16
-10 0 -2 359.881 53.6628 8
-10 0 -2 320.121 102.882 33
10 0 2 347.65 72.4514 58
10 0 2 426.859 98.2661 51
10 0 2 276.684 77.804 46
-10 0 -3 5404.79 369.869 33
10 0 3 5815.49 246.544 58
10 0 3 6313.77 324.333 51
10 0 3 5722.65 279.153 46
-10 0 -3 6081.22 194.772 8
-10 0 -3 6004.07 205.901 16
-10 0 -4 925.968 156.494 33
10 0 4 740.741 108.478 59
10 0 4 930.783 104.008 58
10 0 4 1050.33 147.054 51
10 0 4 873.26 116.137 46
-10 0 -4 971.851 79.9528 8
-10 0 -4 864.73 83.3643 16
10 0 5 6385.8 290.942 59
10 0 5 6436.86 250.621 58
10 0 5 6204.72 288.204 46
-10 0 -5 6223.87 210.123 16
10 0 6 1684.98 295.559 42
10 0 6 1360.28 143.119 59
10 0 6 1466 121.754 58
10 0 6 1579.33 152.939 46
-10 0 -6 1565.1 108.319 16
10 0 7 7755.02 312.458 59
-10 0 -7 7889.77 233.444 16
10 0 7 7484.87 610.656 42
10 0 8 750.053 174.048 42
10 0 8 732.79 109.275 59
-10 0 -8 817.471 83.9149 20
-10 0 -8 907.946 81.7845 16
10 0 9 6866.85 279.79 59
-10 0 -9 6970.16 230.404 20
-10 0 -9 7121.72 210.145 16
10 0 9 7439.65 618.79 42
10 0 10 1346.26 281.533 42
-10 0 -10 1697.17 116.307 20
10 0 11 2234.66 340.016 42
-10 0 -11 1664.46 112.919 20
-10 0 -12 1982.65 106.242 12
-10 0 -12 1935.09 113.993 20
-10 0 -13 2163.04 108.327 20
-10 0 -14 59.367 24.0803 20
-10 0 -15 -1.96243 10.9339 20
-10 -1 5 26.8082 13.0245 8
10 1 -5 10.7461 22.966 10
-10 -1 4 79.5679 23.2653 8
10 1 -4 124.587 45.8273 58
10 1 -4 138.88 39.378 10
-10 -1 4 68.3822 24.0654 48
10 1 -3 2133.59 145.968 58
-10 -1 3 1969.9 96.0516 48
-10 -1 3 2051 101.227 8
10 1 -2 4200.55 213.026 58
-10 -1 2 4188.48 146.256 48
-10 -1 2 4279.45 156.204 8
10 1 -1 2974.14 426.092 38
10 1 -1 3494.11 200.342 58
-10 -1 1 3254.28 133.847 48
-10 -1 1 3284.74 144.09 8
10 1 0 5058.23 242.832 58
10 1 0 4864.18 253.163 46
-10 -1 0 5225.83 174.456 16
-10 -1 0 5118.26 181.676 8
-10 -1 -1 300.804 49.511 16
10 1 1 298.583 72.773 58
10 1 1 244.338 74.1752 46
-10 -1 -1 369.683 54.3886 8
-10 -1 -2 3500.29 290.642 33
10 1 2 3563.77 204.258 58
10 1 2 4026.84 262.812 51
10 1 2 3644.45 227.881 46
-10 -1 -2 3761.24 156.325 8
-10 -1 -2 3596.63 157.795 16
-10 -1 -3 1472.56 188.178 33
10 1 3 1007.74 133.413 59
10 1 3 1063.43 115.003 58
10 1 3 976.531 145.731 51
10 1 3 975.099 124.801 46
-10 -1 -3 1281.09 92.3974 8
-10 -1 -3 1150.03 92.1784 16
10 1 4 8481.89 352.852 59
10 1 4 8474.75 304.29 58
10 1 4 7975.71 373.122 51
10 1 4 8768.54 347.665 46
-10 -1 -4 8780.58 227.173 8
-10 -1 -4 8550.9 244.657 16
-10 -1 -5 356.91 56.8347 16
10 1 5 440.424 101.133 59
10 1 5 423.645 77.9522 58
10 1 5 504.194 100.319 46
10 1 6 13557.1 435.878 59
10 1 6 12866.5 362.206 58
10 1 6 13026.8 769.628 42
-10 -1 -6 13740.2 308.901 16
10 1 7 14818.6 446.981 59
10 1 7 14089.2 369.982 58
10 1 7 14244.5 819.878 42
-10 -1 -7 14424.5 314.278 16
10 1 8 3368.88 214.729 59
-10 -1 -8 3633.3 156.336 16
10 1 8 3809.26 442.478 42
10 1 9 682.96 206.904 42
10 1 9 985.976 250.985 39
10 1 9 586.223 101.556 59
-10 -1 -9 628.356 76.0395 20
-10 -1 -9 586.029 65.4822 16
10 1 10 4648.02 499.009 39
-10 -1 -10 4532.31 186.547 20
-10 -1 -11 144.599 39.5115 12
-10 -1 -11 147.394 43.9303 20
-10 -1 -12 655.413 66.1129 12
-10 -1 -12 700.221 72.3223 20
-10 -1 -13 255.885 44.6529 12
-10 -1 -13 240.022 43.336 20
-10 -1 -14 1511.88 84.0462 12
-10 -1 -14 1330.51 75.8572 20
-10 -1 -15 417.952 34.111 20
10 2 -5 398.761 48.5131 10
-10 -2 5 402.441 33.9903 8
10 2 -4 4810.97 197.201 58
-10 -2 4 4226.68 121.266 48
-10 -2 4 4643.64 134.172 8
-10 -2 3 6.79232 24.7747 8
10 2 -3 32.2863 41.8112 58
-10 -2 3 -44.8876 22.7375 48
10 2 -2 448.625 84.7664 58
-10 -2 2 384.998 54.6882 8
10 2 -1 11417.6 367.287 58
-10 -2 1 10828.5 259.074 8
10 2 0 5639.35 212.159 64
10 2 0 5769.91 267.081 58
10 2 0 5283.78 264.567 46
-10 -2 0 5562.65 177.992 16
-10 -2 0 5530.93 190.873 8
-10 -2 -1 80.0308 31.2523 16
-10 -2 -1 14.5648 25.4384 8
10 2 1 -39.8439 32.9887 64
10 2 1 -0.99286 54.423 58
10 2 1 -100.942 66.0245 46
10 2 2 9463.75 262.41 64
10 2 2 9673.55 399.528 59
10 2 2 8986.07 332.351 58
10 2 2 9242.56 366.627 46
-10 -2 -2 9313.95 244.316 8
-10 -2 -2 8978.88 244.741 16
-10 -2 -3 1781.21 113.514 16
10 2 3 1702.01 177.134 59
10 2 3 1675.92 147.222 58
10 2 3 1579.08 180.8 51
10 2 3 1789.73 168.543 46
-10 -2 -3 1677.26 103.427 8
-10 -2 -4 -12.5478 33.0232 16
-10 -2 -4 20.2391 26.9898 8
10 2 4 84.3538 80.7233 59
10 2 4 54.0957 52.5947 58
10 2 4 38.8007 63.0896 46
-10 -2 -5 1465.45 104.949 16
10 2 5 1664.06 173.353 59
10 2 5 1461.79 135.275 58
-10 -2 -5 1399.43 97.056 18
-10 -2 -6 742.664 75.8492 16
10 2 6 788.953 129.921 59
10 2 6 776.583 101.764 58
-10 -2 -6 690.145 73.0111 18
-10 -2 -7 571.578 67.8731 16
10 2 7 426 100.016 59
10 2 7 425.807 77.5729 58
-10 -2 -8 212.051 40.9518 16
10 2 8 295.738 152.847 39
10 2 8 180.113 53.2508 58
10 2 9 3164.28 431.613 39
10 2 9 2929.49 169.043 58
-10 -2 -9 2963.45 137.025 16
-10 -2 -10 1768.09 110.769 12
-10 -2 -10 1906.13 122.819 20
10 2 11 9753.48 687.718 39
-10 -2 -11 9673.85 251.913 12
-10 -2 -11 9774.75 260.408 20
-10 -2 -12 2546.34 127.916 12
-10 -2 -12 2602.2 129.499 20
-10 -2 -13 63.1101 32.2075 12
-10 -2 -13 101.753 32.489 20
-10 -2 -14 475.97 51.32 12
-10 -2 -14 346.835 39.6016 20
10 3 -5 2376.95 106.764 10
-10 -3 5 2266.59 76.0504 8
-10 -3 4 -17.6545 20.4422 8
10 3 -4 11.7911 30.9551 58
10 3 -3 2626.26 163.013 58
-10 -3 3 2753.07 117.056 8
10 3 -2 1110.21 118.985 58
-10 -3 2 1122.24 84.1632 8
-10 -3 1 2229.17 120.428 8
10 3 -1 2327.82 142.63 64
10 3 -1 2265.83 170.021 58
-10 -3 0 56.398 30.2597 16
-10 -3 0 69.0473 32.9866 8
10 3 0 142.314 49.842 64
10 3 0 51.8337 51.0955 58
-10 -3 -1 1599.34 102.669 16
-10 -3 -1 1658.38 106.125 8
10 3 1 1621.75 119.254 64
10 3 1 1746.97 165.571 58
10 3 1 1523.05 154.19 46
-10 -3 -2 14171 305.916 16
-10 -3 -2 14643.8 304.273 8
10 3 2 14357.5 337.871 64
10 3 2 15136.6 514.427 59
10 3 2 14480.5 436.655 58
10 3 2 14539.4 462.594 46
-10 -3 -3 9739.73 242.957 8
-10 -3 -3 9826.23 259.02 16
10 3 3 9881.25 276.037 64
10 3 3 10492.4 430.396 59
10 3 3 9857.05 357.784 58
10 3 3 10125.1 386.984 46
10 3 4 22493.1 621.639 59
10 3 4 22195 526.894 58
-10 -3 -4 22415.9 382.97 18
10 3 5 8537.12 284.472 60
10 3 5 8470.62 381.331 59
10 3 5 8510.68 324.186 58
-10 -3 -5 8812.53 247.684 18
10 3 6 4371.63 202.95 60
10 3 6 4402.42 275.493 59
10 3 6 4180.01 226.173 58
-10 -3 -6 4154.37 174.658 18
-10 -3 -7 638.42 69.8614 16
10 3 7 638.901 94.4828 58
-10 -3 -7 669.407 76.2253 18
-10 -3 -8 1776.29 109.521 16
10 3 8 1796.62 346.177 39
10 3 8 1619.81 139.53 58
10 3 9 12746.4 860.533 39
10 3 9 13026.3 365.737 58
-10 -3 -9 12821.7 281.377 16
10 3 10 3291.6 423.985 39
-10 -3 -10 3106.69 147.713 12
10 3 10 3044.89 171.602 58
-10 -3 -10 3167.77 153.207 20
10 3 11 772.047 231.785 39
-10 -3 -11 618.016 70.6074 12
-10 -3 -11 633.782 70.5343 20
-10 -3 -12 24.0541 33.4818 12
-10 -3 -12 23.1142 27.1342 20
-10 -3 -13 939.3 77.3047 12
-10 -3 -13 985.718 72.1977 20
-10 -3 -14 748.084 62.6442 12
-10 -3 -14 648.919 49.751 20
-10 -3 -15 1038.93 60.7773 12
-10 -4 5 561.232 38.1844 8
-10 -4 4 813.383 57.0642 8
-10 -4 3 41.8264 30.0807 8
10 4 -3 -65.7306 41.6851 58
-10 -4 2 4413.6 157.99 8
10 4 -2 4264.13 219.889 58
-10 -4 1 114.56 34.9536 8
10 4 -1 118.673 51.0095 64
10 4 -1 124.332 60.5217 58
-10 -4 0 498.873 55.2792 16
-10 -4 0 506.578 62.1349 8
10 4 0 533.595 80.8832 64
10 4 0 536.217 95.9947 58
-10 -4 -1 61.6849 27.9595 16
-10 -4 -1 55.8887 28.136 8
10 4 1 120.824 46.4647 64
-10 -4 -2 15155.1 308.215 8
10 4 2 15361 368.593 64
10 4 2 15943.8 536.509 59
10 4 2 15954.8 472.785 58
-10 -4 -2 15250.8 313.776 18
10 4 2 15949.4 485.25 46
-10 -4 -3 13987.7 288.467 8
10 4 3 13478.8 336.443 64
10 4 3 14120.7 514.274 59
10 4 3 13824.7 440.402 58
-10 -4 -3 14108.9 308.031 18
10 4 3 14160 461.337 46
10 4 4 877.557 149.974 59
10 4 4 721.568 112.396 58
-10 -4 -4 683.265 72.4462 18
10 4 5 65.057 47.5006 60
10 4 5 17.7417 88.6448 59
10 4 5 29.6526 56.3346 58
-10 -4 -5 16.8882 26.0062 18
10 4 6 1126.14 311.81 39
10 4 6 1240.66 120.561 60
10 4 6 1101.77 158.329 59
10 4 6 1089.99 129.609 58
-10 -4 -6 1096.04 92.0509 18
10 4 7 1190.29 330.388 39
10 4 7 1161.47 116.165 60
10 4 7 1203.05 132.689 58
-10 -4 -7 1346.98 102.862 18
10 4 8 1782.87 351.477 39
10 4 8 1987.37 141.335 60
10 4 8 1863.17 152.511 58
-10 -4 -8 2058.01 128.822 18
-10 -4 -9 78.289 30.6592 16
10 4 9 231.176 155.942 39
-10 -4 -9 117.287 38.1688 12
10 4 9 174.694 55.4182 60
10 4 9 159.956 63.1686 58
-10 -4 -10 919.73 84.9453 12
10 4 10 868.991 100.373 58
-10 -4 -10 941.207 83.6359 20
-10 -4 -11 7840.6 232.463 12
10 4 11 7579.59 259.203 58
-10 -4 -11 7548.32 219.195 20
-10 -4 -12 3642.73 153.963 12
-10 -4 -12 3476.94 139.464 20
-10 -4 -13 845.262 73.2323 12
-10 -4 -13 768.941 59.0307 20
-10 -4 -14 1009.6 71.1766 12
-10 -4 -15 32.1208 19.2298 12
10 5 -4 1250.37 72.1462 9
-10 -5 4 1327.04 69.2975 8
-10 -5 3 2215.27 101.867 8
10 5 -3 2290.31 109.985 9
-10 -5 2 131.648 36.9983 8
10 5 -2 86.8148 48.8596 58
-10 -5 1 245.18 46.8018 8
10 5 -1 296.753 67.2659 64
10 5 -1 283.045 76.7036 58
-10 -5 0 5580.51 170.853 16
-10 -5 0 5497.84 185.166 8
10 5 0 5867.97 240.283 64
10 5 0 5607.9 276.626 58
-10 -5 0 5480.13 178.68 18
-10 -5 -1 1326.39 94.5637 8
10 5 1 1483.08 125.871 64
10 5 1 1539.49 157.399 58
-10 -5 -1 1381.6 96.4274 18
-10 -5 -2 3432.74 145.863 8
10 5 2 3393.36 183.453 64
10 5 2 3366.07 248.293 59
10 5 2 3546.43 234.551 58
-10 -5 -2 3471.87 153.425 18
-10 -5 -3 2903.26 130.522 8
10 5 3 3315.06 258.006 59
10 5 3 3235.52 224.679 58
-10 -5 -3 3043.75 149.499 18
10 5 3 3105.26 223.748 46
10 5 4 430.001 84.5926 60
10 5 4 362.111 118.688 59
10 5 4 346.445 94.574 58
-10 -5 -4 465.27 62.2478 18
10 5 5 38.3593 56.0551 60
10 5 5 1.5238 95.4458 59
10 5 5 32.1432 61.1615 58
-10 -5 -5 77.3728 38.6205 18
10 5 6 6564.44 702.542 39
10 5 6 6607.66 284.275 60
10 5 6 6726.42 361.259 59
10 5 6 6365.14 298.077 58
-10 -5 -6 6283.75 216.92 18
10 5 7 4788.71 597.752 39
10 5 7 5275.14 247.421 60
10 5 7 4968.61 256.205 58
-10 -5 -7 5129.31 197.394 18
10 5 8 10352.1 824.567 39
-10 -5 -8 11010.5 270.886 12
10 5 8 10400.7 336.706 60
10 5 8 10217.1 349.236 58
-10 -5 -8 10763 283.239 18
10 5 9 99.9186 152.454 39
-10 -5 -9 116.252 38.1802 12
10 5 9 105.112 53.0207 60
10 5 10 2186.64 374.678 39
-10 -5 -10 2363.36 129.812 12
10 5 10 2107.75 143.11 60
-10 -5 -10 2256.09 122.053 20
-10 -5 -11 142.719 42.023 12
10 5 11 203.512 54.8836 60
-10 -5 -11 136.436 36.2016 20
-10 -5 -12 510.566 61.2336 12
10 5 12 532.053 64.9784 60
10 5 12 524.796 71.296 58
-10 -5 -12 525.375 52.0415 20
-10 -5 -13 1061.83 78.498 12
-10 -5 -14 745.157 59.3326 12
-10 -6 4 371.215 36.6845 8
-10 -6 3 6468.82 163.308 8
10 6 -3 6284.13 181.642 9
-10 -6 2 888.921 70.4315 8
10 6 -2 990.084 102.374 64
-10 -6 1 455.018 57.1188 8
10 6 -1 564.977 87.0772 64
10 6 -1 414.423 73.0879 58
-10 -6 1 471.382 53.0911 18
-10 -6 0 5768.54 169.253 16
-10 -6 0 5868.9 185.331 8
10 6 0 6490.29 260.365 64
10 6 0 5370.98 249.819 58
-10 -6 0 6072.5 190.935 18
-10 -6 -1 124.912 35.3281 8
10 6 1 62.1611 53.3773 64
10 6 1 76.7048 52.4348 58
-10 -6 -1 65.7236 33.4635 18
-10 -6 -2 258.249 44.6746 8
10 6 2 273.663 65.8029 64
10 6 2 93.0156 68.2588 59
10 6 2 314.04 86.6084 58
-10 -6 -2 300.866 52.8501 18
-10 -6 -3 141.994 35.4 8
10 6 3 80.109 75.9579 59
10 6 3 123.095 77.1933 58
-10 -6 -3 144.696 42.8587 18
10 6 4 2966.46 207.324 60
10 6 4 2926.64 233.05 59
10 6 4 3117.39 225.926 58
-10 -6 -4 2809.34 144.232 18
10 6 5 3948.7 235.901 60
10 6 5 4110.99 278.862 59
10 6 5 3935.69 252.838 58
-10 -6 -5 3738.68 168.091 18
10 6 6 2616.83 192.133 60
10 6 6 2377.33 215.386 59
10 6 6 2588.19 200.813 58
-10 -6 -6 2386.83 136.608 18
10 6 7 -7.91771 115.245 39
-10 -6 -7 0.53308 28.2169 12
10 6 7 -28.4463 58.4539 60
10 6 7 -27.5721 66.4793 58
-10 -6 -7 -21.0088 34.1767 18
10 6 7 -10.1996 33.8984 44
10 6 8 3692.31 488.658 39
-10 -6 -8 4347.42 172.629 12
10 6 8 4317.6 228.738 60
10 6 8 4052.26 229.56 58
-10 -6 -8 4286.78 179.751 18
10 6 8 4026.86 178.781 44
10 6 9 -14.2791 154.419 39
-10 -6 -9 -7.07929 29.361 12
10 6 9 15.0322 45.7506 60
-10 -6 -10 163.272 41.9148 12
10 6 10 140.447 57.3966 60
-10 -6 -10 142.162 35.7038 20
-10 -6 -11 113.833 39.8255 12
10 6 11 162.595 56.1597 60
-10 -6 -11 200.338 35.0875 20
-10 -6 -12 78.1791 34.4973 12
10 6 12 65.4324 41.588 60
-10 -6 -13 196.473 39.3095 12
10 6 13 218.522 43.5972 60
10 6 13 148.922 44.2594 58
-10 -6 -14 196.788 32.6344 12
-10 -7 3 494.999 45.8115 8
10 7 -3 485.538 53.4218 9
-10 -7 2 39.4175 27.4087 8
10 7 -2 66.7588 34.4138 61
-10 -7 2 -7.63634 16.7897 18
-10 -7 1 -14.6336 25.5683 8
10 7 -1 -18.9143 51.7262 64
10 7 -1 -3.38427 32.806 61
-10 -7 1 45.5985 31.1061 18
-10 -7 0 632.375 64.1528 8
10 7 0 810.848 100.929 64
10 7 0 787.147 78.1557 61
10 7 0 528.42 79.7408 58
-10 -7 0 758.267 70.7923 18
-10 -7 -1 1373.75 90.6574 8
10 7 1 1676.84 140.977 64
10 7 1 1368.91 131.955 58
-10 -7 -1 1450.34 98.543 18
-10 -7 -2 566.303 59.5995 8
10 7 2 616.232 89.4605 64
10 7 2 493.008 89.174 58
-10 -7 -2 562.786 67.8364 18
10 7 3 3368.82 214.002 59
10 7 3 3465.7 222.375 58
-10 -7 -3 3689.16 161.797 18
10 7 4 7849.06 324.751 60
10 7 4 7237.13 324.698 59
10 7 4 7689.69 332.292 58
-10 -7 -4 7420.85 231.198 18
10 7 5 -18.827 68.5724 60
10 7 5 88.8705 78.0025 59
10 7 5 73.1228 69.4436 58
-10 -7 -5 62.663 41.6346 18
-10 -7 -6 143.431 37.7705 12
10 7 6 144.058 75.9916 60
10 7 6 225.844 103.201 59
10 7 6 183.205 74.4906 58
-10 -7 -6 120.599 42.0667 18
-10 -7 -7 735.469 72.643 12
10 7 7 754.758 108.299 60
10 7 7 872.073 122.606 58
-10 -7 -7 724.025 77.1749 18
10 7 7 695.868 89.9886 44
-10 -7 -8 18494.7 348.417 12
10 7 8 18913.1 460.68 60
10 7 8 19217.3 484.771 58
-10 -7 -8 19279.7 365.055 18
10 7 8 18349 389 44
-10 -7 -9 7608.48 223.284 12
10 7 9 7629.99 281.176 60
10 7 9 7365.89 232.468 44
-10 -7 -10 7215.74 212.737 12
10 7 10 7044.01 256.178 60
10 7 10 6866.59 207.502 44
-10 -7 -11 28.3606 29.1068 12
10 7 11 -27.1373 41.3668 60
-10 -7 -12 39.9126 29.1842 12
10 7 12 50.8655 36.7786 60
-10 -7 -13 1762.9 87.321 12
10 7 13 1751.77 94.9424 60
10 7 13 1931.47 107.23 58
-10 -7 -14 3445.44 100.562 12
-10 -8 3 3984.62 102.258 8
-10 -8 2 35.7035 20.9601 8
10 8 -2 72.5843 29.2574 61
-10 -8 2 52.5212 20.2759 18
-10 -8 1 550.729 53.7501 8
10 8 -1 514.845 69.7802 64
10 8 -1 613.705 66.6342 61
-10 -8 1 548.434 52.7066 18
-10 -8 0 1040.95 73.8562 8
10 8 0 1150.7 104.158 64
10 8 0 1216.7 94.5352 61
-10 -8 0 1132.55 79.8296 18
-10 -8 -1 684.066 61.895 8
10 8 1 747.397 95.6397 64
10 8 1 742.466 78.5208 61
10 8 1 521.216 74.6611 58
-10 -8 -1 726.548 70.6751 18
-10 -8 -2 894.41 69.2598 8
10 8 2 1006.84 111.329 64
10 8 2 1041.81 91.3769 61
10 8 2 980.069 108.382 58
-10 -8 -2 1064.51 86.5725 18
10 8 3 78.9389 37.6185 61
10 8 3 -13.4988 62.2352 58
-10 -8 -3 -7.45029 30.2775 18
10 8 4 2707.82 186.882 60
10 8 4 2752.71 187.601 58
-10 -8 -4 2652.16 135.31 18
10 8 5 203.701 71.5498 60
10 8 5 242.558 84.1622 59
10 8 5 227.802 73.2816 58
-10 -8 -5 258.228 52.0744 18
-10 -8 -6 13142.8 279.877 12
10 8 6 14175.9 405.583 60
10 8 6 12799.2 401.018 59
10 8 6 14151.2 417.469 58
-10 -8 -6 13562 298.958 18
-10 -8 -7 1268.06 91.1245 12
10 8 7 1440.36 139.556 60
10 8 7 1343.33 142.058 59
10 8 7 1418.56 141.313 58
-10 -8 -7 1277.55 96.3652 18
10 8 7 1299.76 113.256 44
-10 -8 -8 1519.32 99.312 12
10 8 8 1501 136.582 60
10 8 8 1545.58 140.197 58
-10 -8 -8 1435.61 97.6725 18
10 8 8 1292.53 108.201 44
-10 -8 -9 2626.76 126.834 12
10 8 9 2793.5 171.297 60
10 8 9 2601.06 140.237 44
-10 -8 -10 1016.22 79.9303 12
10 8 10 984.687 100.92 60
10 8 10 838.439 75.31 44
-10 -8 -11 145.167 34.4072 12
10 8 11 141.947 51.5106 60
10 8 11 142.291 33.6802 44
-10 -8 -12 652.34 56.236 12
10 8 12 707.124 73.2428 60
10 8 12 677.939 74.6525 58
-10 -8 -13 534.909 44.7333 12
10 8 13 549.942 53.9971 60
10 8 13 613.257 58.1207 58
-10 -9 2 143.818 24.0309 8
-10 -9 1 20.3178 17.1075 8
10 9 -1 15.7511 30.4376 64
10 9 -1 30.1654 28.0222 61
-10 -9 1 49.3669 22.2041 18
-10 -9 0 51.3065 22.3354 8
10 9 0 -2.09785 34.4116 64
10 9 0 12.207 26.7506 61
-10 -9 0 33.5301 24.8602 18
-10 -9 -1 4515.18 133.732 8
10 9 1 4945.92 195.156 64
-10 -9 -1 4624.71 153.624 18
-10 -9 -2 5785.85 149.027 8
10 9 2 6353.31 229.881 64
10 9 2 6557.43 206.189 61
-10 -9 -2 6075.87 182.438 18
10 9 3 73.5388 35.3767 61
10 9 3 98.5302 49.4268 58
-10 -9 -3 101.83 35.5893 18
10 9 4 127.456 42.2584 61
10 9 4 91.2968 54.6154 58
-10 -9 -4 113.232 40.8842 18
-10 -9 -5 556.8 58.3416 12
10 9 5 489.337 61.4231 61
10 9 5 532.276 90.7554 60
10 9 5 661.944 96.4536 58
-10 -9 -5 579.452 63.8227 18
-10 -9 -6 4.6826 20.5999 12
10 9 6 25.9738 57.7848 60
10 9 6 23.8421 55.1563 58
-10 -9 -6 -23.7008 32.1419 18
-10 -9 -7 47.2252 25.7194 12
10 9 7 19.7955 57.0519 60
10 9 7 47.6884 57.7541 59
10 9 7 30.9535 46.304 58
-10 -9 -7 15.2124 25.8128 18
10 9 7 -9.88722 46.3068 44
-10 -9 -8 22.5888 24.2387 12
10 9 8 -12.9822 53.2442 60
10 9 8 72.2971 57.7261 59
10 9 8 16.2041 49.6439 58
-10 -9 -8 -17.1749 25.1918 18
10 9 8 21.4695 37.6815 44
-10 -9 -9 -2.52573 26.8929 12
10 9 9 62.6089 51.3499 60
10 9 9 66.8338 55.5766 58
10 9 9 -30.4435 36.7337 44
-10 -9 -10 3299.14 126.144 12
10 9 10 3283.87 157.62 60
10 9 10 3556.2 169.345 58
10 9 10 3346.86 134.82 44
-10 -9 -11 2148.11 95.6406 12
10 9 11 2180.27 118.532 60
10 9 11 2149.59 123.004 58
10 9 11 1993.27 91.4769 44
-10 -9 -12 5132.55 129.485 12
10 9 12 4861.85 150.28 60
10 9 12 4996.85 161.072 58
-10 -10 1 3602.09 94.2592 18
-10 -10 0 602.861 40.4452 8
10 10 0 704.584 58.9944 64
10 10 0 748.221 57.7575 61
-10 -10 0 658.553 49.2997 18
-10 -10 -1 1486.54 64.093 8
10 10 1 1777.81 101.637 64
10 10 1 1839.96 95.6934 61
-10 -10 -1 1721.86 83.8361 18
10 10 2 1025.38 85.2321 64
10 10 2 1102.73 79.5928 61
-10 -10 -2 1034.77 71.0042 18
10 10 3 1410.9 90.9442 61
-10 -10 -3 1303.41 80.2032 18
10 10 4 43.6905 28.9092 61
10 10 4 6.29107 31.3705 58
-10 -10 -4 45.4711 26.2066 18
-10 -10 -5 394.454 45.679 12
10 10 5 389.146 52.8022 61
10 10 5 363.547 62.1055 58
-10 -10 -5 307.181 43.621 18
-10 -10 -6 3.34922 20.3262 12
10 10 6 -2.3914 25.8414 61
10 10 6 -22.4633 46.4678 60
10 10 6 -23.564 43.5202 58
-10 -10 -6 11.2815 23.7447 18
-10 -10 -7 5229.71 155.802 12
10 10 7 5396.46 202.488 60
10 10 7 5105.61 199.475 58
-10 -10 -7 5315.81 150.93 18
-10 -10 -8 399.292 46.1842 12
10 10 8 328.387 61.8886 60
10 10 8 374.738 65.467 58
-10 -10 -9 38.927 22.4896 12
10 10 9 -4.93663 39.2535 60
10 10 9 68.6451 42.191 58
10 10 9 18.4834 27.911 44
-10 -10 -10 1632.79 77.9595 12
10 10 10 1590.78 98.1308 60
10 10 10 1646.52 103.417 58
10 10 10 1571.24 83.9474 44
-10 -10 -11 110.068 22.6754 12
10 10 11 145.177 34.173 60
-10 -11 -1 483.185 37.1854 18
10 11 2 1195.42 71.6862 64
10 11 2 1261.86 69.5142 61
-10 -11 -2 1177.87 61.581 18
10 11 3 2644.96 111.716 64
10 11 3 2619.82 101.23 61
-10 -11 -3 2505.15 91.4632 18
10 11 4 1193.75 71.124 61
-10 -11 -4 1148.27 64.1382 18
-10 -11 -5 369.103 38.2004 12
10 11 5 408.81 44.8445 61
-10 -11 -5 380.309 40.1014 18
-10 -11 -6 225.018 31.3849 12
10 11 6 124.602 28.0793 61
10 11 6 186.619 39.5598 58
-10 -11 -6 163.314 26.8055 18
-10 -11 -7 3061.38 102.632 12
10 11 7 2773.6 94.8741 61
10 11 7 2766.13 116.274 58
-10 -11 -8 938.801 57.1626 12
10 11 8 948.129 72.663 60
10 11 8 939.215 71.0528 58
-10 -11 -9 2608.59 86.6503 12
10 11 9 2526.96 104.153 60
10 11 9 2326.12 99.9667 58
-11 6 -2 -17.7712 17.7332 8
11 -6 2 29.0749 21.9589 51
-11 6 -3 26.1917 16.9524 8
11 -6 3 -34.7975 23.3649 51
-11 6 -4 245.592 27.062 11
11 -6 4 224.655 42.2538 51
-11 6 -4 264.955 31.1941 8
-11 6 -5 430.964 38.3418 11
11 -6 5 430.483 47.1407 53
11 -6 5 501.203 54.9257 51
-11 6 -6 897.57 54.7192 11
11 -6 6 751.055 55.117 57
11 -6 6 869.519 67.1359 53
11 -6 6 942.545 69.0272 51
-11 6 -7 313.84 31.6079 14
-11 6 -7 322.793 34.6964 11
11 -6 7 265.624 36.3812 57
11 -6 7 273.032 40.2589 53
-11 6 -8 117.887 22.8997 11
11 -6 8 109.324 26.7648 57
11 -6 8 149.007 33.0397 53
-11 6 -9 128.051 22.0212 11
11 -6 9 113.509 26.798 57
11 -6 9 127.21 29.176 53
-11 5 0 131.269 22.4763 8
11 -5 0 200.162 33.5742 51
11 -5 1 2908.67 127.36 51
-11 5 -1 3078.44 99.3607 8
11 -5 2 1221.73 91.1797 51
-11 5 -2 1237.59 68.152 8
-11 5 -3 838.777 51.3366 11
11 -5 3 804.512 79.5569 51
-11 5 -3 795.091 57.3631 8
-11 5 -4 461.515 45.1705 11
11 -5 4 427.153 52.8787 53
11 -5 4 515.915 66.8756 51
-11 5 -4 475.731 46.9287 8
-11 5 -5 516.855 50.3144 11
11 -5 5 413.772 47.4542 57
11 -5 5 353.537 52.5022 53
11 -5 5 465.281 65.7433 51
-11 5 -5 447.653 43.2119 8
-11 5 -6 -50.3055 20.1263 8
-11 5 -6 9.1681 21.8691 11
11 -5 6 34.7231 25.5912 53
11 -5 6 8.62903 33.4171 51
-11 5 -7 1008.88 68.9304 11
11 -5 7 852.219 82.0154 53
11 -5 7 846.046 80.8905 51
-11 5 -8 308.094 41.7399 11
11 -5 8 300.47 52.2958 53
11 -5 8 342.113 49.1022 51
-11 5 -9 2257.29 92.2414 11
11 -5 9 2270.29 118.755 53
-11 5 -10 184.825 28.4263 11
11 -5 10 214.961 40.2229 53
11 -4 -1 485.641 49.2284 51
-11 4 1 585.367 41.7767 8
11 -4 0 1001.62 79.9378 51
-11 4 0 1149.22 65.8708 8
-11 4 -1 13.7291 23.2692 8
11 -4 1 -0.43319 31.6187 51
11 -4 2 3842.38 178.456 51
-11 4 -2 4014.54 135.229 8
-11 4 -3 30.8665 24.9498 8
-11 4 -3 24.594 20.7688 11
11 -4 3 28.7165 33.8637 51
-11 4 -4 1544.71 87.9763 11
11 -4 4 1331.24 99.0675 53
11 -4 4 1417.25 122.829 51
-11 4 -4 1321.88 80.7745 8
-11 4 -5 2941.82 124.04 11
11 -4 5 2628.21 142.674 53
11 -4 5 2825.5 169.271 51
-11 4 -5 2990.11 115.524 8
-11 4 -6 4110.54 148.056 11
11 -4 6 3756.2 176.353 53
11 -4 6 4030.97 199.245 51
-11 4 -6 3803.79 122.927 8
-11 4 -7 390.873 52.8038 11
11 -4 7 294.511 58.3952 53
11 -4 7 290.659 64.8642 51
-11 4 -8 849.88 70.3894 11
11 -4 8 928.093 94.6283 53
11 -4 8 856.237 93.2073 51
-11 4 -9 1023.28 71.4714 11
11 -4 9 1083.83 97.9891 53
11 -4 9 1095.57 95.1236 51
-11 4 -10 19.0087 18.4968 11
11 -4 10 48.8331 36.5638 53
-11 4 -11 47.8168 21.0774 11
11 -4 11 26.6423 25.5239 53
-11 3 2 2006.89 71.8947 8
11 -3 -1 1654.15 97.0445 51
-11 3 1 1895.13 82.983 8
-11 3 0 112.042 30.3715 8
11 -3 0 109.554 39.8769 51
-11 3 -1 -20.4927 27.3094 8
11 -3 1 -30.5379 30.5761 58
-11 3 -2 3835.57 128.03 11
11 -3 2 3633.79 189.243 51
-11 3 -2 3813.33 140.561 8
-11 3 -3 201.137 40.707 8
-11 3 -3 252.691 40.0076 11
11 -3 3 296.593 70.1736 51
-11 3 -4 7158.41 198.375 11
11 -3 4 6707.8 274.486 51
-11 3 -4 7161.67 194.238 8
-11 3 -5 28.3483 27.7107 8
-11 3 -5 42.6325 30.9144 11
11 -3 5 12.4545 30.7877 53
11 -3 5 -25.3166 66.9274 51
11 -3 5 4.98376 42.9169 46
-11 3 -6 739.551 70.9794 11
11 -3 6 614.304 80.8166 53
11 -3 6 684.969 101.828 51
11 -3 6 608.801 83.1901 46
-11 3 -7 176.295 42.9581 11
11 -3 7 72.3116 55.9734 51
11 -3 7 125.621 49.5636 46
-11 3 -8 7982.28 214.672 11
11 -3 8 7778.76 292.16 51
11 -3 8 7859.37 246.755 46
-11 3 -9 1793.24 100.905 11
-11 3 -9 1631.38 85.7262 20
11 -3 9 1757.62 140.086 51
-11 3 -10 678.174 59.6024 11
-11 3 -10 697.474 57.2535 20
11 -3 10 667.353 83.3971 51
-11 3 -11 3361.53 108.031 11
-11 3 -11 3508.07 114.465 20
11 -3 11 3695.12 157.064 51
-11 3 -12 224.87 29.4148 20
11 -2 -2 710.107 52.533 10
-11 2 2 838.66 53.6408 8
11 -2 -1 280.784 48.763 58
11 -2 -1 292.184 38.5986 10
11 -2 -1 214.808 44.9331 51
-11 2 1 300.141 40.0491 8
11 -2 0 1083.9 91.3282 58
11 -2 0 1016.49 97.2754 51
-11 2 0 1154.34 76.3858 8
11 -2 1 7078.21 225.493 58
-11 2 -1 7261.66 192.854 8
11 -2 2 419.128 63.6362 58
11 -2 2 393.409 79.9035 51
-11 2 -2 419.606 54.2671 8
-11 2 -2 402.415 52.7517 16
11 -2 3 6965.92 224.953 58
11 -2 3 7056.06 293.71 51
11 -2 3 6842.69 270.347 46
-11 2 -3 7151.71 198.325 8
-11 2 -3 6885.33 204.52 16
-11 2 -4 57.1939 37.4218 16
-11 2 -4 -8.34422 28.4945 8
11 -2 4 -12.8384 63.8744 51
11 -2 4 17.3224 46.7698 46
11 -2 5 2196.47 146.445 53
11 -2 5 2640.17 192.229 51
11 -2 5 2407.72 167.88 46
-11 2 -5 2419.55 114.316 8
-11 2 -5 2540.2 130.077 16
11 -2 6 4940.26 260.282 51
11 -2 6 4602.08 223.76 46
-11 2 -6 4803.28 175.9 16
-11 2 -7 4552.11 153.996 20
11 -2 7 4672.73 251.141 51
11 -2 7 4595.72 219.511 46
-11 2 -7 4521.93 167.272 16
-11 2 -8 2860.98 135.531 11
-11 2 -8 2773.28 123.537 20
11 -2 8 2648.81 192.035 51
11 -2 8 2813.81 169.441 46
-11 2 -8 2838.57 128.194 16
-11 2 -9 2403.13 120.662 11
-11 2 -9 2286.51 111.892 20
11 -2 9 2237.45 171.37 51
11 -2 9 2331.69 143.468 46
-11 2 -10 27.1828 26.5746 11
-11 2 -10 32.9047 27.5039 20
11 -2 10 88.5442 56.7738 51
-11 2 -11 50.143 24.2167 11
-11 2 -11 126.238 32.8571 20
11 -2 11 158.024 59.0315 51
-11 2 -12 281.964 38.5567 20
11 -2 12 202.198 50.3741 51
-11 2 -13 1555.09 70.1967 20
11 -1 -3 359.539 38.3164 10
-11 1 3 416.463 34.4509 8
11 -1 -2 4748.3 144.787 10
-11 1 2 4859.63 131.896 8
11 -1 -1 372.249 59.5186 58
11 -1 -1 312.81 43.9274 10
-11 1 1 368.188 46.2109 8
11 -1 0 957.177 91.1841 58
11 -1 0 757.068 87.8072 51
-11 1 0 909.966 72.3445 8
-11 1 -1 142.124 34.705 16
-11 1 -1 133.808 38.4861 8
11 -1 1 236.342 58.5829 58
11 -1 1 118.462 50.914 51
-11 1 -2 39.3592 29.0898 16
-11 1 -2 55.9453 32.7752 8
11 -1 2 83.0047 42.7425 58
11 -1 2 110.273 52.128 51
11 -1 2 45.8576 44.748 46
11 -1 3 8034.17 261.185 58
11 -1 3 8685.45 343.545 51
11 -1 3 8180.58 310.427 46
-11 1 -3 8464.45 220.453 8
-11 1 -3 8515.68 232.118 16
-11 1 -4 334.154 56.989 16
11 -1 4 411 66.8011 58
11 -1 4 356.058 83.4948 51
11 -1 4 185.677 64.4182 46
-11 1 -4 408.549 51.6876 8
-11 1 -5 1196.11 82.4349 20
11 -1 5 1257.53 143.184 51
11 -1 5 1189.37 128.481 46
-11 1 -5 1232.8 83.5045 8
-11 1 -5 1318.5 97.842 16
-11 1 -6 391.445 53.0697 20
11 -1 6 310.054 92.065 51
11 -1 6 235.9 74.2962 46
-11 1 -6 421.159 60.4536 16
11 -1 7 3105.23 177.559 59
-11 1 -7 2993.33 135.894 20
11 -1 7 3004.65 217.94 51
11 -1 7 2852.66 184.125 46
-11 1 -7 3100.09 143.345 16
-11 1 -8 205.176 43.9902 16
-11 1 -8 220.849 46.1911 20
11 -1 8 467.958 103.083 51
11 -1 8 206.984 65.6505 46
11 -1 8 382.914 203.553 42
-11 1 -9 1289.98 91.7644 20
11 -1 9 1409.39 153.552 51
11 -1 9 1324.76 123.33 46
-11 1 -9 1356.84 88.5984 16
-11 1 -10 3437.65 137.393 11
-11 1 -10 3588.65 146.222 20
11 -1 10 3471.86 173.939 46
-11 1 -11 251.348 38.6559 11
-11 1 -11 223.709 43.401 20
-11 1 -12 49.6755 28.7431 20
11 -1 12 184.357 62.9073 51
-11 1 -13 76.7727 24.113 20
11 -1 13 65.1102 33.0796 51
-11 1 -14 89.2856 19.2639 20
11 0 -3 2688.1 104.409 10
-11 0 3 2659.56 87.1626 8
-11 0 2 42.4798 21.8808 8
11 0 -2 -0.98756 34.4014 58
11 0 -2 -8.53878 24.7342 10
-11 0 1 75.5323 30.1247 8
11 0 -1 38.1399 40.8977 58
11 0 -1 31.3118 25.0385 10
-11 0 0 -0.73047 29.4169 8
11 0 0 48.4961 44.4483 58
11 0 0 21.1301 28.208 10
11 0 1 2370.27 152.472 58
11 0 1 2229.39 166.155 51
11 0 1 2157.64 159.315 46
-11 0 -1 2038.45 110.144 8
-11 0 -1 1975.12 104.804 16
-11 0 -2 213.518 42.0188 16
-11 0 -2 141.526 38.3055 8
11 0 2 113.389 53.8082 58
11 0 2 137.647 56.8812 46
-11 0 -3 134.054 41.1508 16
-11 0 -3 123.134 34.288 8
11 0 3 70.8564 41.679 58
11 0 3 122.857 59.0752 51
11 0 3 97.2379 53.9905 46
11 0 4 4301.44 201.817 58
11 0 4 4815.93 273.04 51
11 0 4 4345.07 237.308 46
-11 0 -4 4436.99 158.03 8
-11 0 -4 4146.82 169.218 16
11 0 5 7795.46 310.801 59
11 0 5 8079.32 270.338 58
11 0 5 7763.4 348.16 51
11 0 5 7871.97 316.297 46
-11 0 -5 7776.45 229.957 16
11 0 6 3253.65 200.693 59
11 0 6 3478.79 173.239 58
11 0 6 3437.45 238.281 51
11 0 6 3460.48 213.143 46
-11 0 -6 3535.79 156.611 16
11 0 7 2432.8 172.319 59
-11 0 -7 2382.91 128.002 20
11 0 7 2137.07 167.348 46
-11 0 -7 2262.82 124.016 16
11 0 8 5848.18 253.315 59
-11 0 -8 6222.73 204.316 20
11 0 8 5611.46 256.848 46
-11 0 -8 5929.02 193.514 16
11 0 9 4239.49 208.202 59
-11 0 -9 4291.87 170.284 20
11 0 9 4076.16 213.119 46
-11 0 -9 4035.68 151.974 16
-11 0 -10 3339.26 146.687 20
11 0 10 3178.75 181.145 46
-11 0 -10 2904.8 119.064 16
-11 0 -11 1394.64 94.0721 20
11 0 11 1588.19 122.595 46
-11 0 -12 3.44996 25.2962 20
-11 0 -13 1104.97 69.1194 20
-11 0 -14 987.492 55.6223 20
11 1 -3 4179.07 134.213 10
-11 -1 3 4271.52 113.51 8
11 1 -2 2990.45 154.467 58
11 1 -2 3020.72 124.763 10
-11 -1 2 2933.47 108.89 8
11 1 -1 1058.88 103.326 58
11 1 -1 1172.99 83.6591 10
-11 -1 1 1087.42 75.7168 8
11 1 0 5334.51 229.478 58
-11 -1 0 5470.75 171.361 8
11 1 1 20686.1 453.767 58
11 1 1 20198.9 485.658 46
-11 -1 -1 20776.7 340.504 8
-11 -1 -1 20264.8 330.748 16
11 1 2 651.177 92.7735 58
11 1 2 474.689 92.4091 51
11 1 2 604.992 95.5059 46
-11 -1 -2 614.685 64.3391 8
-11 -1 -2 670.55 67.8225 16
11 1 3 1044.97 109.994 58
11 1 3 929.599 126.316 51
11 1 3 1017.05 123.762 46
-11 -1 -3 1043.15 79.4367 8
-11 -1 -3 1098.74 88.6063 16
11 1 4 7245.76 319.774 59
11 1 4 7267.92 274.375 58
11 1 4 7523.88 348.618 51
11 1 4 7110.86 308.575 46
-11 -1 -4 6965.15 195.903 8
-11 -1 -4 6830.33 215.204 16
11 1 5 4086.14 242.556 59
11 1 5 4020.33 202.769 58
11 1 5 4152.88 265.006 51
11 1 5 4424.25 244.455 46
-11 -1 -5 4139.97 171.249 16
11 1 6 6430.27 294.514 59
11 1 6 6422.63 249.685 58
11 1 6 6697.91 297.379 46
-11 -1 -6 6897.04 217.833 16
11 1 7 5043.53 257.536 59
11 1 7 4915.47 212.656 58
11 1 7 4816.59 252.537 46
-11 -1 -7 5036.63 184.719 16
11 1 8 11636.5 374.219 59
-11 -1 -8 11888.1 287.735 20
11 1 8 11316.2 372.079 46
-11 -1 -8 11470.7 269.343 16
11 1 8 10527.3 697.164 42
11 1 9 6082.56 264.566 59
-11 -1 -9 6234.84 208.357 20
-11 -1 -9 5785.01 183.756 16
11 1 9 5791.99 514.389 42
-11 -1 -10 47.8405 24.8109 16
11 1 10 117.476 65.8672 59
-11 -1 -10 99.4807 37.1657 20
11 1 11 4581.14 201.076 59
-11 -1 -11 4770.92 171.046 20
11 1 11 4791.66 212.532 46
-11 -1 -12 33.7074 29.9734 20
11 1 12 72.385 48.8514 46
-11 -1 -13 148.006 32.6418 20
-11 -1 -14 283.18 31.0253 20
-11 -2 3 14.7283 16.9382 8
11 2 -3 6.37087 26.391 58
11 2 -3 1.4263 22.7761 10
-11 -2 2 83.6862 27.7586 8
11 2 -2 68.1173 41.514 58
11 2 -1 494.951 78.4775 58
-11 -2 1 431.437 52.0996 8
11 2 0 5323.46 236.472 58
-11 -2 0 5195.94 166.925 8
-11 -2 -1 103.28 32.0971 16
-11 -2 -1 153.896 39.1176 8
11 2 1 107.363 52.2125 58
11 2 1 133.929 59.5205 46
11 2 2 339.243 75.0322 58
11 2 2 395.058 85.7266 46
-11 -2 -2 467.01 56.2424 8
-11 -2 -2 473.748 59.5619 16
11 2 3 6068.8 263.046 58
11 2 3 6157.85 311.091 51
11 2 3 6239.82 292.199 46
-11 -2 -3 6194.91 186.87 8
-11 -2 -3 6184.41 200.265 16
-11 -2 -4 250.878 52.1175 16
-11 -2 -4 301.516 45.7893 8
11 2 4 304.087 99.5617 59
11 2 4 318.544 74.3524 58
11 2 4 308.597 91.909 51
11 2 4 292.294 84.7585 46
11 2 5 2026.52 186.313 59
11 2 5 2159.76 157.613 58
11 2 5 2051.07 196.644 51
11 2 5 2272.7 184.123 46
-11 -2 -5 2118.59 123.831 16
-11 -2 -6 123.027 41.7707 16
11 2 6 175.98 88.2126 59
11 2 6 161.3 56.8204 58
11 2 6 130.656 73.4106 46
11 2 7 437.249 102.386 59
11 2 7 407.412 71.5036 58
-11 -2 -7 498.593 63.6404 16
11 2 8 9303.34 351.683 59
11 2 8 9329.03 294.274 58
11 2 8 8320.36 609.737 42
-11 -2 -8 9221.58 242.805 16
11 2 9 1107.69 129.687 59
-11 -2 -9 1249.6 98.8228 20
-11 -2 -9 1138.27 84.3513 16
11 2 10 6923.95 281.213 59
-11 -2 -10 6985.87 216.294 20
-11 -2 -10 6427.66 179.014 16
11 2 11 1335.84 123.812 59
-11 -2 -11 1368.68 95.0369 20
11 2 12 93.1128 56.4157 59
-11 -2 -12 40.7635 30.553 20
-11 -2 -13 1794.29 83.3817 12
-11 -2 -13 1672.41 85.9459 20
11 2 13 1928.54 110.072 46
-11 -2 -14 243.618 29.2713 20
-11 -3 3 -23.6409 18.9705 8
11 3 -3 31.1769 25.4279 58
11 3 -2 2694.16 150.752 58
-11 -3 2 2490.33 101.067 8
-11 -3 1 167.041 36.0384 8
11 3 -1 163.71 55.5245 58
11 3 0 991.64 113.485 58
-11 -3 0 993.266 75.4707 8
-11 -3 -1 131.111 33.3415 16
-11 -3 -1 186.515 40.8933 8
11 3 1 163.884 46.567 64
11 3 1 185.197 69.6901 58
-11 -3 -2 31.2739 32.3586 16
-11 -3 -2 48.4591 27.9511 8
11 3 2 108.085 36.9249 64
11 3 2 47.1365 51.4675 58
11 3 2 28.8482 53.2539 46
11 3 3 2852.79 221.892 59
11 3 3 2679 185.748 58
11 3 3 2992.78 209.422 46
-11 -3 -3 2739.32 123.062 8
-11 -3 -3 2761.5 135.43 16
-11 -3 -4 5931.42 199.785 16
11 3 4 6421.62 330.616 59
11 3 4 5920.7 267.68 58
11 3 4 5678.18 285.34 46
-11 -3 -4 5673.49 170.544 8
-11 -3 -5 923.64 84.7686 16
11 3 5 931.033 141.289 59
11 3 5 887.025 113.271 58
11 3 5 1086.85 151.201 51
-11 -3 -5 1102.29 83.3934 18
11 3 5 1110.98 135.077 46
-11 -3 -6 965.827 85.3392 16
11 3 6 939.129 141.362 59
11 3 6 984.17 115.226 58
-11 -3 -6 1052.34 84.5242 18
11 3 7 2606.81 206.47 59
11 3 7 2677.6 172.554 58
-11 -3 -7 2689.96 136.024 16
-11 -3 -8 -36.8765 39.6443 16
11 3 8 71.186 77.7748 59
11 3 8 -13.6396 51.3782 58
11 3 9 102.132 115.617 42
-11 -3 -9 330.169 49.7679 16
11 3 9 297.804 88.5338 59
11 3 9 301.975 63.8526 58
11 3 10 1027.67 125.548 59
11 3 10 973.715 95.4358 58
-11 -3 -10 981.804 84.2562 20
-11 -3 -10 1026.83 73.9614 16
11 3 11 294.779 77.5757 59
-11 -3 -11 223.104 44.629 20
-11 -3 -12 2039.51 98.1105 12
11 3 12 1864.32 138.019 59
-11 -3 -12 2033.53 103.773 20
-11 -3 -13 1598.48 80.1562 12
11 3 13 1642.7 112.377 59
-11 -3 -13 1530.03 78.7596 20
-11 -3 -14 485.24 39.7172 12
-11 -3 -14 439.065 35.5174 20
-11 -4 3 127.81 24.9943 8
11 4 -2 1464.34 105.852 58
-11 -4 2 1527.91 78.3716 8
11 4 -1 1107.69 110.127 58
-11 -4 1 1109.98 73.9329 8
11 4 0 571.795 92.3691 58
-11 -4 0 553.814 58.1834 8
-11 -4 -1 122.087 31.6032 16
-11 -4 -1 74.0756 31.1108 8
11 4 1 90.0275 43.1786 64
11 4 1 42.6491 53.7634 58
11 4 2 3050.77 152.932 64
11 4 2 2886.84 196.393 58
-11 -4 -2 2910.45 127.225 8
-11 -4 -2 2835.14 129.006 16
-11 -4 -3 39.6583 31.8045 16
-11 -4 -3 10.9549 21.9755 8
11 4 3 53.9074 33.4091 64
11 4 3 -50.8971 88.9427 59
11 4 3 64.1933 62.384 58
-11 -4 -3 59.9023 27.0802 18
11 4 3 137.948 66.665 46
-11 -4 -4 90.3125 36.5911 16
11 4 4 94.6776 36.14 64
11 4 4 90.7123 82.0155 59
11 4 4 76.8082 67.5137 58
-11 -4 -4 80.7556 32.315 18
11 4 4 173.041 75.1158 46
-11 -4 -5 71.4795 36.4976 16
11 4 5 69.3114 84.5264 59
11 4 5 131.422 71.2351 58
-11 -4 -5 126.25 37.6413 18
-11 -4 -6 2911.58 141.653 16
11 4 6 3392.87 249.706 59
11 4 6 2943.97 193.041 58
-11 -4 -6 3036.26 142.766 18
-11 -4 -7 -13.155 33.901 16
11 4 7 6.85705 35.0313 60
11 4 7 33.8622 90.4596 59
11 4 7 -9.64703 51.7411 58
-11 -4 -7 -18.3541 30.945 18
-11 -4 -8 82.243 34.4609 16
11 4 8 137.756 88.8364 59
11 4 8 106.016 54.3341 58
11 4 9 4660.37 255.873 59
11 4 9 4887.71 218.414 58
-11 -4 -9 4635.41 161.165 16
11 4 10 2946.22 162.888 58
-11 -4 -10 2942.55 136.703 20
-11 -4 -10 2551.88 110.645 16
-11 -4 -11 4395.78 149.414 12
11 4 11 4133.2 174.862 58
-11 -4 -11 4177.9 151.975 20
-11 -4 -12 3643.71 130.921 12
-11 -4 -12 3754.39 132.114 20
-11 -4 -13 4322.44 129.892 12
11 4 13 4549.56 184.959 59
-11 -4 -13 4007.17 116.966 20
-11 -4 -14 333.35 33.0273 12
-11 -5 3 -0.94949 14.7563 8
11 5 -2 999.373 78.405 58
-11 -5 2 1331.23 70.4139 8
11 5 -1 1374.72 109.495 58
-11 -5 1 1549.15 83.5097 8
-11 -5 0 436.93 49.8813 8
11 5 0 557.417 74.9288 64
11 5 0 503.163 81.5572 58
-11 -5 -1 5146.06 161.963 8
11 5 1 5511 212.829 64
11 5 1 5352.45 255.317 58
-11 -5 -1 5369.02 159.763 16
-11 -5 -2 6046.84 176.016 8
-11 -5 -2 6197.22 184.762 16
11 5 2 6625.17 232.216 64
11 5 2 6874.29 298.377 58
-11 -5 -2 6354.48 182.462 18
-11 -5 -3 858.62 76.1602 16
11 5 3 954.052 91.2595 64
11 5 3 894.933 136.864 59
11 5 3 1071.75 134.362 58
-11 -5 -3 899.16 75.2614 18
-11 -5 -3 840.696 67.1071 8
11 5 4 2956.43 151.355 64
11 5 4 3044.27 234.563 59
11 5 4 3195.9 211.728 58
-11 -5 -4 2948.5 136.886 18
11 5 4 3158.41 216.115 46
11 5 5 3612.89 163.24 64
11 5 5 4076.74 274.742 59
11 5 5 3875.93 230.052 58
-11 -5 -5 3711.28 156.082 18
11 5 6 391.265 74.8755 60
11 5 6 451.095 124.433 59
11 5 6 460.621 92.749 58
-11 -5 -6 353.897 54.0496 18
11 5 7 672.816 90.424 60
11 5 7 590.252 128.784 59
11 5 7 578.308 99.4652 58
-11 -5 -7 628.41 70.5989 18
-11 -5 -8 3242.91 138.134 16
11 5 8 3377.47 173.868 60
11 5 8 3822.49 248.97 59
11 5 8 3345.78 194.244 58
-11 -5 -9 1291.95 85.7358 16
11 5 9 1306.49 107.444 60
11 5 9 1187.11 116.403 58
-11 -5 -10 48.9172 22.6434 16
-11 -5 -10 -8.90442 24.405 12
11 5 10 84.0469 38.2059 60
11 5 10 49.5634 43.8368 58
-11 -5 -10 16.4722 23.2942 20
-11 -5 -11 653.571 60.5578 12
11 5 11 598.491 74.6052 58
-11 -5 -11 681.006 60.6188 20
-11 -5 -12 1381.34 79.9586 12
11 5 12 1448.41 97.6233 58
-11 -5 -12 1371.66 74.3589 20
-11 -5 -13 427.43 43.2328 12
-11 -6 2 4537.7 119.087 8
-11 -6 1 5.65544 20.0179 8
11 6 -1 3.01912 27.8445 58
-11 -6 0 328.684 42.8791 8
11 6 0 451.888 68.6758 64
11 6 0 279.878 59.5318 58
-11 -6 -1 882.038 64.9833 16
-11 -6 -1 810.705 64.2 8
11 6 1 937.186 94.0665 64
11 6 1 831.893 102.488 58
-11 -6 -1 915.15 67.4623 18
-11 -6 -2 1206.59 81.8591 16
-11 -6 -2 1170.49 76.4714 8
11 6 2 1322.67 112.13 64
11 6 2 1145.72 127.413 58
-11 -6 -2 1306.52 85.9455 18
-11 -6 -3 723.067 58.9834 8
11 6 3 812.173 90.5626 64
11 6 3 781.314 115.671 58
-11 -6 -3 887.304 76.1107 18
11 6 4 182.13 49.0997 64
11 6 4 107.693 75.0401 59
11 6 4 202.802 75.882 58
-11 -6 -4 193.03 42.1406 18
11 6 5 -8.76062 71.1327 59
11 6 5 -47.7359 66.8552 58
-11 -6 -5 23.1871 27.708 18
11 6 6 307.758 74.2743 60
11 6 6 352.041 104.813 59
11 6 6 176.471 76.5546 58
-11 -6 -6 208.575 45.8534 18
11 6 7 2136.99 150.544 60
11 6 7 2342 198.358 59
11 6 7 2389.02 177.169 58
-11 -6 -7 2284.63 124.546 18
11 6 8 117.439 55.956 60
11 6 8 107.889 80.1738 59
11 6 8 110.464 64.636 58
-11 -6 -8 126.554 39.6319 18
-11 -6 -9 7.44672 22.79 16
-11 -6 -9 44.7653 25.268 12
11 6 9 36.1828 46.2083 60
11 6 9 -5.33078 48.7356 58
-11 -6 -10 1058.58 75.7497 12
11 6 10 867.441 85.2787 60
11 6 10 952.071 99.5787 58
-11 -6 -10 941.537 70.1101 20
-11 -6 -10 915.321 61.8065 16
-11 -6 -11 1696.1 90.6281 12
11 6 11 1763.6 104.932 60
11 6 11 1672.68 117.478 58
-11 -6 -11 1611.27 80.7818 20
-11 -6 -12 29.0057 23.8987 12
11 6 12 6.13542 30.4899 58
-11 -6 -13 2414.52 90.0715 12
-11 -7 2 279.636 28.3364 8
-11 -7 1 507.825 43.5227 8
-11 -7 0 2952.04 106.573 8
11 7 0 2654.82 125.896 58
-11 -7 0 2876.58 102.495 18
-11 -7 -1 85.5308 24.7747 16
-11 -7 -1 75.0034 26.0033 8
11 7 1 42.8944 37.4709 64
11 7 1 162.681 51.9255 58
-11 -7 -1 88.3087 28.6272 18
-11 -7 -2 -9.74104 18.9407 8
11 7 2 37.7298 46.2214 64
11 7 2 51.3045 42.2191 58
-11 -7 -2 13.2449 23.8632 18
11 7 3 292.37 62.6163 64
11 7 3 326.262 76.9146 58
-11 -7 -3 259.689 44.2761 18
11 7 4 2042.55 135.391 64
11 7 4 1845.39 154.002 59
11 7 4 2026.64 162.339 58
-11 -7 -4 2005.44 110.246 18
11 7 5 7470.85 307.954 59
11 7 5 7720.18 310.233 58
-11 -7 -5 7269.19 210.052 18
11 7 6 2905.72 180.634 60
11 7 6 2405.27 186.4 59
11 7 6 2688.85 188.321 58
-11 -7 -6 2677.95 131.535 18
11 7 7 279.483 72.9903 60
11 7 7 322.918 96.6439 59
11 7 7 212.855 73.1471 58
-11 -7 -7 238.978 48.9315 18
11 7 8 11098.1 315.095 60
11 7 8 10427.7 359.547 59
11 7 8 11072.3 341.384 58
-11 -7 -8 10763.7 251.687 18
-11 -7 -9 155.884 33.1181 16
-11 -7 -9 160.502 34.0461 12
11 7 9 224.974 58.4294 60
11 7 9 234.302 83.9214 59
11 7 9 125.565 59.2796 58
-11 -7 -10 -20.6468 16.396 16
-11 -7 -10 9.69883 21.3753 12
11 7 10 -55.9276 42.2335 60
11 7 10 -5.5099 46.1137 58
-11 -7 -10 23.2076 17.2527 20
-11 -7 -11 1413.01 79.4374 12
11 7 11 1491.38 96.5299 60
11 7 11 1650.87 112.128 58
-11 -7 -12 725.379 52.8111 12
11 7 12 798.009 63.3682 60
11 7 12 719.234 69.5574 58
11 7 13 477.891 62.8942 59
-11 -8 1 2682.83 79.4743 8
-11 -8 0 1632.9 70.6532 8
-11 -8 0 1782.99 74.5283 18
-11 -8 -1 18.0577 14.0352 16
-11 -8 -1 11.976 16.0858 8
11 8 1 3.18686 39.7975 64
-11 -8 -1 -19.5763 18.9174 18
-11 -8 -2 235.691 30.6204 8
11 8 2 208.709 55.1721 64
11 8 2 184.664 46.7823 58
-11 -8 -2 177.303 34.3496 18
11 8 3 180.023 53.4592 64
11 8 3 224.195 58.1353 58
-11 -8 -3 220.059 41.3269 18
11 8 4 546.552 76.4609 64
11 8 4 695.426 88.9384 58
-11 -8 -4 566.291 61.2758 18
11 8 5 2997.75 168.724 59
11 8 5 3105.24 181.578 58
-11 -8 -5 3090.82 131.331 18
11 8 6 49.0487 50.5726 60
11 8 6 165.34 66.4824 59
11 8 6 118.801 64.013 58
-11 -8 -6 81.7335 33.6382 18
11 8 7 1863.3 135.309 60
11 8 7 1898.02 147.903 59
11 8 7 1767.81 139.069 58
-11 -8 -7 1764.02 99.4732 18
-11 -8 -8 1806.91 89.8941 12
11 8 8 1891.22 129.626 60
11 8 8 1772.66 144.052 59
11 8 8 2017.09 143.283 58
-11 -8 -8 1802.09 98.4084 18
-11 -8 -9 3349.05 120.452 12
11 8 9 3351.27 158.19 60
11 8 9 3093.69 175.986 59
11 8 9 3246.93 168.314 58
-11 -8 -10 573.929 50.6219 12
11 8 10 671.4 75.644 60
11 8 10 521.347 81.1361 59
11 8 10 571.771 75.0162 58
-11 -8 -11 327.088 37.4154 12
11 8 11 308.834 50.8309 60
11 8 11 350.468 65.5436 59
11 8 11 314.534 53.8524 58
-11 -8 -12 -4.4377 14.4223 12
11 8 12 -14.9004 35.7338 59
11 8 12 24.8122 27.1537 58
11 9 1 -13.9015 28.9317 64
-11 -9 -1 31.5584 18.0924 18
-11 -9 -2 5564.59 129.956 16
-11 -9 -2 5545.05 144.851 18
11 9 3 1401.55 97.8822 64
11 9 3 1168.45 83.7753 58
-11 -9 -3 1151.1 71.8117 18
11 9 4 338.825 57.8047 64
11 9 4 253.061 52.0383 58
-11 -9 -4 265.86 40.2287 18
11 9 5 289.344 61.651 58
-11 -9 -5 379.786 47.824 18
11 9 6 195.722 56.459 58
-11 -9 -6 200.627 35.9328 18
11 9 7 574.435 76.8726 60
11 9 7 547.526 77.4372 58
-11 -9 -7 641.671 56.8682 18
-11 -9 -8 4748.95 130.644 12
11 9 8 4853.16 182.066 60
11 9 8 4366.8 175.284 59
11 9 8 5001.99 193.441 58
-11 -9 -9 144.752 27.3839 12
11 9 9 119.89 43.1826 60
11 9 9 155.67 48.0058 58
-11 -9 -10 369.452 37.5105 12
11 9 10 415.718 54.9409 60
11 9 10 371.443 60.0213 59
11 9 10 424.849 59.9928 58
11 9 11 140.378 31.1271 60
11 9 11 128.746 35.0188 58
11 10 2 2620.6 101.409 64
-11 -10 -2 2369.01 80.9912 18
11 10 3 384.644 47.2207 64
-11 -10 -3 419.561 39.4008 18
11 10 4 2477.95 110.521 64
-11 -10 -4 2392.48 90.9436 18
11 10 5 1341.34 82.2142 58
-11 -10 -5 1443.49 72.9423 18
11 10 6 -27.6785 30.45 58
-11 -10 -6 8.89157 18.1406 18
11 10 7 202.697 43.8095 58
-11 -10 -8 95.7264 18.4841 12
11 10 8 86.6894 35.3853 58
11 10 9 -14.1067 27.0662 60
11 10 9 -29.2358 31.1561 58
12 -4 2 988.495 66.3987 51
-12 4 -2 1177.32 53.2707 8
12 -4 3 389.485 48.4426 51
-12 4 -3 415.295 35.3276 8
-12 4 -4 94.7875 20.4864 8
-12 4 -4 54.3124 15.2668 11
12 -4 4 87.3615 33.3184 51
-12 4 -5 499.611 41.5658 11
12 -4 5 479.333 59.2687 51
-12 4 -5 420.695 33.3342 8
-12 4 -6 1212.27 65.4521 11
12 -4 6 976.057 64.8978 53
12 -4 6 1036.55 83.3708 51
-12 4 -7 90.2857 25.0063 11
12 -4 7 55.8296 21.2797 53
12 -4 7 76.6969 33.1283 51
-12 4 -8 35.4106 20.5782 11
12 -4 8 -16.8225 19.5996 53
12 -4 8 74.4864 30.2842 51
-12 4 -9 3672.21 101.845 11
12 -4 9 3261.92 121.098 53
-12 3 -1 433.812 37.0894 8
12 -3 2 149.968 35.9183 51
-12 3 -2 217.06 31.15 8
-12 3 -3 698.965 46.2341 11
12 -3 3 607.924 70.1068 51
-12 3 -3 667.744 49.9316 8
-12 3 -4 2895.33 102.38 11
12 -3 4 2702.51 143.112 51
-12 3 -4 2792.39 97.0995 8
-12 3 -5 74.5886 22.6971 8
-12 3 -5 115.803 30.0923 11
12 -3 5 75.3095 40.4545 51
-12 3 -6 172.674 33.4113 11
12 -3 6 166.627 34.8671 53
12 -3 6 197.28 54.8776 51
-12 3 -7 75.5309 27.1498 11
12 -3 7 88.9392 31.8998 53
12 -3 7 5.06034 43.6633 51
-12 3 -8 615.985 54.375 11
12 -3 8 602.892 65.7146 53
12 -3 8 607.281 75.1424 51
-12 3 -9 2845.42 103.356 11
12 -3 9 2733.61 130.134 53
12 -3 9 2781.61 137.374 51
-12 3 -10 1640.94 71.0969 11
12 -3 10 1738.57 99.0561 53
12 -3 10 1594.06 93.8175 51
12 -3 11 189.584 34.1621 53
-12 2 0 533.817 40.6026 8
12 -2 1 891.828 71.2073 51
-12 2 -1 1062.5 61.9483 8
-12 2 -2 49.9211 21.6269 8
12 -2 2 8.22428 23.1781 58
12 -2 2 -2.2366 26.4326 51
-12 2 -3 517.828 46.7346 11
12 -2 3 470.83 68.007 51
-12 2 -3 524.705 49.5477 8
-12 2 -4 2600.97 107.625 11
12 -2 4 2389.64 147.586 51
-12 2 -4 2552.56 103.118 8
12 -2 5 6697.67 252.372 51
12 -2 5 6881.97 237.094 46
-12 2 -5 6396.02 153.503 8
-12 2 -6 869.176 68.5622 11
12 -2 6 737.258 92.2047 51
12 -2 6 693.217 84.9045 46
-12 2 -7 3248.42 127.374 11
12 -2 7 2947.24 145.141 53
12 -2 7 3174.06 178.024 51
12 -2 7 3070.01 156.179 46
-12 2 -8 180.059 38.3791 11
12 -2 8 199.519 49.2673 53
12 -2 8 149.52 54.8433 51
12 -2 8 125.774 43.685 46
-12 2 -9 308.149 43.0921 11
-12 2 -9 290.792 34.8492 20
12 -2 9 239.433 58.7363 51
12 -2 9 266.194 49.8043 46
-12 2 -10 -0.14667 19.0153 11
-12 2 -10 -15.9553 16.3337 20
12 -2 10 -27.0358 45.0907 51
-12 2 -11 64.928 19.1656 11
-12 2 -11 64.3704 21.1699 20
12 -2 11 60.9768 29.1847 51
12 -2 12 145.462 32.0399 53
-12 1 1 1955.32 68.4905 8
-12 1 0 -5.26631 17.8641 8
12 -1 0 -1.94832 21.8174 58
12 -1 1 1495.96 93.0395 58
-12 1 -1 1454.53 75.7261 8
12 -1 2 10782.7 249.152 58
-12 1 -2 10582.8 206.378 8
12 -1 3 350.878 50.7003 58
12 -1 3 288.549 61.6167 51
-12 1 -3 381.762 44.768 8
-12 1 -3 362.208 45.7047 16
12 -1 4 2674.56 127.711 58
12 -1 4 2485.57 164.586 51
12 -1 4 2391.84 151.545 46
-12 1 -4 2526.16 104.855 8
-12 1 -4 2551.19 116.563 16
-12 1 -5 53.0566 30.1509 16
-12 1 -5 44.31 23.2615 8
12 -1 5 37.3132 47.7364 51
12 -1 5 35.9934 43.7802 46
12 -1 6 2125.2 159.799 51
12 -1 6 1967.4 142.847 46
-12 1 -6 2028.89 107.245 16
-12 1 -7 10088.2 207.901 20
12 -1 7 10502.8 342.125 51
12 -1 7 10375.4 306.014 46
-12 1 -7 9998.97 228.255 16
-12 1 -8 190.427 41.465 16
-12 1 -8 102.681 28.6787 20
12 -1 8 196.829 81.3798 51
12 -1 8 209.345 66.4785 46
-12 1 -9 10.3592 24.8784 11
-12 1 -9 17.1848 23.8914 20
12 -1 9 -9.26094 50.7131 51
-12 1 -10 80.4583 27.4704 11
-12 1 -10 131.311 31.8197 20
12 -1 10 109.307 56.8381 51
-12 1 -11 764.435 49.579 11
-12 1 -11 992.281 62.3489 20
12 -1 11 914.316 90.7477 51
-12 1 -12 1708.4 72.201 20
12 -1 12 1701.5 100.348 51
-12 0 1 36.6508 17.0097 8
12 0 0 782.771 72.5811 58
-12 0 0 763.264 53.6857 8
12 0 1 591.357 68.0408 58
-12 0 -1 545.09 50.147 8
-12 0 -2 33.9047 20.1316 16
-12 0 -2 53.4033 27.82 8
12 0 2 117.889 41.6566 58
12 0 2 40.2981 37.4231 51
-12 0 -3 331.478 45.7016 16
12 0 3 343.583 61.8721 58
12 0 3 354.21 67.9268 51
12 0 3 305.33 67.5481 46
-12 0 -3 320.724 43.2658 8
12 0 4 3728.65 165.385 58
12 0 4 3660.22 206.963 51
12 0 4 3796.4 199.201 46
-12 0 -4 3595.98 126.155 8
-12 0 -4 3634.11 141.863 16
12 0 5 1336.12 100.169 58
-12 0 -5 1383.25 80.693 20
12 0 5 1333.73 135.61 51
12 0 5 1294.29 125.388 46
-12 0 -5 1561.44 97.3445 16
-12 0 -6 1142.22 77.2077 20
12 0 6 1185.74 129.329 51
12 0 6 998.88 112.539 46
-12 0 -6 1024.65 81.2003 16
-12 0 -7 70.1926 34.1705 16
-12 0 -7 152.111 35.9514 20
12 0 7 145.81 72.2002 51
12 0 7 88.9767 56.4917 46
-12 0 -8 2657.61 118.774 20
12 0 8 2400.16 178.449 51
12 0 8 2518.17 160.305 46
-12 0 -8 2552.87 117.11 16
-12 0 -9 3144.64 127.239 20
12 0 9 2929.45 189.045 51
12 0 9 2997.32 164.785 46
-12 0 -9 2909.71 116.99 16
-12 0 -10 -15.2722 22.392 11
-12 0 -10 -6.605 25.4443 20
12 0 10 13.2921 37.5807 46
-12 0 -11 -49.3966 20.8067 11
-12 0 -11 -0.68228 24.2655 20
12 0 11 -43.3613 34.0822 46
-12 0 -12 227.842 33.7739 20
12 0 12 202.001 53.399 51
-12 0 -13 1459.63 62.8088 20
12 1 -1 5423.17 171.095 58
-12 -1 1 5209.62 122.166 8
12 1 0 4090.76 164.262 58
-12 -1 0 3821.21 116.595 8
12 1 1 1062.98 94.9352 58
-12 -1 -1 977.335 65.8498 8
-12 -1 -1 983.203 59.1693 16
12 1 2 2949.55 154.547 58
-12 -1 -2 2735.45 110.359 8
-12 -1 -2 2855.8 112.314 16
12 1 3 1448.26 112.464 58
12 1 3 1432.2 128.213 51
12 1 3 1356.99 124.172 46
-12 -1 -3 1378.19 80.3573 8
-12 -1 -3 1495.33 89.9552 16
-12 -1 -4 164.335 39.3046 16
-12 -1 -4 124.381 29.7183 8
12 1 4 88.4609 40.7211 58
12 1 4 84.7732 55.193 46
-12 -1 -5 289.342 49.9972 16
12 1 5 232.639 54.7892 58
12 1 5 288.456 76.9782 51
12 1 5 294.349 77.1162 46
12 1 6 1059.18 94.4154 58
12 1 6 910.701 124.241 51
12 1 6 981.68 115.281 46
-12 -1 -6 1044.64 83.6764 16
12 1 7 2758.83 174.03 59
12 1 7 3143.52 149.866 58
-12 -1 -7 2986.27 130.749 20
12 1 7 2816.58 199.586 51
12 1 7 3037.1 186.042 46
-12 -1 -7 2983.62 133.449 16
12 1 8 3362.7 185.504 59
-12 -1 -8 3526.69 142.377 20
12 1 8 3142.39 206.623 51
12 1 8 3230.83 188.759 46
-12 -1 -8 3485.13 137.492 16
-12 -1 -9 25.9922 22.9546 16
12 1 9 48.3294 49.2562 59
-12 -1 -9 92.4988 33.9314 20
12 1 9 185.636 82.6322 51
12 1 9 62.057 52.9648 46
12 1 10 1705.06 117.839 59
-12 -1 -10 1864.1 99.407 20
12 1 10 1809.21 127.999 46
-12 -1 -10 1590.82 80.6334 16
-12 -1 -11 2429.6 107.035 20
12 1 11 2390.79 133.265 46
-12 -1 -12 41.8132 22.6283 20
12 1 12 88.8102 33.2304 46
-12 -1 -13 1360.08 63.562 20
12 1 13 1507.69 100.266 51
12 2 -1 1986.46 109.732 58
-12 -2 1 1882.27 74.9643 8
12 2 0 3984.54 119.678 10
-12 -2 0 4206.24 122.711 8
12 2 1 490.786 72.0099 58
-12 -2 -1 397.27 45.6642 8
-12 -2 -1 420.638 41.1303 16
-12 -2 -2 12.59 21.2632 16
-12 -2 -2 16.5532 24.4956 8
12 2 2 7.58147 43.4861 58
12 2 3 1192.81 110.915 58
12 2 3 1020.46 112.499 46
-12 -2 -3 1015.21 68.7412 8
-12 -2 -3 1100.87 79.0305 16
12 2 4 7151.74 255.014 58
12 2 4 6685.27 288.841 51
12 2 4 6804.85 281.055 46
-12 -2 -4 6451.62 164.392 8
-12 -2 -4 7033.59 198.038 16
12 2 5 5207.74 215.737 58
12 2 5 5169.42 263.459 51
12 2 5 5116.31 245.396 46
-12 -2 -5 5193.98 176.04 16
12 2 6 2129.37 168.223 59
12 2 6 2269.84 143.965 58
12 2 6 2090.4 177.42 51
12 2 6 2098.28 162.103 46
-12 -2 -6 2341.86 120.392 16
12 2 7 2902.89 189.056 59
12 2 7 2949.36 156.907 58
12 2 7 2820.98 202.837 51
12 2 7 2862.93 187.058 46
-12 -2 -7 2913.82 132.155 16
12 2 8 1604.45 141.211 59
12 2 8 1876.56 121.035 58
-12 -2 -8 1756.44 104.714 20
12 2 8 1723.84 147.332 46
-12 -2 -8 1691.13 98.1895 16
12 2 9 652.149 95.2634 59
-12 -2 -9 694.915 68.3843 20
12 2 9 626.521 95.4233 46
-12 -2 -9 683.62 61.1968 16
12 2 10 3475.65 178.209 59
-12 -2 -10 3893.48 144.137 20
12 2 10 3704.77 185.117 46
-12 -2 -10 3523.9 119.308 16
12 2 11 2041.82 127.399 59
-12 -2 -11 2188.87 103.245 20
12 2 11 2248.91 135.343 46
12 2 12 6098.74 179.59 59
-12 -2 -12 6501.44 159.015 20
12 2 12 6578.13 197.068 46
-12 -2 -13 1.91169 14.7272 20
-12 -3 1 129.551 24.3444 8
12 3 -1 178.947 41.0668 58
12 3 -1 179.118 28.3113 10
12 3 0 1904.13 121.744 58
-12 -3 0 1520.39 74.6183 8
-12 -3 -1 151.576 31.8484 8
12 3 1 187.133 59.7343 58
-12 -3 -2 85.5855 26.641 16
-12 -3 -2 63.754 26.7161 8
12 3 2 103.228 52.53 58
12 3 2 6.83111 41.7321 46
12 3 3 1591.4 129.545 58
12 3 3 1526.03 132.548 46
-12 -3 -3 1469.41 80.2307 8
-12 -3 -3 1629.95 93.5327 16
12 3 4 1956.11 143.154 58
12 3 4 1684.24 147.021 46
-12 -3 -4 1859.65 103.846 16
-12 -3 -5 -7.86627 34.3001 16
12 3 5 -80.8069 91.3083 59
12 3 5 8.97202 44.746 58
12 3 5 -47.2803 53.3867 51
12 3 5 10.861 56.7588 46
12 3 6 4149.32 236.892 59
12 3 6 3766.32 189.504 58
12 3 6 3612.92 229.453 51
12 3 6 4214.5 224.772 46
-12 -3 -6 4108.83 155.737 16
12 3 7 1794.74 160.617 59
12 3 7 1936.94 133.046 58
12 3 7 1644.27 159.134 51
12 3 7 1913.9 157.731 46
-12 -3 -7 2096.55 111.852 16
12 3 8 751.544 115.34 59
12 3 8 709.232 84.4223 58
12 3 8 707.003 101.814 46
-12 -3 -8 635.673 63.397 16
-12 -3 -9 6.43691 23.58 16
12 3 9 52.6427 64.0457 59
12 3 9 54.2494 37.5202 58
-12 -3 -9 33.318 31.2183 20
12 3 9 55.5662 60.5282 46
-12 -3 -10 75.3522 26.6374 16
12 3 10 87.0684 61.88 59
-12 -3 -10 66.8698 33.3086 20
12 3 11 6109.16 220.633 59
-12 -3 -11 6171.96 167.833 20
12 3 11 6259.79 223.089 46
12 3 12 909.518 84.7314 59
-12 -3 -12 896.539 61.1831 20
12 3 12 957.405 84.5808 46
-12 -3 -13 519.615 39.3259 20
12 4 -1 1827.46 98.3041 58
-12 -4 1 1696.71 67.7032 8
12 4 0 3367.87 157.155 58
-12 -4 0 2984.26 98.9859 8
12 4 1 12516.6 325.607 58
-12 -4 -1 10879.1 199.367 8
12 4 2 2751.01 167.475 58
-12 -4 -2 2489.94 99.7583 8
-12 -4 -2 2605.73 105.08 16
12 4 3 2639.01 117.798 64
12 4 3 2711.88 170.535 58
12 4 3 2469.03 159.398 46
-12 -4 -3 2400.59 97.477 8
-12 -4 -3 2587.57 113.548 16
-12 -4 -4 17.5426 26.937 16
12 4 4 10.3871 52.5253 58
12 4 4 23.4344 47.694 46
12 4 5 426.164 102.731 59
12 4 5 526.394 87.1064 58
12 4 5 462.708 87.3606 46
-12 -4 -5 478.097 58.2309 16
-12 -4 -6 26.4983 32.791 16
12 4 6 -22.5711 80.4694 59
12 4 6 54.9647 49.0529 58
12 4 6 76.5503 67.7318 46
12 4 7 540.901 105.059 59
12 4 7 547.916 82.7174 58
12 4 7 620.512 102.894 51
12 4 7 692.537 105.032 46
-12 -4 -7 527.996 59.4944 16
12 4 8 1447.91 144.236 59
12 4 8 1460.48 116.355 58
-12 -4 -8 1557.07 91.7106 16
-12 -4 -9 147.199 33.8997 16
12 4 9 184.979 73.777 59
12 4 9 187.954 51.7502 58
-12 -4 -9 163.775 38.7478 20
12 4 10 656.301 97.7971 59
12 4 10 543.52 66.3493 58
-12 -4 -10 597.718 59.0462 20
-12 -4 -10 520.162 46.9228 16
12 4 11 852.541 96.5406 59
-12 -4 -11 803.914 61.4835 20
12 4 12 427.88 66.5275 59
-12 -4 -12 405.433 40.6647 20
-12 -5 1 7.13139 13.4062 8
12 5 0 508.492 61.2437 58
-12 -5 0 537.873 42.346 8
12 5 1 433.482 67.2432 58
-12 -5 -1 389.446 40.6558 8
12 5 2 7097.12 197.698 64
-12 -5 -2 6853.04 162.559 16
12 5 3 6677.24 192.279 64
12 5 3 6994.38 267.615 58
-12 -5 -3 6439.46 171.293 16
-12 -5 -4 127.42 34.8941 16
12 5 4 117.418 33.0773 64
12 5 4 86.1299 55.0597 58
-12 -5 -4 135.37 29.3954 18
12 5 4 101.581 49.0373 46
-12 -5 -5 17.4118 26.1463 16
12 5 5 -38.4824 83.6916 59
12 5 5 15.2193 52.8313 58
-12 -5 -5 -20.2832 21.4249 18
12 5 5 11.2931 43.6757 46
-12 -5 -6 56.9657 30.2792 16
12 5 6 79.7126 78.4685 59
12 5 6 75.811 58.381 58
-12 -5 -6 95.5849 29.832 18
12 5 6 117.116 67.0653 46
12 5 7 2472.08 188.128 59
12 5 7 2302.2 152.64 58
12 5 7 2607.05 174.304 46
-12 -5 -7 2517.54 116.168 16
12 5 8 2026.66 167.663 59
12 5 8 1982.91 136.083 58
-12 -5 -8 2015.22 100.929 16
12 5 9 2459.93 173.061 59
12 5 9 2238.53 135.64 58
-12 -5 -9 2280.03 99.9503 16
12 5 10 5479.03 232.048 59
12 5 10 5130.86 184.901 58
-12 -5 -10 5366.87 154.684 20
-12 -5 -10 5261.54 134.559 16
12 5 11 1174.75 109.048 59
12 5 11 1167.75 82.788 58
-12 -5 -11 1117.98 66.1606 20
12 5 12 48.0492 46.5683 59
-12 -5 -12 27.1488 14.9714 20
-12 -6 0 255.28 27.6083 8
12 6 1 855.859 76.9913 58
-12 -6 -1 840.515 50.6132 8
12 6 2 1252.26 88.7056 64
12 6 2 1298.9 105.998 58
-12 -6 -2 1061.44 58.1985 8
-12 -6 -2 1321.49 69.2443 16
-12 -6 -3 151.951 30.559 16
12 6 3 80.7574 34.2762 64
12 6 3 133.682 58.3944 58
-12 -6 -3 129.083 26.2948 18
-12 -6 -4 348.31 45.587 16
12 6 4 417.723 56.5949 64
12 6 4 362.049 77.0706 58
-12 -6 -4 372.209 44.467 18
-12 -6 -5 1601.25 91.2211 16
12 6 5 1603.97 96.2145 64
12 6 5 1535.33 143.007 59
12 6 5 1841.59 141.927 58
-12 -6 -5 1611.08 87.1981 18
12 6 5 1530.74 124.075 46
-12 -6 -6 1331.93 83.3118 16
12 6 6 1276.2 81.3111 64
12 6 6 1153.48 128.187 59
12 6 6 1242.67 119.975 58
-12 -6 -6 1232.79 79.5343 18
12 6 6 1255.53 120.198 46
-12 -6 -7 970.16 71.5619 16
12 6 7 921.026 118.063 59
12 6 7 1129.11 112.682 58
12 6 7 1103.85 113.956 46
-12 -6 -8 217.092 35.8696 16
12 6 8 374.035 91.66 59
12 6 8 259.542 63.6083 58
12 6 9 1947.35 148.521 59
12 6 9 1931.5 125.321 58
-12 -6 -9 1840.84 85.952 16
-12 -6 -10 187.54 27.8821 16
12 6 10 179.672 65.8109 59
12 6 10 140.862 43.4813 58
-12 -6 -10 139.437 27.6554 20
12 6 11 2180.03 134.338 59
12 6 11 2076.01 105.667 58
-12 -6 -11 1925.82 74.3005 20
12 6 12 1265.49 94.2911 59
-12 -7 -2 -25.3614 12.5114 16
12 7 2 8.53252 26.1043 64
12 7 2 -22.3093 31.2423 58
-12 -7 -2 3.11289 13.6764 18
-12 -7 -3 68.1585 22.9517 16
12 7 3 83.9908 35.3965 64
12 7 3 57.8541 37.6806 58
-12 -7 -3 169.536 28.2489 18
-12 -7 -4 4.08139 21.363 16
12 7 4 21.6599 29.7345 64
12 7 4 -20.9042 43.3636 58
-12 -7 -4 -11.6676 19.3918 18
-12 -7 -5 19.5516 22.598 16
12 7 5 -0.74945 31.5685 64
12 7 5 19.6524 43.7697 58
-12 -7 -5 41.8817 24.4658 18
-12 -7 -6 7715.29 184.362 16
12 7 6 7650.79 193.242 64
12 7 6 7616.14 263.658 59
12 7 6 8226.74 267.318 58
-12 -7 -6 7726.13 186.862 18
12 7 6 7541.71 236.842 46
-12 -7 -7 829.19 62.1411 16
12 7 7 850.018 63.3363 64
12 7 7 875.799 101.518 59
12 7 7 907.796 96.0128 58
12 7 7 861.472 93.1784 46
-12 -7 -8 102.752 28.93 16
12 7 8 74.9974 57.0941 59
12 7 8 101.227 51.0323 58
12 7 9 3947.18 186.115 59
12 7 9 4045.3 170.436 58
-12 -7 -9 4002.23 116.358 20
-12 -7 -9 3860.69 112.956 16
12 7 10 417.133 72.8999 59
12 7 10 344.635 53.3691 58
-12 -7 -10 372.112 33.0908 20
-12 -7 -10 383.634 32.7736 16
12 7 11 45.2903 41.9694 59
12 7 11 14.2774 30.1954 58
12 8 2 5.76253 21.8223 64
12 8 3 1377.16 82.5677 64
12 8 3 1195.02 77.6895 58
-12 -8 -3 1327.03 63.9779 18
-12 -8 -3 1364.86 63.3122 16
-12 -8 -4 584.526 47.2616 16
12 8 4 527.637 56.3972 64
12 8 4 495.71 61.4827 58
-12 -8 -4 535.038 45.4182 18
-12 -8 -5 1979.82 87.5479 16
12 8 5 2026.33 101.857 64
12 8 5 2210.61 124.348 58
-12 -8 -5 1987.35 87.5738 18
-12 -8 -6 14394.8 232.23 16
12 8 6 13980.3 249.269 64
12 8 6 14589.3 317.645 58
-12 -8 -6 14541.6 234.939 18
-12 -8 -7 1956.56 85.5756 16
12 8 7 1834.01 87.5142 64
12 8 7 1677.65 109.008 59
12 8 7 1925.11 119.371 58
-12 -8 -8 1443.96 69.6974 16
12 8 8 1323.66 68.5422 64
12 8 8 1346.63 99.8443 59
12 8 8 1454.4 102.201 58
12 8 8 1348.81 93.0385 46
12 8 9 2106.6 119.321 59
12 8 9 2089.44 114.106 58
-12 -8 -9 1969.58 71.8118 16
12 8 10 46.5288 38.557 59
12 8 10 21.7422 30.7763 58
-12 -9 -4 1421.85 59.9394 16
12 9 4 1413 73.7449 64
-12 -9 -4 1298.76 60.273 18
-12 -9 -5 559.063 41.2664 16
12 9 5 606.336 51.1471 64
12 9 5 481.215 49.0548 58
-12 -9 -5 547.446 41.44 18
-12 -9 -6 4245.33 110.358 16
12 9 6 4189.33 122.573 64
12 9 6 4184.03 141.449 58
-12 -9 -7 3614.2 99.4957 16
12 9 7 3407.31 105.178 64
12 9 7 3609.26 135.066 58
-12 -9 -8 103.9 19.0325 16
12 9 8 102.851 35.1142 58
12 9 9 3176.3 116.781 58
-13 2 -5 1432.08 61.4656 11
13 -2 5 1313.01 82.4657 51
-13 2 -6 2688.74 88.6229 11
13 -2 6 2558.14 118.649 51
-13 2 -7 4602.89 117.262 11
13 -2 7 4334.09 152.849 51
-13 2 -8 33.3221 16.7197 11
13 -2 8 26.6066 25.5426 51
-13 1 -4 214.922 27.1359 11
13 -1 4 228.466 39.7296 51
-13 1 -5 1578.43 72.8106 11
13 -1 5 1307 91.0317 51
-13 1 -6 9280.72 179.829 11
13 -1 6 8410.92 233.908 51
-13 1 -7 1980.03 84.868 11
13 -1 7 1760.94 112.245 51
13 -1 7 1932.37 108.156 46
-13 1 -8 1678.17 76.4814 11
13 -1 8 1610.44 105.722 51
13 -1 8 1690.9 96.5459 46
-13 1 -9 1308.44 64.7473 11
13 -1 9 1299.8 91.2827 51
13 -1 9 1319.88 78.1114 46
13 -1 10 9.43087 26.3942 51
13 0 3 1406.91 75.8638 58
-13 0 -3 1380.73 59.0159 11
-13 0 -3 1248.24 56.4357 8
13 0 4 1434.72 77.5637 58
13 0 4 1196.24 86.8637 51
-13 0 -5 29.707 24.0668 16
13 0 5 -13.6632 29.1497 51
13 0 5 -20.5531 37.4473 46
13 0 6 1214.91 100.175 51
13 0 6 1320.54 100.17 46
-13 0 -6 1305.78 73.59 16
-13 0 -7 -14.8954 21.0159 16
-13 0 -7 37.7707 18.4427 20
13 0 7 -18.3513 43.6943 51
13 0 7 -33.0936 43.6936 46
-13 0 -8 556.282 49.7106 11
-13 0 -8 573.754 43.0356 20
13 0 8 436.461 67.0277 51
13 0 8 443.424 61.5081 46
-13 0 -8 497.483 44.9528 16
-13 0 -9 661.516 50.4238 11
-13 0 -9 638.624 45.4033 20
13 0 9 535.136 69.7089 51
13 0 9 586.349 62.6834 46
-13 0 -10 291.316 30.4524 11
-13 0 -10 277.017 30.1713 20
13 0 10 290.495 52.0348 51
13 0 10 241.657 40.6494 46
-13 -1 -2 162.411 23.3077 8
13 1 2 230.282 38.0713 58
13 1 3 4147.78 142.864 58
-13 -1 -3 3952.83 107.49 16
-13 -1 -4 62.7827 23.0248 16
13 1 4 12.8742 25.8212 58
13 1 5 901.367 71.6094 58
13 1 5 838.268 82.7114 51
13 1 5 893.335 86.2156 46
-13 -1 -5 927.75 64.3961 16
13 1 6 1666.74 89.9198 58
-13 -1 -6 1726.08 76.3814 20
13 1 6 1484.29 115.913 51
13 1 6 1534.09 112.756 46
-13 -1 -6 1738.96 87.6655 16
-13 -1 -7 18.1709 22.7564 16
-13 -1 -7 24.6442 19.5845 20
13 1 7 -7.57187 46.1496 51
13 1 7 11.6482 40.6137 46
-13 -1 -8 1035.26 63.6883 20
13 1 8 1014.32 99.3414 51
13 1 8 1087.47 94.3439 46
-13 -1 -8 1013.96 64.6504 16
-13 -1 -9 366.999 40.0543 20
13 1 9 291.203 59.4197 51
13 1 9 257.801 53.1857 46
-13 -1 -9 286.64 34.7134 16
-13 -1 -10 207.866 27.1745 11
-13 -1 -10 274.067 34.8118 20
13 1 10 208.68 52.0253 51
13 1 10 207.766 43.7314 46
-13 -1 -11 648.994 44.9235 20
13 1 11 655.09 68.7472 51
13 2 1 256.032 38.4222 58
13 2 2 340.591 46.6203 58
-13 -2 -2 345.676 31.0821 8
13 2 3 991.434 77.9224 58
-13 -2 -3 809.758 46.7572 8
-13 -2 -3 883.894 53.8664 16
13 2 4 792.135 72.6378 58
-13 -2 -4 776.622 48.1523 20
13 2 4 687.862 76.1589 46
-13 -2 -4 869.127 59.2563 16
13 2 5 3801.55 150.96 58
-13 -2 -5 3752.47 113.412 20
13 2 5 3679.54 171.776 46
-13 -2 -5 3887.75 126.981 16
13 2 6 379.967 51.7634 58
-13 -2 -6 353.978 40.9134 20
13 2 6 261.514 56.0935 51
13 2 6 282.447 62.451 46
-13 -2 -6 360.351 46.5262 16
13 2 7 2159.07 106.265 58
-13 -2 -7 2129.15 93.0741 20
13 2 7 1994.37 134.325 51
13 2 7 2008.17 131.385 46
-13 -2 -7 2039.61 94.2223 16
-13 -2 -8 3302.18 116.008 20
13 2 8 3286.55 171.397 51
13 2 8 3249.21 159.43 46
-13 -2 -8 3157.88 111.906 16
-13 -2 -9 4869.27 136.11 20
13 2 9 4316.22 188.84 51
13 2 9 4809 183.935 46
-13 -2 -9 4648.9 125.667 16
-13 -2 -10 1001.3 52.8999 11
-13 -2 -10 1125.93 64.7987 20
13 2 10 1142.74 99.1261 51
13 2 10 1092.08 85.8415 46
-13 -2 -10 942.151 50.3733 16
-13 -2 -11 1750.44 73.2586 20
13 2 11 1678.58 108.224 51
13 2 11 1783.6 93.6158 46
13 3 2 10263.2 232.757 58
-13 -3 -3 236.577 30.5964 16
13 3 3 263.543 49.2992 58
-13 -3 -4 148.318 29.0568 16
13 3 4 109.228 40.1434 58
13 3 4 112.611 40.96 46
13 3 5 736.492 74.4886 58
13 3 5 687.254 82.8794 46
-13 -3 -5 710.198 57.1701 16
13 3 6 1883.94 111.375 58
13 3 6 1755.23 126.649 46
-13 -3 -6 1900.82 91.4546 16
13 3 7 876.642 76.0766 58
-13 -3 -7 894.861 64.05 20
13 3 7 824.665 89.5291 51
13 3 7 950.64 95.7781 46
-13 -3 -7 885.306 63.1279 16
13 3 8 6293.36 222.987 59
13 3 8 6246.87 179.906 58
-13 -3 -8 6784.15 167.103 20
13 3 8 6254.87 230.681 51
13 3 8 6769.9 228.458 46
-13 -3 -8 6801.46 161.496 16
-13 -3 -9 196.932 31.0403 16
13 3 9 142.219 49.1894 59
13 3 9 305.821 41.2169 58
-13 -3 -9 205.63 34.1532 20
13 3 9 232.205 59.9886 51
13 3 9 238.06 56.3486 46
-13 -3 -10 141.899 22.81 16
13 3 10 181.38 47.1276 59
-13 -3 -10 227.502 33.5968 20
13 3 10 268.297 57.6849 51
13 3 10 244.03 51.5474 46
-13 -3 -11 2455.32 85.0243 20
13 3 11 2344.21 124.039 51
13 3 11 2622.98 117.03 46
13 4 2 2588.23 119.766 58
-13 -4 -3 162.728 25.7772 16
13 4 3 51.8629 33.9504 58
-13 -4 -4 22.2036 20.447 16
13 4 4 2.10926 34.6748 58
13 4 5 308.022 54.3011 58
13 4 5 309.053 57.5524 46
-13 -4 -5 373.967 42.5375 16
13 4 6 266.865 51.8288 58
13 4 6 217.881 54.6971 46
-13 -4 -6 318.883 40.9692 16
13 4 7 1017.78 83.9243 58
13 4 7 988.38 98.0164 46
-13 -4 -7 1098.22 68.3376 16
13 4 8 564.157 77.9981 59
13 4 8 521.214 58.558 58
-13 -4 -8 519.163 49.5944 20
13 4 8 386.314 61.7414 51
13 4 8 506.886 69.6089 46
-13 -4 -8 504.901 46.3398 16
-13 -4 -9 0.19508 16.7513 16
13 4 9 4.88737 46.0121 59
13 4 9 16.6716 25.4197 58
-13 -4 -9 4.22409 20.3266 20
13 4 9 111.363 40.7267 51
13 4 9 -15.1816 37.6388 46
13 4 10 2392.68 124.994 59
-13 -4 -10 2298.48 88.3267 20
13 4 10 1967.32 120.418 51
13 4 10 2293.01 122.43 46
-13 -4 -10 1895.09 67.5983 16
13 4 11 4116.33 143.248 59
-13 -4 -11 4172.56 106.633 20
13 4 11 4357.41 149.065 46
13 5 2 1824.25 94.8446 58
13 5 3 766.014 71.888 58
-13 -5 -3 860.431 47.7226 16
13 5 4 1598.6 105.742 58
-13 -5 -4 1641.63 73.3848 16
-13 -5 -5 -8.67809 20.0043 16
13 5 5 -10.1634 33.1018 58
13 5 6 778.94 77.2731 58
13 5 6 708.903 75.6076 46
-13 -5 -6 789.157 57.4286 16
13 5 7 1991.06 113.537 58
13 5 7 2026.39 125.061 46
-13 -5 -7 2010.2 87.4976 16
13 5 8 2094.32 133.073 59
13 5 8 2091.93 110.468 58
-13 -5 -8 2233.56 91.7304 20
13 5 8 2041.77 123.478 46
-13 -5 -8 2134.81 85.9637 16
-13 -5 -9 12.2147 15.3388 16
13 5 9 5.37848 44.0423 59
13 5 9 19.4348 25.7037 58
-13 -5 -9 23.1482 19.5682 20
13 5 9 61.1136 39.4584 46
13 5 10 31.1002 37.1012 59
-13 -5 -10 64.8088 18.6395 20
13 5 10 101.425 38.7221 46
13 5 11 218.362 40.5282 59
13 5 11 282.881 44.8687 46
13 6 3 93.9408 26.528 58
-13 -6 -4 8.64156 13.7443 16
13 6 4 15.2575 25.6188 58
-13 -6 -5 61.0589 21.0156 16
13 6 5 77.2175 36.1708 58
13 6 6 2826.85 134.218 58
-13 -6 -6 2704.14 95.344 16
-13 -6 -7 223.53 31.2082 16
13 6 7 178.844 42.9872 58
13 6 7 160.001 42.5259 46
-13 -6 -8 69.9079 21.3927 16
13 6 8 32.1444 39.9647 59
13 6 8 111.008 34.6051 58
-13 -6 -8 42.3649 17.9038 20
13 6 8 30.5252 31.9241 46
-13 -6 -9 183.017 23.5163 16
13 6 9 284.001 53.1183 59
13 6 9 236.398 39.2069 58
-13 -6 -9 248.418 29.2009 20
13 6 9 283.438 48.3153 46
13 6 10 2098.29 108.212 59
13 6 10 2215.33 106.437 46
13 7 5 2136.68 100.997 58
-13 -7 -5 2068.85 74.2121 16
13 7 6 708.358 63.4279 58
-13 -7 -6 708.464 46.8551 16
-13 -7 -7 15.9984 15.5132 16
13 7 7 -1.29689 24.492 58
-13 -7 -8 1454.48 59.2316 20
-13 -7 -8 1413.1 59.48 16
