#------------------------------------------------------------------------------
#$Date: 2016-05-06 05:23:21 +0300 (Fri, 06 May 2016) $
#$Revision: 182804 $
#$URL: svn://www.crystallography.net/cod/cif/1/54/30/1543057.cif $
#------------------------------------------------------------------------------
#
# This file is available in the Crystallography Open Database (COD),
# http://www.crystallography.net/
#
# All data on this site have been placed in the public domain by the
# contributors.
#
data_1543057
loop_
_publ_author_name
'Hiscock, Jennifer R.'
'Bustone, Gianluca P.'
'Wilson, Ben'
'Belsey, Kate E.'
'Blackholly, Laura R.'
_publ_section_title
;
 In situ modification of nanostructure configuration through the
 manipulation of hydrogen bonded amphiphile self-association.
;
_journal_issue                   18
_journal_name_full               'Soft matter'
_journal_page_first              4221
_journal_paper_doi               10.1039/c6sm00529b
_journal_volume                  12
_journal_year                    2016
_chemical_formula_moiety         'C8 H8 N3 O6 S, C16 H36 N'
_chemical_formula_sum            'C24 H44 N4 O6 S'
_chemical_formula_weight         516.69
_chemical_name_systematic
;
 ?
;
_space_group_crystal_system      monoclinic
_space_group_IT_number           14
_space_group_name_Hall           '-P 2yn'
_space_group_name_H-M_alt        'P 1 21/n 1'
_symmetry_space_group_name_Hall  '-P 2yn'
_symmetry_space_group_name_H-M   'P 1 21/n 1'
_atom_sites_solution_hydrogens   geom
_audit_creation_date             2016-02-16
_audit_creation_method
;
Olex2 1.2
(compiled 2015.09.30 svn.r3233 for OlexSys, GUI svn.r5103)
;
_cell_angle_alpha                90
_cell_angle_beta                 103.701(3)
_cell_angle_gamma                90
_cell_formula_units_Z            8
_cell_length_a                   16.9274(4)
_cell_length_b                   16.3647(4)
_cell_length_c                   20.8867(6)
_cell_measurement_reflns_used    9775
_cell_measurement_temperature    150.01(10)
_cell_measurement_theta_max      73.3680
_cell_measurement_theta_min      5.9560
_cell_volume                     5621.2(3)
_computing_cell_refinement       'CrysAlisPro 1.171.38.37f (Rigaku OD, 2015)'
_computing_data_collection       'CrysAlisPro 1.171.38.37f (Rigaku OD, 2015)'
_computing_data_reduction        'CrysAlisPro 1.171.38.37f (Rigaku OD, 2015)'
_computing_molecular_graphics    'Olex2 (Dolomanov et al., 2009)'
_computing_publication_material  'Olex2 (Dolomanov et al., 2009)'
_computing_structure_refinement  'ShelXL (Sheldrick, 2015)'
_computing_structure_solution    'SIR2004 (Burla et al., 2007)'
_diffrn_ambient_environment      N~2~
_diffrn_ambient_temperature      150.01(10)
_diffrn_detector                 'CCD plate'
_diffrn_detector_area_resol_mean 5.2299
_diffrn_detector_type            AtlasS2
_diffrn_measured_fraction_theta_full 0.979
_diffrn_measured_fraction_theta_max 0.994
_diffrn_measurement_details
;
List of Runs (angles in degrees, time in seconds):

--------------------------------------------------------------------------
  1  \w    -92.00  -2.00   1.00   10.00    --  -38.50 125.00  60.00   90
  2  \w     18.00 112.00   1.00   10.00    --   43.14  57.00-150.00   94
  3  \w     82.00 174.00   1.00   40.00    --  104.54  45.00-150.00   92
  4  \w     35.00 127.00   1.00   40.00    --  104.54 -45.00  30.00   92
  5  \w     94.00 175.00   1.00   40.00    --  104.54 125.00  30.00   81
  6  \w     35.00 121.00   1.00   40.00    --  104.54-125.00 120.00   86
  7  \w     94.00 175.00   1.00   40.00    --  104.54 125.00 -60.00   81
  8  \w     18.00 112.00   1.00   10.00    --   43.14  57.00  90.00   94
  9  \w     18.00 112.00   1.00   10.00    --   43.14  57.00 -30.00   94
 10  \w     78.00 173.00   1.00   40.00    --  104.54  61.00 120.00   95
 11  \w     78.00 103.00   1.00   40.00    --  104.54  61.00   0.00   25
;
_diffrn_measurement_device       'four-circle diffractometer'
_diffrn_measurement_device_type  'SuperNova, Dual, Cu at zero, AtlasS2'
_diffrn_measurement_method       '\w scans'
_diffrn_orient_matrix_type
'CrysAlisPro convention (1999,Acta A55,543-557)'
_diffrn_orient_matrix_UB_11      -0.0206830000
_diffrn_orient_matrix_UB_12      -0.0828493000
_diffrn_orient_matrix_UB_13      0.0270422000
_diffrn_orient_matrix_UB_21      -0.0178360000
_diffrn_orient_matrix_UB_22      0.0434543000
_diffrn_orient_matrix_UB_23      0.0604833000
_diffrn_orient_matrix_UB_31      -0.0895935000
_diffrn_orient_matrix_UB_32      0.0104450000
_diffrn_orient_matrix_UB_33      -0.0371040000
_diffrn_radiation_monochromator  mirror
_diffrn_radiation_probe          x-ray
_diffrn_radiation_type           CuK\a
_diffrn_radiation_wavelength     1.54184
_diffrn_reflns_av_unetI/netI     0.0302
_diffrn_reflns_Laue_measured_fraction_full 0.979
_diffrn_reflns_Laue_measured_fraction_max 0.994
_diffrn_reflns_limit_h_max       20
_diffrn_reflns_limit_h_min       -20
_diffrn_reflns_limit_k_max       19
_diffrn_reflns_limit_k_min       -19
_diffrn_reflns_limit_l_max       24
_diffrn_reflns_limit_l_min       -24
_diffrn_reflns_number            13457
_diffrn_reflns_point_group_measured_fraction_full 0.979
_diffrn_reflns_point_group_measured_fraction_max 0.994
_diffrn_reflns_theta_full        67.684
_diffrn_reflns_theta_max         67.076
_diffrn_reflns_theta_min         3.811
_diffrn_source                   'micro-focus sealed X-ray tube'
_diffrn_source_type              'SuperNova (Cu) X-ray Source'
_exptl_absorpt_coefficient_mu    1.377
_exptl_absorpt_correction_T_max  1.00000
_exptl_absorpt_correction_T_min  0.68019
_exptl_absorpt_correction_type   multi-scan
_exptl_absorpt_process_details
;
CrysAlisPro 1.171.38.37f (Rigaku Oxford Diffraction, 2015)
Empirical absorption correction using spherical harmonics,
 implemented in SCALE3 ABSPACK scaling algorithm.
;
_exptl_crystal_colour            yellow
_exptl_crystal_colour_primary    yellow
_exptl_crystal_density_diffrn    1.221
_exptl_crystal_description       plate
_exptl_crystal_F_000             2240
_exptl_crystal_size_max          0.162
_exptl_crystal_size_mid          0.129
_exptl_crystal_size_min          0.068
_refine_diff_density_max         0.291
_refine_diff_density_min         -0.278
_refine_diff_density_rms         0.044
_refine_ls_extinction_method     none
_refine_ls_goodness_of_fit_ref   0.967
_refine_ls_hydrogen_treatment    constr
_refine_ls_matrix_type           full
_refine_ls_number_parameters     808
_refine_ls_number_reflns         13457
_refine_ls_number_restraints     826
_refine_ls_restrained_S_all      0.961
_refine_ls_R_factor_all          0.0744
_refine_ls_R_factor_gt           0.0510
_refine_ls_shift/su_max          0.001
_refine_ls_shift/su_mean         0.000
_refine_ls_structure_factor_coef Fsqd
_refine_ls_weighting_details
'w=1/[\s^2^(Fo^2^)+(0.0917P)^2^] where P=(Fo^2^+2Fc^2^)/3'
_refine_ls_weighting_scheme      calc
_refine_ls_wR_factor_gt          0.1338
_refine_ls_wR_factor_ref         0.1429
_reflns_Friedel_coverage         0.000
_reflns_number_gt                9197
_reflns_number_total             13457
_reflns_threshold_expression     'I > 2\s(I)'
_cod_data_source_file            c6sm00529b3.cif
_cod_data_source_block           jh1_twin1_hklf4
_cod_depositor_comments
'Adding full bibliography for 1543057--1543058.cif.'
_cod_database_code               1543057
_shelxl_version_number           2013-4
_chemical_oxdiff_formula         'C148 H264 N40 O56 S8 '
_shelx_space_group_comment
;
The symmetry employed for this shelxl refinement is uniquely defined
by the following loop, which should always be used as a source of
symmetry information in preference to the above space-group names.
They are only intended as comments.
;
_olex2_refinement_description
;
1. Twinned data refinement
 Scales: 0.7982(17) 0.2018(17)
2. Fixed Uiso
 At 1.2 times of:
  All C(H) groups, All C(H,H) groups, All C(H,H,H,H) groups, All N(H) groups
 At 1.5 times of:
  All C(H,H,H) groups
3. Restrained distances
 C32-C31 = C27-C28 = C26-C27 = C31-C30 = C26-C25 = C30-C29 = C22-C21 = C18-C17
 = C22-C23 = C18-C19 = C20-C19 = C23-C24 = C48-C47 = C43-C44 = C46-C47 = C42-
 C43 = C46-C45 = C42-C41 = C38-C39 = C36-C35 = C40-C39 = C34-C35 = C34-C33 =
 C37-C38
 1.54 with sigma of 0.01
 N7-C25 \\sim N7-C29 \\sim N7-C37 \\sim N7-C33 \\sim N7-C17 \\sim N7-C21 \\sim
N7-C45 \\sim N7-C41
 with sigma of 0.01
4. Uiso/Uaniso restraints and constraints
N7 \\sim C33 \\sim C45 \\sim C29 \\sim C17 \\sim C37 \\sim C41 \\sim C25 \\sim
C21 \\sim C34 \\sim C46 \\sim C30 \\sim C18 \\sim C38 \\sim C42 \\sim C26 \\sim
C22 \\sim C35 \\sim C47 \\sim C31 \\sim C19 \\sim C39 \\sim C43 \\sim C27 \\sim
C23 \\sim C36 \\sim C48 \\sim C32 \\sim C20 \\sim C40 \\sim C44 \\sim C28 \\sim
C24: within 2A with sigma of 0.02 and sigma for terminal atoms of 0.04
Uanis(C27) = Uanis(C31)
5. Rigid body (RIGU) restrains
 C33, C45, C29, C17, C37, C41, C25, C21, C34, C46, C30, C18, C38, C42, C26,
 C22, C35, C47, C31, C19, C39, C43, C27, C23, C36, C48, C32, C20, C40, C44, C28,
  C24
 with sigma for 1-2 distances of 0.004 and sigma for 1-3 distances of 0.004
 C21, N8, C63, C58, C49, C54, C64, C59, C50, C55, C65, C60, C51, C56, C66, C67,
  C62, C52, C53, C57
 with sigma for 1-2 distances of 0.004 and sigma for 1-3 distances of 0.004
 C48, N7, C33, C45, C29, C17, C37, C41, C25, C21, C34, C46, C30, C18, C38, C42,
  C26, C22, C35, C47, C31, C19, C39, C43, C27, C23, C36, C32, C20, C40, C44,
 C28, C24
 with sigma for 1-2 distances of 0.004 and sigma for 1-3 distances of 0.004
6. Others
 Sof(H60A)=Sof(H60B)=Sof(C62)=Sof(H62D)=Sof(H62E)=Sof(H62F)=1-FVAR(1)
 Sof(H61A)=Sof(H61B)=Sof(C61)=Sof(H62A)=Sof(H62B)=Sof(H62C)=FVAR(1)
 Sof(H51C)=Sof(H51D)=Sof(C53)=Sof(H53A)=Sof(H53B)=Sof(H53C)=1-FVAR(2)
 Sof(H51A)=Sof(H51B)=Sof(C52)=Sof(H52A)=Sof(H52B)=Sof(H52C)=FVAR(2)
 Sof(H65A)=Sof(H65B)=Sof(C66)=Sof(H66C)=Sof(H66D)=Sof(H66E)=1-FVAR(3)
 Sof(H66A)=Sof(H66B)=Sof(C67)=Sof(H68A)=Sof(H68B)=Sof(H68C)=FVAR(3)
 Fixed Sof: C47(0.75) H47A(0.75) H47B(0.75) C33(0.75) H33A(0.75) H33B(0.75)
 C45(0.75) H45A(0.75) H45B(0.75) C35(0.75) H35A(0.75) H35B(0.75) C29(0.75)
 H29A(0.75) H29B(0.75) C30(0.75) H30A(0.75) H30B(0.75) C17(0.75) H17A(0.75)
 H17B(0.75) C19(0.75) H19A(0.75) H19B(0.75) C31(0.75) H31A(0.75) H31B(0.75)
 C46(0.75) H46A(0.75) H46B(0.75) C20(0.75) H20A(0.75) H20B(0.75) H20C(0.75)
 C34(0.75) H34A(0.75) H34B(0.75) C36(0.75) H36A(0.75) H36B(0.75) H36C(0.75)
 C48(0.75) H48A(0.75) H48B(0.75) H48C(0.75) C32(0.75) H32A(0.75) H32B(0.75)
 H32C(0.75) C18(0.75) H18A(0.75) H18B(0.75) C38(0.25) H38A(0.25) H38B(0.25)
 C37(0.25) H37A(0.25) H37B(0.25) C41(0.25) H41A(0.25) H41B(0.25) C42(0.25)
 H42A(0.25) H42B(0.25) C25(0.25) H25A(0.25) H25B(0.25) C26(0.25) H26A(0.25)
 H26B(0.25) C22(0.25) H22A(0.25) H22B(0.25) C21(0.25) H21A(0.25) H21B(0.25)
 C40(0.25) H40A(0.25) H40B(0.25) H40C(0.25) C39(0.25) H39A(0.25) H39B(0.25)
 C24(0.25) H24A(0.25) H24B(0.25) H24C(0.25) C23(0.25) H23A(0.25) H23B(0.25)
 C28(0.25) H28A(0.25) H28B(0.25) H28C(0.25) C27(0.25) H27A(0.25) H27B(0.25)
 C44(0.25) H44A(0.25) H44B(0.25) H44C(0.25) C43(0.25) H43A(0.25) H43B(0.25)
7.a Secondary CH2 refined with riding coordinates:
 C63(H63A,H63B), C58(H58A,H58B), C16(H16A,H16B), C55(H55A,H55B), C64(H64A,
 H64B), C8(H8A,H8B), C49(H49A,H49B), C47(H47A,H47B), C33(H33A,H33B), C59(H59A,
 H59B), C56(H56A,H56B), C45(H45A,H45B), C35(H35A,H35B), C29(H29A,H29B),
 C30(H30A,H30B), C17(H17A,H17B), C65(H65A,H65B), C65(H66A,H66B), C50(H50A,H50B),
  C54(H54A,H54B), C19(H19A,H19B), C31(H31A,H31B), C46(H46A,H46B), C60(H61A,
 H61B), C60(H60A,H60B), C34(H34A,H34B), C51(H51A,H51B), C51(H51C,H51D),
 C18(H18A,H18B), C38(H38A,H38B), C37(H37A,H37B), C41(H41A,H41B), C42(H42A,H42B),
  C25(H25A,H25B), C26(H26A,H26B), C22(H22A,H22B), C21(H21A,H21B), C39(H39A,
 H39B), C23(H23A,H23B), C27(H27A,H27B), C43(H43A,H43B)
7.b Me refined with riding coordinates:
 C57(H57A,H57B,H57C), C66(H66C,H66D,H66E), C52(H52A,H52B,H52C), C61(H62A,H62B,
 H62C), C62(H62D,H62E,H62F), C53(H53A,H53B,H53C), C67(H68A,H68B,H68C)
7.c Aromatic/amide H refined with riding coordinates:
 N6(H6A), N5(H5A), N3(H3), N2(H2), C10(H10), C11(H11), C6(H6), C14(H14),
 C5(H5), C13(H13), C2(H2A), C3(H3A)
7.d Idealised Me refined as rotating group:
 C20(H20A,H20B,H20C), C36(H36A,H36B,H36C), C48(H48A,H48B,H48C), C32(H32A,H32B,
 H32C), C40(H40A,H40B,H40C), C24(H24A,H24B,H24C), C28(H28A,H28B,H28C), C44(H44A,
 H44B,H44C)
;
_shelx_res_file
;
TITL
CELL 1.54184 16.927377 16.364698 20.88673 90 103.7011 90
ZERR 8 0.000413 0.00037 0.000583 0 0.0026 0
LATT 1
SYMM 0.5-X,0.5+Y,0.5-Z
SFAC C H N O S
UNIT 192 352 32 48 8
EQIV $1 0.5+X,1.5-Y,0.5+Z
EQIV $2 -0.5+X,1.5-Y,-0.5+Z
DFIX 1.54 0.01 C32 C31 C27 C28 C26 C27 C31 C30 C26 C25 C30 C29 C22 C21 C18 =
 C17 C22 C23 C18 C19 C20 C19 C23 C24 C48 C47 C43 C44 C46 C47 C42 C43 C46 C45 =
 C42 C41 C38 C39 C36 C35 C40 C39 C34 C35 C34 C33 C37 C38
SADI 0.01 N7 C25 N7 C29 N7 C37 N7 C33 N7 C17 N7 C21 N7 C45 N7 C41
SIMU 0.02 0.04 2 N7 C33 C45 C29 C17 C37 C41 C25 C21 C34 C46 C30 C18 C38 C42 =
 C26 C22 C35 C47 C31 C19 C39 C43 C27 C23 C36 C48 C32 C20 C40 C44 C28 C24
RIGU C33 C45 C29 C17 C37 C41 C25 C21 C34 C46 C30 C18 C38 C42 C26 C22 C35 C47 =
 C31 C19 C39 C43 C27 C23 C36 C48 C32 C20 C40 C44 C28 C24
RIGU C21 N8 C63 C58 C49 C54 C64 C59 C50 C55 C65 C60 C51 C56 C66 C67 C62 C52 =
 C53 C57
RIGU C48 N7 C33 C45 C29 C17 C37 C41 C25 C21 C34 C46 C30 C18 C38 C42 C26 C22 =
 C35 C47 C31 C19 C39 C43 C27 C23 C36 C32 C20 C40 C44 C28 C24
EADP C27 C31

L.S. 16
PLAN  20
HTAB N5 O4_$1
HTAB N3 O10_$2
HTAB C11 O9
HTAB C3 O3
MORE -1
BOND $H
CONF
fmap 2
acta
SHEL 100 0.837
OMIT -2 2 3
REM <olex2.extras>
REM <HklSrc "%.\\JH1_twin1_hklf5.hkl">
REM </olex2.extras>

WGHT    0.091700
BASF   0.20183
FVAR       1.36298   0.54809   0.67981   0.49854
S1    5    0.081563    0.924754    0.378720    11.00000    0.04912    0.04405 =
         0.03928   -0.00241    0.00383   -0.00189
S2    5    0.435216    0.576258    0.629235    11.00000    0.06465    0.05117 =
         0.03954   -0.00492    0.00566    0.01096
O5    4    0.122402    0.965747    0.438917    11.00000    0.07340    0.05617 =
         0.04167   -0.00889    0.00189   -0.00931
O9    4    0.344821    0.755252    0.701036    11.00000    0.04088    0.05756 =
         0.05444   -0.00887   -0.00743    0.01205
N7    3    0.125350    0.853496    0.615298    11.00000    0.03208    0.04321 =
         0.03947    0.00766    0.00504    0.00200
O4    4    0.061792    0.840033    0.388394    11.00000    0.06639    0.04539 =
         0.05216    0.00166   -0.00521   -0.00731
N8    3    0.409632    0.678764    0.399339    11.00000    0.04041    0.04558 =
         0.04656    0.00319    0.01303    0.00697
O6    4    0.011841    0.968769    0.339439    11.00000    0.05698    0.05244 =
         0.04895   -0.00272    0.00740    0.01125
N6    3    0.407053    0.636567    0.740797    11.00000    0.04885    0.04647 =
         0.04281   -0.00567    0.00531    0.00327
AFIX  43
H6A   2    0.437908    0.612129    0.773895    11.00000   -1.20000
AFIX   0
O10   4    0.505723    0.534633    0.669603    11.00000    0.08027    0.08800 =
         0.05283   -0.01172    0.00502    0.04339
O12   4    0.455654    0.657739    0.611673    11.00000    0.08488    0.06597 =
         0.05650    0.00402    0.02180    0.00281
N5    3    0.442059    0.754476    0.799074    11.00000    0.04523    0.04266 =
         0.04559   -0.00325   -0.00342    0.00710
AFIX  43
H5A   2    0.470415    0.722190    0.828117    11.00000   -1.20000
AFIX   0
O11   4    0.390786    0.527751    0.575002    11.00000    0.10727    0.07563 =
         0.04983   -0.02468    0.00443   -0.00243

N3    3    0.122979    0.879742    0.267766    11.00000    0.05231    0.09397 =
         0.05080   -0.01774    0.00937    0.00650
AFIX  43
H3    2    0.096064    0.905178    0.233462    11.00000   -1.20000
AFIX   0
N2    3    0.088258    0.761349    0.209614    11.00000    0.05499    0.09018 =
         0.05268   -0.01603    0.00123    0.02144
AFIX  43
H2    2    0.063245    0.793086    0.178561    11.00000   -1.20000
AFIX   0
O3    4    0.186375    0.761724    0.307221    11.00000    0.06060    0.12279 =
         0.08180   -0.03878   -0.02105    0.04865

C12   1    0.448947    0.837741    0.812999    11.00000    0.04246    0.04403 =
         0.05134   -0.00533    0.00347    0.00692
C63   1    0.397673    0.590408    0.416200    11.00000    0.05188    0.04490 =
         0.05137    0.00559    0.01412    0.00705
AFIX  23
H63A  2    0.435111    0.557118    0.398738    11.00000   -1.20000
H63B  2    0.412408    0.584731    0.463776    11.00000   -1.20000
AFIX   0

C10   1    0.420879    0.979743    0.788366    11.00000    0.05270    0.04550 =
         0.07439    0.00414    0.01027    0.01210
AFIX  43
H10   2    0.393467    1.020093    0.760362    11.00000   -1.20000
AFIX   0

C7    1    0.136815    0.798728    0.265276    11.00000    0.04431    0.10523 =
         0.06391   -0.02635    0.00611    0.02062
C15   1    0.394381    0.718441    0.743430    11.00000    0.03446    0.04711 =
         0.04726   -0.00740    0.00629    0.00281
C58   1    0.376224    0.695696    0.326177    11.00000    0.05206    0.04825 =
         0.04756    0.00412    0.01319    0.00605
AFIX  23
H58A  2    0.317623    0.689158    0.316178    11.00000   -1.20000
H58B  2    0.387347    0.752328    0.317763    11.00000   -1.20000
AFIX   0

C11   1    0.407957    0.898643    0.771319    11.00000    0.04574    0.05123 =
         0.05879   -0.00087   -0.00138    0.00632
AFIX  43
H11   2    0.371851    0.884486    0.731964    11.00000   -1.20000
AFIX   0
C16   1    0.369223    0.590724    0.683093    11.00000    0.05471    0.04778 =
         0.05407   -0.00891    0.00431   -0.00337
AFIX  23
H16A  2    0.320725    0.619241    0.659662    11.00000   -1.20000
H16B  2    0.352722    0.537820    0.696352    11.00000   -1.20000
AFIX   0

C1    1    0.040068    0.515653    0.177528    11.00000    0.09045    0.07502 =
         0.06290   -0.00184    0.02538    0.03832
O8    4    0.453317    1.138096    0.822038    11.00000    0.10386    0.04680 =
         0.12315   -0.00410    0.04140    0.01020
C55   1    0.377082    0.824049    0.431992    11.00000    0.04964    0.05163 =
         0.06916   -0.00478    0.02337    0.00087
AFIX  23
H55A  2    0.357904    0.840886    0.386422    11.00000   -1.20000
H55B  2    0.434779    0.835956    0.445491    11.00000   -1.20000
AFIX   0

C6    1   -0.006000    0.572602    0.136584    11.00000    0.07566    0.07896 =
         0.05538   -0.00452    0.00672    0.02187
AFIX  43
H6    2   -0.048743    0.556319    0.102165    11.00000   -1.20000
AFIX   0

C64   1    0.313242    0.556644    0.391116    11.00000    0.05891    0.05106 =
         0.07628    0.00568    0.00368   -0.00174
AFIX  23
H64A  2    0.298693    0.558666    0.343345    11.00000   -1.20000
H64B  2    0.274685    0.589954    0.407251    11.00000   -1.20000
AFIX   0

C8    1    0.153814    0.923090    0.328539    11.00000    0.04543    0.08101 =
         0.05702   -0.01186    0.00522   -0.00353
AFIX  23
H8A   2    0.166901    0.978726    0.318787    11.00000   -1.20000
H8B   2    0.203459    0.897075    0.352674    11.00000   -1.20000
AFIX   0

C49   1    0.500432    0.697927    0.416725    11.00000    0.03845    0.05526 =
         0.06553    0.00560    0.01692    0.00587
AFIX  23
H49A  2    0.527577    0.659310    0.393926    11.00000   -1.20000
H49B  2    0.508210    0.752025    0.400253    11.00000   -1.20000
AFIX   0

C9    1    0.473076    1.001070    0.845464    11.00000    0.05603    0.04539 =
         0.08325   -0.01283    0.00872    0.00675
PART 1
C47   1    0.253483    1.052040    0.628371    10.75000    0.04481    0.05476 =
         0.06437    0.00716    0.01487   -0.00235
AFIX  23
H47A  2    0.303061    1.021319    0.645209    10.75000   -1.20000
H47B  2    0.249814    1.063577    0.582205    10.75000   -1.20000
AFIX   0

PART 0
O2    4    0.057616    0.380031    0.206961    11.00000    0.19882    0.08812 =
         0.09908    0.01500    0.04297    0.07203

C57   1    0.344576    0.963831    0.468464    11.00000    0.07641    0.05726 =
         0.07125   -0.01377    0.01923    0.00216
AFIX  33
H57A  2    0.315706    0.992525    0.495944    11.00000   -1.50000
H57B  2    0.324164    0.980182    0.423435    11.00000   -1.50000
H57C  2    0.401457    0.976544    0.482107    11.00000   -1.50000
AFIX   0

C4    1    0.076488    0.678602    0.199561    11.00000    0.05560    0.08815 =
         0.05121   -0.01186    0.00675    0.02856
PART 1
C33   1    0.047589    0.874952    0.565576    10.75000    0.04102    0.04820 =
         0.04806    0.00368    0.00164    0.00586
AFIX  23
H33A  2    0.028302    0.927240    0.577615    10.75000   -1.20000
H33B  2    0.059730    0.881365    0.522739    10.75000   -1.20000
AFIX   0

PART 0
C14   1    0.513627    0.942231    0.888175    11.00000    0.08699    0.05925 =
         0.07990   -0.01834   -0.02428    0.00578
AFIX  43
H14   2    0.548844    0.957218    0.927735    11.00000   -1.20000
AFIX   0

C59   1    0.409250    0.642685    0.279283    11.00000    0.08179    0.06644 =
         0.05793    0.00055    0.02168    0.02203
AFIX  23
H59A  2    0.467260    0.652062    0.286357    11.00000   -1.20000
H59B  2    0.401259    0.585699    0.288871    11.00000   -1.20000
AFIX   0
C56   1    0.332552    0.872456    0.474644    11.00000    0.05270    0.05434 =
         0.05453   -0.00829    0.01323    0.00437
AFIX  23
H56A  2    0.274959    0.859916    0.461613    11.00000   -1.20000
H56B  2    0.352345    0.856267    0.520312    11.00000   -1.20000
AFIX   0

C5    1    0.012159    0.653416    0.147393    11.00000    0.06733    0.07864 =
         0.04605   -0.00097    0.00428    0.02352
AFIX  43
H5    2   -0.018422    0.692432    0.119882    11.00000   -1.20000
AFIX   0

PART 1
C45   1    0.190113    0.916467    0.610238    10.75000    0.05187    0.05213 =
         0.04413    0.00540    0.01280   -0.00553
AFIX  23
H45A  2    0.242311    0.895435    0.634261    10.75000   -1.20000
H45B  2    0.192054    0.920341    0.564294    10.75000   -1.20000
AFIX   0

PART 0
C13   1    0.501355    0.861510    0.871571    11.00000    0.08109    0.05246 =
         0.06207   -0.00908   -0.01867    0.01509
AFIX  43
H13   2    0.528779    0.821764    0.900214    11.00000   -1.20000
AFIX   0

PART 1
C35   1   -0.090424    0.833457    0.502757    10.75000    0.04829    0.05931 =
         0.06329    0.00769   -0.00465    0.00339
AFIX  23
H35A  2   -0.114781    0.884633    0.511545    10.75000   -1.20000
H35B  2   -0.071106    0.840273    0.462912    10.75000   -1.20000
AFIX   0

PART 0
N1    3    0.018201    0.429820    0.169026    11.00000    0.11962    0.08603 =
         0.09128    0.00432    0.04379    0.04454
C2    1    0.103655    0.537556    0.227911    11.00000    0.09964    0.10598 =
         0.06892   -0.00150   -0.00242    0.06342
AFIX  43
H2A   2    0.134519    0.497652    0.254194    11.00000   -1.20000
AFIX   0
O1    4   -0.039468    0.410874    0.123866    11.00000    0.10873    0.07654 =
         0.14851   -0.01254    0.02599    0.02268

PART 1
C29   1    0.109312    0.855204    0.684374    10.75000    0.04933    0.04572 =
         0.04827    0.00616    0.01160   -0.00640
AFIX  23
H29A  2    0.081133    0.905724    0.688849    10.75000   -1.20000
H29B  2    0.072517    0.810700    0.687389    10.75000   -1.20000
AFIX   0

C30   1    0.180694    0.848812    0.741453    10.75000    0.05174    0.06161 =
         0.04793    0.00544    0.00839   -0.00242
AFIX  23
H30A  2    0.218553    0.892535    0.738995    10.75000   -1.20000
H30B  2    0.208194    0.797321    0.738961    10.75000   -1.20000
AFIX   0

C17   1    0.156015    0.768939    0.603625    10.75000    0.04053    0.04293 =
         0.05888    0.00307    0.00214    0.00443
AFIX  23
H17A  2    0.209858    0.761896    0.632100    10.75000   -1.20000
H17B  2    0.120661    0.728700    0.616533    10.75000   -1.20000
AFIX   0

PART 0
C65   1    0.308689    0.469195    0.413767    11.00000    0.06910    0.05329 =
         0.06937    0.00692    0.00082   -0.00810
PART 2
AFIX  23
H65A  2    0.356223    0.439753    0.407930   -41.00000   -1.20000
H65B  2    0.309872    0.469095    0.460425   -41.00000   -1.20000
AFIX  23
PART 0
PART 1
H66A  2    0.333425    0.465856    0.460593    41.00000   -1.20000
H66B  2    0.339707    0.434519    0.391047    41.00000   -1.20000
AFIX   0
PART 0
C50   1    0.540884    0.695065    0.489061    11.00000    0.05289    0.09764 =
         0.07614    0.00379    0.00362   -0.00424
AFIX  23
H50A  2    0.540784    0.639233    0.504638    11.00000   -1.20000
H50B  2    0.510054    0.728115    0.513092    11.00000   -1.20000
AFIX   0
C54   1    0.364107    0.733064    0.437243    11.00000    0.04151    0.05000 =
         0.05432   -0.00399    0.01588    0.00192
AFIX  23
H54A  2    0.306433    0.721889    0.421936    11.00000   -1.20000
H54B  2    0.379946    0.717866    0.483405    11.00000   -1.20000
AFIX   0

PART 1
C19   1    0.202391    0.671159    0.528514    10.75000    0.07091    0.06379 =
         0.05776   -0.00473    0.02080    0.01113
AFIX  23
H19A  2    0.200532    0.663023    0.482179    10.75000   -1.20000
H19B  2    0.259183    0.677501    0.550925    10.75000   -1.20000
AFIX   0

C31   1    0.157070    0.853750    0.806938    10.75000    0.05489    0.05957 =
         0.04489    0.00852    0.01358   -0.00055
AFIX  23
H31A  2    0.118690    0.898108    0.805545    10.75000   -1.20000
H31B  2    0.130475    0.803323    0.814375    10.75000   -1.20000
AFIX   0

PART 0
N4    3    0.487325    1.086928    0.862166    11.00000    0.07201    0.05283 =
         0.11486   -0.02102    0.01784    0.00468

PART 1
C46   1    0.181217    1.000758    0.634491    10.75000    0.05679    0.05239 =
         0.06499    0.00859    0.01505   -0.00458
AFIX  23
H46A  2    0.177913    0.998775    0.680199    10.75000   -1.20000
H46B  2    0.131508    1.025159    0.608845    10.75000   -1.20000
AFIX   0

PART 0
C3    1    0.121787    0.617781    0.239600    11.00000    0.07598    0.11065 =
         0.07710   -0.02142   -0.01485    0.05020
AFIX  43
H3A   2    0.164621    0.632646    0.274457    11.00000   -1.20000
AFIX   0

O7    4    0.530448    1.104831    0.915856    11.00000    0.10811    0.06948 =
         0.16159   -0.05090   -0.02651    0.00732
C60   1    0.369700    0.659229    0.209493    11.00000    0.12177    0.09398 =
         0.05298   -0.00713    0.01932    0.03706
PART 1
AFIX  23
H61A  2    0.404300    0.635194    0.183578    21.00000   -1.20000
H61B  2    0.319438    0.628212    0.199602    21.00000   -1.20000
AFIX  23
PART 0
PART 2
H60A  2    0.403046    0.701620    0.196808   -21.00000   -1.20000
H60B  2    0.380232    0.610399    0.186528   -21.00000   -1.20000
AFIX   0

PART 0
PART 1
C20   1    0.173140    0.594793    0.553206    10.75000    0.07922    0.06719 =
         0.07834    0.00949    0.01062    0.00346
AFIX 137
H20A  2    0.115952    0.588655    0.534365    10.75000   -1.50000
H20B  2    0.182696    0.597209    0.600343    10.75000   -1.50000
H20C  2    0.201813    0.549020    0.540915    10.75000   -1.50000
AFIX   0

C34   1   -0.019038    0.813853    0.559723    10.75000    0.04641    0.06857 =
         0.06072    0.00928    0.00617   -0.00641
AFIX  23
H34A  2   -0.037297    0.812948    0.600372    10.75000   -1.20000
H34B  2    0.001649    0.759963    0.553269    10.75000   -1.20000
AFIX   0

PART 0
C51   1    0.628092    0.726234    0.503066    11.00000    0.04916    0.07663 =
         0.10908    0.00446    0.00044   -0.00135
PART 1
AFIX  23
H51A  2    0.658308    0.703469    0.544540    31.00000   -1.20000
H51B  2    0.653270    0.707000    0.468699    31.00000   -1.20000
AFIX  23
PART 0
PART 2
H51C  2    0.662417    0.678787    0.502992   -31.00000   -1.20000
H51D  2    0.632345    0.759220    0.465443   -31.00000   -1.20000
AFIX   0

PART 0
PART 1
C36   1   -0.153318    0.767748    0.492199    10.75000    0.06894    0.08979 =
         0.07249    0.00706   -0.00473   -0.01513
AFIX 137
H36A  2   -0.196386    0.781147    0.454736    10.75000   -1.50000
H36B  2   -0.174906    0.763076    0.530601    10.75000   -1.50000
H36C  2   -0.129120    0.716754    0.484467    10.75000   -1.50000
AFIX   0

C48   1    0.257649    1.131657    0.665693    10.75000    0.07052    0.05343 =
         0.08485   -0.00038    0.01479   -0.00472
AFIX 137
H48A  2    0.209377    1.162967    0.648296    10.75000   -1.50000
H48B  2    0.304437    1.162085    0.661001    10.75000   -1.50000
H48C  2    0.261778    1.120490    0.711491    10.75000   -1.50000
AFIX   0

C32   1    0.230113    0.867669    0.863018    10.75000    0.07720    0.07610 =
         0.05116    0.00754    0.00595    0.00176
AFIX 137
H32A  2    0.255895    0.918118    0.856216    10.75000   -1.50000
H32B  2    0.267834    0.823427    0.864891    10.75000   -1.50000
H32C  2    0.213187    0.870339    0.903707    10.75000   -1.50000
AFIX   0

C18   1    0.160339    0.751873    0.534562    10.75000    0.06336    0.06314 =
         0.06276    0.00058    0.01076    0.00015
AFIX  23
H18A  2    0.189683    0.795736    0.519176    10.75000   -1.20000
H18B  2    0.105702    0.750534    0.506610    10.75000   -1.20000
AFIX   0

PART 0
PART 2
C66   1    0.233849    0.425394    0.377222   -41.00000    0.07503    0.07332 =
         0.12721    0.02768   -0.01453   -0.00552
AFIX  33
H66C  2    0.234182    0.370534    0.393564   -41.00000   -1.50000
H66D  2    0.232889    0.424090    0.331093   -41.00000   -1.50000
H66E  2    0.186508    0.453482    0.383586   -41.00000   -1.50000
AFIX   0

PART 0
PART 1
C52   1    0.633712    0.815186    0.506486    31.00000    0.06384    0.07377 =
         0.09216    0.01285   -0.00677   -0.00733
AFIX  33
H52A  2    0.689794    0.831292    0.515407    31.00000   -1.50000
H52B  2    0.610008    0.834625    0.541080    31.00000   -1.50000
H52C  2    0.605030    0.838153    0.465222    31.00000   -1.50000
AFIX   0

PART 0
PART 2
C38   1   -0.005835    0.862583    0.520349    10.25000    0.03244    0.07215 =
         0.03722    0.01980   -0.01339   -0.01562
AFIX  23
H38A  2    0.005520    0.918741    0.510661    10.25000   -1.20000
H38B  2    0.017548    0.827074    0.492530    10.25000   -1.20000
AFIX   0
C37   1    0.032492    0.843594    0.593967    10.25000    0.01943    0.04956 =
         0.02765    0.01075    0.00117   -0.00660
AFIX  23
H37A  2    0.007961    0.879352    0.620862    10.25000   -1.20000
H37B  2    0.018838    0.787867    0.602955    10.25000   -1.20000
AFIX   0
C41   1    0.146316    0.941693    0.602354    10.25000    0.02300    0.03402 =
         0.03536    0.00653    0.00628    0.01126
AFIX  23
H41A  2    0.115875    0.978249    0.624114    10.25000   -1.20000
H41B  2    0.130085    0.952444    0.555392    10.25000   -1.20000
AFIX   0
C42   1    0.239467    0.959756    0.627715    10.25000    0.01965    0.03730 =
         0.04596    0.00629    0.00733    0.00124
AFIX  23
H42A  2    0.256554    0.945071    0.673929    10.25000   -1.20000
H42B  2    0.269638    0.926087    0.603565    10.25000   -1.20000
AFIX   0
C25   1    0.153271    0.825175    0.685770    10.25000    0.01404    0.03846 =
         0.02973    0.00489    0.00407    0.01616
AFIX  23
H25A  2    0.212092    0.820841    0.697562    10.25000   -1.20000
H25B  2    0.130822    0.771565    0.690409    10.25000   -1.20000
AFIX   0
C26   1    0.124837    0.887344    0.733337    10.25000    0.02917    0.04531 =
         0.03164    0.00476    0.00816    0.01294
AFIX  23
H26A  2    0.150789    0.939918    0.731799    10.25000   -1.20000
H26B  2    0.066403    0.894912    0.719938    10.25000   -1.20000
AFIX   0
C22   1    0.145151    0.705600    0.574959    10.25000    0.03494    0.04383 =
         0.03542    0.00097    0.00922    0.00062
AFIX  23
H22A  2    0.160711    0.688475    0.620685    10.25000   -1.20000
H22B  2    0.086513    0.700363    0.560838    10.25000   -1.20000
AFIX   0
C21   1    0.166496    0.798396    0.572376    10.25000    0.04017    0.04221 =
         0.03018    0.00253    0.01493    0.00227
AFIX  23
H21A  2    0.224981    0.804842    0.586876    10.25000   -1.20000
H21B  2    0.150254    0.816863    0.527022    10.25000   -1.20000
AFIX   0
C40   1   -0.112248    0.758305    0.495399    10.25000    0.05588    0.07533 =
         0.12233   -0.01589   -0.00550   -0.00142
AFIX 137
H40A  2   -0.079936    0.738390    0.466648    10.25000   -1.50000
H40B  2   -0.168714    0.748553    0.475756    10.25000   -1.50000
H40C  2   -0.097068    0.730380    0.536925    10.25000   -1.50000
AFIX   0
C39   1   -0.098110    0.849053    0.506220    10.25000    0.03449    0.06178 =
         0.07282   -0.01199   -0.01487   -0.00011
AFIX  23
H39A  2   -0.118983    0.867393    0.543203    10.25000   -1.20000
H39B  2   -0.125386    0.879269    0.467293    10.25000   -1.20000
AFIX   0

PART 0
PART 1
C61   1    0.350313    0.737240    0.184553    21.00000    0.22521    0.07615 =
         0.05380    0.00449    0.03144    0.04659
AFIX  33
H62A  2    0.325172    0.733856    0.138331    21.00000   -1.50000
H62B  2    0.398976    0.769424    0.190967    21.00000   -1.50000
H62C  2    0.313386    0.762378    0.207117    21.00000   -1.50000
AFIX   0

PART 0
PART 2
C62   1    0.295025    0.679738    0.179514   -21.00000    0.10279    0.14637 =
         0.07232    0.00302    0.01580    0.05658
AFIX  33
H62D  2    0.291259    0.685780    0.133170   -21.00000   -1.50000
H62E  2    0.281156    0.730509    0.197124   -21.00000   -1.50000
H62F  2    0.258118    0.637906    0.186352   -21.00000   -1.50000
AFIX   0

C24   1    0.177455    0.552007    0.541623    10.25000    0.08457    0.06362 =
         0.10395   -0.01811    0.02047    0.01224
AFIX 137
H24A  2    0.198095    0.526081    0.507693    10.25000   -1.50000
H24B  2    0.121839    0.536201    0.537389    10.25000   -1.50000
H24C  2    0.209305    0.535487    0.584014    10.25000   -1.50000
AFIX   0
C23   1    0.182468    0.645386    0.534846    10.25000    0.06723    0.05838 =
         0.06103   -0.00545    0.01391   -0.00968
AFIX  23
H23A  2    0.239814    0.658808    0.543131    10.25000   -1.20000
H23B  2    0.159165    0.657943    0.488860    10.25000   -1.20000
AFIX   0

C53   1    0.662699    0.770095    0.557558   -31.00000    0.05957    0.21258 =
         0.15932   -0.09284    0.00734    0.00540
AFIX  33
H53A  2    0.717726    0.783304    0.556797   -31.00000   -1.50000
H53B  2    0.662424    0.738462    0.596212   -31.00000   -1.50000
H53C  2    0.632453    0.819579    0.558251   -31.00000   -1.50000
AFIX   0

C28   1    0.240719    0.857849    0.830422    10.25000    0.06696    0.08469 =
         0.03822    0.01331    0.01321    0.01106
AFIX 137
H28A  2    0.267316    0.821887    0.805862    10.25000   -1.50000
H28B  2    0.254413    0.842230    0.876022    10.25000   -1.50000
H28C  2    0.258234    0.912973    0.826237    10.25000   -1.50000
AFIX   0
C27   1    0.148834    0.852216    0.803634    10.25000    0.05489    0.05957 =
         0.04489    0.00852    0.01358   -0.00055
AFIX  23
H27A  2    0.121563    0.882525    0.832041    10.25000   -1.20000
H27B  2    0.131798    0.795579    0.803146    10.25000   -1.20000
AFIX   0

PART 0
PART 1
C67   1    0.220422    0.436917    0.400740    41.00000    0.06410    0.05826 =
         0.11372    0.00265   -0.00044   -0.01525
AFIX  33
H68A  2    0.220834    0.381494    0.415879    41.00000   -1.50000
H68B  2    0.195957    0.438973    0.354344    41.00000   -1.50000
H68C  2    0.189697    0.470252    0.423914    41.00000   -1.50000
AFIX   0

PART 0
PART 2
C44   1    0.224163    1.100312    0.667729    10.25000    0.06822    0.04778 =
         0.06893    0.00786    0.02678   -0.00979
AFIX 137
H44A  2    0.238670    1.156730    0.665217    10.25000   -1.50000
H44B  2    0.245443    1.080556    0.711716    10.25000   -1.50000
H44C  2    0.166022    1.095075    0.656552    10.25000   -1.50000
AFIX   0
C43   1    0.259806    1.050202    0.619419    10.25000    0.04878    0.04823 =
         0.06408    0.00608    0.01809   -0.01069
AFIX  23
H43A  2    0.318261    1.057689    0.628654    10.25000   -1.20000
H43B  2    0.236531    1.067815    0.574572    10.25000   -1.20000
AFIX   0
HKLF 5

REM
REM R1 =  0.0510 for    9197 Fo > 4sig(Fo)  and  0.0744 for all   13457 data
REM    808 parameters refined using    826 restraints

END

WGHT      0.0917      0.0000

REM Highest difference peak  0.291,  deepest hole -0.278,  1-sigma level  0.044
Q1    1   0.4058  0.6477  0.5778  11.00000  0.05    0.29
Q2    1   0.0400  0.8405  0.3967  11.00000  0.05    0.26
Q3    1   0.5346  0.5790  0.6605  11.00000  0.05    0.26
Q4    1   0.1689  0.7247  0.3099  11.00000  0.05    0.26
Q5    1   0.4634  0.6205  0.6179  11.00000  0.05    0.23
Q6    1   0.0525  0.8795  0.3900  11.00000  0.05    0.22
Q7    1   0.0776  0.7188  0.2160  11.00000  0.05    0.22
Q8    1   0.0351  0.9416  0.3620  11.00000  0.05    0.22
Q9    1   0.4142  0.5581  0.5639  11.00000  0.05    0.22
Q10   1   0.1255  0.7647  0.2749  11.00000  0.05    0.21
Q11   1   0.4935  0.6565  0.6012  11.00000  0.05    0.20
Q12   1   0.1396  0.7614  0.8122  11.00000  0.05    0.20
Q13   1   0.4006  0.5780  0.6609  11.00000  0.05    0.20
Q14   1   0.1194  0.9261  0.3502  11.00000  0.05    0.19
Q15   1   0.4353  0.7944  0.8040  11.00000  0.05    0.18
Q16   1   0.1950  0.7785  0.2856  11.00000  0.05    0.18
Q17   1   0.0846  0.9827  0.4435  11.00000  0.05    0.18
Q18   1   0.6613  0.6841  0.4854  11.00000  0.05    0.18
Q19   1   0.5433  0.8373  0.8714  11.00000  0.05    0.17
Q20   1   0.4185  0.7381  0.7853  11.00000  0.05    0.17
;
_shelx_res_checksum              62951
_shelx_hkl_file
;
   0   0  -2 43294.4 54.1405   1
   0   0  -4 59041.8 91.4551   1
   0   0  -6 1082.85 24.7708   1
   0   0   8 3342.39 37.3976   1
   0   0 -10 13094.0 73.7626   1
   0   0  12 2302.75 68.9838   1
   0   0 -14 1103.82 34.0256   1
   0   0 -16 8646.26 73.4593   1
   0   0 -18 133.406 41.6492   1
   0   0 -20 1625.92 52.5630   1
   0   0 -22 154.757 33.7757   1
   0   0 -24 63.6114 24.4354   1
   0  -1  -2 107.540 6.18607  -2
   0  -1   2 107.540 6.18607   1
   0  -1  -3 22.3422 13.8534   1
   0   1  -3 18.4402 19.9707  -2
   0   1   3 18.4402 19.9707   1
   0  -1   4 464.537 20.2736   1
   0   1  -4 594.557 30.3440  -2
   0   1   4 594.557 30.3440   1
   0  -1   5 10273.8 51.5225   1
   0   1  -5 12738.0 74.1558  -2
   0   1   5 12738.0 74.1558   1
   0   1  -6 337.125 16.2481   1
   0   1  -6 365.950 37.3087  -2
   0   1   6 365.950 37.3087   1
   0  -1   7 4541.69 35.5441   1
   0   1  -7 5837.71 65.5718  -2
   0   1   7 5837.71 65.5718   1
   0   1   8 198.416 15.4776   1
   0   1   9 4.43293 15.5950   1
   0  -1  10 535.456 19.3803   1
   0  -1 -11 2553.34 36.5631   1
   0  -1  12 126.659 23.9000   1
   0  -1  13 249.445 35.2489   1
   0   1  14 257.754 20.4955   1
   0  -1  15 34.7733 20.8212   1
   0   1 -16 64.2575 24.8480   1
   0  -1 -17 1322.04 35.4652   1
   0  -1 -18 20.8398 27.8223   1
   0  -1 -19 249.277 30.6187   1
   0   1 -20 96.7194 27.9289   1
   0  -1 -21 195.188 26.7699   1
   0   1 -22 35.4580 23.6337   1
   0  -1 -23 259.508 22.3029   1
   0  -1 -24 25.4454 17.7682   1
   0   2  -1 2961.27 36.8241  -2
   0   2   1 2961.27 36.8241   1
   0   2   2 386.783 13.2780  -2
   0   2  -2 386.783 13.2780   1
   0   2  -4 129625. 134.262   1
   0  -2   4 159101. 254.092  -2
   0  -2  -4 159101. 254.092   1
   0   2  -5 4903.03 33.3007   1
   0  -2   5 6068.31 67.6436  -2
   0  -2  -5 6068.31 67.6436   1
   0  -2  -6 1333.08 18.5293   1
   0   2  -6 1568.90 41.8054  -2
   0   2   6 1568.90 41.8054   1
   0   2  -7 42.9152 13.3013   1
   0   2  -8 6483.86 35.1111   1
   0  -2  -9 10046.9 51.3044   1
   0  -2 -10 19803.6 98.2653   1
   0   2  11 411.231 25.8096   1
   0  -2 -12 13.0830 22.9837   1
   0  -2 -13 112.400 30.4233   1
   0   2 -14 27.8145 20.6579   1
   0   2 -15 1862.64 28.8645   1
   0   2 -16 41.9016 18.9415   1
   0   2 -17 21.5981 24.8663   1
   0  -2 -18 301.182 30.4585   1
   0   2 -19 806.806 33.5064   1
   0  -2 -20 2086.14 38.2144   1
   0   2 -21 213.092 26.7890   1
   0  -2 -22 34.5298 22.1119   1
   0  -2 -23 744.540 38.3129   1
   0  -2 -24 170.256 27.6470   1
   0  -3   1 495.055 25.1066  -2
   0  -3  -1 495.055 25.1066   1
   0   3   2 177.252 17.9959  -2
   0   3  -2 177.252 17.9959   1
   0   3  -3 1022.90 44.9075  -2
   0   3   3 1022.90 44.9075   1
   0   3  -4 2885.12 27.3702   1
   0   3  -4 4024.31 65.7457  -2
   0   3   4 4024.31 65.7457   1
   0  -3   5 301.543 31.4505  -2
   0  -3  -5 301.543 31.4505   1
   0   3  -6 358.484 13.9222   1
   0  -3   6 516.845 48.0760  -2
   0  -3  -6 516.845 48.0760   1
   0   3  -7 2587.44 41.2305   1
   0  -3  -8 312.095 27.9447   1
   0  -3  -9 1065.04 35.6323   1
   0  -3 -10 3841.57 53.6310   1
   0  -3 -11 14.1822 29.1877   1
   0  -3 -12 289.104 33.2325   1
   0  -3 -13 454.047 29.7266   1
   0  -3  14 5.89928 19.4691   1
   0  -3  15 268.326 18.5174   1
   0   3 -16 374.033 20.0716   1
   0   3  17 77.5105 19.5406   1
   0  -3 -18 391.171 22.9379   1
   0   3 -19 153.949 27.9734   1
   0  -3 -20 468.218 29.2167   1
   0  -3 -21 15.3344 39.2862   1
   0  -3 -22 139.669 37.2131   1
   0  -3 -23 91.5663 33.4115   1
   0  -3 -24 159.291 27.3923   1
   0  -4   1 102634. 285.016  -2
   0  -4  -1 102634. 285.016   1
   0   4  -2 12250.1 95.4648  -2
   0   4   2 12250.1 95.4648   1
   0   4  -3 45589.1 92.9375  -2
   0   4   3 45589.1 92.9375   1
   0  -4   4 6783.82 34.4524   1
   0   4  -4 9155.23 96.8897  -2
   0   4   4 9155.23 96.8897   1
   0   4  -5 20204.9 65.1032   1
   0   4  -5 28723.5 108.180  -2
   0   4   5 28723.5 108.180   1
   0   4  -6 3741.22 24.9902   1
   0   4  -6 5210.47 55.2489  -2
   0   4   6 5210.47 55.2489   1
   0  -4   7 11692.4 108.164   1
   0   4  -7 14963.0 85.2121  -2
   0   4   7 14963.0 85.2121   1
   0  -4   8 24084.2 113.500   1
   0  -4   8 28859.6 167.818  -2
   0  -4  -8 28859.6 167.818   1
   0  -4  -9 159.244 25.5776   1
   0  -4  10 335.107 27.0943   1
   0  -4 -11 60.4863 26.4461   1
   0  -4 -12 1118.54 36.2175   1
   0  -4  13 576.761 24.4534   1
   0  -4  14 1535.20 30.7081   1
   0   4  15 742.804 25.5148   1
   0  -4  16 307.108 23.3750   1
   0  -4 -17 1730.32 32.9899   1
   0  -4 -18 7.05415 26.2655   1
   0  -4 -19 655.770 29.0052   1
   0  -4 -20 374.436 46.8135   1
   0  -4 -21 289.086 41.3696   1
   0  -4 -22 21.7496 35.7300   1
   0  -4 -23 37.9327 31.4298   1
   0  -4 -24 2.25136 24.8515   1
   0  -5  -1 187.462 27.0756  -2
   0  -5   1 187.462 27.0756   1
   0   5   2 71.3357 17.4049  -2
   0   5  -2 71.3357 17.4049   1
   0  -5  -3 13.3317 16.3798  -2
   0  -5   3 13.3317 16.3798   1
   0  -5   4 351.465 16.8515   1
   0  -5   4 466.347 28.6286  -2
   0  -5  -4 466.347 28.6286   1
   0   5  -5 100.465 12.9728   1
   0   5  -5 164.920 33.1323  -2
   0   5   5 164.920 33.1323   1
   0   5  -6 23.1610 12.8747   1
   0  -5  -6 30.3424 28.1969  -2
   0  -5   6 30.3424 28.1969   1
   0  -5   7 69.5949 39.4091   1
   0  -5   7 62.3682 37.6897  -2
   0  -5  -7 62.3682 37.6897   1
   0  -5   8 1402.09 57.3575   1
   0  -5   8 1673.07 47.5304  -2
   0  -5  -8 1673.07 47.5304   1
   0  -5  -9 693.980 30.3367   1
   0   5  10 109.247 26.9016   1
   0   5  11 556.848 31.2352   1
   0   5  12 183.216 36.1331   1
   0  -5 -13 8.23998 18.4319   1
   0   5  14 26.8326 19.7207   1
   0  -5 -15 1001.32 27.8760   1
   0  -5 -16 587.300 25.2133   1
   0   5  17 12.2040 22.7455   1
   0  -5  18 60.4615 25.8133   1
   0  -5 -19 71.0657 25.9431   1
   0  -5  20 611.527 27.0870   1
   0  -5 -21 319.555 41.5652   1
   0  -5 -22 71.8346 34.8913   1
   0  -5 -23 54.1074 30.6821   1
   0  -5 -24 159.039 24.6912   1
   0   6   0 4773.12 92.0733  -2
   0   6   0 4773.12 92.0733   1
   0   6  -1 1958.57 47.9003  -2
   0   6   1 1958.57 47.9003   1
   0   6  -2 1077.31 28.5090  -2
   0   6   2 1077.31 28.5090   1
   0   6   3 670.306 21.0691  -2
   0   6  -3 670.306 21.0691   1
   0   6   4 9495.13 66.0731  -2
   0   6  -4 9495.13 66.0731   1
   0   6  -5 5.61146 13.9538   1
   0   6  -5 49.4965 29.7719  -2
   0   6   5 49.4965 29.7719   1
   0  -6  -6 316.881 31.8267  -2
   0  -6   6 316.881 31.8267   1
   0  -6   7 7.32886 37.5388   1
   0  -6   7 30.6408 36.9675  -2
   0  -6  -7 30.6408 36.9675   1
   0  -6   8 2703.62 70.4876   1
   0  -6   8 3395.34 57.2492  -2
   0  -6  -8 3395.34 57.2492   1
   0  -6   9 1998.58 47.6505   1
   0  -6   9 2386.08 79.1882  -2
   0  -6  -9 2386.08 79.1882   1
   0   6  10 0.71554 27.2963   1
   0  -6  11 1561.67 50.1499   1
   0  -6  12 6252.92 83.0760   1
   0  -6  13 1001.09 23.5845   1
   0   6  14 163.264 20.7929   1
   0  -6  15-3.18379 21.2592   1
   0  -6 -16 1403.30 28.8784   1
   0  -6  17 522.535 28.4144   1
   0  -6  18 94.0552 26.2186   1
   0  -6 -19 81.7910 25.0366   1
   0  -6  20 471.034 25.7890   1
   0  -6 -21 49.6131 35.3375   1
   0  -6 -22 22.5681 32.0958   1
   0  -6 -23 77.6412 28.3858   1
   0  -6 -24 231.721 22.3485   1
   0   7  -1 4776.00 55.1030  -2
   0   7   1 4776.00 55.1030   1
   0   7   2 2586.76 45.3901  -2
   0   7  -2 2586.76 45.3901   1
   0   7   3 5021.07 49.7503  -2
   0   7  -3 5021.07 49.7503   1
   0   7   4 2663.11 49.4375  -2
   0   7  -4 2663.11 49.4375   1
   0   7  -5 64.2628 39.6379  -2
   0   7   5 64.2628 39.6379   1
   0   7  -6 1459.75 49.8279  -2
   0   7   6 1459.75 49.8279   1
   0   7  -7 90.8069 41.2394  -2
   0   7   7 90.8069 41.2394   1
   0  -7   8 70.2687 45.8478   1
   0   7  -8 97.5809 54.2439  -2
   0   7   8 97.5809 54.2439   1
   0   7   9-3.94171 30.8140   1
   0  -7  10-8.20673 30.8592   1
   0  -7  11-17.9518 35.1713   1
   0  -7  11 68.5154 36.1746  -2
   0  -7 -11 68.5154 36.1746   1
   0  -7 -12 24.1061 19.0588   1
   0   7  13 462.573 27.8153   1
   0  -7  14 176.504 21.6362   1
   0  -7  15 93.5012 22.1621   1
   0  -7  16 188.821 24.4714   1
   0  -7  17 76.6426 26.0295   1
   0  -7  18 17.1154 24.6433   1
   0  -7  19 30.1767 23.1613   1
   0  -7  20 20.2484 22.1650   1
   0  -7 -21 29.6123 19.7886   1
   0  -7 -22 35.5194 29.6108   1
   0  -7 -23-11.0962 24.1403   1
   0  -8   0 437.102 45.6796  -2
   0  -8   0 437.102 45.6796   1
   0   8   1 9534.97 69.6186  -2
   0   8  -1 9534.97 69.6186   1
   0   8   2 21695.7 104.348  -2
   0   8  -2 21695.7 104.348   1
   0   8   3 10256.0 67.8707  -2
   0   8  -3 10256.0 67.8707   1
   0   8   4 32918.2 167.119  -2
   0   8  -4 32918.2 167.119   1
   0  -8  -5 7654.05 85.3535  -2
   0  -8   5 7654.05 85.3535   1
   0  -8   6 517.232 51.2791   1
   0  -8  -7 947.725 49.4382  -2
   0  -8   7 947.725 49.4382   1
   0  -8   8 5239.85 102.412   1
   0   8  -8 6773.13 111.529  -2
   0   8   8 6773.13 111.529   1
   0  -8   9 1217.58 66.0639   1
   0   8  -9 1562.34 75.4375  -2
   0   8   9 1562.34 75.4375   1
   0   8  10 13.5993 17.3262   1
   0   8  11 4278.00 73.2564   1
   0  -8  11 4690.09 60.3694  -2
   0  -8 -11 4690.09 60.3694   1
   0   8 -12 241.423 27.0975   1
   0  -8  12 263.093 42.8077  -2
   0  -8 -12 263.093 42.8077   1
   0   8 -13 1550.57 35.7560   1
   0  -8  13 1720.88 53.4798  -2
   0  -8 -13 1720.88 53.4798   1
   0  -8  14 334.340 19.5984   1
   0  -8  15 431.900 24.0022   1
   0  -8 -16 1014.08 31.0052   1
   0  -8  17 666.483 28.4360   1
   0  -8  18 224.838 24.9672   1
   0  -8  19 1.49577 22.0736   1
   0  -8  20 300.055 22.9411   1
   0  -8  21 62.0683 18.7869   1
   0  -8 -22 11.5849 27.5594   1
   0  -8 -23-2.01279 20.1521   1
   0   9  -1 1269.23 33.1547  -2
   0   9   1 1269.23 33.1547   1
   0   9   2 495.392 30.2069  -2
   0   9  -2 495.392 30.2069   1
   0  -9  -3 82.8821 37.8041  -2
   0  -9   3 82.8821 37.8041   1
   0  -9  -4 33.3601 37.2207  -2
   0  -9   4 33.3601 37.2207   1
   0   9  -5 36.6723 41.0810  -2
   0   9   5 36.6723 41.0810   1
   0  -9  -6 69.8096 43.5037  -2
   0  -9   6 69.8096 43.5037   1
   0   9  -7 8.75917 43.2561  -2
   0   9   7 8.75917 43.2561   1
   0  -9   8 2235.89 79.5592   1
   0   9   8 2531.34 43.9233  -2
   0   9  -8 2531.34 43.9233   1
   0   9  -9 204.138 21.4763   1
   0   9  -9 202.631 33.5620  -2
   0   9   9 202.631 33.5620   1
   0   9  10 587.199 21.7416   1
   0  -9  10 686.842 43.4938  -2
   0  -9 -10 686.842 43.4938   1
   0   9 -11 15.2694 26.2910   1
   0  -9  11 37.6820 39.4954  -2
   0  -9 -11 37.6820 39.4954   1
   0   9 -12 695.412 31.7988   1
   0  -9  12 769.805 46.0589  -2
   0  -9 -12 769.805 46.0589   1
   0   9  13 753.896 33.5179   1
   0  -9  13 814.125 48.2666  -2
   0  -9 -13 814.125 48.2666   1
   0  -9  14 1769.96 32.8406   1
   0  -9  15 335.165 22.4034   1
   0  -9  16 946.911 29.6854   1
   0  -9  17 25.5247 24.1618   1
   0  -9 -18 41.8176 22.6268   1
   0  -9  19 32.0687 21.6157   1
   0  -9  20 4.11167 19.5807   1
   0  -9  21 47.5037 16.8716   1
   0  -9 -22 14.2709 21.8469   1
   0  10   0 13717.6 106.416  -2
   0  10   0 13717.6 106.416   1
   0  10  -1 67.5585 23.4584  -2
   0  10   1 67.5585 23.4584   1
   0 -10  -2 440.915 40.7939  -2
   0 -10   2 440.915 40.7939   1
   0  10   3 2763.62 75.2466  -2
   0  10  -3 2763.62 75.2466   1
   0  10  -4 385.848 62.1987   1
   0  10  -4 425.144 49.3376  -2
   0  10   4 425.144 49.3376   1
   0  10  -5 6079.40 57.1069  -2
   0  10   5 6079.40 57.1069   1
   0 -10   6 654.044 25.7229  -2
   0 -10  -6 654.044 25.7229   1
   0 -10   7 2588.53 39.0359   1
   0 -10   7 3054.12 47.9113  -2
   0 -10  -7 3054.12 47.9113   1
   0  10  -8 8.98058 29.4310   1
   0 -10   8 33.9672 27.1240  -2
   0 -10  -8 33.9672 27.1240   1
   0 -10   9 3046.83 45.2807   1
   0 -10   9 3705.64 51.0278  -2
   0 -10  -9 3705.64 51.0278   1
   0  10 -10 1779.85 30.7672   1
   0 -10  10 2143.74 50.7514  -2
   0 -10 -10 2143.74 50.7514   1
   0  10 -11 1591.22 38.0646   1
   0 -10  11 1860.04 51.1483  -2
   0 -10 -11 1860.04 51.1483   1
   0 -10  12 2105.69 46.5084   1
   0 -10  12 2468.40 54.7714  -2
   0 -10 -12 2468.40 54.7714   1
   0  10 -13 3426.58 53.9666   1
   0 -10  13 3823.27 62.9583  -2
   0 -10 -13 3823.27 62.9583   1
   0  10 -14 390.201 22.5510   1
   0 -10  15 1611.91 32.1760   1
   0 -10 -16 27.1448 19.8539   1
   0 -10  17 379.873 25.0145   1
   0 -10 -18 42.5436 21.7993   1
   0 -10  19 605.555 22.1944   1
   0 -10 -20 80.1790 18.3189   1
   0 -10 -21 312.337 15.9302   1
   0  11  -1 550.743 19.4989  -2
   0  11   1 550.743 19.4989   1
   0  11  -2 14.6562 18.9076  -2
   0  11   2 14.6562 18.9076   1
   0 -11  -3 23.5466 19.6162  -2
   0 -11   3 23.5466 19.6162   1
   0 -11   4 668.703 27.6955  -2
   0 -11  -4 668.703 27.6955   1
   0 -11   5 37.9270 25.7210  -2
   0 -11  -5 37.9270 25.7210   1
   0 -11   6 506.158 59.5581   1
   0  11   6 566.083 29.9752  -2
   0  11  -6 566.083 29.9752   1
   0 -11   7-9.37071 52.1793   1
   0 -11   7 3.13203 27.9612  -2
   0 -11  -7 3.13203 27.9612   1
   0  11  -8 444.489 36.2321   1
   0 -11   8 519.931 31.0509  -2
   0 -11  -8 519.931 31.0509   1
   0  11  -9 27.0979 24.1046   1
   0 -11   9 49.6537 38.8345  -2
   0 -11  -9 49.6537 38.8345   1
   0  11 -10 1990.30 47.8464   1
   0  11 -10 2377.30 49.2356  -2
   0  11  10 2377.30 49.2356   1
   0  11  11 39.3450 30.0837   1
   0 -11  11 2.12262 48.0027  -2
   0 -11 -11 2.12262 48.0027   1
   0  11  12 356.970 37.1647   1
   0 -11  12 458.994 45.1545  -2
   0 -11 -12 458.994 45.1545   1
   0  11 -13-7.38127 39.8390   1
   0 -11  14 47.4344 25.5094   1
   0 -11  15 148.640 20.2098   1
   0 -11 -16 178.891 19.6441   1
   0 -11 -17 150.519 21.9612   1
   0 -11  18 190.396 20.5505   1
   0 -11  19 16.9920 17.3586   1
   0 -11  20 54.9142 20.7749   1
   0 -12   0 6145.99 68.3875  -2
   0 -12   0 6145.99 68.3875   1
   0 -12  -1 67.0701 18.4871  -2
   0 -12   1 67.0701 18.4871   1
   0  12  -2 15.2911 16.7730  -2
   0  12   2 15.2911 16.7730   1
   0  12  -3 501.256 68.1675   1
   0 -12  -3 827.442 24.3701  -2
   0 -12   3 827.442 24.3701   1
   0  12  -4 8251.13 45.7014  -2
   0  12   4 8251.13 45.7014   1
   0 -12  -5 281.376 24.4919  -2
   0 -12   5 281.376 24.4919   1
   0 -12  -6 828.849 31.6086  -2
   0 -12   6 828.849 31.6086   1
   0  12   7 191.723 27.4339  -2
   0  12  -7 191.723 27.4339   1
   0  12  -8 878.404 40.3897   1
   0  12  -8 1029.21 35.1705  -2
   0  12   8 1029.21 35.1705   1
   0  12  -9 459.252 27.5601   1
   0 -12   9 567.997 44.8056  -2
   0 -12  -9 567.997 44.8056   1
   0  12 -10 1802.44 48.5965   1
   0  12 -10 2235.23 51.9475  -2
   0  12  10 2235.23 51.9475   1
   0  12 -11 403.511 46.4665   1
   0 -12  11 506.408 49.2722  -2
   0 -12 -11 506.408 49.2722   1
   0  12 -12 2607.80 59.9259   1
   0 -12  12 3288.44 58.3485  -2
   0 -12 -12 3288.44 58.3485   1
   0  12 -13 14.3093 39.1041   1
   0  12 -14 18.1052 24.6334   1
   0  12 -15 42.4979 23.0970   1
   0  12 -16 479.741 24.2251   1
   0 -12  17 42.8394 27.5452   1
   0 -12  18 45.0763 24.7026   1
   0 -12  19 47.1718 21.8412   1
   0  13   1 39.8582 20.8729  -2
   0  13  -1 39.8582 20.8729   1
   0  13  -2 188.040 20.4119  -2
   0  13   2 188.040 20.4119   1
   0  13  -3 234.820 21.0041  -2
   0  13   3 234.820 21.0041   1
   0  13   4 45.4933 20.1728  -2
   0  13  -4 45.4933 20.1728   1
   0 -13  -5 1326.73 48.9068  -2
   0 -13   5 1326.73 48.9068   1
   0  13  -6 5.06842 42.3172   1
   0  13  -6 20.5726 29.9211  -2
   0  13   6 20.5726 29.9211   1
   0 -13   7 264.576 66.1664   1
   0  13  -7 312.185 32.0572  -2
   0  13   7 312.185 32.0572   1
   0  13  -8 130.079 27.1222   1
   0  13  -8 206.527 47.2187  -2
   0  13   8 206.527 47.2187   1
   0  13  -9 315.910 30.1003   1
   0 -13   9 387.355 51.9480  -2
   0 -13  -9 387.355 51.9480   1
   0  13 -10 99.5275 46.9972   1
   0 -13  10 138.558 48.3373  -2
   0 -13 -10 138.558 48.3373   1
   0  13 -11 1246.85 51.8466   1
   0 -13  11 1551.24 54.5594  -2
   0 -13 -11 1551.24 54.5594   1
   0  13 -12 90.0337 41.4212   1
   0 -13  12 169.422 42.8547  -2
   0 -13 -12 169.422 42.8547   1
   0 -13 -13 91.8264 19.1187   1
   0  13 -14 15.7399 23.3351   1
   0 -13  15 114.071 22.0860   1
   0  13 -16 1.76553 19.9104   1
   0 -13  17 15.8320 24.8741   1
   0 -13  18 30.1161 21.4648   1
   0 -13  19 51.2006 17.7722   1
   0 -14   0 806.560 34.4041  -2
   0 -14   0 806.560 34.4041   1
   0  14  -1 124.849 22.5419  -2
   0  14   1 124.849 22.5419   1
   0 -14   2 551.784 28.1239  -2
   0 -14  -2 551.784 28.1239   1
   0  14  -3 2940.21 32.3992  -2
   0  14   3 2940.21 32.3992   1
   0  14  -4 4059.39 48.1166  -2
   0  14   4 4059.39 48.1166   1
   0  14  -5 665.884 39.1816  -2
   0  14   5 665.884 39.1816   1
   0  14  -6 234.838 47.3097   1
   0  14   6 262.143 38.0885  -2
   0  14  -6 262.143 38.0885   1
   0  14  -7 320.585 49.3764   1
   0  14   7 419.905 38.8659  -2
   0  14  -7 419.905 38.8659   1
   0  14  -8 4368.58 47.1780   1
   0 -14   8 5779.62 79.1496  -2
   0 -14  -8 5779.62 79.1496   1
   0  14  -9 176.075 46.1821   1
   0 -14   9 207.419 52.2060  -2
   0 -14  -9 207.419 52.2060   1
   0  14 -10 34.3482 40.2206   1
   0 -14  10 5.66855 47.8974  -2
   0 -14 -10 5.66855 47.8974   1
   0  14 -11 8.80529 41.2532   1
   0 -14  11-20.1823 42.9171  -2
   0 -14 -11-20.1823 42.9171   1
   0  14 -12 576.707 44.1282   1
   0 -14  12 696.927 43.0568  -2
   0 -14 -12 696.927 43.0568   1
   0 -14  13 18.6744 16.9619   1
   0  14 -14 96.0030 22.1580   1
   0 -14  15 90.5424 20.2534   1
   0  14 -16 544.439 20.4516   1
   0 -14  17 29.4491 20.9470   1
   0 -14  18 13.0588 17.2666   1
   0  15   1 16.5948 22.9256  -2
   0  15  -1 16.5948 22.9256   1
   0 -15   2 495.044 28.8988  -2
   0 -15  -2 495.044 28.8988   1
   0  15   3 111.526 21.7611  -2
   0  15  -3 111.526 21.7611   1
   0  15  -4 5.70297 42.3676   1
   0 -15  -4 2.08504 22.5083  -2
   0 -15   4 2.08504 22.5083   1
   0  15  -5 18.0003 42.6160   1
   0  15   5 12.6764 26.5762  -2
   0  15  -5 12.6764 26.5762   1
   0  15  -6 230.031 44.1944   1
   0 -15   6 339.244 36.8987  -2
   0 -15  -6 339.244 36.8987   1
   0  15  -7 251.668 46.8209   1
   0 -15   7 309.134 36.5666  -2
   0 -15  -7 309.134 36.5666   1
   0  15  -8 33.3288 42.4948   1
   0 -15   8 15.5258 49.7209  -2
   0 -15  -8 15.5258 49.7209   1
   0  15  -9 37.6922 42.3255   1
   0 -15   9 28.0691 47.8106  -2
   0 -15  -9 28.0691 47.8106   1
   0  15 -10 65.4370 41.6478   1
   0 -15  10 15.9310 44.4652  -2
   0 -15 -10 15.9310 44.4652   1
   0 -15  11 18.9443 38.8845  -2
   0 -15 -11 18.9443 38.8845   1
  -1  15  11-1.44261 61.7177  -2
   0  15 -11-1.44261 61.7177   1
   0  15 -12 0.21696 21.7239   1
   0 -15  12 1.22413 36.9749  -2
   0 -15 -12 1.22413 36.9749   1
   0  15 -13 11.5926 15.3427   1
   0 -15  14 21.5864 19.1159   1
   0  15 -15-0.39882 17.5577   1
   0 -15  16 3.43392 19.5288   1
   0 -15  17 16.7290 16.0659   1
   0 -16   0 99.7634 28.5157  -2
   0 -16   0 99.7634 28.5157   1
   0  16   1 586.437 25.6281  -2
   0  16  -1 586.437 25.6281   1
   0 -16  -2 8.39382 19.2755  -2
   0 -16   2 8.39382 19.2755   1
   0 -16   3 88.8042 20.3503  -2
   0 -16  -3 88.8042 20.3503   1
   0 -16  -4 34.7012 19.9105  -2
   0 -16   4 34.7012 19.9105   1
   0 -16   5 547.957 35.8026  -2
   0 -16  -5 547.957 35.8026   1
   0  16  -6 119.158 44.0625   1
   0 -16   6 206.331 50.6672  -2
   0 -16  -6 206.331 50.6672   1
   0  16  -7 245.146 42.3317   1
   0 -16   7 411.287 49.6878  -2
   0 -16  -7 411.287 49.6878   1
   0  16  -8 50.4772 39.9192   1
   0 -16   8 111.906 45.4028  -2
   0 -16  -8 111.906 45.4028   1
   0 -16   9 283.349 44.1665  -2
   0 -16  -9 283.349 44.1665   1
  -1  16   9 229.659 62.3194  -2
   0  16  -9 229.659 62.3194   1
   0 -16  10 8.43497 38.2158  -2
   0 -16 -10 8.43497 38.2158   1
  -1  16  10-18.9222 58.8303  -2
   0  16 -10-18.9222 58.8303   1
   0  16 -11 76.0447 21.5064   1
   0 -16  11 25.2086 34.6929  -2
   0 -16 -11 25.2086 34.6929   1
   0 -16  12 138.700 20.1261   1
   0 -16  12 120.982 31.4910  -2
   0 -16 -12 120.982 31.4910   1
   0  16 -13 36.5934 18.0544   1
   0 -16  14 0.90661 15.8008   1
   0 -16  15 258.521 19.3262   1
   0 -17   1 29.1317 17.7787  -2
   0 -17  -1 29.1317 17.7787   1
   0  17   2 16.9625 17.1615  -2
   0  17  -2 16.9625 17.1615   1
   0 -17  -3 62.0536 18.6958  -2
   0 -17   3 62.0536 18.6958   1
   0  17  -4 0.01663 35.5615   1
   0 -17   4-11.2426 29.6828  -2
   0 -17  -4-11.2426 29.6828   1
   0  17  -5 131.483 37.7912   1
   0 -17   5 216.033 48.9549  -2
   0 -17  -5 216.033 48.9549   1
   0  17  -6 10.8312 37.5663   1
   0 -17   6-18.7978 42.9226  -2
   0 -17  -6-18.7978 42.9226   1
   0  17  -7 124.188 36.5741   1
   0 -17   7 211.167 42.5829  -2
   0 -17  -7 211.167 42.5829   1
   0  17  -8-1.08980 35.6941   1
   0 -17   8 15.1531 40.4250  -2
   0 -17  -8 15.1531 40.4250   1
   0 -17   9 18.7222 23.7856   1
   0 -17   9 18.3751 37.0423  -2
   0 -17  -9 18.3751 37.0423   1
  -1  17   9 68.6566 55.4339  -2
   0  17  -9 68.6566 55.4339   1
   0 -17  10-10.2417 22.2945   1
   0 -17  10 7.67567 33.0651  -2
   0 -17 -10 7.67567 33.0651   1
  -1  17  10-4.36821 53.7760  -2
   0  17 -10-4.36821 53.7760   1
   0  17 -11 53.4551 17.5243   1
   0 -17  11-6.22394 30.0189  -2
   0 -17 -11-6.22394 30.0189   1
   0 -17  12 67.4141 15.9849   1
   0 -17  12 86.3180 27.7619  -2
   0 -17 -12 86.3180 27.7619   1
   0  17 -13 65.5548 14.0762   1
   0  18   0 2047.01 56.8852  -2
   0  18   0 2047.01 56.8852   1
   0  18  -1 98.4530 21.8344  -2
   0  18   1 98.4530 21.8344   1
   0  18   2 89.0687 24.7423  -2
   0  18  -2 89.0687 24.7423   1
   0  18  -3 9.17522 31.0820   1
   0 -18  -3 62.4959 27.6739  -2
   0 -18   3 62.4959 27.6739   1
   0  18  -4 117.326 31.9443   1
   0 -18   4 208.117 42.4027  -2
   0 -18  -4 208.117 42.4027   1
   0  18  -5 101.771 33.0976   1
   0 -18   5 151.521 40.7695  -2
   0 -18  -5 151.521 40.7695   1
   0  18  -6 76.9169 32.3778   1
   0 -18   6 83.1702 38.1784  -2
   0 -18  -6 83.1702 38.1784   1
   0 -18   7 113.643 17.4456   1
   0 -18   7 180.624 37.4998  -2
   0 -18  -7 180.624 37.4998   1
   0 -18   8 51.2935 20.1314   1
   0 -18   8 108.265 33.5366  -2
   0 -18  -8 108.265 33.5366   1
  -1  18   8 47.3531 47.8537  -2
   0  18  -8 47.3531 47.8537   1
   0 -18   9 167.162 19.8750   1
   0 -18   9 276.741 31.8580  -2
   0 -18  -9 276.741 31.8580   1
  -1  18   9 173.731 46.2075  -2
   0  18  -9 173.731 46.2075   1
   0  18 -10 4.93899 14.2138   1
   0 -18  10 12.8682 26.8960  -2
   0 -18 -10 12.8682 26.8960   1
   0  18 -11 50.7309 12.9565   1
   0 -19   1 34.9756 20.9909  -2
   0 -19  -1 34.9756 20.9909   1
   0  19   2 80.0563 21.2401  -2
   0  19  -2 80.0563 21.2401   1
   0  19  -3 19.2463 25.3305   1
   0 -19   3 39.1540 34.5840  -2
   0 -19  -3 39.1540 34.5840   1
   0  19  -4-4.46680 25.1114   1
   0 -19   4-1.58782 34.0213  -2
   0 -19  -4-1.58782 34.0213   1
   0  19  -5 2.93658 25.0338   1
   0 -19  -5 28.4826 17.8794  -2
   0 -19   5 28.4826 17.8794   1
   0  19  -6-5.27503 25.3342   1
   0 -19  -6 31.3255 17.0069  -2
   0 -19   6 31.3255 17.0069   1
   0 -19   7 21.3665 27.8667  -2
   0 -19  -7 21.3665 27.8667   1
  -1  19   7 5.97359 34.1826  -2
   0  19  -7 5.97359 34.1826   1
   0  19  -8 13.5897 22.5786   1
   0 -19   8-3.46244 25.7175  -2
   0 -19  -8-3.46244 25.7175   1
  -1  19   9 0.23063 28.7173  -2
   0  19  -9 0.23063 28.7173   1
   0 -20   1 0.97850 28.7773  -2
   0 -20  -1 0.97850 28.7773   1
   0 -20   2 50.1986 28.5905  -2
   0 -20  -2 50.1986 28.5905   1
   0 -20   3 8.79532 27.7920  -2
   0 -20  -3 8.79532 27.7920   1
   0 -20   4 106.999 27.0325  -2
   0 -20  -4 106.999 27.0325   1
   1   0 -23 280.429 32.9694   1
   1   0 -21 147.887 38.4495   1
   1   0 -19 9.94505 53.7483   1
  -1   0  17 4373.63 66.1186   1
  -1   0  15 861.103 35.1999   1
  -1   0  13 2614.94 80.5655   1
  -1   0  11 200.992 26.3634   1
  -1   0   9 3851.54 44.9080   1
  -1   0   7 128.952 23.1392   1
   1   0  -5 21464.8 68.9032   1
  -1   0   3 8.31828 19.0114   1
  -1   0   3 11.6712 22.9243  -2
   1   0  -3 11.6712 22.9243   1
  -1   0  -1 311.224 13.6840   1
  -1   0  -3 4.70960 12.3851   1
   1   0   5 2335.26 26.7035   1
   1   0   7 445.065 21.7785   1
  -1   0  -9 5050.33 45.6358   1
   1   0  11 561.829 45.0581   1
   1   0  13 444.525 50.5652   1
  -1   0 -15 78.6739 35.4482   1
  -1   0 -17 128.870 40.6785   1
  -1   0 -19 2124.78 57.2440   1
  -1   0 -21 46.0653 36.3307   1
  -1   0 -23 190.352 30.2416   1
   1   1 -24 212.887 18.8324   1
   1  -1 -23 444.491 23.7378   1
   1  -1 -22 0.78103 23.7042   1
   1  -1 -21 44.5983 25.7482   1
   1  -1 -20 520.113 45.0903   1
  -2   1  20 488.282 46.0008  -2
   1   1 -20 488.282 46.0008   1
   1  -1 -19 448.769 45.5926   1
  -2   1  19 463.190 46.4515  -2
   1   1 -19 463.190 46.4515   1
  -2   1  18 8.04325 32.0496  -2
   1   1 -18 8.04325 32.0496   1
  -1  -1  17 1812.91 32.2731   1
  -2   1  17 2116.85 57.2105  -2
   1   1 -17 2116.85 57.2105   1
  -1  -1  16 1837.58 38.7597   1
  -2  -1  16 1979.68 38.4469  -2
   1  -1 -16 1979.68 38.4469   1
   1   1 -15 4279.58 31.3419   1
  -1   1  14-13.1469 36.4144   1
  -1   1  13 5437.81 72.4660   1
  -1  -1  12 1476.61 33.6330   1
   1   1 -11 119.568 17.7618   1
   1  -1 -10 26.7926 22.3764   1
  -1  -1   9 8255.65 51.8190   1
  -1  -1   8 497.733 18.1153   1
   1   1  -7 33421.7 69.7834   1
   1  -1  -6 61934.3 98.7516   1
   1   1  -6 75602.4 195.165  -2
  -1   1   6 75602.4 195.165   1
   1   1  -5 32923.5 79.7851   1
  -1  -1   5 41209.9 131.824  -2
   1  -1  -5 41209.9 131.824   1
  -1  -1   4 1986.97 21.8748  -2
   1  -1  -4 1986.97 21.8748   1
   1   1  -3 81145.6 108.151  -2
  -1   1   3 81145.6 108.151   1
  -1   1   2 3621.93 42.1144  -2
   1   1  -2 3621.93 42.1144   1
   1  -1  -1 65559.0 71.5925  -2
  -1  -1   1 65559.0 71.5925   1
   1   1   0 24015.0 59.8459   1
  -1  -1   0 29208.0 50.6234  -2
   1  -1   0 29208.0 50.6234   1
   1   1   1 2169.31 23.9222  -2
  -1   1  -1 2169.31 23.9222   1
  -1   1  -2 6894.04 29.8211   1
  -1   1  -2 7968.91 29.3353  -2
   1   1   2 7968.91 29.3353   1
  -1  -1  -3 20225.3 56.6329   1
  -1   1  -3 24792.4 64.6074  -2
   1   1   3 24792.4 64.6074   1
  -1   1  -4 22376.0 42.5524   1
  -1   1  -4 27201.7 83.2584  -2
   1   1   4 27201.7 83.2584   1
  -1   1  -5 131.439 13.1154   1
  -1   1  -5 312.747 34.7349  -2
   1   1   5 312.747 34.7349   1
  -1  -1  -6 8737.32 35.0149   1
  -1   1  -6 10546.9 71.9936  -2
   1   1   6 10546.9 71.9936   1
   1  -1   7 22.0029 12.8604   1
  -1  -1  -8 6796.38 33.1226   1
  -1  -1  -9 5497.02 53.2096   1
   1   1  10 1595.98 29.6538   1
   1   1  11 3890.41 53.9403   1
   1   1  12 204.963 31.4214   1
   1   1  13 25.9597 31.5301   1
   1  -1  14 1430.12 30.7217   1
  -1  -1 -15 25.6418 23.2746   1
  -1   1 -16 2594.70 40.8217   1
  -1   1 -17 41.0983 29.0479   1
  -1   1 -18 1891.58 39.4245   1
  -1   1 -19 190.326 30.3044   1
  -1   1 -20 664.962 32.0747   1
  -1   1 -21 90.6359 25.7900   1
  -1  -1 -22 162.834 23.7460   1
  -1  -1 -23 16.8402 19.7714   1
  -1  -1 -24 99.2612 24.2884   1
   1  -2 -25 36.9704 21.0769   1
   1  -2 -24 93.4693 28.0120   1
   1  -2 -23 5.76153 32.5316   1
   1   2 -22 37.3454 22.7626   1
   1   2 -21 148.561 26.0722   1
   1   2 -20 18.4021 26.8143   1
   1  -2 -19 1420.51 34.2837   1
  -2   2  19 1408.62 50.8891  -2
   1   2 -19 1408.62 50.8891   1
  -1   2  18 407.777 31.7703   1
  -2   2  18 434.679 34.2592  -2
   1   2 -18 434.679 34.2592   1
  -1  -2  17 42.2153 24.7153   1
  -2   2  17 1493.30 49.3393  -2
   1   2 -17 1493.30 49.3393   1
  -1  -2  16 57.7008 22.8844   1
  -2   2  16 73.4817 40.4761  -2
   1   2 -16 73.4817 40.4761   1
  -1  -2  15 84.7428 21.7635   1
  -2   2  15 1226.10 44.5401  -2
   1   2 -15 1226.10 44.5401   1
  -1  -2  14 346.478 34.4028   1
   1  -2 -13 163.560 31.8078   1
  -1   2  12 1022.99 32.1708   1
   1  -2 -11 1345.14 32.8423   1
  -1  -2  10 17.6126 16.9101   1
   1   2  -9 8.23780 16.6515   1
  -1  -2   8 775.861 25.2535   1
  -1  -2   7 9.17978 16.4735   1
   1   2  -7-0.99202 36.8126  -2
  -1   2   7-0.99202 36.8126   1
  -1  -2   6 3243.01 32.9703   1
  -1  -2   6 4056.57 43.1036  -2
   1  -2  -6 4056.57 43.1036   1
  -1  -2   5 8831.05 44.5927  -2
   1  -2  -5 8831.05 44.5927   1
   1   2  -3 251.250 28.6824  -2
  -1   2   3 251.250 28.6824   1
  -1   2   2 197.436 19.2723   1
   1  -2  -2 271.244 21.6974  -2
  -1  -2   2 271.244 21.6974   1
  -1   2   1 1989.57 25.0629   1
   1  -2  -1 2452.74 33.1080  -2
  -1  -2   1 2452.74 33.1080   1
  -1  -2   0 929.383 17.2057  -2
   1  -2   0 929.383 17.2057   1
   1   2   1 34.5065 16.7783  -2
  -1   2  -1 34.5065 16.7783   1
   1   2   2 271.361 23.7235  -2
  -1   2  -2 271.361 23.7235   1
  -1   2  -3 2576.56 32.8582   1
   1  -2   3 3110.25 49.6402  -2
  -1  -2  -3 3110.25 49.6402   1
  -1   2  -4 2634.33 29.6703   1
  -1   2  -4 3267.65 38.3156  -2
   1   2   4 3267.65 38.3156   1
  -1  -2  -5 530.852 19.0531   1
  -1  -2  -6 261.257 23.8348   1
  -1   2  -6 309.846 29.7781  -2
   1   2   6 309.846 29.7781   1
   1   2   7 327.697 19.8788   1
   1   2   8 374.773 22.1852   1
  -1  -2  -9 1552.64 29.6672   1
   1   2  10 1069.48 28.6040   1
   1  -2  11 179.245 30.3193   1
   1  -2  12 48.3819 29.9408   1
  -1  -2 -13 2692.41 44.0100   1
  -1  -2 -14 2126.65 33.9178   1
  -1  -2 -15 3.94668 23.2783   1
  -1  -2 -16 157.226 25.7042   1
  -1  -2 -17 98.3686 26.5766   1
  -1   2 -18 579.916 32.2317   1
  -1   2 -19 572.338 32.0530   1
  -1   2 -20 87.2163 27.9941   1
  -1  -2 -21 23.7953 24.4502   1
  -1   2 -22 77.2850 22.8405   1
  -1  -2 -23 340.841 33.7905   1
  -1  -2 -24 23.1795 24.9066   1
   1  -3 -25 45.8741 20.7006   1
   1  -3 -24-2.12846 27.5690   1
   1  -3 -23 4.22875 32.8988   1
   1  -3 -22 9.76608 36.7356   1
   1  -3 -21 1418.93 52.2459   1
   1   3 -20 338.084 28.5245   1
  -1  -3  19 1137.04 42.0342   1
  -2  -3  19 1157.22 36.1923  -2
   1  -3 -19 1157.22 36.1923   1
  -1  -3  18 528.674 26.6629   1
  -2   3  18 577.193 44.0369  -2
   1   3 -18 577.193 44.0369   1
  -1   3  17 1608.91 29.9555   1
  -2   3  17 1492.65 48.8827  -2
   1   3 -17 1492.65 48.8827   1
  -1  -3  16 231.964 22.7711   1
  -2   3  16 197.998 40.8503  -2
   1   3 -16 197.998 40.8503   1
  -1  -3  15 1085.56 34.3913   1
   1  -3 -14 760.802 25.4928   1
   1  -3 -13 1178.26 43.2068   1
   1  -3 -12 47.2722 30.4389   1
  -1  -3  11 2255.03 47.4897   1
  -1  -3  10 209.608 30.8719   1
  -1  -3   9 14438.0 88.8187   1
   1  -3  -8 10575.4 72.5510   1
   1   3  -7 2087.15 28.6756   1
   1   3  -6 6261.65 41.3158   1
  -1  -3   6 7734.11 81.9235  -2
   1  -3  -6 7734.11 81.9235   1
   1   3  -5 6765.29 71.5833  -2
  -1   3   5 6765.29 71.5833   1
   1   3  -4 14990.4 89.1849  -2
  -1   3   4 14990.4 89.1849   1
   1   3  -3 29115.3 109.626  -2
  -1   3   3 29115.3 109.626   1
  -1   3   2 7222.22 54.3222   1
  -1  -3   1 34933.0 82.9443  -2
   1  -3  -1 34933.0 82.9443   1
   1  -3   0 38927.1 84.5429  -2
  -1  -3   0 38927.1 84.5429   1
   1   3   1 5508.94 42.6471  -2
  -1   3  -1 5508.94 42.6471   1
   1   3   2 1586.41 29.4510  -2
  -1   3  -2 1586.41 29.4510   1
   1   3   3 2782.77 39.2474  -2
  -1   3  -3 2782.77 39.2474   1
  -1   3  -4 4096.31 42.7517   1
   1  -3   4 4935.91 68.1801  -2
  -1  -3  -4 4935.91 68.1801   1
  -1   3  -5 5295.18 39.4471   1
   1  -3   5 6696.38 54.2821  -2
  -1  -3  -5 6696.38 54.2821   1
   1  -3   6 6671.95 77.4569   1
   1  -3   6 8202.36 84.2056  -2
  -1  -3  -6 8202.36 84.2056   1
   1  -3   7 16275.7 84.3960   1
  -1  -3  -8 7664.39 64.1246   1
   1  -3   9 5030.94 57.1793   1
   1  -3  10 12225.5 127.913   1
   1  -3  11 481.763 51.8660   1
   1  -3  12 341.156 50.8722   1
  -1  -3 -13 31.0186 26.0282   1
  -1   3 -14 1921.26 37.7288   1
   1   3  15 2477.25 27.1417   1
   1  -3  16 174.887 24.2624   1
  -1   3 -17 92.4681 25.0299   1
  -1  -3 -18 479.075 30.8881   1
  -1   3 -19 1577.03 36.2614   1
  -1   3 -20 26.2924 26.5802   1
  -1  -3 -21 163.828 39.3651   1
  -1  -3 -22 59.1203 35.4901   1
  -1  -3 -23 63.0364 31.0240   1
  -1  -3 -24 65.1222 24.5408   1
   1  -4 -25-0.62334 19.3903   1
   1  -4 -24 36.0487 27.2241   1
   1  -4 -23 136.352 34.1896   1
   1  -4 -22 4.74817 35.6189   1
   1  -4 -21 168.888 42.2385   1
  -1  -4  20 121.735 27.1188   1
  -1  -4  19 13.8650 35.1660   1
  -2  -4  19 41.9551 49.6978  -2
   1  -4 -19 41.9551 49.6978   1
  -1  -4  18 499.565 29.9099   1
  -1   4  17 1253.00 31.2974   1
  -1   4  16 810.066 25.8858   1
   1  -4 -15 1955.04 28.9251   1
  -1  -4  14 1269.13 29.5146   1
   1  -4 -13 127.821 29.2018   1
  -1   4  12 105.405 26.8290   1
   1  -4 -11 11.4769 25.3501   1
   1  -4 -10 27.1688 24.8181   1
  -1   4   9 260.632 25.6119   1
   1   4  -8 28.2394 18.2609   1
   1   4  -8 50.9590 35.7366  -2
  -1   4   8 50.9590 35.7366   1
  -1  -4   7 378.911 21.5594   1
  -1  -4   7 574.624 37.0719  -2
   1  -4  -7 574.624 37.0719   1
   1   4  -6 230.415 22.8516   1
  -1  -4   6 302.916 26.3305  -2
   1  -4  -6 302.916 26.3305   1
   1  -4  -5 3110.58 34.2645  -2
  -1  -4   5 3110.58 34.2645   1
  -1  -4   4 3594.04 55.4351   1
   1   4  -4 4532.54 63.4046  -2
  -1   4   4 4532.54 63.4046   1
   1  -4  -3 2726.60 39.8524  -2
  -1  -4   3 2726.60 39.8524   1
   1   4  -2 321.936 24.9655  -2
  -1   4   2 321.936 24.9655   1
   1   4  -1 15274.0 70.6623  -2
  -1   4   1 15274.0 70.6623   1
   1   4   0 2953.32 37.4578  -2
  -1   4   0 2953.32 37.4578   1
   1   4   1 90.7469 20.1302  -2
  -1   4  -1 90.7469 20.1302   1
   1   4   2 4069.70 41.9819  -2
  -1   4  -2 4069.70 41.9819   1
   1   4   3 443.034 30.3758  -2
  -1   4  -3 443.034 30.3758   1
  -1   4  -4 434.685 19.7235   1
  -1   4  -4 541.710 31.0398  -2
   1   4   4 541.710 31.0398   1
   1  -4   5 79.9097 17.9533   1
  -1   4  -5 95.6954 31.2036  -2
   1   4   5 95.6954 31.2036   1
   1  -4   6 688.367 23.9773   1
  -1   4  -6 1017.11 38.6804  -2
   1   4   6 1017.11 38.6804   1
   1  -4   7 5807.52 58.2422   1
  -1   4  -7 7139.33 94.3741  -2
   1   4   7 7139.33 94.3741   1
   1  -4   8 7.78923 30.0911   1
  -1   4  -8 5.54579 53.2042  -2
   1   4   8 5.54579 53.2042   1
   1   4   9 301.837 26.4374   1
   1  -4  10-1.09331 31.5687   1
   1  -4  11 4534.80 67.7569   1
   1  -4  12 930.092 44.0037   1
   1  -4  13 60.6919 17.9680   1
   1  -4  14 49.1617 19.1855   1
  -1  -4 -15 493.926 24.5522   1
   1  -4  16 12.2597 21.6640   1
   1  -4  17 608.020 25.2196   1
  -1  -4 -18 83.2786 43.7654   1
  -1  -4 -19 157.414 45.8775   1
  -1  -4 -20 90.4957 42.0394   1
  -1  -4 -21 26.6470 38.7547   1
  -1  -4 -22 55.8198 34.9225   1
  -1  -4 -23 26.1430 29.1439   1
  -1  -4 -24 107.762 24.5318   1
   1  -5 -24-13.0661 24.6314   1
   1  -5 -23 72.8218 31.7033   1
   1  -5 -22-0.01518 35.5751   1
  -1  -5  21 69.5294 24.2197   1
   1  -5 -20 166.125 26.2764   1
  -1  -5  19 510.755 29.2574   1
  -1  -5  18 398.731 36.7550   1
  -2  -5  18 481.048 53.0817  -2
   1  -5 -18 481.048 53.0817   1
  -1   5  17 413.240 24.9765   1
  -1   5  16 1084.48 27.8011   1
  -1  -5  15 1357.08 27.1432   1
  -1   5  14 96.1614 21.7516   1
  -1  -5  13 3659.61 66.6617   1
  -1   5  12 3217.70 61.2459   1
   1  -5 -11 903.942 33.1891   1
  -1  -5  10 623.577 29.6000   1
   1  -5  -9 12368.9 89.3548   1
  -1  -5   8 148.548 41.0480   1
   1   5  -8 170.602 36.1954  -2
  -1   5   8 170.602 36.1954   1
   1   5  -7 4799.12 40.2662   1
  -1  -5   7 6229.13 62.3445  -2
   1  -5  -7 6229.13 62.3445   1
  -1  -5   6 2949.30 61.7537   1
   1   5  -6 3675.59 49.8352  -2
  -1   5   6 3675.59 49.8352   1
  -1  -5   5 101.721 36.4817   1
   1   5  -5 106.230 31.4080  -2
  -1   5   5 106.230 31.4080   1
   1  -5  -4 2219.28 34.7665  -2
  -1  -5   4 2219.28 34.7665   1
  -1   5   3 6391.74 48.7724  -2
   1   5  -3 6391.74 48.7724   1
  -1   5   2 3877.54 39.6344  -2
   1   5  -2 3877.54 39.6344   1
   1   5  -1 72583.3 163.900  -2
  -1   5   1 72583.3 163.900   1
  -1  -5   0 20204.1 88.4511  -2
   1  -5   0 20204.1 88.4511   1
   1   5   1 26977.4 88.2954  -2
  -1   5  -1 26977.4 88.2954   1
   1   5   2 816.686 25.6981  -2
  -1   5  -2 816.686 25.6981   1
   1   5   3 1932.56 29.9894  -2
  -1   5  -3 1932.56 29.9894   1
  -1   5  -4 1412.88 32.0047   1
  -1   5  -4 1807.50 42.5494  -2
   1   5   4 1807.50 42.5494   1
   1  -5   5 880.234 23.7567   1
  -1   5  -5 1137.94 57.0736  -2
   1   5   5 1137.94 57.0736   1
  -1   5  -6 112.307 19.8447   1
  -1   5  -6 143.244 49.6402  -2
   1   5   6 143.244 49.6402   1
   1  -5   7 4665.19 79.1285   1
  -1   5  -7 5916.11 91.8999  -2
   1   5   7 5916.11 91.8999   1
   1  -5   8 2210.70 46.6393   1
   1  -5   9 33.3635 30.3678   1
   1   5  10 241.898 33.7783   1
   1  -5  11 250.015 37.7250   1
  -1  -5 -12 2412.67 41.4544   1
   1  -5  13 171.914 18.8102   1
   1  -5  14 276.765 21.1050   1
  -1  -5 -15 755.444 25.9226   1
   1  -5  16 220.903 23.0044   1
  -1  -5 -17 374.938 27.2699   1
  -1  -5 -18 20.9006 24.4375   1
  -1  -5 -19 376.999 45.1330   1
  -1  -5 -20 621.704 45.6437   1
  -1  -5 -21 0.71624 36.6369   1
  -1  -5 -22 24.6045 32.8091   1
  -1  -5 -23 115.225 29.0220   1
  -1  -5 -24 103.411 22.0860   1
   1  -6 -24-17.2361 22.3653   1
   1  -6 -23 18.9259 29.0053   1
   1  -6 -22-21.7562 32.7737   1
  -1  -6  21-7.78386 22.8193   1
  -1  -6  20 179.849 25.8130   1
  -1  -6  19 26.7523 25.8417   1
   1  -6 -18 313.271 28.4202   1
  -1  -6  17 22.9139 26.3160   1
  -1   6  16 228.278 23.4008   1
  -1  -6  15 236.572 22.1981   1
  -1  -6  14 24.6784 20.1000   1
  -1   6  13 296.894 23.2252   1
  -1  -6  12 48.9895 29.1684   1
  -1  -6  11 984.417 35.4690   1
  -1   6  10 627.096 31.3228   1
  -1  -6   9 275.179 32.2584   1
  -1  -6   9 332.051 58.6171  -2
   1  -6  -9 332.051 58.6171   1
  -1  -6   8 501.559 46.1580   1
  -1  -6   8 611.709 40.7946  -2
   1  -6  -8 611.709 40.7946   1
  -1  -6   7 1088.73 52.7409   1
  -1  -6   7 1447.39 44.1547  -2
   1  -6  -7 1447.39 44.1547   1
   1   6  -6 16.3336 28.9703  -2
  -1   6   6 16.3336 28.9703   1
  -1  -6   5 87.1901 38.5355   1
   1   6  -5 92.8738 34.5298  -2
  -1   6   5 92.8738 34.5298   1
  -1  -6   4 550.934 41.1142   1
   1   6  -4 723.799 33.4276  -2
  -1   6   4 723.799 33.4276   1
   1   6  -3 3151.93 40.8292  -2
  -1   6   3 3151.93 40.8292   1
   1  -6  -2 1048.55 27.5185  -2
  -1  -6   2 1048.55 27.5185   1
  -1  -6   1 194.671 23.3789  -2
   1  -6  -1 194.671 23.3789   1
   1   6   0 290.085 26.6465  -2
  -1   6   0 290.085 26.6465   1
  -1   6  -1 540.619 23.0889  -2
   1   6   1 540.619 23.0889   1
   1   6   2 824.213 26.0512  -2
  -1   6  -2 824.213 26.0512   1
   1   6   3 3048.37 33.2131  -2
  -1   6  -3 3048.37 33.2131   1
  -1   6  -4 351.357 26.7152   1
  -1   6  -4 436.794 39.1280  -2
   1   6   4 436.794 39.1280   1
  -1   6  -5 2807.75 40.6666   1
  -1   6  -5 3946.66 59.3174  -2
   1   6   5 3946.66 59.3174   1
  -1   6  -6 7.77353 18.2342   1
  -1   6  -6 33.0706 51.5305  -2
   1   6   6 33.0706 51.5305   1
   1  -6   7 1287.59 57.2101   1
  -1   6  -7 1689.16 67.6841  -2
   1   6   7 1689.16 67.6841   1
   1  -6   8 852.004 55.3008   1
  -1   6  -8 1176.47 64.6919  -2
   1   6   8 1176.47 64.6919   1
   1  -6   9 144.067 32.5561   1
   1   6  10 379.056 36.7323   1
   1   6  11 112.874 37.5244   1
   1   6  12-4.79459 19.3008   1
  -1  -6 -13 69.3665 20.7355   1
  -1  -6 -14 99.2138 20.5330   1
   1  -6  15 1225.07 27.3536   1
  -1  -6 -16 50.3201 22.1163   1
  -1  -6 -17 119.831 25.3451   1
   1  -6  18 55.4641 24.4959   1
  -1  -6 -19 112.405 23.5792   1
  -1  -6 -20 19.0995 38.9360   1
  -1  -6 -21 41.3561 35.5164   1
  -1  -6 -22 20.2046 31.3596   1
  -1  -6 -23 184.498 27.2910   1
   1  -7 -23 10.7381 26.1454   1
   1  -7 -22 144.716 19.3267   1
   1  -7 -21 5.57310 21.4357   1
   1  -7 -20 194.857 24.3832   1
   1  -7 -19 66.8405 24.4739   1
  -1  -7  18 782.158 30.4651   1
  -1  -7  17 7.82034 26.1909   1
  -1  -7  16 1170.62 30.1341   1
  -1   7  15 70.5052 22.0834   1
  -1   7  14 559.806 23.3226   1
  -1   7  13 153.112 20.0010   1
  -1  -7  12 22.0196 24.8002   1
  -1   7  11 1147.17 38.5946   1
  -1   7  10 362.663 36.0598   1
  -1  -7  10 471.564 66.6107  -2
   1  -7 -10 471.564 66.6107   1
   1  -7  -9 1000.89 33.5028   1
  -1  -7   8 381.611 49.3009   1
   1   7  -8 523.372 41.8348  -2
  -1   7   8 523.372 41.8348   1
  -1  -7   7 921.254 51.5819   1
  -1  -7   7 1142.54 44.5470  -2
   1  -7  -7 1142.54 44.5470   1
   1  -7  -6 8263.17 75.9667  -2
  -1  -7   6 8263.17 75.9667   1
  -1   7   5 9361.15 88.3096  -2
   1   7  -5 9361.15 88.3096   1
  -1  -7   4 310.835 29.7356  -2
   1  -7  -4 310.835 29.7356   1
   1  -7  -3 20939.5 116.733  -2
  -1  -7   3 20939.5 116.733   1
   1  -7  -2 862.752 36.6686  -2
  -1  -7   2 862.752 36.6686   1
  -1   7   1 4376.63 64.8953  -2
   1   7  -1 4376.63 64.8953   1
  -1   7   0 10257.5 94.1781  -2
   1   7   0 10257.5 94.1781   1
   1  -7   1 1565.30 40.3252  -2
  -1  -7  -1 1565.30 40.3252   1
  -1   7  -2 2982.69 46.9569  -2
   1   7   2 2982.69 46.9569   1
   1   7   3 3957.06 42.2997  -2
  -1   7  -3 3957.06 42.2997   1
  -1   7  -4 3299.77 46.6442   1
  -1   7  -4 4115.43 95.1319  -2
   1   7   4 4115.43 95.1319   1
   1  -7   5 6.76167 19.0224   1
  -1   7  -5 54.6979 52.7228  -2
   1   7   5 54.6979 52.7228   1
  -1  -7  -6 1438.06 51.0310  -2
   1  -7   6 1438.06 51.0310   1
   1  -7   7 103.041 43.1290   1
  -1   7  -7 74.6556 55.7281  -2
   1   7   7 74.6556 55.7281   1
   1  -7   8 583.700 53.1594   1
  -1   7  -8 834.208 64.7796  -2
   1   7   8 834.208 64.7796   1
   1   7   9 5.84969 33.5510   1
   1   7  10 34.0199 34.7740   1
  -1   7 -11 863.029 22.5206   1
   1   7  12 1124.10 31.3378   1
   1  -7  12 1285.91 46.5874  -2
  -1  -7 -12 1285.91 46.5874   1
   1   7  13 110.364 21.0576   1
   1   7  14 206.919 18.5535   1
   1  -7  15 186.146 22.2431   1
  -1  -7 -16 308.405 26.3593   1
   1  -7  17 193.023 26.1089   1
   1  -7  18 54.6030 24.1926   1
  -1  -7 -19 41.8870 21.9789   1
  -1  -7 -20 455.797 22.6641   1
  -1  -7 -21 35.9866 32.0041   1
  -1  -7 -22 25.0684 27.5413   1
  -1  -7 -23-1.60942 21.6014   1
   1  -8 -23 15.8687 22.3134   1
   1  -8 -22 163.830 18.5559   1
  -1  -8  21 193.098 20.9453   1
  -1  -8  20 15.3086 22.0640   1
  -1  -8  19 44.5998 23.8136   1
   1  -8 -18 616.787 28.8848   1
   1  -8 -17 277.717 27.2990   1
  -1  -8  16 115.280 26.7445   1
  -1  -8  15 24.4327 21.8817   1
  -1   8  14 44.0575 21.0809   1
  -2   8  14 327.463 59.7763  -2
   1   8 -14 327.463 59.7763   1
   1   8 -13 555.534 24.4591   1
  -1  -8  13 711.091 46.9404  -2
   1  -8 -13 711.091 46.9404   1
  -1   8  12-3.41080 19.6051   1
  -1  -8  11 219.117 25.1803   1
  -1   8  10 43.3213 23.3840   1
  -1  -8   9 566.251 41.7951   1
   1   8  -9 720.268 63.6695  -2
  -1   8   9 720.268 63.6695   1
  -1  -8   8 124.218 47.8662   1
   1   8  -8 144.461 41.8231  -2
  -1   8   8 144.461 41.8231   1
  -1  -8   7 524.191 52.1837   1
  -1  -8   7 605.229 45.1519  -2
   1  -8  -7 605.229 45.1519   1
  -1  -8   6 129.162 35.0095  -2
   1  -8  -6 129.162 35.0095   1
   1   8  -5 1063.14 63.6898   1
   1  -8  -5 1426.16 41.6328  -2
  -1  -8   5 1426.16 41.6328   1
  -1   8   4 8754.72 69.7190  -2
   1   8  -4 8754.72 69.7190   1
  -1   8   3 1183.07 30.4714  -2
   1   8  -3 1183.07 30.4714   1
   1  -8  -2 123.331 24.4466  -2
  -1  -8   2 123.331 24.4466   1
  -1   8   1 18774.7 130.547  -2
   1   8  -1 18774.7 130.547   1
   1  -8   0 48.2561 25.4978  -2
  -1  -8   0 48.2561 25.4978   1
   1   8   1 27.1507 22.5438  -2
  -1   8  -1 27.1507 22.5438   1
  -1  -8  -2 5063.99 62.7886  -2
   1  -8   2 5063.99 62.7886   1
  -1   8  -3 3693.69 56.3831   1
  -1   8  -3 5119.78 77.3642  -2
   1   8   3 5119.78 77.3642   1
  -1   8  -4 2457.58 61.4388  -2
   1   8   4 2457.58 61.4388   1
  -1  -8  -5 1021.91 50.2666  -2
   1  -8   5 1021.91 50.2666   1
  -1  -8  -6 26.5881 43.5101  -2
   1  -8   6 26.5881 43.5101   1
   1  -8   7 1493.47 66.4943   1
  -1   8  -7 1956.07 80.8894  -2
   1   8   7 1956.07 80.8894   1
   1  -8   8 2556.94 81.1283   1
  -1   8  -8 3215.44 91.9589  -2
   1   8   8 3215.44 91.9589   1
  -1   8  -9 32.5011 26.6998   1
  -1   8  -9 36.1779 64.1189  -2
   1   8   9 36.1779 64.1189   1
   1   8  10 1387.93 25.8253   1
   1   8  11 43.6275 24.8819   1
   1  -8  11 72.3757 39.5904  -2
  -1  -8 -11 72.3757 39.5904   1
   1   8  12 519.958 23.3890   1
   1   8  13-7.50128 22.0081   1
  -1   8 -14 43.6704 18.4075   1
  -1  -8 -15 303.248 21.8519   1
  -1  -8 -16 465.434 27.6263   1
  -1  -8 -17 29.1133 23.8531   1
   1  -8  18 12.8311 22.8517   1
  -1  -8 -19 116.551 21.7956   1
   1  -8  20 10.2010 19.1707   1
  -1  -8 -21-4.35408 28.6127   1
  -1  -8 -22-1.36410 24.9640   1
   1  -9 -22 1.60579 23.1331   1
  -1  -9  21 312.757 19.8433   1
  -1  -9  20 95.2675 21.6489   1
   1  -9 -19 19.9103 22.2940   1
  -1  -9  18 127.472 24.3653   1
  -1  -9  17 555.509 27.7692   1
   1  -9 -16 221.338 26.5332   1
   1  -9 -15 723.743 30.8579   1
  -1  -9  14 65.4718 18.7829   1
   1   9 -13 446.942 35.4101   1
  -1  -9  13 508.643 47.0736  -2
   1  -9 -13 508.643 47.0736   1
  -1   9  12 573.212 29.8020   1
  -1  -9  12 640.290 43.7772  -2
   1  -9 -12 640.290 43.7772   1
  -1  -9  11 3941.96 51.9991   1
  -1  -9  11 4497.34 40.9057  -2
   1  -9 -11 4497.34 40.9057   1
  -1  -9  10 690.156 29.0543   1
  -1  -9  10 848.366 43.1477  -2
   1  -9 -10 848.366 43.1477   1
  -1  -9   9 3596.88 92.5174   1
  -1   9   9 4320.26 40.3068  -2
   1   9  -9 4320.26 40.3068   1
  -1  -9   8 44.8521 49.0027   1
  -1   9   8 92.7084 30.8696  -2
   1   9  -8 92.7084 30.8696   1
   1  -9  -7 34.1826 43.8043  -2
  -1  -9   7 34.1826 43.8043   1
   1   9  -6 937.126 51.0100  -2
  -1   9   6 937.126 51.0100   1
   1   9  -5 2751.80 83.9488   1
   1   9  -5 3539.28 66.0917  -2
  -1   9   5 3539.28 66.0917   1
   1  -9  -4 9420.64 97.6917  -2
  -1  -9   4 9420.64 97.6917   1
   1  -9  -3 5754.23 77.4148  -2
  -1  -9   3 5754.23 77.4148   1
   1   9  -2 327.387 25.4827  -2
  -1   9   2 327.387 25.4827   1
   1   9  -1 2374.45 63.8275  -2
  -1   9   1 2374.45 63.8275   1
  -1   9   0 3969.63 62.3180  -2
   1   9   0 3969.63 62.3180   1
  -1  -9  -1 3822.38 45.1609  -2
   1  -9   1 3822.38 45.1609   1
   1   9   2 24.7694 21.2931  -2
  -1   9  -2 24.7694 21.2931   1
   1   9   3 1668.16 62.0428  -2
  -1   9  -3 1668.16 62.0428   1
  -1  -9  -4 2435.05 64.6243  -2
   1  -9   4 2435.05 64.6243   1
   1  -9   5 78.1154 47.0268   1
  -1   9  -5 111.967 59.3185  -2
   1   9   5 111.967 59.3185   1
  -1  -9  -6-0.96042 44.2471  -2
   1  -9   6-0.96042 44.2471   1
  -1  -9  -7 2123.46 64.4293  -2
   1  -9   7 2123.46 64.4293   1
   1  -9   8 2763.68 39.4522   1
  -1   9  -8 3645.29 102.722  -2
   1   9   8 3645.29 102.722   1
   1  -9   9 2104.95 42.4052   1
   1  -9   9 2416.24 45.0747  -2
  -1  -9  -9 2416.24 45.0747   1
   1   9  10 196.242 20.2903   1
   1  -9  10 270.153 41.8697  -2
  -1  -9 -10 270.153 41.8697   1
   1   9  11 1823.58 42.3015   1
   1  -9  11 2009.70 50.0727  -2
  -1  -9 -11 2009.70 50.0727   1
  -1   9 -12 545.723 31.8075   1
   1  -9  12 551.863 45.6252  -2
  -1  -9 -12 551.863 45.6252   1
   1   9  13 216.353 23.7700   1
  -1  -9 -14 341.899 21.0337   1
  -1   9 -15 1320.84 26.4277   1
  -1  -9 -16 171.614 20.4704   1
  -1  -9 -17 114.232 23.8622   1
   1  -9  18 236.760 23.5823   1
  -1  -9 -19 168.472 21.1503   1
   1  -9  20 25.2024 17.9777   1
  -1  -9 -21 116.199 24.8931   1
  -1 -10  21 5.29072 16.0265   1
   1 -10 -20 16.7486 18.2503   1
   1 -10 -19 166.652 21.9697   1
   1 -10 -18 63.9715 22.5057   1
  -1 -10  17 218.323 24.3560   1
  -1 -10  16 323.818 26.1761   1
   1  10 -15 15.9688 20.6286   1
  -1 -10  14 120.969 26.3319   1
  -1 -10  14 137.466 44.3084  -2
   1 -10 -14 137.466 44.3084   1
  -1 -10  13 608.305 38.8055   1
  -1 -10  13 665.335 47.7800  -2
   1 -10 -13 665.335 47.7800   1
  -1 -10  12 1889.18 63.0234   1
  -1 -10  12 2094.10 37.7473  -2
   1 -10 -12 2094.10 37.7473   1
  -2  10  12 1792.11 72.3324  -2
   1  10 -12 1792.11 72.3324   1
  -1  10  11 2117.26 39.8654   1
  -1 -10  11 2647.33 54.1387  -2
   1 -10 -11 2647.33 54.1387   1
  -1 -10  10 82.8207 27.1154   1
  -1 -10  10 125.333 42.4452  -2
   1 -10 -10 125.333 42.4452   1
  -1 -10   9 38.6820 25.9259   1
  -1 -10   9 6.68138 35.0548  -2
   1 -10  -9 6.68138 35.0548   1
  -1 -10   8 398.953 57.4953   1
   1  10  -8 470.600 27.8927  -2
  -1  10   8 470.600 27.8927   1
  -1 -10   7 334.557 52.9459   1
  -1 -10   7 388.643 25.7514  -2
   1 -10  -7 388.643 25.7514   1
  -1 -10   6 394.321 51.6265   1
  -1  10   6 491.637 25.4540  -2
   1  10  -6 491.637 25.4540   1
   1  10  -5 6.58001 45.6748  -2
  -1  10   5 6.58001 45.6748   1
   1 -10  -4 9.58036 37.4963  -2
  -1 -10   4 9.58036 37.4963   1
   1  10  -3 488.049 41.9185  -2
  -1  10   3 488.049 41.9185   1
  -1  10   2 92.7855 29.3914  -2
   1  10  -2 92.7855 29.3914   1
   1  10  -1 2402.97 56.9860  -2
  -1  10   1 2402.97 56.9860   1
  -1  10   0 1932.81 39.4131  -2
   1  10   0 1932.81 39.4131   1
   1 -10   1 186.310 24.5088  -2
  -1 -10  -1 186.310 24.5088   1
  -1  10  -2 1631.55 50.9841  -2
   1  10   2 1631.55 50.9841   1
  -1  10  -3 38.8550 52.5596   1
  -1  10  -3 81.5041 46.5000  -2
   1  10   3 81.5041 46.5000   1
  -1  10  -4 1465.30 60.8205  -2
   1  10   4 1465.30 60.8205   1
   1 -10   5 148.734 23.4877  -2
  -1 -10  -5 148.734 23.4877   1
   1  10   6 90.9640 23.9846  -2
  -1  10  -6 90.9640 23.9846   1
  -1  10  -7 168.416 31.4468   1
   1 -10   7 177.981 27.5122  -2
  -1 -10  -7 177.981 27.5122   1
   1 -10   8 752.115 25.6113   1
  -1  10  -8 1012.74 41.8335  -2
   1  10   8 1012.74 41.8335   1
   1 -10   9 51.7855 21.8784   1
  -1  10  -9 34.2455 36.1431  -2
   1  10   9 34.2455 36.1431   1
  -1  10 -10 2241.03 33.0975   1
   1 -10  10 2821.92 54.8666  -2
  -1 -10 -10 2821.92 54.8666   1
  -1  10 -11 1113.23 41.7630   1
   1  10  12 21.3177 30.5027   1
  -1  10 -13 1529.11 52.9696   1
   1 -10  13 1938.40 51.4993  -2
  -1 -10 -13 1938.40 51.4993   1
  -1 -10 -14 91.6215 21.0045   1
  -1  10 -15 222.423 21.2789   1
   1 -10  16 52.6305 19.6648   1
  -1 -10 -17 12.5334 21.4874   1
  -1 -10 -18 273.362 22.1589   1
  -1 -10 -19 9.38059 18.3230   1
   1 -10  20 69.6118 16.3310   1
  -1 -11  20 332.121 17.9540   1
   1 -11 -19 8.85416 17.6761   1
   1 -11 -18 127.414 20.1713   1
  -1 -11  17 658.344 24.9709   1
   1  11 -16 47.1036 19.5882   1
   1 -11 -15 283.392 24.5704   1
  -2  11  15 355.759 63.2606  -2
   1  11 -15 355.759 63.2606   1
  -1 -11  14 12.8795 33.8323   1
  -2  11  14 345.080 66.9389  -2
   1  11 -14 345.080 66.9389   1
   1  11 -13 3004.61 31.2815   1
   1 -11 -12 850.240 36.2187   1
  -2  11  12 784.875 71.0658  -2
   1  11 -12 784.875 71.0658   1
   1  11 -11 2216.00 47.4576   1
  -1 -11  11 2817.10 57.3980  -2
   1 -11 -11 2817.10 57.3980   1
  -1 -11  10 262.738 35.5002   1
  -1 -11  10 294.426 40.3350  -2
   1 -11 -10 294.426 40.3350   1
   1  11  -9 1324.31 30.3133   1
  -1 -11   9 1596.68 45.6105  -2
   1 -11  -9 1596.68 45.6105   1
  -1 -11   8 392.683 61.2326   1
  -1  11   8 534.639 30.4248  -2
   1  11  -8 534.639 30.4248   1
   1  11  -7 145.162 26.3231  -2
  -1  11   7 145.162 26.3231   1
  -1 -11   6 674.135 60.9260   1
  -1 -11   6 990.435 30.7746  -2
   1 -11  -6 990.435 30.7746   1
  -1  11   5 7046.90 59.3226  -2
   1  11  -5 7046.90 59.3226   1
  -1  11   4 1772.19 32.8399  -2
   1  11  -4 1772.19 32.8399   1
   1  11  -3 865.976 21.9755  -2
  -1  11   3 865.976 21.9755   1
   1  11  -2 163.546 15.2910  -2
  -1  11   2 163.546 15.2910   1
   1  11  -1 2864.94 35.5696  -2
  -1  11   1 2864.94 35.5696   1
  -1  11   0 1070.76 22.1204  -2
   1  11   0 1070.76 22.1204   1
   1  11   1 29.5376 19.0887  -2
  -1  11  -1 29.5376 19.0887   1
  -1  11  -2 1445.68 31.1505  -2
   1  11   2 1445.68 31.1505   1
  -1  11  -3 8176.42 69.4572  -2
   1  11   3 8176.42 69.4572   1
  -1  11  -4 1130.06 30.1013  -2
   1  11   4 1130.06 30.1013   1
  -1  11  -5 394.447 27.4042  -2
   1  11   5 394.447 27.4042   1
  -1  11  -6 134.000 37.4261   1
   1  11   6 131.473 26.6636  -2
  -1  11  -6 131.473 26.6636   1
   1 -11   7 2198.03 32.0094   1
  -1  11  -7 2597.64 54.5252  -2
   1  11   7 2597.64 54.5252   1
  -1  11  -8 206.642 32.6569   1
  -1  11  -8 242.852 30.2521  -2
   1  11   8 242.852 30.2521   1
  -1  11  -9 130.952 24.3883   1
   1 -11   9 193.318 39.2112  -2
  -1 -11  -9 193.318 39.2112   1
  -1  11 -10 850.334 29.5850   1
  -1  11 -10 1049.11 44.9131  -2
   1  11  10 1049.11 44.9131   1
   1 -11  11 2916.62 52.1683   1
   1 -11  11 3676.21 59.7040  -2
  -1 -11 -11 3676.21 59.7040   1
  -1  11 -12 238.826 42.6376   1
  -1  11 -13 39.2142 40.2125   1
   1 -11  14 553.482 28.2464   1
   1 -11  15 59.4746 24.3415   1
  -1 -11 -16-3.46350 17.9542   1
   1 -11  17 86.7705 20.4813   1
  -1 -11 -18 8.35064 17.8853   1
   1 -11  19 31.2713 22.3121   1
   1 -11  20-8.18033 18.9883   1
  -1 -12  20 57.9875 19.4396   1
  -1 -12  19 25.4994 22.2636   1
  -1 -12  18-4.88124 26.4993   1
  -1 -12  17-0.88827 29.3433   1
  -1 -12  16 49.6705 22.2167   1
   1  12 -15 53.4529 23.2132   1
  -1 -12  14 753.684 38.8547   1
  -2  12  14 930.269 69.3358  -2
   1  12 -14 930.269 69.3358   1
   1 -12 -13 46.7952 20.4790   1
   1  12 -12 197.057 28.1497   1
   1  12 -11 737.964 50.9809   1
  -1 -12  11 889.111 52.8393  -2
   1 -12 -11 889.111 52.8393   1
   1  12 -10 774.603 41.8194   1
  -1 -12  10 971.575 45.8459  -2
   1 -12 -10 971.575 45.8459   1
   1  12  -9 439.533 38.6110   1
  -1 -12   9 518.112 43.1315  -2
   1 -12  -9 518.112 43.1315   1
   1  12  -8-2.84896 28.6317   1
   1  12  -8 24.2113 41.2269  -2
  -1  12   8 24.2113 41.2269   1
  -1 -12   7 391.962 62.2620   1
  -1 -12   7 595.968 32.9972  -2
   1 -12  -7 595.968 32.9972   1
  -1  12   6 1287.77 33.3746   1
   1 -12  -6 1703.18 34.1752  -2
  -1 -12   6 1703.18 34.1752   1
   1 -12  -5 2201.06 29.5270  -2
  -1 -12   5 2201.06 29.5270   1
   1  12  -4 791.570 24.3137  -2
  -1  12   4 791.570 24.3137   1
   1 -12  -3-2.23362 17.1868  -2
  -1 -12   3-2.23362 17.1868   1
   1  12  -2 669.309 23.2910  -2
  -1  12   2 669.309 23.2910   1
  -1 -12   1 243.426 19.1556  -2
   1 -12  -1 243.426 19.1556   1
   1 -12   0 221.530 18.8711  -2
  -1 -12   0 221.530 18.8711   1
  -1 -12  -1 39.2354 17.9377  -2
   1 -12   1 39.2354 17.9377   1
  -1  12  -2 312.140 65.3731   1
  -1 -12  -2 442.628 22.6711  -2
   1 -12   2 442.628 22.6711   1
  -1  12  -3 217.569 20.3807  -2
   1  12   3 217.569 20.3807   1
   1 -12   4 455.348 24.9503  -2
  -1 -12  -4 455.348 24.9503   1
   1  12   5 164.774 26.6138  -2
  -1  12  -5 164.774 26.6138   1
  -1  12  -6 42.1662 38.1397   1
  -1  12  -6 30.2927 28.3036  -2
   1  12   6 30.2927 28.3036   1
  -1  12  -7 311.588 28.3531   1
  -1  12  -7 298.549 39.6019  -2
   1  12   7 298.549 39.6019   1
  -1  12  -8 59.2485 25.1666   1
  -1  12  -8 101.320 42.5543  -2
   1  12   8 101.320 42.5543   1
  -1  12  -9 39.7958 25.1453   1
   1 -12   9 47.9963 42.2471  -2
  -1 -12  -9 47.9963 42.2471   1
   1 -12  10 542.050 39.2965   1
  -1  12 -10 535.627 42.8124  -2
   1  12  10 535.627 42.8124   1
  -1  12 -11 11.0942 43.5610   1
   1 -12  11-17.1705 44.2758  -2
  -1 -12 -11-17.1705 44.2758   1
  -1  12 -12 102.587 41.0193   1
   1 -12  12 133.176 40.3643  -2
  -1 -12 -12 133.176 40.3643   1
  -1  12 -13 66.7836 39.6053   1
  -1  12 -14 0.17158 24.5415   1
   1 -12  15 215.277 24.5521   1
   1 -12  16-4.30839 21.1574   1
  -1  12 -17 49.7347 19.1381   1
   1 -12  18 16.3221 21.9534   1
   1 -12  19 81.3441 19.6842   1
  -1 -13  19 60.8528 19.3766   1
  -1 -13  18 13.4000 22.5686   1
  -1 -13  17 28.4970 25.7683   1
  -1 -13  16 278.185 22.1794   1
  -1 -13  15-1.39726 29.0351   1
  -2  13  15 63.1892 56.1041  -2
   1  13 -15 63.1892 56.1041   1
  -1 -13  14 13.3847 30.8749   1
  -2  13  14 100.582 60.2389  -2
   1  13 -14 100.582 60.2389   1
   1  13 -13 14.4215 19.0978   1
   1  13 -12 2575.48 37.6271   1
   1  13 -11 390.607 48.5356   1
  -1 -13  11 498.316 49.9539  -2
   1 -13 -11 498.316 49.9539   1
   1  13 -10 1015.08 51.5856   1
  -1 -13  10 1206.26 56.8331  -2
   1 -13 -10 1206.26 56.8331   1
   1  13  -9 2304.74 64.3302   1
  -1 -13   9 2936.30 67.3176  -2
   1 -13  -9 2936.30 67.3176   1
  -1 -13   8 2998.78 102.250   1
   1  13  -8 3351.90 60.3390  -2
  -1  13   8 3351.90 60.3390   1
   1 -13  -7 1598.48 51.7880  -2
  -1 -13   7 1598.48 51.7880   1
  -1  13   6 49.2204 27.8856  -2
   1  13  -6 49.2204 27.8856   1
   1  13  -5 802.546 26.3944  -2
  -1  13   5 802.546 26.3944   1
   1 -13  -4 68.1991 19.5751  -2
  -1 -13   4 68.1991 19.5751   1
   1  13  -3 476.593 72.3473   1
   1  13  -3 818.140 27.0309  -2
  -1  13   3 818.140 27.0309   1
  -1 -13   2 172.880 21.2140  -2
   1 -13  -2 172.880 21.2140   1
  -1  13   1 1621.68 29.9079  -2
   1  13  -1 1621.68 29.9079   1
  -1  13   0 1558.67 30.7304  -2
   1  13   0 1558.67 30.7304   1
  -1 -13  -1 258.570 20.7107  -2
   1 -13   1 258.570 20.7107   1
  -1 -13  -2 356.598 21.5599  -2
   1 -13   2 356.598 21.5599   1
  -1  13  -3 1037.94 27.6532  -2
   1  13   3 1037.94 27.6532   1
  -1  13  -4 1713.19 31.0865  -2
   1  13   4 1713.19 31.0865   1
  -1  13  -5-14.9172 39.8573   1
  -1  13  -5 5.05142 30.3546  -2
   1  13   5 5.05142 30.3546   1
  -1  13  -6 2555.30 63.1821   1
  -1  13  -6 3260.37 46.6568  -2
   1  13   6 3260.37 46.6568   1
   1 -13   7 1542.49 47.6773   1
   1  13   7 1998.18 43.1699  -2
  -1  13  -7 1998.18 43.1699   1
  -1  13  -8 3340.53 44.8215   1
   1 -13   8 4249.84 65.8702  -2
  -1 -13  -8 4249.84 65.8702   1
  -1  13  -9 281.910 29.5138   1
   1 -13   9 308.449 53.6080  -2
  -1 -13  -9 308.449 53.6080   1
  -1  13 -10 978.426 53.3412   1
   1 -13  10 1174.75 53.8588  -2
  -1 -13 -10 1174.75 53.8588   1
  -1  13 -11 101.860 42.1648   1
   1 -13  11 82.2962 44.9377  -2
  -1 -13 -11 82.2962 44.9377   1
  -1  13 -12 844.285 49.7782   1
   1 -13  12 994.909 43.9274  -2
  -1 -13 -12 994.909 43.9274   1
  -1  13 -13 72.9867 40.3789   1
  -1  13 -14 384.254 25.0715   1
  -1  13 -15 4.80394 21.5420   1
   1 -13  16 295.041 20.6568   1
   1 -13  17 16.2385 22.6249   1
   1 -13  18 44.7062 19.9420   1
  -1 -14  18 49.9225 19.0273   1
  -1 -14  17 157.604 22.8300   1
  -1 -14  16 10.0059 18.6096   1
   1  14 -15 62.6664 20.5295   1
  -1 -14  14 158.548 22.4244   1
  -1 -14  13 107.960 21.0054   1
  -2  14  13 146.526 62.5085  -2
   1  14 -13 146.526 62.5085   1
   1  14 -12 252.632 20.5850   1
  -1 -14  11 11.1047 44.8651  -2
   1 -14 -11 11.1047 44.8651   1
  -2  14  11-3.85631 67.0304  -2
   1  14 -11-3.85631 67.0304   1
   1  14 -10 102.206 43.8142   1
  -1 -14  10 113.281 48.7811  -2
   1 -14 -10 113.281 48.7811   1
  -1 -14   9 229.683 54.1433  -2
   1 -14  -9 229.683 54.1433   1
  -2  14   9 203.872 73.1039  -2
   1  14  -9 203.872 73.1039   1
   1  14  -8 391.936 47.3838   1
  -1 -14   8 588.079 55.6808  -2
   1 -14  -8 588.079 55.6808   1
  -1  14   7 31.9954 33.3212  -2
   1  14  -7 31.9954 33.3212   1
  -1  14   6 20.6217 25.2368   1
  -1  14   6 48.4587 36.1251  -2
   1  14  -6 48.4587 36.1251   1
  -1  14   5 166.652 23.0530  -2
   1  14  -5 166.652 23.0530   1
  -1  14   4 41.8833 22.6102  -2
   1  14  -4 41.8833 22.6102   1
   1  14  -3 12.2577 22.0773  -2
  -1  14   3 12.2577 22.0773   1
  -1 -14   2 581.873 26.7767  -2
   1 -14  -2 581.873 26.7767   1
  -1  14   1 617.711 27.6490  -2
   1  14  -1 617.711 27.6490   1
  -1  14   0 119.488 22.1657  -2
   1  14   0 119.488 22.1657   1
   1  14   1 47.5516 22.5634  -2
  -1  14  -1 47.5516 22.5634   1
   1 -14   2 270.886 22.6193  -2
  -1 -14  -2 270.886 22.6193   1
  -1 -14  -3 355.344 22.1934  -2
   1 -14   3 355.344 22.1934   1
  -1  14  -4 1271.07 32.6583  -2
   1  14   4 1271.07 32.6583   1
  -1  14  -5 256.651 47.9778   1
   1  14   5 410.382 35.5171  -2
  -1  14  -5 410.382 35.5171   1
  -1  14  -6 33.6899 40.6304   1
   1  14   6 17.9897 36.5850  -2
  -1  14  -6 17.9897 36.5850   1
  -1  14  -7 42.7830 44.7859   1
   1 -14   7 53.5430 36.0511  -2
  -1 -14  -7 53.5430 36.0511   1
  -1  14  -8 114.367 28.3602   1
   1 -14   8 142.329 51.2908  -2
  -1 -14  -8 142.329 51.2908   1
  -1  14  -9 88.8948 46.9525   1
   1 -14   9 59.7827 47.3930  -2
  -1 -14  -9 59.7827 47.3930   1
  -1  14 -10 166.967 43.8911   1
   1 -14  10 142.735 44.8073  -2
  -1 -14 -10 142.735 44.8073   1
  -1  14 -11 608.841 45.5392   1
   1 -14  11 698.398 44.6578  -2
  -1 -14 -11 698.398 44.6578   1
  -1  14 -12 5.24880 40.9371   1
   1 -14  12 35.1703 37.4900  -2
  -1 -14 -12 35.1703 37.4900   1
  -1  14 -13 429.545 25.0080   1
  -1  14 -14 31.3390 21.3119   1
   1 -14  15-1.17619 19.6499   1
   1 -14  16 8.28379 16.6287   1
   1 -14  17 16.1837 19.1569   1
  -1 -15  17 302.790 19.0313   1
  -1 -15  16 29.4017 20.8989   1
  -1 -15  15 58.9582 23.3910   1
  -2  15  15 51.7246 44.1250  -2
   1  15 -15 51.7246 44.1250   1
  -1 -15  14 8.68177 19.3677   1
  -1 -15  13 46.8251 18.2296   1
  -2  15  13 201.280 57.5276  -2
   1  15 -13 201.280 57.5276   1
  -1 -15  12 355.725 19.0956   1
  -1 -15  11 8.98399 29.6132   1
  -1 -15  11 13.4716 40.3553  -2
   1 -15 -11 13.4716 40.3553   1
  -2  15  11-16.1856 62.2572  -2
   1  15 -11-16.1856 62.2572   1
   1  15 -10 95.5480 41.2512   1
  -1 -15  10 141.759 46.0849  -2
   1 -15 -10 141.759 46.0849   1
   1  15  -9 679.484 46.6457   1
  -1 -15   9 849.434 52.7013  -2
   1 -15  -9 849.434 52.7013   1
   1  15  -8 266.863 47.2881   1
  -1 -15   8 390.418 51.2639  -2
   1 -15  -8 390.418 51.2639   1
   1  15  -7 50.8254 47.0917   1
  -1 -15   7 47.4349 51.0048  -2
   1 -15  -7 47.4349 51.0048   1
  -1  15   6-1.91733 31.8020  -2
   1  15  -6-1.91733 31.8020   1
   1 -15  -5 1212.50 32.7064  -2
  -1 -15   5 1212.50 32.7064   1
  -1  15   4 38.9878 22.5000  -2
   1  15  -4 38.9878 22.5000   1
  -1  15   3 278.716 23.5277  -2
   1  15  -3 278.716 23.5277   1
  -1  15   2 77.6931 21.0898  -2
   1  15  -2 77.6931 21.0898   1
   1  15  -1 851.472 30.2139  -2
  -1  15   1 851.472 30.2139   1
   1  15   0 48.6594 21.4388  -2
  -1  15   0 48.6594 21.4388   1
   1  15   1 131.006 21.8899  -2
  -1  15  -1 131.006 21.8899   1
   1 -15   2 123.686 22.3212  -2
  -1 -15  -2 123.686 22.3212   1
   1  15   3 2176.67 36.0477  -2
  -1  15  -3 2176.67 36.0477   1
  -1  15  -4-4.76809 40.6997   1
   1  15   4 58.6981 28.0702  -2
  -1  15  -4 58.6981 28.0702   1
  -1  15  -5 31.1426 42.9567   1
   1 -15   5 59.1718 35.3103  -2
  -1 -15  -5 59.1718 35.3103   1
  -1  15  -6 690.268 48.2654   1
   1  15   6 888.793 39.2221  -2
  -1  15  -6 888.793 39.2221   1
  -1  15  -7 575.160 29.3776   1
   1 -15   7 854.213 56.0015  -2
  -1 -15  -7 854.213 56.0015   1
  -1  15  -8 149.773 44.3912   1
   1 -15   8 266.404 49.0219  -2
  -1 -15  -8 266.404 49.0219   1
  -1  15  -9-2.89013 41.9450   1
   1 -15   9 34.1416 45.2627  -2
  -1 -15  -9 34.1416 45.2627   1
  -1  15 -10 21.6535 40.8602   1
   1 -15  10 28.4218 39.9285  -2
  -1 -15 -10 28.4218 39.9285   1
  -1  15 -11 72.4786 38.9257   1
   1 -15  11 98.6238 37.5186  -2
  -1 -15 -11 98.6238 37.5186   1
   1 -15  12 226.657 23.1638   1
   1 -15  12 273.618 34.6642  -2
  -1 -15 -12 273.618 34.6642   1
  -1  15 -13-2.83532 20.4464   1
  -1  15 -14 13.1280 18.5487   1
   1 -15  15 99.9698 16.8066   1
   1 -15  16 204.703 19.6320   1
  -1 -16  15 144.099 19.0886   1
  -1 -16  14 10.1472 20.7895   1
  -2  16  14 24.4264 41.6739  -2
   1  16 -14 24.4264 41.6739   1
  -1 -16  13 132.166 16.2620   1
  -2  16  13 247.846 49.9532  -2
   1  16 -13 247.846 49.9532   1
   1 -16 -12-5.53664 17.1602   1
  -2  16  12 59.0880 54.9230  -2
   1  16 -12 59.0880 54.9230   1
  -1 -16  11 30.3096 16.5617   1
  -1 -16  10 22.8049 26.3495   1
  -1 -16  10 16.2464 39.2406  -2
   1 -16 -10 16.2464 39.2406   1
  -2  16  10 34.5757 57.5533  -2
   1  16 -10 34.5757 57.5533   1
  -1 -16   9 6.29289 43.6027  -2
   1 -16  -9 6.29289 43.6027   1
  -2  16   9 304.152 64.7357  -2
   1  16  -9 304.152 64.7357   1
  -1 -16   8 78.7961 45.9292  -2
   1 -16  -8 78.7961 45.9292   1
  -2  16   8 71.8412 62.1103  -2
   1  16  -8 71.8412 62.1103   1
   1  16  -7 43.2367 41.1440   1
  -1 -16   7 88.7602 46.8091  -2
   1 -16  -7 88.7602 46.8091   1
   1  16  -6 67.0941 40.9726   1
  -1 -16   6 71.5047 49.0705  -2
   1 -16  -6 71.5047 49.0705   1
   1  16  -5 17.4393 41.6063   1
   1 -16  -5 69.2454 24.1169  -2
  -1 -16   5 69.2454 24.1169   1
  -1  16   4 417.085 24.5145  -2
   1  16  -4 417.085 24.5145   1
   1 -16  -3 50.6887 20.6101  -2
  -1 -16   3 50.6887 20.6101   1
  -1  16   2 224.629 19.8917  -2
   1  16  -2 224.629 19.8917   1
   1 -16  -1 41.8213 20.7821  -2
  -1 -16   1 41.8213 20.7821   1
  -1  16   0 51.5891 21.1028  -2
   1  16   0 51.5891 21.1028   1
  -1  16  -1 56.7656 20.6526  -2
   1  16   1 56.7656 20.6526   1
   1 -16   2 31.0673 20.3311  -2
  -1 -16  -2 31.0673 20.3311   1
  -1 -16  -3 20.4831 19.9834  -2
   1 -16   3 20.4831 19.9834   1
  -1  16  -4 3.97905 40.6168   1
  -1 -16  -4 3.95124 25.5225  -2
   1 -16   4 3.95124 25.5225   1
  -1  16  -5 26.8436 41.7136   1
   1  16   5 36.3856 33.7287  -2
  -1  16  -5 36.3856 33.7287   1
  -1  16  -6 27.0543 40.8290   1
   1  16   6 59.1725 32.2768  -2
  -1  16  -6 59.1725 32.2768   1
  -1  16  -7 40.2695 42.1424   1
   1 -16   7 80.7235 45.8811  -2
  -1 -16  -7 80.7235 45.8811   1
  -1  16  -8 45.9776 38.0234   1
   1 -16   8 82.5191 44.1764  -2
  -1 -16  -8 82.5191 44.1764   1
  -1  16  -9 17.0097 38.9073   1
   1 -16   9 27.3726 40.1814  -2
  -1 -16  -9 27.3726 40.1814   1
  -1  16 -10 122.638 38.5612   1
   1 -16  10 179.231 37.9308  -2
  -1 -16 -10 179.231 37.9308   1
   1 -16  11-6.78058 20.2155   1
   1 -16  11 17.2564 33.8152  -2
  -1 -16 -11 17.2564 33.8152   1
   1 -16  12 80.3946 19.3430   1
   1 -16  12 72.3060 29.7625  -2
  -1 -16 -12 72.3060 29.7625   1
   1 -16  13 64.6855 17.5096   1
   1 -16  14 47.5646 15.3620   1
   1 -16  15 89.4821 16.8895   1
  -1 -17  14 10.3714 15.2469   1
  -1 -17  13 494.339 20.3613   1
   1 -17 -12 29.8203 14.0862   1
  -2  17  12 26.4845 44.9106  -2
   1  17 -12 26.4845 44.9106   1
   1 -17 -11 127.648 16.2371   1
  -2  17  11 120.305 50.7269  -2
   1  17 -11 120.305 50.7269   1
  -1 -17  10 10.3443 22.2635   1
  -1 -17  10 7.17584 34.2588  -2
   1 -17 -10 7.17584 34.2588   1
  -2  17  10 23.4489 55.3795  -2
   1  17 -10 23.4489 55.3795   1
  -1 -17   9 396.450 26.2913   1
  -1 -17   9 480.010 40.7865  -2
   1 -17  -9 480.010 40.7865   1
  -2  17   9 354.909 56.6468  -2
   1  17  -9 354.909 56.6468   1
  -1 -17   8 0.58423 24.6519   1
  -1 -17   8-7.48838 40.4190  -2
   1 -17  -8-7.48838 40.4190   1
  -2  17   8 34.8888 58.9134  -2
   1  17  -8 34.8888 58.9134   1
   1  17  -7 29.2619 37.9411   1
  -1 -17   7 109.223 43.1835  -2
   1 -17  -7 109.223 43.1835   1
  -1  17   6-6.67276 34.9946  -2
   1  17  -6-6.67276 34.9946   1
   1 -17  -5 121.830 27.9827  -2
  -1 -17   5 121.830 27.9827   1
   1  17  -4 72.5530 21.3205  -2
  -1  17   4 72.5530 21.3205   1
   1  17  -3-2.41345 21.8735  -2
  -1  17   3-2.41345 21.8735   1
  -1  17   2 216.766 31.2750   1
   1 -17  -2 433.078 25.5107  -2
  -1 -17   2 433.078 25.5107   1
   1  17  -1 309.403 22.0094  -2
  -1  17   1 309.403 22.0094   1
  -1  17   0 571.440 22.7561  -2
   1  17   0 571.440 22.7561   1
  -1 -17  -1 6.68901 17.1575  -2
   1 -17   1 6.68901 17.1575   1
   1  17   2 28.0313 17.2234  -2
  -1  17  -2 28.0313 17.2234   1
  -1  17  -3 233.438 38.5952   1
   1 -17   3 333.385 25.3855  -2
  -1 -17  -3 333.385 25.3855   1
  -1  17  -4 22.0202 36.1788   1
   1 -17   4 47.7737 31.4844  -2
  -1 -17  -4 47.7737 31.4844   1
  -1  17  -5 118.049 39.0504   1
   1 -17   5 153.823 30.8227  -2
  -1 -17  -5 153.823 30.8227   1
  -1  17  -6 0.01575 36.5808   1
   1 -17   6 4.11404 41.2968  -2
  -1 -17  -6 4.11404 41.2968   1
  -1  17  -7 504.946 41.7156   1
   1 -17   7 739.896 45.8342  -2
  -1 -17  -7 739.896 45.8342   1
  -1  17  -8 45.8256 34.0122   1
   1 -17   8 67.3594 39.1628  -2
  -1 -17  -8 67.3594 39.1628   1
  -1  17  -9 19.5609 34.7857   1
   1 -17   9 27.0812 35.7806  -2
  -1 -17  -9 27.0812 35.7806   1
   1 -17  10 67.4783 18.6696   1
   1 -17  10 52.0070 32.8564  -2
  -1 -17 -10 52.0070 32.8564   1
   1 -17  11 215.455 17.9818   1
   1 -17  11 269.359 29.7179  -2
  -1 -17 -11 269.359 29.7179   1
   1 -17  12 41.2718 15.6673   1
   1 -17  13 162.213 14.0088   1
   1 -18 -11 4.13509 11.8746   1
  -2  18  11 15.2672 38.3002  -2
   1  18 -11 15.2672 38.3002   1
  -1 -18  10 98.0951 17.4801   1
  -1 -18  10 120.224 28.1909  -2
   1 -18 -10 120.224 28.1909   1
  -2  18  10 54.2731 42.9266  -2
   1  18 -10 54.2731 42.9266   1
  -1 -18   9 79.3803 18.8278   1
  -1 -18   9 109.660 31.8002  -2
   1 -18  -9 109.660 31.8002   1
  -2  18   9 82.7255 47.3323  -2
   1  18  -9 82.7255 47.3323   1
  -1 -18   8 24.4349 19.3787   1
  -1 -18   8 34.2294 34.7321  -2
   1 -18  -8 34.2294 34.7321   1
  -2  18   8 14.8044 50.0365  -2
   1  18  -8 14.8044 50.0365   1
   1  18  -7 12.3197 16.7483   1
  -1 -18   7 31.8982 35.3737  -2
   1 -18  -7 31.8982 35.3737   1
   1  18  -6 53.0960 31.0844   1
   1 -18  -6 93.1469 21.3214  -2
  -1 -18   6 93.1469 21.3214   1
  -1 -18   5-8.48952 31.4522  -2
   1 -18  -5-8.48952 31.4522   1
  -1  18   4 47.2830 18.2485   1
  -1  18   4 64.2819 24.5240  -2
   1  18  -4 64.2819 24.5240   1
   1 -18  -3 3.91085 18.4076  -2
  -1 -18   3 3.91085 18.4076   1
  -1  18   2 2.46904 19.8662  -2
   1  18  -2 2.46904 19.8662   1
  -1  18   1-1.78699 26.4062   1
  -1 -18   1 0.97250 20.0673  -2
   1 -18  -1 0.97250 20.0673   1
  -1 -18   0 40.0182 20.3172  -2
   1 -18   0 40.0182 20.3172   1
  -1  18  -1 39.9506 29.2085   1
  -1 -18  -1 89.4794 20.2249  -2
   1 -18   1 89.4794 20.2249   1
   1  18   2 3.84512 19.3353   1
  -1 -18  -2 4.12157 21.4723  -2
   1 -18   2 4.12157 21.4723   1
  -1  18  -3-4.43315 30.8695   1
  -1 -18  -3 39.6177 26.9173  -2
   1 -18   3 39.6177 26.9173   1
  -1  18  -4 9.75420 30.8477   1
   1 -18   4 9.97488 41.0720  -2
  -1 -18  -4 9.97488 41.0720   1
  -1  18  -5-0.64274 31.9135   1
   1 -18   5 14.1860 37.4196  -2
  -1 -18  -5 14.1860 37.4196   1
  -1  18  -6 68.7884 31.0611   1
   1 -18   6 91.0300 37.6365  -2
  -1 -18  -6 91.0300 37.6365   1
  -1  18  -7 8.17203 29.5242   1
   1 -18   7 2.02602 32.3112  -2
  -1 -18  -7 2.02602 32.3112   1
   1 -18   8 5.41561 16.4408   1
   1 -18   8-14.0003 33.0394  -2
  -1 -18  -8-14.0003 33.0394   1
   1 -18   9 9.89473 15.2835   1
   1 -18   9-7.03634 29.9682  -2
  -1 -18  -9-7.03634 29.9682   1
   1 -18  10 21.2310 13.8224   1
   1 -18  10 51.4919 26.5996  -2
  -1 -18 -10 51.4919 26.5996   1
   1 -18  11 109.807 12.8454   1
  -2  19   9 11.0910 33.7623  -2
   1  19  -9 11.0910 33.7623   1
  -1 -19   8-4.89793 26.2718  -2
   1 -19  -8-4.89793 26.2718   1
  -2  19   8-5.28331 35.9622  -2
   1  19  -8-5.28331 35.9622   1
  -1 -19   7 23.1971 28.0378  -2
   1 -19  -7 23.1971 28.0378   1
  -2  19   7-24.1018 39.5407  -2
   1  19  -7-24.1018 39.5407   1
   1  19  -6 24.2933 24.7275   1
  -1 -19   6 26.9009 31.1736  -2
   1 -19  -6 26.9009 31.1736   1
  -1 -19   5 273.167 25.9760  -2
   1 -19  -5 273.167 25.9760   1
   1  19  -4 130.977 26.9384   1
  -1 -19   4 298.984 34.3866  -2
   1 -19  -4 298.984 34.3866   1
   1  19  -3 16.8425 25.5153   1
   1 -19  -3 60.9676 24.8360  -2
  -1 -19   3 60.9676 24.8360   1
   1 -19  -2 48.9775 21.3781  -2
  -1 -19   2 48.9775 21.3781   1
   1 -19  -1 91.8668 21.4281  -2
  -1 -19   1 91.8668 21.4281   1
   1 -19   0 643.008 22.9680  -2
  -1 -19   0 643.008 22.9680   1
  -1  19  -1 84.6031 22.9313   1
  -1 -19  -1 183.875 25.0008  -2
   1 -19   1 183.875 25.0008   1
  -1  19  -2 68.9892 24.2455   1
   1 -19   2 126.066 24.5275  -2
  -1 -19  -2 126.066 24.5275   1
  -1  19  -3 19.1147 25.0957   1
   1 -19   3 67.7680 36.3252  -2
  -1 -19  -3 67.7680 36.3252   1
  -1  19  -4 180.290 26.0926   1
   1 -19   4 391.556 37.7798  -2
  -1 -19  -4 391.556 37.7798   1
  -1  19  -5-0.90064 24.8705   1
   1 -19   5 0.06836 32.0709  -2
  -1 -19  -5 0.06836 32.0709   1
  -1  19  -6 143.214 13.7741   1
   1 -19   6 225.814 31.9688  -2
  -1 -19  -6 225.814 31.9688   1
  -1  19  -7 6.18767 12.3145   1
   1 -19   7 18.5145 29.4235  -2
  -1 -19  -7 18.5145 29.4235   1
  -1  19  -8 44.7204 21.0834   1
   1 -19   8 82.6427 26.4788  -2
  -1 -19  -8 82.6427 26.4788   1
  -1 -20   4 16.4754 25.4814  -2
   1 -20  -4 16.4754 25.4814   1
  -1 -20   3 78.3589 27.0215  -2
   1 -20  -3 78.3589 27.0215   1
  -1 -20   2 45.5567 28.7959  -2
   1 -20  -2 45.5567 28.7959   1
   1 -20   0-2.43445 30.8703  -2
  -1 -20   0-2.43445 30.8703   1
   1 -20   1 30.3606 30.8845  -2
  -1 -20  -1 30.3606 30.8845   1
   1 -20   2 36.5750 30.4565  -2
  -1 -20  -2 36.5750 30.4565   1
   1 -20   3 52.5051 29.1202  -2
  -1 -20  -3 52.5051 29.1202   1
   1 -20   4 1.49772 26.4601  -2
  -1 -20  -4 1.49772 26.4601   1
   2   0 -24 181.292 36.4375   1
   2   0 -22 5.92862 45.2058   1
   2   0 -20 63.3334 53.0029   1
  -2   0  18 689.906 34.3108   1
   2   0 -16 442.193 29.3342   1
  -2   0  14 8155.90 133.366   1
  -2   0  12 757.535 33.3161   1
   2   0 -10 89.3694 26.9702   1
   2   0  -8 2141.89 36.7290   1
  -2   0   6 46882.8 115.194   1
  -2   0   4 11268.1 71.5461  -2
   2   0  -4 11268.1 71.5461   1
  -2   0   2 2830.90 21.9278   1
   2   0   0 241508. 227.812  -2
  -2   0   0 241508. 227.812   1
   2   0   2 38206.7 88.4543   1
   2   0   2 49190.2 127.878  -2
  -2   0  -2 49190.2 127.878   1
   2   0   4 77084.2 158.708   1
   2   0   6 20203.1 101.692   1
   2   0   8 3265.39 55.9559   1
   2   0  10 1190.26 48.7268   1
   2   0  12 1044.41 53.3269   1
  -2   0 -14 1982.12 48.8934   1
  -2   0 -16 699.797 45.6158   1
  -2   0 -18 3793.89 69.1259   1
  -2   0 -20 249.688 40.3427   1
  -2   0 -22 110.276 31.9571   1
   2  -1 -25 10.7209 21.0532   1
  -3  -1  24 131.801 32.2566  -2
   2  -1 -24 131.801 32.2566   1
  -3   1  23 42.7678 23.9670  -2
   2   1 -23 42.7678 23.9670   1
  -3  -1  22 60.0463 27.5560  -2
   2  -1 -22 60.0463 27.5560   1
  -3  -1  21 57.2382 29.8609  -2
   2  -1 -21 57.2382 29.8609   1
  -3  -1  20 42.6618 31.4394  -2
   2  -1 -20 42.6618 31.4394   1
   3  -1 -19 66.1090 25.1333  -2
  -2  -1  19 66.1090 25.1333   1
  -2  -1  18 2.23918 34.0361   1
  -3  -1  18 480.306 34.0212  -2
   2  -1 -18 480.306 34.0212   1
  -2  -1  17 1135.76 38.7730   1
  -3   1  17 1871.81 40.6779  -2
   2   1 -17 1871.81 40.6779   1
   2  -1 -16 14.7621 19.4488   1
  -3   1  16 69.6231 41.0330  -2
   2   1 -16 69.6231 41.0330   1
  -2  -1  15 44.5915 20.4258   1
  -2  -1  14 557.246 32.1094   1
  -2   1  13 132.084 26.4370   1
   2  -1 -12 214.749 20.7414   1
   2   1 -11 100.606 19.1740   1
  -2   1  10 257.125 20.4520   1
  -2  -1   9 41.9090 18.3745   1
   2  -1  -8 65.8326 17.6312   1
  -2   1   7 131.848 17.5296   1
  -2   1   6 1124.87 28.7320   1
  -2  -1   6 1417.75 50.1713  -2
   2  -1  -6 1417.75 50.1713   1
  -2   1   5 310.215 28.9802  -2
   2   1  -5 310.215 28.9802   1
  -2  -1   3 509.508 26.6182   1
   2  -1  -3 670.237 18.6036  -2
  -2  -1   3 670.237 18.6036   1
  -2   1   2 82.9766 8.84807   1
   2  -1  -2 124.325 11.9066  -2
  -2  -1   2 124.325 11.9066   1
   2   1  -1 379.132 12.4299   1
   2  -1  -1 478.315 14.5396  -2
  -2  -1   1 478.315 14.5396   1
   2   1   0 254.105 12.7565   1
  -2  -1   0 282.951 14.4929  -2
   2  -1   0 282.951 14.4929   1
   2   1   1 981.397 24.2042   1
   2  -1   1 1292.20 24.4273  -2
  -2  -1  -1 1292.20 24.4273   1
  -2   1  -2 884.061 22.1709   1
   2  -1   3 4861.39 35.2028   1
  -2   1  -3 6050.37 34.2874  -2
   2   1   3 6050.37 34.2874   1
   2  -1   4 3950.99 35.2772   1
  -2   1  -4 4954.49 40.7550  -2
   2   1   4 4954.49 40.7550   1
   2  -1   5 147.585 20.9056   1
  -2   1  -5 175.828 27.6643  -2
   2   1   5 175.828 27.6643   1
   2  -1   6 156.346 29.2327   1
  -2   1  -6 185.986 30.3558  -2
   2   1   6 185.986 30.3558   1
   2   1   7 124.315 20.7481   1
   2   1   8 11690.8 66.8471   1
   2  -1   9 1569.24 34.7027   1
   2  -1  10 645.947 30.4688   1
   2   1  11 108.656 27.7430   1
   2  -1  12 2920.93 51.3716   1
   2  -1  13 272.469 21.7317   1
  -2   1 -14 641.643 28.9237   1
  -2  -1 -15 2.79975 26.8122   1
  -2  -1 -16 193.799 28.3653   1
  -2  -1 -17 1679.30 38.6493   1
  -2  -1 -18 322.145 32.3937   1
  -2  -1 -19 994.047 35.2603   1
  -2  -1 -20 21.4084 26.4925   1
  -2  -1 -21 60.3361 25.1032   1
  -2  -1 -22 1.78731 22.2274   1
  -2   1 -23 73.8662 18.5843   1
  -2  -1 -24 15.6246 21.6441   1
  -3  -2  25 147.241 25.7009  -2
   2  -2 -25 147.241 25.7009   1
  -3  -2  24 87.2379 32.5003  -2
   2  -2 -24 87.2379 32.5003   1
  -3  -2  23 275.919 39.7746  -2
   2  -2 -23 275.919 39.7746   1
  -3   2  22 183.341 26.3790  -2
   2   2 -22 183.341 26.3790   1
  -3  -2  21 22.8987 28.2626  -2
   2  -2 -21 22.8987 28.2626   1
  -3   2  20 1595.66 34.4763  -2
   2   2 -20 1595.66 34.4763   1
   3  -2 -19 132.212 25.2389  -2
  -2  -2  19 132.212 25.2389   1
  -2  -2  18 406.467 83.6035   1
  -3  -2  18 502.207 32.1580  -2
   2  -2 -18 502.207 32.1580   1
  -2  -2  17 6702.76 62.3591   1
  -3  -2  17 7418.90 57.8481  -2
   2  -2 -17 7418.90 57.8481   1
  -2  -2  16 58.7698 22.9743   1
  -3   2  16 141.072 40.6193  -2
   2   2 -16 141.072 40.6193   1
  -2  -2  15 5434.64 51.4160   1
  -3   2  15 6043.98 66.7163  -2
   2   2 -15 6043.98 66.7163   1
  -2  -2  14 1301.75 27.7862   1
  -2  -2  13 175.355 32.6984   1
   2  -2 -12 468.876 34.3280   1
  -2   2  11 622.226 34.4125   1
   2   2 -10 377.395 20.5181   1
   2  -2  -9 19642.3 102.763   1
   2  -2  -8 2592.71 31.4256   1
   2  -2  -7 15538.8 70.2228   1
   2   2  -7 18831.5 119.991  -2
  -2   2   7 18831.5 119.991   1
   2   2  -6 22549.1 104.270   1
  -2  -2   6 27889.3 133.128  -2
   2  -2  -6 27889.3 133.128   1
  -2  -2   3 40252.6 46.8123   1
  -2   2   3 101249. 141.156  -2
   2   2  -3 101249. 141.156   1
  -2  -2   2 47406.3 82.2144   1
  -2   2   2 58214.9 97.1432  -2
   2   2  -2 58214.9 97.1432   1
  -2   2   1 53212.4 93.1978   1
  -2   2   1 62643.3 91.2723  -2
   2   2  -1 62643.3 91.2723   1
   2   2   0 7829.25 30.7350  -2
  -2   2   0 7829.25 30.7350   1
  -2   2  -1 3828.37 21.9018  -2
   2   2   1 3828.37 21.9018   1
   2  -2   2 215.421 10.1219   1
   2   2   2 275.026 34.6520  -2
  -2   2  -2 275.026 34.6520   1
  -2   2  -3 59639.2 112.713   1
   2  -2   4 5145.99 39.7775   1
  -2   2  -5 1425.71 29.2372   1
  -2   2  -6 4727.19 44.2327   1
   2  -2   7 1150.07 27.4104   1
   2   2   8 86.7751 23.4884   1
   2   2   9 8316.61 62.6360   1
   2  -2  10 8793.98 68.4289   1
   2   2  11 3128.60 48.7183   1
   2  -2  12 0.11108 44.3020   1
   2  -2  13 9.04142 20.6627   1
  -2  -2 -14 1544.50 33.0567   1
  -2  -2 -15 286.276 28.2147   1
  -2   2 -16 199.725 26.3770   1
  -2  -2 -17 3881.72 61.0237   1
  -2   2 -18 878.299 34.7633   1
  -2   2 -19 1736.33 38.8451   1
  -2   2 -20 4.08243 25.4054   1
  -2   2 -21 10.0314 23.6139   1
  -2   2 -22 111.262 21.4693   1
  -2  -2 -23 79.4132 29.2057   1
  -2  -2 -24 24.8135 22.1303   1
   2  -3 -25 27.9151 22.1545   1
   2  -3 -24 94.5907 29.1975   1
  -3  -3  23 83.4887 38.8733  -2
   2  -3 -23 83.4887 38.8733   1
  -3  -3  22 263.364 44.8817  -2
   2  -3 -22 263.364 44.8817   1
   3  -3 -21 504.948 31.4367  -2
  -2  -3  21 504.948 31.4367   1
   3  -3 -20 753.473 34.4240  -2
  -2  -3  20 753.473 34.4240   1
   2   3 -19-11.4437 34.0255   1
  -3  -3  19 222.159 51.4446  -2
   2  -3 -19 222.159 51.4446   1
  -2  -3  18 321.576 79.6440   1
  -3  -3  18 368.613 31.4942  -2
   2  -3 -18 368.613 31.4942   1
  -2  -3  17 24.5171 29.1487   1
  -3  -3  17 132.338 48.8252  -2
   2  -3 -17 132.338 48.8252   1
  -2  -3  16 66.1513 20.3766   1
  -2   3  15 40.0867 24.6554   1
  -3  -3  15 834.455 65.4152  -2
   2  -3 -15 834.455 65.4152   1
  -2  -3  14 1187.77 28.0622   1
  -2  -3  13 66.0871 33.3867   1
   2  -3 -12 188.725 34.2994   1
  -2  -3  11 3090.65 53.5501   1
  -2  -3  10 313.224 32.2892   1
  -2  -3   9 7.57046 19.1483   1
   2  -3  -8 3652.42 40.8224   1
  -2  -3   7 111.361 21.9038   1
  -2  -3   7 111.884 47.2017  -2
   2  -3  -7 111.884 47.2017   1
   2   3  -6 8.10341 16.3756   1
  -2  -3   6 8.10643 41.3005  -2
   2  -3  -6 8.10643 41.3005   1
  -2   3   5 164.973 21.7353   1
  -2   3   4 1280.78 36.7020   1
  -2   3   4 1762.78 40.8556  -2
   2   3  -4 1762.78 40.8556   1
  -2   3   3 2904.87 39.1743   1
   2  -3  -3 3754.03 57.3693  -2
  -2  -3   3 3754.03 57.3693   1
  -2   3   2 11398.6 61.9356   1
   2  -3  -2 14944.7 63.4694  -2
  -2  -3   2 14944.7 63.4694   1
  -2   3   1 31.6804 23.5499   1
   2  -3  -1 20.1796 22.4288  -2
  -2  -3   1 20.1796 22.4288   1
   2   3   0 2057.93 28.1709  -2
  -2   3   0 2057.93 28.1709   1
   2  -3   1 83.4478 20.3327   1
   2   3   1 142.011 27.8817  -2
  -2   3  -1 142.011 27.8817   1
   2  -3   2 54.3674 13.1387   1
   2   3   2 85.7325 32.9044  -2
  -2   3  -2 85.7325 32.9044   1
  -2   3  -3 115.530 25.1723   1
   2  -3   4 2149.25 31.6661   1
  -2   3  -5 819.833 25.6098   1
  -2   3  -5 1041.61 48.1213  -2
   2   3   5 1041.61 48.1213   1
  -2   3  -6 697.432 26.3611   1
   2  -3   7 1247.62 50.7426   1
   2  -3   8 2063.76 59.4823   1
   2  -3   9 892.659 50.9180   1
   2  -3  10 1721.68 63.0349   1
   2  -3  11 971.069 57.0625   1
   2  -3  12 198.384 49.7728   1
   2  -3  13-0.13907 20.8261   1
   2  -3  14 497.124 23.7161   1
  -2  -3 -15 2344.15 36.3368   1
   2   3  16 4061.93 47.5015   1
  -2  -3 -17 898.055 33.3071   1
  -2  -3 -18 1139.15 34.3961   1
  -2   3 -19 90.0958 27.6242   1
  -2  -3 -20 35.3597 24.8217   1
  -2  -3 -21 340.931 39.1962   1
  -2  -3 -22 294.685 35.9070   1
  -2  -3 -23-0.69687 28.6116   1
  -2  -3 -24 38.3554 21.7527   1
   2  -4 -25 143.197 22.1447   1
  -3  -4  24 20.1335 31.7890  -2
   2  -4 -24 20.1335 31.7890   1
  -3  -4  23 93.9663 37.8940  -2
   2  -4 -23 93.9663 37.8940   1
   3  -4 -22 223.009 26.8728  -2
  -2  -4  22 223.009 26.8728   1
  -3  -4  21 760.679 31.8814  -2
   2  -4 -21 760.679 31.8814   1
   3  -4 -20 153.912 30.5772  -2
  -2  -4  20 153.912 30.5772   1
   3  -4 -19 59.2069 31.9306  -2
  -2  -4  19 59.2069 31.9306   1
   3  -4 -18 195.368 32.0555  -2
  -2  -4  18 195.368 32.0555   1
  -2   4  17 994.897 33.7155   1
  -3  -4  17 1217.98 56.7347  -2
   2  -4 -17 1217.98 56.7347   1
  -2   4  16 1048.11 32.2091   1
  -2   4  15 4160.85 48.5373   1
  -3  -4  15 4287.16 101.963  -2
   2  -4 -15 4287.16 101.963   1
  -2   4  14 188.715 21.1156   1
  -2  -4  13 209.629 19.9395   1
  -2   4  12 3003.68 55.1937   1
  -2   4  11 896.295 31.6834   1
  -2   4  10 26.0491 24.7955   1
  -2  -4   9 1926.27 26.5749   1
   2   4  -8 1534.88 24.2732   1
   2  -4  -7 1715.00 24.0785   1
  -2  -4   6 98.6500 35.7966   1
  -2  -4   6 153.507 28.8379  -2
   2  -4  -6 153.507 28.8379   1
   2   4  -5 13446.0 67.5426  -2
  -2   4   5 13446.0 67.5426   1
  -2   4   4 4298.44 52.9003   1
  -2   4   4 5051.63 54.2372  -2
   2   4  -4 5051.63 54.2372   1
  -2   4   3 687.544 31.7413   1
  -2  -4   3 773.637 32.9193  -2
   2  -4  -3 773.637 32.9193   1
  -2   4   2 31.9746 25.6426   1
   2  -4  -2 6.99631 27.7097  -2
  -2  -4   2 6.99631 27.7097   1
   2   4  -1 48129.0 104.333  -2
  -2   4   1 48129.0 104.333   1
   2  -4   0 19236.5 77.8150  -2
  -2  -4   0 19236.5 77.8150   1
   2  -4   1 1425.26 31.2066   1
   2   4   1 1762.51 36.2408  -2
  -2   4  -1 1762.51 36.2408   1
   2  -4   2 5146.89 38.8847   1
   2   4   2 6394.24 63.1709  -2
  -2   4  -2 6394.24 63.1709   1
   2  -4   3 9120.30 85.0524   1
  -2   4  -3 11684.9 63.5419  -2
   2   4   3 11684.9 63.5419   1
   2  -4   4 4680.39 42.1677   1
  -2   4  -4 6171.71 84.3302  -2
   2   4   4 6171.71 84.3302   1
  -2   4  -5 1815.26 31.7315   1
   2  -4   6 16736.7 78.3002   1
  -2   4  -6 21606.0 145.680  -2
   2   4   6 21606.0 145.680   1
  -2   4  -7 34.9759 20.5384   1
   2   4   8 4659.25 59.3657   1
   2   4   9 76.0185 31.2875   1
   2  -4  10 7406.39 78.2379   1
   2   4  11 453.411 38.8744   1
  -2  -4 -12 1249.37 30.6919   1
   2  -4  13 258.564 20.4190   1
   2  -4  14 3.86281 19.2404   1
  -2  -4 -15 2510.81 44.4445   1
   2   4  16 728.408 36.6008   1
  -2  -4 -17 64.9956 41.9504   1
  -2  -4 -18 108.383 43.0246   1
  -2  -4 -19 659.263 47.9981   1
  -2  -4 -20 9.25902 39.5579   1
  -2  -4 -21 231.913 39.1622   1
  -2  -4 -22 21.4782 32.5227   1
  -2  -4 -23 347.254 30.4177   1
  -2  -4 -24-8.82066 20.1471   1
   2  -5 -24 47.0420 26.0163   1
  -3  -5  23 45.0257 35.7350  -2
   2  -5 -23 45.0257 35.7350   1
   3  -5 -22 99.8525 26.0295  -2
  -2  -5  22 99.8525 26.0295   1
  -3  -5  21 40.4262 28.8300  -2
   2  -5 -21 40.4262 28.8300   1
  -3  -5  20 82.9226 30.3972  -2
   2  -5 -20 82.9226 30.3972   1
   2  -5 -19 30.7540 41.6832   1
   3  -5 -19 78.6787 40.1198  -2
  -2  -5  19 78.6787 40.1198   1
   3  -5 -18 355.154 33.7269  -2
  -2  -5  18 355.154 33.7269   1
   2  -5 -17-1.12109 23.3052   1
  -2  -5  16 562.032 24.9674   1
  -2  -5  15-4.31717 22.5070   1
  -2   5  14 217.653 22.3718   1
  -2  -5  13 82.7395 19.7962   1
  -2   5  12 184.224 27.8496   1
  -2   5  11 273.269 26.9376   1
  -2  -5  10 1060.80 32.1156   1
  -2   5   9 3.08013 24.1258   1
   2  -5  -8 382.888 19.4128   1
  -2  -5   7 1052.58 51.5253   1
  -2  -5   7 1428.45 41.2535  -2
   2  -5  -7 1428.45 41.2535   1
  -2  -5   6 1539.13 33.5548  -2
   2  -5  -6 1539.13 33.5548   1
  -2   5   5 29.4341 32.4620   1
  -2  -5   5 61.4443 30.0226  -2
   2  -5  -5 61.4443 30.0226   1
  -2   5   4 244.572 33.2560   1
  -2  -5   4 393.452 30.3513  -2
   2  -5  -4 393.452 30.3513   1
   2  -5  -3 3211.36 32.0012  -2
  -2  -5   3 3211.36 32.0012   1
  -2  -5   2 9707.65 53.5441  -2
   2  -5  -2 9707.65 53.5441   1
   2  -5  -1 4157.98 39.1374  -2
  -2  -5   1 4157.98 39.1374   1
  -2   5   0 94.6237 17.1898  -2
   2   5   0 94.6237 17.1898   1
   2  -5   1 58.0762 25.7166   1
   2   5   1 82.9591 18.4920  -2
  -2   5  -1 82.9591 18.4920   1
   2   5   2 420.318 25.7336  -2
  -2   5  -2 420.318 25.7336   1
   2  -5   3 156.505 21.4226   1
  -2   5  -3 203.731 42.6921  -2
   2   5   3 203.731 42.6921   1
   2  -5   4 44.3606 20.5525   1
  -2   5  -4 69.3725 43.2749  -2
   2   5   4 69.3725 43.2749   1
   2  -5   5 1053.92 28.7197   1
  -2   5  -5 1428.42 60.1718  -2
   2   5   5 1428.42 60.1718   1
   2  -5   6 540.536 26.0652   1
  -2   5  -6 652.913 54.9265  -2
   2   5   6 652.913 54.9265   1
   2  -5   7 893.186 52.3015   1
  -2   5  -7 1142.23 61.8970  -2
   2   5   7 1142.23 61.8970   1
   2  -5   8 159.435 31.3440   1
   2  -5   9 1932.69 47.8677   1
   2  -5  10 212.465 34.9365   1
   2  -5  11 25.4652 35.1164   1
  -2  -5 -12 70.4148 24.1702   1
  -2  -5 -13 13.8606 16.3202   1
   2  -5  14 153.382 20.6238   1
   2  -5  15 139.090 21.6932   1
   2  -5  16 155.005 22.1468   1
  -2  -5 -17 33.1901 41.4733   1
  -2  -5 -18 1867.67 57.8686   1
  -2  -5 -19 101.951 43.6359   1
  -2  -5 -20 274.740 41.2531   1
  -2  -5 -21 2.01013 35.8884   1
  -2  -5 -22 52.8475 30.9147   1
  -2  -5 -23 62.4316 25.7194   1
   2  -6 -24 28.6422 23.6712   1
  -3  -6  23 4.38938 33.6518  -2
   2  -6 -23 4.38938 33.6518   1
  -3  -6  22 492.269 42.1127  -2
   2  -6 -22 492.269 42.1127   1
   3  -6 -21 77.4938 27.4536  -2
  -2  -6  21 77.4938 27.4536   1
   3  -6 -20 66.6383 29.2360  -2
  -2  -6  20 66.6383 29.2360   1
   3  -6 -19 441.721 33.0322  -2
  -2  -6  19 441.721 33.0322   1
  -3  -6  18 3816.48 46.5472  -2
   2  -6 -18 3816.48 46.5472   1
   2  -6 -17 69.5325 43.2444   1
   3  -6 -17 64.6883 41.3084  -2
  -2  -6  17 64.6883 41.3084   1
  -2   6  16 579.811 25.3964   1
  -2   6  15 388.370 32.4397   1
  -3  -6  15 373.553 77.1767  -2
   2  -6 -15 373.553 77.1767   1
  -2  -6  14 5486.39 81.9115   1
   2  -6 -13 179.449 21.3172   1
  -2  -6  12 4679.79 72.8163   1
  -2   6  11 1270.82 36.9895   1
  -2   6  10 2654.52 51.6280   1
  -2   6   9 13.7459 24.1123   1
  -2  -6   8 563.429 31.5914   1
  -2  -6   8 785.467 61.7855  -2
   2  -6  -8 785.467 61.7855   1
  -2   6   7 1380.04 36.8620   1
  -2  -6   7 1747.69 67.4674  -2
   2  -6  -7 1747.69 67.4674   1
  -2   6   6 2448.23 57.1818   1
  -2  -6   6 2932.73 52.7560  -2
   2  -6  -6 2932.73 52.7560   1
   2   6  -5 3826.74 45.3192  -2
  -2   6   5 3826.74 45.3192   1
   2  -6  -4 11054.3 72.3170  -2
  -2  -6   4 11054.3 72.3170   1
  -2  -6   3 4877.51 46.6772  -2
   2  -6  -3 4877.51 46.6772   1
  -2  -6   2 12529.9 65.1667  -2
   2  -6  -2 12529.9 65.1667   1
  -2  -6   1 559.993 28.9483  -2
   2  -6  -1 559.993 28.9483   1
  -2   6   0 1696.15 34.7737  -2
   2   6   0 1696.15 34.7737   1
   2  -6   1 5452.64 56.1347  -2
  -2  -6  -1 5452.64 56.1347   1
   2   6   2 13176.4 75.5817  -2
  -2   6  -2 13176.4 75.5817   1
  -2   6  -3 1041.30 30.8027  -2
   2   6   3 1041.30 30.8027   1
   2  -6   4 11417.0 68.5358   1
  -2   6  -4 14840.7 150.933  -2
   2   6   4 14840.7 150.933   1
  -2   6  -5 2686.37 38.4947   1
  -2   6  -6 4616.78 47.5818   1
   2  -6   7 4982.89 87.5803   1
  -2   6  -7 6471.42 104.113  -2
   2   6   7 6471.42 104.113   1
   2   6   8 7494.91 78.5311   1
   2   6   9 3944.10 63.6292   1
   2  -6  10 250.594 36.4405   1
  -2   6 -11 1201.73 30.4044   1
   2   6  12 182.433 20.1698   1
  -2  -6 -13 319.487 22.4579   1
   2  -6  14 405.884 19.2221   1
   2  -6  15 502.897 23.6309   1
   2  -6  16 188.687 25.2786   1
  -2  -6 -17 61.2205 23.9578   1
  -2  -6 -18 129.689 41.7980   1
  -2  -6 -19 134.642 40.4730   1
  -2  -6 -20 964.952 44.8543   1
  -2  -6 -21 17.3011 32.9235   1
  -2  -6 -22 76.1304 29.2248   1
  -2  -6 -23 16.4079 23.2288   1
   2  -7 -24-22.7711 20.7202   1
  -3  -7  23 95.2834 31.0843  -2
   2  -7 -23 95.2834 31.0843   1
   3  -7 -22 201.431 23.9002  -2
  -2  -7  22 201.431 23.9002   1
   3  -7 -21 37.9854 26.2219  -2
  -2  -7  21 37.9854 26.2219   1
   3  -7 -20 5.50650 28.3861  -2
  -2  -7  20 5.50650 28.3861   1
  -3  -7  19 59.3737 30.5957  -2
   2  -7 -19 59.3737 30.5957   1
   2  -7 -18 30.2481 42.2843   1
   3  -7 -18 788.765 46.2033  -2
  -2  -7  18 788.765 46.2033   1
   2  -7 -17 12.3535 40.1988   1
   3  -7 -17 22.2147 41.9551  -2
  -2  -7  17 22.2147 41.9551   1
  -2  -7  16 191.301 24.9049   1
  -2  -7  15 23.5653 21.5874   1
  -2  -7  14 964.395 30.3434   1
  -2   7  13 228.908 22.6967   1
  -2  -7  12 16.6655 27.8862   1
   2  -7 -11 95.5082 27.5731   1
   2  -7 -10 38.4067 25.8226   1
   2  -7  -9-2.16676 24.5700   1
  -2  -7   8 178.970 44.6775   1
   2   7  -8 230.024 39.7590  -2
  -2   7   8 230.024 39.7590   1
  -2  -7   7 918.430 52.8311   1
   2   7  -7 1196.55 44.6520  -2
  -2   7   7 1196.55 44.6520   1
   2  -7  -6 10.6249 31.1116  -2
  -2  -7   6 10.6249 31.1116   1
   2  -7  -5 74.5540 28.7903  -2
  -2  -7   5 74.5540 28.7903   1
  -2   7   4 7184.47 59.5942  -2
   2   7  -4 7184.47 59.5942   1
  -2  -7   3 7182.44 69.5932  -2
   2  -7  -3 7182.44 69.5932   1
   2  -7  -2 8.54226 25.5136  -2
  -2  -7   2 8.54226 25.5136   1
  -2   7   1 8441.47 61.3984  -2
   2   7  -1 8441.47 61.3984   1
   2  -7   0 821.679 28.8565  -2
  -2  -7   0 821.679 28.8565   1
   2   7   1 4116.73 55.8455  -2
  -2   7  -1 4116.73 55.8455   1
   2   7   2 2584.70 40.7216  -2
  -2   7  -2 2584.70 40.7216   1
  -2   7  -3 84.9755 30.8601   1
   2  -7   3 99.0955 23.7632  -2
  -2  -7  -3 99.0955 23.7632   1
   2  -7   4-7.45460 22.1565   1
  -2   7  -4-1.29118 49.8022  -2
   2   7   4-1.29118 49.8022   1
   2  -7   5 25.9703 21.1883   1
  -2   7  -5 5.82488 54.1261  -2
   2   7   5 5.82488 54.1261   1
  -2   7  -6 782.246 47.3144  -2
   2   7   6 782.246 47.3144   1
   2  -7   7 6.65126 42.4621   1
  -2   7  -7 26.7085 55.7671  -2
   2   7   7 26.7085 55.7671   1
   2  -7   8 785.091 58.3609   1
  -2   7  -8 1058.33 69.7837  -2
   2   7   8 1058.33 69.7837   1
   2   7   9 196.937 34.4823   1
  -2   7 -10 327.645 24.7410   1
   2   7  11 0.59358 19.2165   1
   2  -7  12 28.2771 24.9671   1
   2  -7  12 21.5150 40.6878  -2
  -2  -7 -12 21.5150 40.6878   1
  -2  -7 -13-3.27063 21.5343   1
  -2   7 -14 96.0394 18.4677   1
   2  -7  15 1576.93 24.3650   1
   2  -7  16 21.7035 23.8299   1
  -2  -7 -17 372.027 25.3509   1
   2  -7  18 127.321 23.1828   1
  -2  -7 -19 80.2329 39.1201   1
  -2  -7 -20 13.9376 34.3139   1
  -2  -7 -21 5.63772 29.8603   1
  -2  -7 -22 18.8616 25.5867   1
   2  -8 -23 78.6641 24.1475   1
   3  -8 -22 475.498 30.6535  -2
  -2  -8  22 475.498 30.6535   1
   2  -8 -21 192.352 33.5446   1
   3  -8 -21 215.563 33.7656  -2
  -2  -8  21 215.563 33.7656   1
  -3  -8  20 258.392 28.1578  -2
   2  -8 -20 258.392 28.1578   1
   2  -8 -19 412.127 42.2069   1
   3  -8 -19 499.830 42.8135  -2
  -2  -8  19 499.830 42.8135   1
   2  -8 -18 424.297 42.2728   1
   3  -8 -18 637.541 44.8573  -2
  -2  -8  18 637.541 44.8573   1
   2  -8 -17 304.283 43.0844   1
   3  -8 -17 316.688 43.8119  -2
  -2  -8  17 316.688 43.8119   1
  -2  -8  16 211.600 27.2938   1
  -2  -8  15 10.3552 23.1955   1
  -2  -8  14 1136.89 28.0008   1
  -2   8  13 1177.63 34.0623   1
  -3   8  13 1319.89 62.5687  -2
   2   8 -13 1319.89 62.5687   1
   2   8 -12 13.7732 22.1176   1
   2  -8 -11 292.299 18.8468   1
  -2   8  10 5287.48 60.7258   1
  -2   8   9 604.896 32.6151   1
  -2  -8   8 232.968 35.5653   1
   2   8  -8 351.000 56.6296  -2
  -2   8   8 351.000 56.6296   1
   2   8  -7 36.8504 32.6340  -2
  -2   8   7 36.8504 32.6340   1
  -2  -8   6 2089.40 51.4823  -2
   2  -8  -6 2089.40 51.4823   1
  -2  -8   5 502.507 32.3621  -2
   2  -8  -5 502.507 32.3621   1
   2   8  -4 3074.36 42.2253  -2
  -2   8   4 3074.36 42.2253   1
  -2  -8   3 2832.59 60.4578  -2
   2  -8  -3 2832.59 60.4578   1
  -2   8   2 110.156 28.2319  -2
   2   8  -2 110.156 28.2319   1
   2  -8  -1 2677.66 48.2564  -2
  -2  -8   1 2677.66 48.2564   1
   2   8   0 959.363 31.4438  -2
  -2   8   0 959.363 31.4438   1
  -2   8  -1 51.9225 24.3062  -2
   2   8   1 51.9225 24.3062   1
  -2   8  -2 5121.35 72.4079   1
   2   8   2 6545.91 74.4082  -2
  -2   8  -2 6545.91 74.4082   1
  -2   8  -3 2395.64 51.6033   1
  -2   8  -3 3141.93 94.7363  -2
   2   8   3 3141.93 94.7363   1
  -2   8  -4 2377.94 39.6570   1
  -2   8  -4 3026.67 91.6338  -2
   2   8   4 3026.67 91.6338   1
  -2  -8  -5 72.7308 43.0742  -2
   2  -8   5 72.7308 43.0742   1
  -2   8  -6 367.955 47.1388  -2
   2   8   6 367.955 47.1388   1
  -2  -8  -7 3334.56 68.6641  -2
   2  -8   7 3334.56 68.6641   1
   2  -8   8 2329.72 77.1798   1
  -2   8  -8 3022.48 92.7951  -2
   2   8   8 3022.48 92.7951   1
  -2   8  -9 339.018 27.2972   1
  -2   8  -9 403.948 69.4851  -2
   2   8   9 403.948 69.4851   1
   2   8  10 2957.29 40.8960   1
   2  -8  10 3369.58 56.1326  -2
  -2  -8 -10 3369.58 56.1326   1
   2   8  11 1661.21 41.0709   1
   2  -8  11 1793.31 49.8409  -2
  -2  -8 -11 1793.31 49.8409   1
   2   8  12 982.136 26.6659   1
  -2   8 -13 419.908 24.8805   1
   2   8  14 772.041 23.6499   1
  -2  -8 -15 6.94856 20.7117   1
  -2  -8 -16 326.715 21.4392   1
  -2  -8 -17 284.845 24.3104   1
   2  -8  18 194.044 22.8040   1
  -2  -8 -19 263.448 21.0567   1
  -2  -8 -20-4.00743 30.3824   1
  -2  -8 -21 49.5682 27.0908   1
  -2  -8 -22 47.6160 22.4258   1
   2  -9 -22 173.124 25.5057   1
   3  -9 -22 303.638 26.1754  -2
  -2  -9  22 303.638 26.1754   1
   2  -9 -21 14.3532 29.3804   1
   3  -9 -21 49.6161 29.9685  -2
  -2  -9  21 49.6161 29.9685   1
   2  -9 -20 78.8771 32.5558   1
   3  -9 -20 136.093 34.6629  -2
  -2  -9  20 136.093 34.6629   1
   2  -9 -19 38.3925 35.2698   1
   3  -9 -19 89.4326 38.4517  -2
  -2  -9  19 89.4326 38.4517   1
   2  -9 -18 75.1403 37.4759   1
   3  -9 -18 162.982 41.3515  -2
  -2  -9  18 162.982 41.3515   1
   2  -9 -17 53.3580 37.8516   1
   3  -9 -17 73.8033 42.8503  -2
  -2  -9  17 73.8033 42.8503   1
   2  -9 -16 545.508 28.6467   1
  -2  -9  15 95.0361 26.4813   1
  -2  -9  14 1273.18 29.9176   1
  -3   9  14 1739.47 72.1632  -2
   2   9 -14 1739.47 72.1632   1
  -2  -9  13 106.536 23.7287   1
  -2  -9  13 100.096 44.6495  -2
   2  -9 -13 100.096 44.6495   1
  -2   9  12 152.383 20.4757   1
   2  -9 -11 92.6640 19.7062   1
   2  -9 -10 63.1331 30.7281   1
  -2  -9  10 88.3670 39.0938  -2
   2  -9 -10 88.3670 39.0938   1
  -2  -9   9 229.329 39.1323   1
   2   9  -9 240.817 31.7878  -2
  -2   9   9 240.817 31.7878   1
   2  -9  -8 944.485 26.0746   1
   2   9  -8 1032.44 65.3528  -2
  -2   9   8 1032.44 65.3528   1
  -2  -9   7 658.730 55.5089   1
   2   9  -7 856.325 46.9475  -2
  -2   9   7 856.325 46.9475   1
   2   9  -6 38.7716 33.5258  -2
  -2   9   6 38.7716 33.5258   1
  -2  -9   5 401.322 32.7393  -2
   2  -9  -5 401.322 32.7393   1
   2   9  -4 3969.87 48.0597  -2
  -2   9   4 3969.87 48.0597   1
   2  -9  -3 930.212 41.3586  -2
  -2  -9   3 930.212 41.3586   1
   2   9  -2 1130.04 41.1397  -2
  -2   9   2 1130.04 41.1397   1
   2   9  -1 1579.73 43.4508  -2
  -2   9   1 1579.73 43.4508   1
   2  -9   0 41.1936 24.7028  -2
  -2  -9   0 41.1936 24.7028   1
  -2   9  -1 1322.11 39.4831  -2
   2   9   1 1322.11 39.4831   1
  -2   9  -2 45.3050 29.5375   1
  -2  -9  -2 74.7542 37.1779  -2
   2  -9   2 74.7542 37.1779   1
  -2   9  -3 135.639 30.4797   1
  -2   9  -3 237.946 45.1268  -2
   2   9   3 237.946 45.1268   1
  -2   9  -4 1252.96 55.7388  -2
   2   9   4 1252.96 55.7388   1
   2  -9   5 1.09303 46.2468   1
  -2   9  -5 43.3681 59.3939  -2
   2   9   5 43.3681 59.3939   1
   2  -9   6 12.1051 45.6832   1
  -2   9  -6 62.0253 61.7638  -2
   2   9   6 62.0253 61.7638   1
   2  -9   7 232.937 28.9121   1
  -2   9  -7 262.302 33.5431  -2
   2   9   7 262.302 33.5431   1
  -2   9  -8 279.423 20.9029   1
  -2   9  -8 300.558 35.8130  -2
   2   9   8 300.558 35.8130   1
   2  -9   9 152.976 20.7258   1
  -2   9  -9 183.552 36.0857  -2
   2   9   9 183.552 36.0857   1
   2  -9  10 1238.63 25.3073   1
   2  -9  11 126.527 28.3503   1
   2  -9  11 195.033 39.7566  -2
  -2  -9 -11 195.033 39.7566   1
   2  -9  12 1782.65 30.7035   1
   2   9  13 1012.16 36.2251   1
   2  -9  13 1149.84 50.4177  -2
  -2  -9 -13 1149.84 50.4177   1
   2  -9  14 129.940 21.5916   1
   2  -9  15 211.646 21.2315   1
  -2  -9 -16 232.538 20.4143   1
  -2  -9 -17 287.410 23.0157   1
  -2  -9 -18 36.5965 20.2839   1
   2  -9  19 46.1469 18.8298   1
  -2  -9 -20 34.8542 28.6644   1
  -2  -9 -21 2.53741 23.2710   1
   2 -10 -21 128.834 25.1510   1
   3 -10 -21 224.033 28.2838  -2
  -2 -10  21 224.033 28.2838   1
   2 -10 -20 7.07459 27.7524   1
   3 -10 -20 48.7342 31.9329  -2
  -2 -10  20 48.7342 31.9329   1
   2 -10 -19 1.01365 31.3971   1
   3 -10 -19 101.426 36.2614  -2
  -2 -10  19 101.426 36.2614   1
   2 -10 -18 137.432 33.9708   1
   3 -10 -18 172.462 39.4926  -2
  -2 -10  18 172.462 39.4926   1
   2 -10 -17 82.6285 35.8363   1
   3 -10 -17 138.015 42.1323  -2
  -2 -10  17 138.015 42.1323   1
   2 -10 -16 99.6236 25.4602   1
   2 -10 -15 24.3640 20.5333   1
  -2 -10  14 40.0861 36.5952   1
  -2 -10  14 22.7934 44.3623  -2
   2 -10 -14 22.7934 44.3623   1
  -3  10  14 563.338 67.0345  -2
   2  10 -14 563.338 67.0345   1
   2 -10 -13 6993.70 47.5583   1
  -2 -10  13 8130.88 78.5404  -2
   2 -10 -13 8130.88 78.5404   1
  -3  10  13 6983.09 95.4917  -2
   2  10 -13 6983.09 95.4917   1
   2  10 -12 112.497 23.8040   1
  -2 -10  12 113.746 42.2854  -2
   2 -10 -12 113.746 42.2854   1
  -2 -10  11 2617.02 33.6791   1
  -2  10  10 408.502 41.0009   1
  -2 -10  10 571.887 43.7102  -2
   2 -10 -10 571.887 43.7102   1
  -2 -10   9 4729.80 110.904   1
   2  10  -9 5529.88 53.4959  -2
  -2  10   9 5529.88 53.4959   1
  -2 -10   8 56.7318 50.8036   1
  -2 -10   8 88.4686 25.9871  -2
   2 -10  -8 88.4686 25.9871   1
  -2 -10   7 1637.52 69.7836   1
  -2 -10   7 2117.81 31.7314  -2
   2 -10  -7 2117.81 31.7314   1
  -2 -10   6 140.175 22.7097  -2
   2 -10  -6 140.175 22.7097   1
   2  10  -5 1480.64 76.1172   1
  -2 -10   5 1772.16 27.6892  -2
   2 -10  -5 1772.16 27.6892   1
   2 -10  -4 17.6064 37.0501  -2
  -2 -10   4 17.6064 37.0501   1
   2  10  -3 424.920 38.9554  -2
  -2  10   3 424.920 38.9554   1
   2  10  -2 1090.59 35.9879  -2
  -2  10   2 1090.59 35.9879   1
  -2  10   1 3353.87 68.1875  -2
   2  10  -1 3353.87 68.1875   1
   2  10   0 172.574 25.0680  -2
  -2  10   0 172.574 25.0680   1
  -2  10  -1 2155.47 54.0369  -2
   2  10   1 2155.47 54.0369   1
  -2  10  -2 222.227 41.0148  -2
   2  10   2 222.227 41.0148   1
  -2 -10  -3 8580.08 110.267  -2
   2 -10   3 8580.08 110.267   1
  -2  10  -4 90.1123 25.3900   1
  -2  10  -4 164.764 49.4969  -2
   2  10   4 164.764 49.4969   1
   2 -10   5 4.03115 20.8039  -2
  -2 -10  -5 4.03115 20.8039   1
  -2  10  -6 561.446 30.8487   1
   2 -10   6 742.987 29.5165  -2
  -2 -10  -6 742.987 29.5165   1
  -2  10  -7 10768.4 57.7159   1
   2 -10   7 13058.6 78.8639  -2
  -2 -10  -7 13058.6 78.8639   1
   2 -10   8 77.1910 21.5446   1
   2 -10   8 71.9973 37.6104  -2
  -2 -10  -8 71.9973 37.6104   1
  -2  10  -9 163.194 21.9358   1
  -2  10  -9 167.225 38.1709  -2
   2  10   9 167.225 38.1709   1
   2  10  10 129.263 22.1222   1
   2 -10  10 119.428 43.3438  -2
  -2 -10 -10 119.428 43.3438   1
   2 -10  11 142.977 30.1247   1
   2 -10  12 274.275 31.8011   1
  -2  10 -13 799.232 48.9608   1
   2 -10  13 845.396 47.3979  -2
  -2 -10 -13 845.396 47.3979   1
  -2 -10 -14 147.220 21.0148   1
  -2  10 -15 475.848 21.6716   1
   2 -10  16 92.7811 19.0092   1
  -2 -10 -17 155.855 21.4001   1
   2 -10  18 81.4390 19.2242   1
   2 -10  19 530.837 18.8949   1
  -2 -10 -20-9.63200 22.8656   1
   3 -11 -21 51.9538 23.1516  -2
  -2 -11  21 51.9538 23.1516   1
   2 -11 -20 18.0267 23.7523   1
   3 -11 -20 40.4430 28.0676  -2
  -2 -11  20 40.4430 28.0676   1
   2 -11 -19-17.7376 25.9801   1
   3 -11 -19 32.4507 32.9662  -2
  -2 -11  19 32.4507 32.9662   1
   2 -11 -18 2.19358 28.7301   1
   3 -11 -18 49.9910 36.3929  -2
  -2 -11  18 49.9910 36.3929   1
   2 -11 -17 194.116 33.8180   1
   3 -11 -17 525.209 43.1390  -2
  -2 -11  17 525.209 43.1390   1
   2 -11 -16 879.323 38.9506   1
   3 -11 -16 1084.75 47.8754  -2
  -2 -11  16 1084.75 47.8754   1
  -2 -11  15 64.9601 24.6153   1
  -3  11  15 21.7321 60.7808  -2
   2  11 -15 21.7321 60.7808   1
  -2 -11  14 1055.49 42.0519   1
  -2 -11  14 1183.09 48.1040  -2
   2 -11 -14 1183.09 48.1040   1
  -3  11  14 1615.68 74.1115  -2
   2  11 -14 1615.68 74.1115   1
  -2 -11  13 2530.76 35.4879   1
  -3  11  13 3007.31 82.7007  -2
   2  11 -13 3007.31 82.7007   1
  -2 -11  12 211.439 25.9142   1
  -2 -11  11 25.5622 64.3706   1
  -2 -11  11 29.4166 46.0516  -2
   2 -11 -11 29.4166 46.0516   1
  -3  11  11 82.0622 67.7069  -2
   2  11 -11 82.0622 67.7069   1
  -2 -11  10-59.3563 60.6861   1
  -2 -11  10 1.91392 46.2332  -2
   2 -11 -10 1.91392 46.2332   1
  -2 -11   9 460.189 64.4724   1
   2  11  -9 511.057 39.9659  -2
  -2  11   9 511.057 39.9659   1
  -2 -11   8 35.2853 53.4004   1
  -2  11   8 29.0663 28.2366  -2
   2  11  -8 29.0663 28.2366   1
  -2  11   7 1305.82 28.5985   1
  -2 -11   7 1634.45 28.6821  -2
   2 -11  -7 1634.45 28.6821   1
   2  11  -6 461.654 18.0439  -2
  -2  11   6 461.654 18.0439   1
   2  11  -5 78.1985 59.0842   1
   2  11  -5 160.589 16.9473  -2
  -2  11   5 160.589 16.9473   1
   2  11  -4 138.450 61.7838   1
  -2 -11   4 275.124 16.0919  -2
   2 -11  -4 275.124 16.0919   1
   2  11  -3 79.4321 15.8425  -2
  -2  11   3 79.4321 15.8425   1
  -2 -11   2 138.429 15.2304  -2
   2 -11  -2 138.429 15.2304   1
   2  11  -1 387.655 16.9346  -2
  -2  11   1 387.655 16.9346   1
  -2  11   0 23.7995 38.6276   1
  -2 -11   0 13.1174 18.3590  -2
   2 -11   0 13.1174 18.3590   1
   2 -11   1 404.502 20.6340  -2
  -2 -11  -1 404.502 20.6340   1
   2 -11   2 5.19566 18.5741  -2
  -2 -11  -2 5.19566 18.5741   1
   2  11   3 36.9480 21.4269  -2
  -2  11  -3 36.9480 21.4269   1
  -2  11  -4 659.249 27.8897  -2
   2  11   4 659.249 27.8897   1
  -2  11  -5 1089.77 28.3578   1
  -2 -11  -5 1278.03 42.0007  -2
   2 -11   5 1278.03 42.0007   1
   2 -11   6 189.595 32.9556   1
  -2  11  -6 244.960 30.9466  -2
   2  11   6 244.960 30.9466   1
  -2  11  -7 1639.70 32.9710   1
  -2  11  -7 2010.29 52.5378  -2
   2  11   7 2010.29 52.5378   1
  -2  11  -8 278.285 24.8734   1
   2 -11   8 328.294 43.4608  -2
  -2 -11  -8 328.294 43.4608   1
  -2  11  -9 1109.24 29.3944   1
   2 -11   9 1366.50 48.0168  -2
  -2 -11  -9 1366.50 48.0168   1
   2 -11  10 109.143 24.1545   1
  -2  11 -10 173.777 39.2213  -2
   2  11  10 173.777 39.2213   1
   2  11  11 7.74890 31.1783   1
   2 -11  11 91.7211 41.7314  -2
  -2 -11 -11 91.7211 41.7314   1
  -2  11 -12 1182.81 50.4636   1
  -2  11 -13 44.7222 40.5022   1
  -2  11 -14 501.429 27.4908   1
   2 -11  15 63.1033 23.8793   1
   2 -11  16 109.811 22.4970   1
  -2  11 -17 18.2598 15.9222   1
   2 -11  18 1.12651 23.3947   1
   2 -11  19-7.15361 20.3852   1
   3 -12 -20 136.980 24.2579  -2
  -2 -12  20 136.980 24.2579   1
   3 -12 -19 46.5730 29.2959  -2
  -2 -12  19 46.5730 29.2959   1
   3 -12 -18 300.337 34.1119  -2
  -2 -12  18 300.337 34.1119   1
   3 -12 -17 309.807 37.7121  -2
  -2 -12  17 309.807 37.7121   1
  -2 -12  16 242.506 33.2693   1
  -3  12  16 219.476 54.8281  -2
   2  12 -16 219.476 54.8281   1
  -2 -12  15 120.265 33.6311   1
  -3  12  15 198.327 59.1208  -2
   2  12 -15 198.327 59.1208   1
  -2 -12  14 603.164 25.4007   1
  -3  12  14 759.999 67.7630  -2
   2  12 -14 759.999 67.7630   1
   2 -12 -13 279.718 21.7570   1
   2 -12 -12 2657.46 36.3249   1
  -3  12  12 2573.95 81.9818  -2
   2  12 -12 2573.95 81.9818   1
   2 -12 -11 571.780 40.8453   1
  -3  12  11 526.422 69.9730  -2
   2  12 -11 526.422 69.9730   1
  -2 -12  10 437.707 72.5653   1
  -2 -12  10 474.167 51.9863  -2
   2 -12 -10 474.167 51.9863   1
  -3  12  10 779.051 74.6970  -2
   2  12 -10 779.051 74.6970   1
  -2 -12   9 204.382 65.5177   1
  -2 -12   9 320.879 50.6578  -2
   2 -12  -9 320.879 50.6578   1
  -2 -12   8 968.362 73.6817   1
  -2  12   8 1176.75 35.2301  -2
   2  12  -8 1176.75 35.2301   1
  -2  12   7 15.6728 22.2743   1
  -2 -12   7 15.8068 29.9074  -2
   2 -12  -7 15.8068 29.9074   1
  -2 -12   6 937.349 28.3787   1
  -2 -12   6 1194.93 34.4360  -2
   2 -12  -6 1194.93 34.4360   1
  -2 -12   5 1600.93 69.5489   1
   2  12  -5 2096.76 37.1283  -2
  -2  12   5 2096.76 37.1283   1
  -2  12   4 955.577 24.9215  -2
   2  12  -4 955.577 24.9215   1
  -2 -12   3 59.9092 16.3057  -2
   2 -12  -3 59.9092 16.3057   1
  -2  12   2 838.757 20.1605  -2
   2  12  -2 838.757 20.1605   1
  -2  12   1 879.716 27.8474  -2
   2  12  -1 879.716 27.8474   1
   2 -12   0 3078.15 33.0456  -2
  -2 -12   0 3078.15 33.0456   1
  -2  12  -1 73.1314 18.7255  -2
   2  12   1 73.1314 18.7255   1
  -2 -12  -2 1160.77 26.9567  -2
   2 -12   2 1160.77 26.9567   1
  -2 -12  -3 177.562 22.4096  -2
   2 -12   3 177.562 22.4096   1
   2  12   4 6505.64 70.4983  -2
  -2  12  -4 6505.64 70.4983   1
   2  12   5 4876.91 73.2497  -2
  -2  12  -5 4876.91 73.2497   1
  -2  12  -6 888.804 47.7015   1
  -2  12  -6 1129.38 34.5907  -2
   2  12   6 1129.38 34.5907   1
  -2  12  -7 650.130 41.0142   1
  -2  12  -7 786.170 36.0385  -2
   2  12   7 786.170 36.0385   1
  -2  12  -8 1679.38 34.7639   1
  -2  12  -8 2110.84 53.8571  -2
   2  12   8 2110.84 53.8571   1
   2 -12   9 425.766 26.2340   1
  -2  12  -9 509.065 43.3339  -2
   2  12   9 509.065 43.3339   1
  -2  12 -10 1126.56 31.5688   1
   2 -12  10 1352.62 53.9986  -2
  -2 -12 -10 1352.62 53.9986   1
  -2  12 -11 1184.49 54.2048   1
   2 -12  11 1297.84 48.8470  -2
  -2 -12 -11 1297.84 48.8470   1
  -2  12 -12 49.3603 40.2469   1
  -2  12 -13 407.358 43.6138   1
   2 -12  14 235.330 25.1471   1
   2 -12  15 150.471 22.8456   1
   2 -12  16 113.683 20.8132   1
  -2  12 -17 67.9143 18.4138   1
   2 -12  18 67.7520 20.9540   1
   3 -13 -19 16.1703 24.8134  -2
  -2 -13  19 16.1703 24.8134   1
   3 -13 -18 52.4128 28.5002  -2
  -2 -13  18 52.4128 28.5002   1
   3 -13 -17 51.3016 32.9521  -2
  -2 -13  17 51.3016 32.9521   1
  -2 -13  16 52.3877 29.0349   1
  -3  13  16 62.8721 47.7764  -2
   2  13 -16 62.8721 47.7764   1
  -2 -13  15 347.605 33.0473   1
  -3  13  15 284.321 55.9913  -2
   2  13 -15 284.321 55.9913   1
   2 -13 -14 92.5932 21.5503   1
  -3  13  14 217.508 62.6299  -2
   2  13 -14 217.508 62.6299   1
  -2 -13  13 59.9347 23.2248   1
  -3  13  13 48.9514 62.9323  -2
   2  13 -13 48.9514 62.9323   1
   2 -13 -12 44.5655 24.5909   1
  -3  13  12 181.391 69.5176  -2
   2  13 -12 181.391 69.5176   1
   2 -13 -11 17.9487 37.5183   1
  -3  13  11 69.4132 70.6207  -2
   2  13 -11 69.4132 70.6207   1
   2  13 -10 331.673 48.5856   1
  -2 -13  10 429.595 53.0902  -2
   2 -13 -10 429.595 53.0902   1
  -2 -13   9 163.283 54.0565  -2
   2 -13  -9 163.283 54.0565   1
  -3  13   9 270.440 72.2534  -2
   2  13  -9 270.440 72.2534   1
  -2 -13   8 945.887 80.0854   1
  -2 -13   8 1254.48 57.5398  -2
   2 -13  -8 1254.48 57.5398   1
  -2 -13   7 122.744 24.5021   1
  -2 -13   7 131.063 35.4239  -2
   2 -13  -7 131.063 35.4239   1
  -2  13   6 165.296 27.5750   1
   2  13  -6 188.328 23.2219  -2
  -2  13   6 188.328 23.2219   1
   2  13  -5 708.286 22.8839  -2
  -2  13   5 708.286 22.8839   1
   2  13  -4 24.1373 18.7265  -2
  -2  13   4 24.1373 18.7265   1
  -2 -13   3 324.152 20.1866  -2
   2 -13  -3 324.152 20.1866   1
   2  13  -2 567.842 22.7191  -2
  -2  13   2 567.842 22.7191   1
  -2  13   1 12.3945 17.7057  -2
   2  13  -1 12.3945 17.7057   1
   2  13   0 1060.20 24.8562  -2
  -2  13   0 1060.20 24.8562   1
   2  13   1 41.6009 19.4937  -2
  -2  13  -1 41.6009 19.4937   1
   2 -13   2 109.590 19.9791  -2
  -2 -13  -2 109.590 19.9791   1
  -2  13  -3 252.022 42.0677   1
  -2  13  -3 350.359 26.1486  -2
   2  13   3 350.359 26.1486   1
  -2  13  -4 418.869 47.9625   1
   2 -13   4 498.172 26.8086  -2
  -2 -13  -4 498.172 26.8086   1
  -2  13  -5-4.58228 45.4938   1
   2 -13   5-2.38600 28.8678  -2
  -2 -13  -5-2.38600 28.8678   1
  -2  13  -6 54.4651 44.1726   1
   2  13   6 106.101 32.5289  -2
  -2  13  -6 106.101 32.5289   1
  -2  13  -7 517.090 49.8011   1
   2 -13   7 652.612 34.8696  -2
  -2 -13  -7 652.612 34.8696   1
  -2  13  -8 433.363 30.5987   1
   2 -13   8 559.120 56.1703  -2
  -2 -13  -8 559.120 56.1703   1
  -2  13  -9 29.6627 27.1496   1
   2 -13   9 7.47362 48.6165  -2
  -2 -13  -9 7.47362 48.6165   1
  -2  13 -10 750.935 50.7580   1
   2 -13  10 867.390 49.6328  -2
  -2 -13 -10 867.390 49.6328   1
  -2  13 -11 617.390 48.0068   1
   2 -13  11 652.422 44.2469  -2
  -2 -13 -11 652.422 44.2469   1
  -2  13 -12 0.85225 42.5704   1
  -2  13 -13 80.7391 41.1902   1
  -2  13 -14 155.559 22.9904   1
   2 -13  15-2.20848 20.5257   1
  -2  13 -16 35.1789 18.9469   1
   2 -13  17-4.77509 16.5429   1
   2 -13  18-1.24500 17.5728   1
   3 -14 -18 176.796 23.6826  -2
  -2 -14  18 176.796 23.6826   1
   3 -14 -17 87.1397 27.5574  -2
  -2 -14  17 87.1397 27.5574   1
  -2 -14  16 198.409 27.5672   1
  -3  14  16 245.923 43.4279  -2
   2  14 -16 245.923 43.4279   1
  -2 -14  15 83.5917 28.1525   1
  -3  14  15 141.730 50.6482  -2
   2  14 -15 141.730 50.6482   1
   2 -14 -14 27.7705 19.7582   1
  -3  14  14 4.04034 54.5350  -2
   2  14 -14 4.04034 54.5350   1
  -2 -14  13 299.098 23.1023   1
  -3  14  13 322.374 62.4071  -2
   2  14 -13 322.374 62.4071   1
  -2 -14  12 386.028 24.5963   1
  -3  14  12 371.430 65.1239  -2
   2  14 -12 371.430 65.1239   1
   2 -14 -11 40.6478 24.2464   1
  -3  14  11-3.10606 68.2342  -2
   2  14 -11-3.10606 68.2342   1
  -2 -14  10 2036.58 59.9186  -2
   2 -14 -10 2036.58 59.9186   1
  -3  14  10 1551.55 78.3611  -2
   2  14 -10 1551.55 78.3611   1
  -2 -14   9 510.823 54.6335  -2
   2 -14  -9 510.823 54.6335   1
  -3  14   9 447.468 71.5415  -2
   2  14  -9 447.468 71.5415   1
   2  14  -8 1154.84 58.5079   1
  -2 -14   8 1525.14 59.5862  -2
   2 -14  -8 1525.14 59.5862   1
  -2  14   7 725.921 30.3032   1
  -2 -14   7 947.840 57.0742  -2
   2 -14  -7 947.840 57.0742   1
  -2  14   6 395.019 29.2791   1
  -2  14   6 401.989 29.3628  -2
   2  14  -6 401.989 29.3628   1
  -2  14   5 1317.97 39.1489  -2
   2  14  -5 1317.97 39.1489   1
   2 -14  -4 561.866 24.1070  -2
  -2 -14   4 561.866 24.1070   1
   2  14  -3 147.489 67.6467   1
  -2 -14   3 314.971 24.1113  -2
   2 -14  -3 314.971 24.1113   1
   2  14  -2 644.215 22.7139  -2
  -2  14   2 644.215 22.7139   1
   2  14  -1 1716.29 36.6644  -2
  -2  14   1 1716.29 36.6644   1
   2 -14   0 570.025 25.3539  -2
  -2 -14   0 570.025 25.3539   1
  -2  14  -1 85.0399 21.7281  -2
   2  14   1 85.0399 21.7281   1
  -2 -14  -2 891.224 31.1873  -2
   2 -14   2 891.224 31.1873   1
  -2 -14  -3 5116.72 48.7528  -2
   2 -14   3 5116.72 48.7528   1
  -2  14  -4 725.909 50.8454   1
  -2 -14  -4 924.091 28.7293  -2
   2 -14   4 924.091 28.7293   1
  -2  14  -5 185.664 43.6331   1
   2 -14   5 282.922 37.1214  -2
  -2 -14  -5 282.922 37.1214   1
  -2  14  -6 3.78885 44.1659   1
   2  14   6 66.3339 36.4509  -2
  -2  14  -6 66.3339 36.4509   1
  -2  14  -7 396.821 30.3494   1
   2 -14   7 488.365 56.1322  -2
  -2 -14  -7 488.365 56.1322   1
  -2  14  -8 313.889 27.1293   1
   2 -14   8 347.424 51.1693  -2
  -2 -14  -8 347.424 51.1693   1
  -2  14  -9 49.7515 25.6833   1
   2 -14   9 80.7117 46.1084  -2
  -2 -14  -9 80.7117 46.1084   1
  -2  14 -10 555.054 46.9825   1
   2 -14  10 659.609 46.0556  -2
  -2 -14 -10 659.609 46.0556   1
  -2  14 -11 63.8396 40.6144   1
   2 -14  11 52.8469 39.2566  -2
  -2 -14 -11 52.8469 39.2566   1
  -2  14 -12 270.632 42.9317   1
  -2  14 -13 111.751 23.0607   1
  -2  14 -14 68.9252 20.9653   1
  -2  14 -15 77.5993 18.6148   1
  -2  14 -16 98.1693 16.3718   1
   2 -14  17 9.57753 16.9253   1
   3 -15 -17 225.661 22.0101  -2
  -2 -15  17 225.661 22.0101   1
   3 -15 -16-5.60612 25.1926  -2
  -2 -15  16-5.60612 25.1926   1
  -2 -15  15 21.6045 23.6599   1
  -3  15  15-1.41704 44.8564  -2
   2  15 -15-1.41704 44.8564   1
   2 -15 -14 126.635 17.2241   1
  -3  15  14 224.536 50.6631  -2
   2  15 -14 224.536 50.6631   1
   2 -15 -13 484.233 21.6316   1
  -3  15  13 643.033 60.5076  -2
   2  15 -13 643.033 60.5076   1
   2 -15 -12 81.1168 21.1462   1
  -3  15  12 84.3692 58.9634  -2
   2  15 -12 84.3692 58.9634   1
   2 -15 -11 19.8249 21.6182   1
  -3  15  11 21.7372 62.7634  -2
   2  15 -11 21.7372 62.7634   1
  -2 -15  10 308.647 31.9747   1
  -2 -15  10 376.357 47.3786  -2
   2 -15 -10 376.357 47.3786   1
  -3  15  10 341.936 68.6857  -2
   2  15 -10 341.936 68.6857   1
  -2 -15   9-15.5305 47.3761  -2
   2 -15  -9-15.5305 47.3761   1
  -3  15   9 95.5884 70.2755  -2
   2  15  -9 95.5884 70.2755   1
   2  15  -8 88.4988 42.1363   1
  -2 -15   8 168.271 50.2431  -2
   2 -15  -8 168.271 50.2431   1
  -2  15   7 147.978 24.3890   1
  -2 -15   7 195.025 42.0363  -2
   2 -15  -7 195.025 42.0363   1
  -2  15   6 5.22789 24.4613   1
  -2 -15   6 9.38181 34.2112  -2
   2 -15  -6 9.38181 34.2112   1
   2  15  -5 231.448 25.9499  -2
  -2  15   5 231.448 25.9499   1
   2 -15  -4 142.753 22.7846  -2
  -2 -15   4 142.753 22.7846   1
   2 -15  -3-7.90308 22.2373  -2
  -2 -15   3-7.90308 22.2373   1
  -2  15   2 8.61323 20.8321  -2
   2  15  -2 8.61323 20.8321   1
   2  15  -1 45.5843 21.0311  -2
  -2  15   1 45.5843 21.0311   1
   2  15   0 257.360 22.5358  -2
  -2  15   0 257.360 22.5358   1
   2  15   1 235.202 27.7378  -2
  -2  15  -1 235.202 27.7378   1
   2  15   2 48.5294 21.7772  -2
  -2  15  -2 48.5294 21.7772   1
  -2  15  -3 16.8474 40.2774   1
   2  15   3 18.4117 27.6888  -2
  -2  15  -3 18.4117 27.6888   1
  -2  15  -4 1361.00 54.6782   1
   2 -15   4 1729.22 33.1101  -2
  -2 -15  -4 1729.22 33.1101   1
  -2  15  -5 95.7069 42.0358   1
   2  15   5 93.8013 36.0815  -2
  -2  15  -5 93.8013 36.0815   1
  -2  15  -6 49.6556 41.1872   1
   2  15   6 96.6592 35.0915  -2
  -2  15  -6 96.6592 35.0915   1
  -2  15  -7 165.118 27.2136   1
   2 -15   7 185.395 50.6094  -2
  -2 -15  -7 185.395 50.6094   1
  -2  15  -8 3.88931 24.1274   1
   2 -15   8 15.6178 45.3551  -2
  -2 -15  -8 15.6178 45.3551   1
  -2  15  -9 3.64574 42.3343   1
   2 -15   9-5.17712 41.8806  -2
  -2 -15  -9-5.17712 41.8806   1
  -2  15 -10 165.488 41.1198   1
   2 -15  10 270.003 40.9100  -2
  -2 -15 -10 270.003 40.9100   1
  -2  15 -11 11.6552 41.6129   1
   2 -15  11 48.6088 35.4868  -2
  -2 -15 -11 48.6088 35.4868   1
   2 -15  12 67.9875 21.6792   1
   2 -15  13 3.15689 19.4673   1
  -2  15 -14 75.9380 18.3772   1
   2 -15  15 3.95790 14.9338   1
   2 -15  16 81.0156 17.0695   1
   3 -16 -16-0.54788 18.2309  -2
  -2 -16  16-0.54788 18.2309   1
  -2 -16  15-1.45471 18.5316   1
  -2 -16  14 5.20119 21.2399   1
  -3  16  14 0.90336 42.2389  -2
   2  16 -14 0.90336 42.2389   1
  -2 -16  13 157.157 16.5632   1
  -3  16  13 202.617 49.5618  -2
   2  16 -13 202.617 49.5618   1
   2 -16 -12 7.71062 17.9488   1
  -3  16  12-3.56252 52.3313  -2
   2  16 -12-3.56252 52.3313   1
  -2 -16  11 8.60336 19.1913   1
  -3  16  11 3.50267 49.8030  -2
   2  16 -11 3.50267 49.8030   1
  -2 -16  10 49.1175 20.4979   1
  -3  16  10 23.3262 61.8747  -2
   2  16 -10 23.3262 61.8747   1
  -2 -16   9 752.340 32.3086   1
  -2 -16   9 996.021 49.0023  -2
   2 -16  -9 996.021 49.0023   1
  -3  16   9 718.845 65.8590  -2
   2  16  -9 718.845 65.8590   1
  -2 -16   8 46.2287 45.8751  -2
   2 -16  -8 46.2287 45.8751   1
  -3  16   8-1.64708 65.1233  -2
   2  16  -8-1.64708 65.1233   1
  -2  16   7 139.057 39.1489  -2
   2  16  -7 139.057 39.1489   1
  -2  16   6 19.9851 22.4894   1
  -2  16   6 9.83670 29.3758  -2
   2  16  -6 9.83670 29.3758   1
   2  16  -5 338.977 23.9236  -2
  -2  16   5 338.977 23.9236   1
  -2 -16   4 75.7782 25.1235  -2
   2 -16  -4 75.7782 25.1235   1
   2 -16  -3 234.803 26.5076  -2
  -2 -16   3 234.803 26.5076   1
   2 -16  -2 149.800 23.1660  -2
  -2 -16   2 149.800 23.1660   1
  -2  16   1 1532.51 39.4026  -2
   2  16  -1 1532.51 39.4026   1
   2  16   0 102.732 20.8499  -2
  -2  16   0 102.732 20.8499   1
  -2 -16  -1 48.1186 20.2751  -2
   2 -16   1 48.1186 20.2751   1
  -2  16  -2 4.02193 38.7406   1
   2  16   2 14.9876 19.7007  -2
  -2  16  -2 14.9876 19.7007   1
  -2  16  -3 469.961 44.0967   1
   2  16   3 647.251 36.7291  -2
  -2  16  -3 647.251 36.7291   1
  -2  16  -4 60.7745 38.5547   1
   2  16   4 74.3444 33.4393  -2
  -2  16  -4 74.3444 33.4393   1
  -2  16  -5 61.6775 42.0140   1
   2 -16   5 73.7898 32.8283  -2
  -2 -16  -5 73.7898 32.8283   1
  -2  16  -6 183.044 43.0095   1
   2  16   6 197.711 32.3856  -2
  -2  16  -6 197.711 32.3856   1
  -2  16  -7 371.758 26.3925   1
   2 -16   7 535.393 48.9335  -2
  -2 -16  -7 535.393 48.9335   1
  -2  16  -8 93.3356 37.4793   1
   2 -16   8 65.3560 42.1820  -2
  -2 -16  -8 65.3560 42.1820   1
  -2  16  -9 0.01618 39.3359   1
   2 -16   9 42.2262 38.8797  -2
  -2 -16  -9 42.2262 38.8797   1
  -2  16 -10 72.5593 38.5338   1
   2 -16  10 50.8448 35.3362  -2
  -2 -16 -10 50.8448 35.3362   1
   2 -16  11 266.128 21.0351   1
   2 -16  11 323.991 33.6905  -2
  -2 -16 -11 323.991 33.6905   1
   2 -16  12 36.9937 18.3774   1
  -2  16 -13 3.90085 16.4067   1
   2 -16  14 26.2309 14.1603   1
  -2 -17  14 27.0977 15.4222   1
  -2 -17  13-1.79470 17.8131   1
  -3  17  13 32.3204 38.4481  -2
   2  17 -13 32.3204 38.4481   1
  -2 -17  12 59.5299 14.3731   1
  -3  17  12 58.6829 43.2593  -2
   2  17 -12 58.6829 43.2593   1
  -2 -17  11 108.124 16.4312   1
  -3  17  11 74.3094 51.6424  -2
   2  17 -11 74.3094 51.6424   1
  -2 -17  10 19.0151 17.1424   1
  -3  17  10-25.0439 50.7988  -2
   2  17 -10-25.0439 50.7988   1
  -2 -17   9 3.49768 22.3682   1
  -2 -17   9-13.1322 38.8870  -2
   2 -17  -9-13.1322 38.8870   1
  -3  17   9 76.4976 57.2395  -2
   2  17  -9 76.4976 57.2395   1
  -2 -17   8 107.762 23.7507   1
  -2 -17   8 128.559 41.2572  -2
   2 -17  -8 128.559 41.2572   1
  -3  17   8 178.497 60.1046  -2
   2  17  -8 178.497 60.1046   1
  -2 -17   7 66.7694 23.4033   1
  -2 -17   7 58.2909 35.3113  -2
   2 -17  -7 58.2909 35.3113   1
  -2 -17   6-0.49820 35.0994  -2
   2 -17  -6-0.49820 35.0994   1
   2 -17  -5 48.9577 21.2495  -2
  -2 -17   5 48.9577 21.2495   1
   2 -17  -4 16.9447 21.2914  -2
  -2 -17   4 16.9447 21.2914   1
  -2  17   3 172.335 22.1743  -2
   2  17  -3 172.335 22.1743   1
   2  17  -2 14.7221 22.3238  -2
  -2  17   2 14.7221 22.3238   1
  -2  17   1 16.6220 29.9994   1
  -2 -17   1 23.1234 22.6944  -2
   2 -17  -1 23.1234 22.6944   1
  -2  17   0 19.9436 31.5449   1
  -2  17   0 7.03332 22.5517  -2
   2  17   0 7.03332 22.5517   1
  -2  17  -1 27.2753 32.5733   1
   2 -17   1 67.6598 24.7772  -2
  -2 -17  -1 67.6598 24.7772   1
  -2  17  -2 9.80300 33.5811   1
   2 -17   2 20.9678 21.0999  -2
  -2 -17  -2 20.9678 21.0999   1
  -2  17  -3-9.99078 34.2619   1
   2  17   3 3.28298 21.1069  -2
  -2  17  -3 3.28298 21.1069   1
  -2  17  -4 34.8463 35.1922   1
   2 -17   4 68.9008 30.7313  -2
  -2 -17  -4 68.9008 30.7313   1
  -2  17  -5 10.8445 37.6043   1
   2  17   5 5.52457 27.4709  -2
  -2  17  -5 5.52457 27.4709   1
  -2  17  -6-1.12148 36.3574   1
   2 -17   6 32.6705 42.9164  -2
  -2 -17  -6 32.6705 42.9164   1
  -2  17  -7 55.6380 35.9166   1
   2 -17   7 52.8694 40.1770  -2
  -2 -17  -7 52.8694 40.1770   1
  -2  17  -8 175.018 35.7540   1
   2 -17   8 240.624 39.5130  -2
  -2 -17  -8 240.624 39.5130   1
  -2  17  -9 13.4140 33.8513   1
   2 -17   9-2.02106 33.7293  -2
  -2 -17  -9-2.02106 33.7293   1
   2 -17  10-1.58531 18.0186   1
   2 -17  10 4.39917 31.9417  -2
  -2 -17 -10 4.39917 31.9417   1
   2 -17  11 8.87541 16.0662   1
   2 -17  11 0.52497 31.4218  -2
  -2 -17 -11 0.52497 31.4218   1
  -2  17 -12 5.92083 14.3105   1
   2 -17  13 11.6743 15.0430   1
  -2 -18  11-2.13096 11.8392   1
  -3  18  11 15.8065 38.2822  -2
   2  18 -11 15.8065 38.2822   1
   2 -18 -10 55.9244 13.2445   1
  -3  18  10 1.01377 37.7050  -2
   2  18 -10 1.01377 37.7050   1
  -2 -18   9 138.617 18.4693   1
  -2 -18   9 176.437 32.1171  -2
   2 -18  -9 176.437 32.1171   1
  -3  18   9 92.3971 46.1614  -2
   2  18  -9 92.3971 46.1614   1
  -2 -18   8 59.3436 18.5769   1
  -2 -18   8 53.2056 34.8995  -2
   2 -18  -8 53.2056 34.8995   1
  -3  18   8 18.9032 42.6799  -2
   2  18  -8 18.9032 42.6799   1
  -2 -18   7 19.7615 18.6450   1
  -2  18   7 2.44209 29.9437  -2
   2  18  -7 2.44209 29.9437   1
  -2 -18   6 148.109 32.1782  -2
   2 -18  -6 148.109 32.1782   1
  -2  18   5 201.079 18.8141   1
  -2  18   5 360.869 33.2051  -2
   2  18  -5 360.869 33.2051   1
   2 -18  -4 176.757 19.3948  -2
  -2 -18   4 176.757 19.3948   1
   2  18  -3 8.21456 19.2509  -2
  -2  18   3 8.21456 19.2509   1
   2  18  -2 224.426 20.7783  -2
  -2  18   2 224.426 20.7783   1
   2 -18  -1 100.773 20.5428  -2
  -2 -18   1 100.773 20.5428   1
  -2  18   0 185.050 29.2486   1
   2 -18   0 408.879 21.2123  -2
  -2 -18   0 408.879 21.2123   1
  -2  18  -1 11.2009 27.9351   1
   2 -18   1 43.7278 19.5710  -2
  -2 -18  -1 43.7278 19.5710   1
  -2  18  -2 29.1611 30.4602   1
  -2 -18  -2 45.6964 18.8683  -2
   2 -18   2 45.6964 18.8683   1
  -2  18  -3 25.5368 30.5744   1
   2  18   3 51.0032 27.2906  -2
  -2  18  -3 51.0032 27.2906   1
  -2  18  -4 80.5792 31.5077   1
   2 -18   4 183.687 39.6065  -2
  -2 -18  -4 183.687 39.6065   1
  -2  18  -5 21.3021 30.5575   1
   2 -18   5 5.82981 35.5642  -2
  -2 -18  -5 5.82981 35.5642   1
  -2  18  -6 9.15781 29.6427   1
   2 -18   6 40.6101 38.0255  -2
  -2 -18  -6 40.6101 38.0255   1
  -2  18  -7 104.569 29.8624   1
   2 -18   7 204.794 35.9506  -2
  -2 -18  -7 204.794 35.9506   1
   2 -18   8 72.9753 16.3623   1
   2 -18   8 79.4221 33.0038  -2
  -2 -18  -8 79.4221 33.0038   1
  -2  18  -9 20.3836 14.9672   1
   2 -18   9 3.62162 29.7358  -2
  -2 -18  -9 3.62162 29.7358   1
   2 -18  10-3.76090 13.4481   1
  -2  18 -11 43.1926 20.4406   1
   2 -19  -9 13.1989 17.6241   1
  -3  19   9 34.4106 33.1293  -2
   2  19  -9 34.4106 33.1293   1
  -2 -19   8-11.1580 25.7868  -2
   2 -19  -8-11.1580 25.7868   1
  -3  19   8-28.0397 37.4252  -2
   2  19  -8-28.0397 37.4252   1
   2  19  -7 24.0423 23.4065   1
  -2 -19   7-12.8002 27.6205  -2
   2 -19  -7-12.8002 27.6205   1
  -2  19   6 14.5246 24.2546  -2
   2  19  -6 14.5246 24.2546   1
  -2  19   5-20.4743 25.1029  -2
   2  19  -5-20.4743 25.1029   1
  -2  19   4-7.51966 25.8777  -2
   2  19  -4-7.51966 25.8777   1
  -2 -19   3 33.9169 21.1966  -2
   2 -19  -3 33.9169 21.1966   1
   2 -19  -2 42.9700 21.4079  -2
  -2 -19   2 42.9700 21.4079   1
   2 -19  -1 12.1652 19.9100  -2
  -2 -19   1 12.1652 19.9100   1
  -2 -19   0 27.6456 20.1357  -2
   2 -19   0 27.6456 20.1357   1
  -2  19  -1 20.2763 15.6402   1
   2 -19   1 41.1142 23.5448  -2
  -2 -19  -1 41.1142 23.5448   1
  -2  19  -2 2.66988 23.4324   1
   2 -19   2 0.19359 32.9545  -2
  -2 -19  -2 0.19359 32.9545   1
  -2  19  -3-3.87114 23.6126   1
   2 -19   3 0.46184 33.3752  -2
  -2 -19  -3 0.46184 33.3752   1
  -2  19  -4 17.9685 24.1587   1
   2 -19   4 67.6352 35.1956  -2
  -2 -19  -4 67.6352 35.1956   1
  -2  19  -5 57.0162 24.5690   1
   2 -19   5 68.5187 34.4898  -2
  -2 -19  -5 68.5187 34.4898   1
   2 -19   6 6.89830 12.7292   1
   2 -19   6 24.8420 31.7818  -2
  -2 -19  -6 24.8420 31.7818   1
  -2  19  -7 24.5345 12.0596   1
   2 -19   7 17.5581 29.2156  -2
  -2 -19  -7 17.5581 29.2156   1
  -2  19  -8 7.41592 19.6705   1
   2 -20   0 36.8203 31.1218  -2
  -2 -20   0 36.8203 31.1218   1
   2 -20   1 9.61775 30.4239  -2
  -2 -20  -1 9.61775 30.4239   1
   2 -20   2 130.270 31.5689  -2
  -2 -20  -2 130.270 31.5689   1
   2 -20   3 38.2590 28.5349  -2
  -2 -20  -3 38.2590 28.5349   1
   3   0 -23 1.68199 41.8688   1
   3   0 -21 193.296 49.8185   1
  -3   0  19 667.150 38.6462   1
   3   0 -17 218.951 31.9729   1
  -3   0  15 33.5024 27.6822   1
   3   0 -13 840.945 37.5759   1
  -3   0  11 881.831 37.0118   1
   3   0  -9 1708.66 39.6870   1
   3   0  -7 3610.97 44.9849   1
  -3   0   5 3732.28 60.6048  -2
   3   0  -5 3732.28 60.6048   1
   3   0  -3 1119.70 35.9312  -2
  -3   0   3 1119.70 35.9312   1
   3   0  -1 4801.99 24.7310   1
   3   0  -1 6808.70 54.4038  -2
  -3   0   1 6808.70 54.4038   1
   3   0   1 9119.81 69.1861  -2
  -3   0  -1 9119.81 69.1861   1
   3   0   3 13464.2 66.4698   1
   3   0   3 17321.7 101.461  -2
  -3   0  -3 17321.7 101.461   1
   3   0   5 412.015 25.8743   1
   3   0   7 3910.07 56.4078   1
   3   0   9 482.193 37.7426   1
   3   0  11 1120.23 50.0144   1
  -3   0 -13 17.2875 32.6155   1
  -3   0 -15 528.751 44.5689   1
  -3   0 -17 3603.83 68.7407   1
  -3   0 -19 1021.48 48.9027   1
  -3   0 -21-14.7793 33.4071   1
  -3   0 -23 262.928 26.4619   1
   3  -1 -25 79.3767 21.9976   1
   3  -1 -24 141.631 18.7361   1
  -4   1  23 52.8915 23.7654  -2
   3   1 -23 52.8915 23.7654   1
  -4   1  22 53.4738 26.9309  -2
   3   1 -22 53.4738 26.9309   1
  -4   1  21 325.882 24.6770  -2
   3   1 -21 325.882 24.6770   1
   4  -1 -20 162.339 25.4058  -2
  -3  -1  20 162.339 25.4058   1
   4   1 -19 403.081 26.7106  -2
  -3   1  19 403.081 26.7106   1
  -3   1  18 2361.51 54.0000   1
  -4  -1  18 2981.76 44.6581  -2
   3  -1 -18 2981.76 44.6581   1
  -3  -1  17 2190.43 34.3745   1
  -4   1  17 2744.32 58.9573  -2
   3   1 -17 2744.32 58.9573   1
  -3  -1  16 331.913 24.5838   1
  -3  -1  15 3739.10 36.4407   1
   3  -1 -14 1376.76 39.2055   1
  -3  -1  13 159.292 22.3259   1
  -3  -1  12 308.655 23.1309   1
  -3   1  11 350.035 22.7207   1
   3   1 -10 11676.1 57.2148   1
   3  -1  -9 1407.98 32.7399   1
   3   1  -8 2756.77 30.1236   1
   3   1  -7 6.05200 18.1356   1
   3   1  -6 692.782 20.1642   1
  -3  -1   6 859.017 51.2977  -2
   3  -1  -6 859.017 51.2977   1
  -3  -1   5 92399.1 154.749   1
  -3   1   5 109977. 228.929  -2
   3   1  -5 109977. 228.929   1
   3  -1  -4 97928.6 146.507  -2
  -3  -1   4 97928.6 146.507   1
  -3   1   3 1229.86 36.7483   1
   3  -1  -3 1466.23 20.6908  -2
  -3  -1   3 1466.23 20.6908   1
   3   1  -2 17657.3 51.7218   1
   3  -1  -2 21891.5 60.2330  -2
  -3  -1   2 21891.5 60.2330   1
   3   1  -1 28793.0 63.9401   1
  -3  -1   1 35586.8 79.5193  -2
   3  -1  -1 35586.8 79.5193   1
   3   1   0 64877.1 130.368   1
   3  -1   0 79135.2 123.739  -2
  -3  -1   0 79135.2 123.739   1
   3   1   1 1825.45 33.5745   1
   3  -1   1 2321.81 34.6773  -2
  -3  -1  -1 2321.81 34.6773   1
   3   1   2 180277. 259.835   1
   3  -1   2 222197. 327.772  -2
  -3  -1  -2 222197. 327.772   1
   3   1   3 94653.6 107.105   1
   3  -1   3 116388. 258.194  -2
  -3  -1  -3 116388. 258.194   1
   3  -1   4 4714.61 39.4358   1
  -3   1  -4 5943.30 41.4238  -2
   3   1   4 5943.30 41.4238   1
  -3   1  -5 15932.1 70.7184   1
   3  -1   6 20.4851 30.1368   1
  -3   1  -6 34.3994 28.3838  -2
   3   1   6 34.3994 28.3838   1
   3   1   7 256.340 22.4419   1
   3   1   8 176.518 23.0218   1
   3  -1   9 659.453 27.8363   1
   3  -1  10 1929.10 37.7589   1
   3  -1  11 5145.16 85.7176   1
  -3  -1 -12 964.870 31.6268   1
  -3   1 -13 177.520 21.6368   1
  -3   1 -14 2035.89 36.7305   1
  -3   1 -15 1.55994 27.3712   1
  -3   1 -16 1124.06 35.0440   1
  -3  -1 -17 2361.92 42.5427   1
  -3   1 -18 2678.59 44.4100   1
  -3   1 -19 461.486 30.8610   1
  -3   1 -20 15.8860 25.6490   1
  -3  -1 -21 91.7109 24.9706   1
  -3   1 -22 354.133 23.3351   1
  -3  -1 -23 51.0114 17.3946   1
   3  -2 -25 90.9805 22.7842   1
  -4  -2  24 187.714 34.5444  -2
   3  -2 -24 187.714 34.5444   1
  -4  -2  23-25.0151 37.8451  -2
   3  -2 -23-25.0151 37.8451   1
   4  -2 -22 138.415 27.8942  -2
  -3  -2  22 138.415 27.8942   1
  -4  -2  21 8.72865 23.1292  -2
   3  -2 -21 8.72865 23.1292   1
  -4   2  20 222.259 29.1471  -2
   3   2 -20 222.259 29.1471   1
   4  -2 -19 324.040 26.5502  -2
  -3  -2  19 324.040 26.5502   1
  -3   2  18 290.748 37.3150   1
  -4  -2  18 327.958 26.2686  -2
   3  -2 -18 327.958 26.2686   1
  -3  -2  17 1342.40 31.4752   1
  -4   2  17 1757.62 52.1964  -2
   3   2 -17 1757.62 52.1964   1
  -3  -2  16 451.033 27.5635   1
  -4   2  16 687.969 44.5994  -2
   3   2 -16 687.969 44.5994   1
  -3  -2  15 56.1889 22.5334   1
  -4  -2  15 144.360 56.9016  -2
   3  -2 -15 144.360 56.9016   1
  -3  -2  14 26.4096 22.3036   1
   3  -2 -13 10.7424 32.5913   1
   3  -2 -12 317.058 24.2038   1
  -3  -2  11 78.5385 22.4673   1
   3  -2 -10 115.836 23.9660   1
   3  -2  -9 1043.94 28.0602   1
   3  -2  -8 1931.47 36.7677   1
  -3  -2   7-0.81332 11.6851   1
   3   2  -6 206.763 12.2024   1
  -3  -2   6 290.422 43.1146  -2
   3  -2  -6 290.422 43.1146   1
  -3  -2   5 393.030 38.5795   1
   3  -2  -5 360.382 16.4082  -2
  -3  -2   5 360.382 16.4082   1
  -3  -2   4 143.876 33.7049   1
  -3   2   4 197.505 17.0695  -2
   3   2  -4 197.505 17.0695   1
  -3   2   3 5432.84 27.4876   1
   3  -2  -3 7243.89 35.6004  -2
  -3  -2   3 7243.89 35.6004   1
  -3   2   2 27.6205 9.32789   1
  -3  -2   2 38.6229 18.3287  -2
   3  -2  -2 38.6229 18.3287   1
   3   2  -1 1917.29 36.0108   1
   3  -2  -1 2513.24 27.0179  -2
  -3  -2   1 2513.24 27.0179   1
  -3   2   0 1611.01 22.1247  -2
   3   2   0 1611.01 22.1247   1
   3   2   1 1537.56 37.5853   1
   3  -2   1 1844.38 25.4758  -2
  -3  -2  -1 1844.38 25.4758   1
   3   2   2 2897.07 25.8435  -2
  -3   2  -2 2897.07 25.8435   1
   3  -2   3 222.608 11.3687   1
  -3   2  -3 253.768 42.6872  -2
   3   2   3 253.768 42.6872   1
  -3   2  -4 6.19557 8.37989   1
  -3   2  -5 2026.47 33.0925   1
  -3   2  -6 921.823 22.0614   1
   3   2   7 880.064 24.7669   1
   3   2   8 2779.09 37.2183   1
   3   2   9 4258.47 45.7348   1
   3  -2  10 652.745 48.6624   1
   3  -2  11 230.832 44.6466   1
   3  -2  12 745.644 31.3970   1
  -3  -2 -13 1059.80 29.8108   1
   3  -2  14 1551.75 34.7739   1
   3   2  15 4270.92 47.6186   1
  -3   2 -16 113.271 26.8501   1
  -3  -2 -17 215.408 31.4818   1
  -3  -2 -18 1280.91 36.4477   1
  -3  -2 -19-11.0399 27.4499   1
  -3  -2 -20 55.9379 25.7725   1
  -3  -2 -21 26.8661 22.8352   1
  -3   2 -22 191.569 21.0351   1
  -3  -2 -23 60.3813 26.9355   1
   3  -3 -25 270.414 24.6286   1
  -4  -3  24 95.1436 32.9956  -2
   3  -3 -24 95.1436 32.9956   1
  -4  -3  23 176.694 40.5124  -2
   3  -3 -23 176.694 40.5124   1
  -4  -3  22 678.228 31.3575  -2
   3  -3 -22 678.228 31.3575   1
  -4  -3  21 351.831 31.7826  -2
   3  -3 -21 351.831 31.7826   1
   4  -3 -20 67.9099 31.5607  -2
  -3  -3  20 67.9099 31.5607   1
  -4  -3  19 1116.45 37.4295  -2
   3  -3 -19 1116.45 37.4295   1
  -3  -3  18-3.75582 71.2948   1
  -4  -3  18 56.8986 31.6153  -2
   3  -3 -18 56.8986 31.6153   1
  -3   3  17 419.207 48.6097   1
   4  -3 -17 370.871 43.0565  -2
  -3  -3  17 370.871 43.0565   1
  -3  -3  16 15.0984 21.5513   1
  -4  -3  16 91.2185 61.3419  -2
   3  -3 -16 91.2185 61.3419   1
  -3  -3  15 3587.87 41.1967   1
  -4  -3  15 3167.76 91.8516  -2
   3  -3 -15 3167.76 91.8516   1
  -3   3  14 122.275 21.2686   1
   3  -3 -13 3270.83 60.5853   1
  -3  -3  12 301.505 35.0190   1
  -3  -3  11 2516.35 43.7435   1
   3   3 -10 75.9885 22.2561   1
  -3  -3   9 9596.10 57.9922   1
   3  -3  -8 930.808 26.7884   1
   3  -3  -7 71.3713 16.7506   1
  -3   3   6 16265.4 71.6067   1
  -3  -3   6 20242.8 125.405  -2
   3  -3  -6 20242.8 125.405   1
  -3   3   5 803.055 23.9169   1
  -3  -3   5 1007.33 46.5121  -2
   3  -3  -5 1007.33 46.5121   1
  -3   3   4 621.750 21.3667   1
  -3   3   4 761.100 54.9128  -2
   3   3  -4 761.100 54.9128   1
  -3   3   3 17937.4 71.1937  -2
   3   3  -3 17937.4 71.1937   1
  -3   3   2 101322. 157.193   1
  -3   3   2 123887. 161.017  -2
   3   3  -2 123887. 161.017   1
  -3   3   1 55676.6 170.559   1
  -3   3   1 66977.6 95.4711  -2
   3   3  -1 66977.6 95.4711   1
   3  -3   0 4215.71 36.8864  -2
  -3  -3   0 4215.71 36.8864   1
   3  -3   1 33888.9 78.8941   1
  -3   3  -1 40955.4 147.554  -2
   3   3   1 40955.4 147.554   1
   3   3   2 22268.7 82.4430  -2
  -3   3  -2 22268.7 82.4430   1
  -3   3  -3 31870.9 135.485   1
   3  -3   4 5540.93 47.2215   1
  -3   3  -4 6947.95 83.6606  -2
   3   3   4 6947.95 83.6606   1
  -3   3  -5 338.879 24.7305   1
  -3   3  -5 443.443 50.0247  -2
   3   3   5 443.443 50.0247   1
  -3   3  -6 2815.17 40.6191   1
  -3   3  -6 3478.21 72.7934  -2
   3   3   6 3478.21 72.7934   1
  -3   3  -7 3992.69 52.5796   1
   3  -3   8 125.135 40.7305   1
   3  -3   9 107.882 40.5434   1
   3  -3  10 621.010 49.4915   1
   3   3  11 6645.55 79.1489   1
   3  -3  12 53.8074 22.9750   1
  -3   3 -13 1104.56 25.8590   1
   3   3  14 400.402 23.9530   1
  -3   3 -15 3885.24 43.4195   1
   3   3  16 138.093 26.5702   1
  -3  -3 -17 153.537 28.8282   1
  -3   3 -18 8.45756 27.9502   1
  -3   3 -19 136.417 27.1180   1
  -3   3 -20 32.0245 24.8406   1
  -3  -3 -21 552.321 40.7946   1
  -3  -3 -22 158.786 32.7949   1
  -3  -3 -23 236.137 27.5379   1
  -4  -4  25 185.397 26.4890  -2
   3  -4 -25 185.397 26.4890   1
  -4  -4  24-23.4014 33.0517  -2
   3  -4 -24-23.4014 33.0517   1
   4  -4 -23 397.334 25.4826  -2
  -3  -4  23 397.334 25.4826   1
  -4  -4  22 93.5917 28.0214  -2
   3  -4 -22 93.5917 28.0214   1
  -4  -4  21 68.0217 30.1099  -2
   3  -4 -21 68.0217 30.1099   1
   4  -4 -20 15.8640 30.9903  -2
  -3  -4  20 15.8640 30.9903   1
   4  -4 -19 467.943 34.0599  -2
  -3  -4  19 467.943 34.0599   1
   4  -4 -18 643.213 34.2271  -2
  -3  -4  18 643.213 34.2271   1
  -3  -4  17 267.667 34.0321   1
  -3  -4  16 100.572 27.8967   1
  -4  -4  16 178.477 65.3910  -2
   3  -4 -16 178.477 65.3910   1
  -3   4  15 1600.77 29.3250   1
   3  -4 -14 186.927 21.8980   1
   3  -4 -13 175.114 29.3755   1
   3  -4 -12 24.4515 26.1811   1
   3  -4 -11 744.873 30.6809   1
   3   4 -10 176.305 19.3412   1
  -3   4   9 3.24176 18.0653   1
  -3  -4   8 319.819 20.0064   1
  -3   4   7 2134.04 29.8622   1
  -3   4   6 505.157 25.3864   1
  -3  -4   6 629.512 47.5442  -2
   3  -4  -6 629.512 47.5442   1
  -3   4   5 677.559 25.3584   1
  -3   4   5 840.142 39.6307  -2
   3   4  -5 840.142 39.6307   1
  -3   4   4 1969.17 37.0566   1
  -3  -4   4 2502.51 46.1397  -2
   3  -4  -4 2502.51 46.1397   1
  -3   4   3 627.203 28.8286   1
  -3  -4   3 821.626 27.8958  -2
   3  -4  -3 821.626 27.8958   1
  -3   4   2 6161.43 43.4010   1
   3  -4  -2 7608.78 52.9129  -2
  -3  -4   2 7608.78 52.9129   1
   3   4  -1 104.381 16.2903  -2
  -3   4   1 104.381 16.2903   1
   3  -4   0 885.928 17.5309  -2
  -3  -4   0 885.928 17.5309   1
   3  -4   1 2232.64 34.6916   1
   3  -4   1 2574.23 22.0556  -2
  -3  -4  -1 2574.23 22.0556   1
   3  -4   2 11.9968 17.2499   1
  -3   4  -2 56.9187 28.4024  -2
   3   4   2 56.9187 28.4024   1
  -3   4  -3 199.498 31.1357   1
  -3   4  -3 292.207 47.0419  -2
   3   4   3 292.207 47.0419   1
  -3   4  -4 785.978 28.1220   1
  -3   4  -4 1066.33 53.9014  -2
   3   4   4 1066.33 53.9014   1
   3  -4   5 778.766 29.0062   1
  -3   4  -5 898.298 55.9785  -2
   3   4   5 898.298 55.9785   1
  -3   4  -6 1583.40 35.6985   1
  -3   4  -6 2020.46 66.0424  -2
   3   4   6 2020.46 66.0424   1
  -3   4  -7 136.655 22.0388   1
   3  -4   8 13.2826 28.9871   1
   3  -4   9 1884.47 47.3174   1
   3   4  10 6.40676 32.8441   1
   3   4  11 2870.02 58.7809   1
  -3  -4 -12-4.89929 23.8687   1
   3  -4  13 191.431 18.7399   1
  -3  -4 -14 60.7938 22.3449   1
   3   4  15 758.634 27.1186   1
   3   4  16 226.987 25.6114   1
  -3   4 -17-9.92964 27.4587   1
  -3  -4 -18 871.661 49.3905   1
  -3  -4 -19 859.208 49.0378   1
  -3  -4 -20 222.660 40.0805   1
  -3  -4 -21 125.802 36.3855   1
  -3  -4 -22 236.143 32.6694   1
  -3  -4 -23 14.8140 24.8070   1
  -4  -5  25 149.650 24.0580  -2
   3  -5 -25 149.650 24.0580   1
   3  -5 -24 13.7225 27.2924   1
   4  -5 -23 100.070 23.8527  -2
  -3  -5  23 100.070 23.8527   1
   4  -5 -22 210.821 27.4310  -2
  -3  -5  22 210.821 27.4310   1
  -4  -5  21 173.316 29.8579  -2
   3  -5 -21 173.316 29.8579   1
   4  -5 -20 13.9874 30.1441  -2
  -3  -5  20 13.9874 30.1441   1
   4  -5 -19 414.482 34.0240  -2
  -3  -5  19 414.482 34.0240   1
   4  -5 -18 651.040 35.5065  -2
  -3  -5  18 651.040 35.5065   1
  -3  -5  17 258.581 75.6971   1
   4  -5 -17 416.983 43.8024  -2
  -3  -5  17 416.983 43.8024   1
  -3  -5  16 1564.08 40.8227   1
  -4  -5  16 1428.97 87.3476  -2
   3  -5 -16 1428.97 87.3476   1
  -3  -5  15 2549.02 42.2374   1
  -4  -5  15 2456.16 93.4574  -2
   3  -5 -15 2456.16 93.4574   1
  -3  -5  14 1015.18 28.5970   1
  -4  -5  14 913.673 78.2173  -2
   3  -5 -14 913.673 78.2173   1
   3  -5 -13 126.189 20.0493   1
   3  -5 -12 1591.85 49.3875   1
  -3   5  11 2968.86 58.3865   1
  -3   5  10 3934.08 46.8688   1
   3  -5  -9 26.1822 18.0537   1
  -3   5   8 474.567 21.1260   1
  -3   5   7 2622.29 35.5278   1
  -3   5   6 2514.20 39.3032   1
  -3  -5   6 3132.18 73.3743  -2
   3  -5  -6 3132.18 73.3743   1
  -3   5   5 5552.60 63.0337   1
   3  -5  -5 6790.67 67.9440  -2
  -3  -5   5 6790.67 67.9440   1
  -3   5   4 20748.3 106.821   1
   3  -5  -4 25611.6 107.958  -2
  -3  -5   4 25611.6 107.958   1
   3   5  -3 17379.5 65.3146  -2
  -3   5   3 17379.5 65.3146   1
  -3   5   2 1138.20 37.0747   1
  -3  -5   2 1186.80 35.0972  -2
   3  -5  -2 1186.80 35.0972   1
   3   5  -1 133.840 17.7978  -2
  -3   5   1 133.840 17.7978   1
   3  -5   0 3821.96 42.0607  -2
  -3  -5   0 3821.96 42.0607   1
   3  -5   1 8359.59 64.4719   1
  -3   5  -1 10061.3 70.6100  -2
   3   5   1 10061.3 70.6100   1
   3  -5   2 143.925 21.5662   1
   3   5   2 217.272 30.4439  -2
  -3   5  -2 217.272 30.4439   1
  -3   5  -3 1616.17 34.4387   1
  -3   5  -3 2017.67 64.8166  -2
   3   5   3 2017.67 64.8166   1
   3  -5   4 32.7010 24.6959   1
  -3   5  -4 57.9133 49.0353  -2
   3   5   4 57.9133 49.0353   1
  -3   5  -5 4330.04 48.2404   1
  -3   5  -5 5599.47 91.3373  -2
   3   5   5 5599.47 91.3373   1
  -3   5  -6 4467.42 49.7545   1
  -3   5  -6 6094.08 96.8490  -2
   3   5   6 6094.08 96.8490   1
   3   5   7 5374.16 56.9488   1
   3   5   8 55.1146 31.9275   1
   3  -5   9 4411.76 65.1777   1
   3   5  10 2179.10 52.9891   1
  -3  -5 -11 5.55595 23.3436   1
   3  -5  12 58.2306 19.8596   1
   3  -5  13 383.992 18.3886   1
   3  -5  14 534.360 19.6100   1
   3   5  15 1116.16 37.7616   1
  -3  -5 -16 173.389 44.9030   1
  -3  -5 -17 733.826 49.1601   1
  -3  -5 -18 135.547 45.1769   1
  -3  -5 -19 706.339 47.5607   1
  -3  -5 -20 16.7468 38.0707   1
  -3  -5 -21 6.18519 33.7274   1
  -3  -5 -22 116.172 29.8370   1
  -3  -5 -23 72.6618 23.4089   1
  -4  -6  24-5.80210 28.2530  -2
   3  -6 -24-5.80210 28.2530   1
   4  -6 -23 106.802 22.3385  -2
  -3  -6  23 106.802 22.3385   1
   4  -6 -22 61.4489 25.6197  -2
  -3  -6  22 61.4489 25.6197   1
  -4  -6  21 6.24362 28.2828  -2
   3  -6 -21 6.24362 28.2828   1
   3  -6 -20 42.9716 41.3238   1
   4  -6 -20 40.8105 39.4218  -2
  -3  -6  20 40.8105 39.4218   1
  -4  -6  19 86.9236 32.7475  -2
   3  -6 -19 86.9236 32.7475   1
   3  -6 -18-18.2641 42.4113   1
   4  -6 -18 162.015 43.5123  -2
  -3  -6  18 162.015 43.5123   1
   3  -6 -17-2.94704 40.6569   1
   4  -6 -17 206.456 42.6609  -2
  -3  -6  17 206.456 42.6609   1
  -3  -6  16 554.961 78.6383   1
   4  -6 -16 497.856 38.3394  -2
  -3  -6  16 497.856 38.3394   1
  -3  -6  15 451.643 32.9374   1
  -4  -6  15 327.486 75.3913  -2
   3  -6 -15 327.486 75.3913   1
  -3   6  14 72.9938 22.1896   1
  -3  -6  13 270.518 21.8397   1
  -3  -6  12 446.280 21.2893   1
  -3   6  11 61.9290 26.3093   1
  -3  -6  10 89.4178 24.9443   1
  -3   6   9 2467.49 39.6400   1
   3  -6  -8 190.225 19.8362   1
  -3   6   7 1370.72 35.9117   1
  -3  -6   7 1755.92 69.4197  -2
   3  -6  -7 1755.92 69.4197   1
   3   6  -6 415.329 27.6374   1
   3   6  -6 599.953 46.6128  -2
  -3   6   6 599.953 46.6128   1
  -3  -6   5 5.43564 25.6713  -2
   3  -6  -5 5.43564 25.6713   1
   3   6  -4 1562.00 29.7764  -2
  -3   6   4 1562.00 29.7764   1
  -3   6   3 0.23647 31.3378   1
  -3   6   3 35.5091 28.7567  -2
   3   6  -3 35.5091 28.7567   1
   3   6  -2 28.6278 19.9463  -2
  -3   6   2 28.6278 19.9463   1
   3   6  -1 186.315 19.7103  -2
  -3   6   1 186.315 19.7103   1
   3  -6   0 81.9092 30.7714   1
   3  -6   0 68.5313 21.0160  -2
  -3  -6   0 68.5313 21.0160   1
   3  -6   1 4701.63 56.0218   1
   3   6   1 5675.63 47.2162  -2
  -3   6  -1 5675.63 47.2162   1
  -3   6  -2 786.455 39.0424   1
  -3   6  -2 1026.61 61.6887  -2
   3   6   2 1026.61 61.6887   1
  -3   6  -3 273.257 33.4905   1
  -3   6  -3 410.117 55.4113  -2
   3   6   3 410.117 55.4113   1
   3  -6   4 155.314 25.4858   1
  -3   6  -4 174.986 53.2765  -2
   3   6   4 174.986 53.2765   1
   3  -6   5 333.424 27.6000   1
  -3   6  -5 430.252 56.3579  -2
   3   6   5 430.252 56.3579   1
   3  -6   6 2108.54 39.5308   1
  -3   6  -6 2977.36 82.3183  -2
   3   6   6 2977.36 82.3183   1
  -3   6  -7 2247.85 41.4818   1
  -3   6  -7 3050.87 82.7696  -2
   3   6   7 3050.87 82.7696   1
   3  -6   8 1018.91 59.6837   1
  -3   6  -8 1272.64 72.4566  -2
   3   6   8 1272.64 72.4566   1
   3  -6   9 17.6437 34.5575   1
   3  -6  10 465.477 39.4441   1
  -3  -6 -11 74.1450 19.6215   1
  -3  -6 -12 17.6388 20.6159   1
   3   6  13 337.776 23.5414   1
   3   6  14 20.2191 17.7359   1
  -3  -6 -15 12.1424 17.9478   1
  -3  -6 -16 271.840 44.3587   1
  -3  -6 -17 136.009 41.9786   1
  -3  -6 -18 33.5365 41.3891   1
  -3  -6 -19 231.590 41.4968   1
  -3  -6 -20 168.255 35.8722   1
  -3  -6 -21 9.87743 30.3116   1
  -3  -6 -22 16.7294 26.3640   1
  -3  -6 -23 198.579 21.6298   1
  -4  -7  24 22.7238 24.4472  -2
   3  -7 -24 22.7238 24.4472   1
  -4  -7  23 229.576 21.2822  -2
   3  -7 -23 229.576 21.2822   1
  -4  -7  22 859.212 28.1205  -2
   3  -7 -22 859.212 28.1205   1
   3  -7 -21 10.0508 35.6057   1
   4  -7 -21 21.5409 35.6968  -2
  -3  -7  21 21.5409 35.6968   1
   3  -7 -20 16.9819 37.4056   1
   4  -7 -20 1.40901 38.9234  -2
  -3  -7  20 1.40901 38.9234   1
   3  -7 -19 144.888 42.0202   1
   4  -7 -19 219.938 41.6177  -2
  -3  -7  19 219.938 41.6177   1
   4  -7 -18 2941.60 57.9372  -2
  -3  -7  18 2941.60 57.9372   1
   3  -7 -17 23.8809 40.6013   1
   4  -7 -17 214.477 42.8642  -2
  -3  -7  17 214.477 42.8642   1
  -3  -7  16 142.863 31.8622   1
  -3  -7  15 388.996 32.8085   1
  -4  -7  15 339.305 77.2923  -2
   3  -7 -15 339.305 77.2923   1
   3  -7 -14 5681.99 54.9169   1
   3  -7 -13 565.470 24.4071   1
  -3  -7  12 82.5187 19.6962   1
  -3   7  11 569.028 32.1142   1
   3  -7 -10 8026.05 80.7743   1
  -3   7   9 2.27028 25.3122   1
  -3   7   8 1234.75 33.1593   1
  -3   7   7 180.420 25.6175   1
  -3  -7   6 11859.0 120.598   1
  -3  -7   6 15431.5 109.216  -2
   3  -7  -6 15431.5 109.216   1
  -3  -7   5 32668.3 179.950   1
   3   7  -5 42792.6 141.924  -2
  -3   7   5 42792.6 141.924   1
  -3  -7   4 1441.34 38.3514  -2
   3  -7  -4 1441.34 38.3514   1
  -3   7   3 1724.10 38.4436  -2
   3   7  -3 1724.10 38.4436   1
  -3  -7   2 9940.43 61.8099  -2
   3  -7  -2 9940.43 61.8099   1
   3  -7  -1 29076.6 155.063   1
  -3   7   1 35568.2 135.422  -2
   3   7  -1 35568.2 135.422   1
   3  -7   0 1344.64 46.7834   1
   3  -7   0 1664.54 31.6322  -2
  -3  -7   0 1664.54 31.6322   1
  -3   7  -1 8608.46 70.3467  -2
   3   7   1 8608.46 70.3467   1
  -3   7  -2 359.318 37.9651   1
  -3   7  -2 478.026 57.8303  -2
   3   7   2 478.026 57.8303   1
  -3   7  -3 930.008 41.2278   1
  -3   7  -3 1179.93 68.5068  -2
   3   7   3 1179.93 68.5068   1
  -3   7  -4 680.922 37.2373   1
  -3  -7  -4 799.553 46.5014  -2
   3  -7   4 799.553 46.5014   1
  -3   7  -5 57.4765 24.5676   1
  -3   7  -5 82.8412 54.6528  -2
   3   7   5 82.8412 54.6528   1
  -3   7  -6 5734.34 58.4899   1
  -3   7  -6 7606.00 119.791  -2
   3   7   6 7606.00 119.791   1
   3  -7   7 2558.92 74.0965   1
  -3   7  -7 3381.09 92.1718  -2
   3   7   7 3381.09 92.1718   1
   3   7   8 14.8159 33.4693   1
  -3   7  -9 44.8353 23.6114   1
   3   7  10 3287.84 40.9491   1
  -3   7 -11 15.0697 20.0327   1
   3   7  12 539.960 30.6979   1
   3  -7  12 621.512 44.3903  -2
  -3  -7 -12 621.512 44.3903   1
   3   7  13 436.781 24.9055   1
  -3  -7 -14 465.081 20.1908   1
  -3  -7 -15-5.23324 19.9626   1
  -3  -7 -16 26.0632 19.2794   1
  -3  -7 -17 26.8970 22.1762   1
  -3  -7 -18 181.696 40.1109   1
  -3  -7 -19 37.4077 34.3812   1
  -3  -7 -20 25.2214 31.4429   1
  -3  -7 -21 31.3749 28.7526   1
  -3  -7 -22 96.9545 24.7498   1
   4  -8 -23 176.580 18.8045  -2
  -3  -8  23 176.580 18.8045   1
   3  -8 -22 22.1403 29.5735   1
   4  -8 -22 68.3868 29.3967  -2
  -3  -8  22 68.3868 29.3967   1
   4  -8 -21 99.7149 25.8095  -2
  -3  -8  21 99.7149 25.8095   1
   3  -8 -20-4.03071 36.4700   1
   4  -8 -20 17.5011 38.2630  -2
  -3  -8  20 17.5011 38.2630   1
   3  -8 -19-20.1425 38.7623   1
   4  -8 -19 128.730 40.4659  -2
  -3  -8  19 128.730 40.4659   1
   3  -8 -18 231.561 42.0663   1
   4  -8 -18 404.064 44.6077  -2
  -3  -8  18 404.064 44.6077   1
   3  -8 -17 185.739 41.3279   1
   4  -8 -17 490.064 44.9756  -2
  -3  -8  17 490.064 44.9756   1
   3  -8 -16 324.908 41.6089   1
   4  -8 -16 453.743 45.2308  -2
  -3  -8  16 453.743 45.2308   1
  -3  -8  15 99.2273 31.0406   1
  -3  -8  14 38.6995 27.3647   1
   3  -8 -13 860.544 30.1179   1
   3  -8 -12 775.387 18.3913   1
   3  -8 -11 82.9562 19.9770   1
   3  -8 -10 571.932 33.1621   1
   3  -8  -9 1110.02 35.2785   1
  -3   8   8 20.8214 25.7636   1
  -3   8   7 22.5705 23.5480   1
   3   8  -6 888.119 33.2715   1
   3   8  -6 1104.27 57.1196  -2
  -3   8   6 1104.27 57.1196   1
  -3  -8   5 598.087 31.3395  -2
   3  -8  -5 598.087 31.3395   1
   3  -8  -4 5775.20 53.0914  -2
  -3  -8   4 5775.20 53.0914   1
  -3   8   3 87.9773 29.2802  -2
   3   8  -3 87.9773 29.2802   1
  -3   8   2 3141.02 39.5862  -2
   3   8  -2 3141.02 39.5862   1
  -3   8   1 7281.91 53.1429  -2
   3   8  -1 7281.91 53.1429   1
   3   8   0 16.8700 24.4839  -2
  -3   8   0 16.8700 24.4839   1
   3   8   1 149.630 30.9336  -2
  -3   8  -1 149.630 30.9336   1
  -3   8  -2 4.32072 32.9614   1
  -3  -8  -2 33.8142 40.5287  -2
   3  -8   2 33.8142 40.5287   1
  -3   8  -3 1975.85 42.0842   1
  -3   8  -3 2406.76 87.2754  -2
   3   8   3 2406.76 87.2754   1
  -3   8  -4 1561.97 46.6067   1
  -3  -8  -4 2237.48 82.5305  -2
   3  -8   4 2237.48 82.5305   1
   3  -8   5 7.08594 44.3255   1
  -3   8  -5-8.56532 56.5265  -2
   3   8   5-8.56532 56.5265   1
   3  -8   6-0.03862 47.8417   1
  -3   8  -6 61.4627 62.7904  -2
   3   8   6 61.4627 62.7904   1
  -3   8  -7 54.3829 45.4516  -2
   3   8   7 54.3829 45.4516   1
  -3   8  -8 500.143 28.2844   1
  -3   8  -8 613.839 71.5883  -2
   3   8   8 613.839 71.5883   1
   3   8   9 17.2793 18.4626   1
  -3   8 -10 337.496 21.0405   1
   3  -8  10 367.047 39.1029  -2
  -3  -8 -10 367.047 39.1029   1
   3  -8  11 311.886 28.8747   1
   3  -8  11 340.690 42.1383  -2
  -3  -8 -11 340.690 42.1383   1
   3   8  12 0.25326 27.3936   1
   3  -8  12 48.5937 41.0384  -2
  -3  -8 -12 48.5937 41.0384   1
  -3  -8 -13-1.49692 22.3928   1
  -3  -8 -14 451.763 22.0154   1
  -3  -8 -15 794.897 23.7510   1
  -3  -8 -16 69.8291 19.8308   1
   3  -8  17 125.060 21.6958   1
  -3  -8 -18 25.1624 34.5064   1
  -3  -8 -19 115.558 33.6700   1
  -3  -8 -20 23.0204 29.3708   1
  -3  -8 -21 130.307 25.4690   1
   3  -9 -22 51.8380 24.7981   1
   4  -9 -22 60.7689 26.8692  -2
  -3  -9  22 60.7689 26.8692   1
   3  -9 -21 64.5542 29.7843   1
   4  -9 -21 60.7899 31.8190  -2
  -3  -9  21 60.7899 31.8190   1
   3  -9 -20 200.684 35.1490   1
   4  -9 -20 283.377 37.5545  -2
  -3  -9  20 283.377 37.5545   1
   3  -9 -19 149.216 36.5247   1
   4  -9 -19 240.420 40.6670  -2
  -3  -9  19 240.420 40.6670   1
   3  -9 -18 155.212 38.3837   1
   4  -9 -18 243.322 43.0581  -2
  -3  -9  18 243.322 43.0581   1
   3  -9 -17 109.448 38.6213   1
   4  -9 -17 234.209 43.5032  -2
  -3  -9  17 234.209 43.5032   1
   3  -9 -16 347.285 42.6311   1
   4  -9 -16 455.415 45.7525  -2
  -3  -9  16 455.415 45.7525   1
  -3  -9  15 594.231 29.5403   1
  -3  -9  14 2581.43 45.1147   1
   3  -9 -13 2991.72 34.3353   1
  -4   9  13 3074.34 73.9325  -2
   3   9 -13 3074.34 73.9325   1
   3  -9 -12-4.52320 18.8595   1
  -4   9  12-14.8207 57.2078  -2
   3   9 -12-14.8207 57.2078   1
  -3  -9  11 155.196 24.2364   1
   3  -9 -10 452.230 22.4248   1
  -3  -9   9 5.94400 27.5900   1
  -3  -9   9 47.1678 37.1199  -2
   3  -9  -9 47.1678 37.1199   1
  -3   9   8 348.025 29.2975   1
  -3  -9   8 369.860 30.2155  -2
   3  -9  -8 369.860 30.2155   1
   3  -9  -7 132.811 26.2219   1
  -3  -9   6 1889.66 48.3062   1
   3   9  -6 2321.60 73.6632  -2
  -3   9   6 2321.60 73.6632   1
   3   9  -5 938.637 45.2946   1
   3   9  -5 1135.66 46.7657  -2
  -3   9   5 1135.66 46.7657   1
   3  -9  -4 902.594 59.3076   1
   3   9  -4 1237.79 41.7236  -2
  -3   9   4 1237.79 41.7236   1
   3  -9  -3 3050.44 76.5518   1
  -3   9   3 3821.66 53.1015  -2
   3   9  -3 3821.66 53.1015   1
   3  -9  -2 2488.59 68.4706   1
   3   9  -2 3289.00 42.7493  -2
  -3   9   2 3289.00 42.7493   1
   3  -9  -1 1666.53 41.9011  -2
  -3  -9   1 1666.53 41.9011   1
  -3   9   0 3124.99 68.4154  -2
   3   9   0 3124.99 68.4154   1
  -3   9  -1 1815.71 56.7319   1
   3   9   1 2398.50 66.3409  -2
  -3   9  -1 2398.50 66.3409   1
  -3   9  -2 6473.00 89.0036   1
  -3   9  -2 8013.13 153.236  -2
   3   9   2 8013.13 153.236   1
  -3   9  -3 1482.31 49.3329   1
  -3  -9  -3 1898.83 61.1864  -2
   3  -9   3 1898.83 61.1864   1
  -3   9  -4 948.687 52.7742  -2
   3   9   4 948.687 52.7742   1
   3  -9   5 1880.16 70.6255   1
  -3   9  -5 2505.82 95.7842  -2
   3   9   5 2505.82 95.7842   1
  -3   9  -6 1061.12 32.0674   1
  -3   9  -6 1242.24 82.4140  -2
   3   9   6 1242.24 82.4140   1
  -3   9  -7 3458.67 40.8302   1
  -3   9  -7 4181.90 57.3640  -2
   3   9   7 4181.90 57.3640   1
  -3   9  -8 131.762 19.6462   1
   3  -9   8 107.254 36.0085  -2
  -3  -9  -8 107.254 36.0085   1
   3  -9   9 4442.02 54.6662   1
  -3   9  -9 5192.27 58.0893  -2
   3   9   9 5192.27 58.0893   1
   3  -9  10 87.0937 19.8294   1
   3   9  11 274.647 31.4110   1
   3  -9  11 301.493 40.3183  -2
  -3  -9 -11 301.493 40.3183   1
   3  -9  12 220.990 31.4236   1
   3  -9  12 246.054 41.3875  -2
  -3  -9 -12 246.054 41.3875   1
  -3   9 -13 222.877 27.7270   1
  -3   9 -14 801.511 28.9462   1
  -3  -9 -15 175.992 20.9987   1
  -3   9 -16 46.0087 18.9137   1
  -3  -9 -17 23.5976 17.5528   1
   3  -9  18 225.681 20.1973   1
  -3  -9 -19 109.249 31.2064   1
  -3  -9 -20 6.62998 25.3496   1
   4 -10 -22 0.47989 22.8732  -2
  -3 -10  22 0.47989 22.8732   1
   3 -10 -21-7.16643 24.7404   1
   4 -10 -21 24.8271 28.1991  -2
  -3 -10  21 24.8271 28.1991   1
   3 -10 -20 56.4604 29.5817   1
   4 -10 -20 101.215 33.7265  -2
  -3 -10  20 101.215 33.7265   1
   3 -10 -19 183.198 33.9959   1
   4 -10 -19 372.312 38.6416  -2
  -3 -10  19 372.312 38.6416   1
   3 -10 -18 9.19676 32.5573   1
   4 -10 -18 8.48996 40.7420  -2
  -3 -10  18 8.48996 40.7420   1
   3 -10 -17 21.4440 35.3313   1
   4 -10 -17 181.739 43.5536  -2
  -3 -10  17 181.739 43.5536   1
  -3 -10  16 553.427 27.9921   1
  -3 -10  15 23.1227 26.3628   1
  -3 -10  14 2328.13 51.6022   1
  -3 -10  14 2737.35 59.9109  -2
   3 -10 -14 2737.35 59.9109   1
  -4  10  14 2599.18 77.4747  -2
   3  10 -14 2599.18 77.4747   1
  -3 -10  13 264.413 24.4089   1
  -4  10  13 682.268 68.7541  -2
   3  10 -13 682.268 68.7541   1
  -3 -10  12 33.3071 22.0153   1
  -4  10  12 158.008 64.7629  -2
   3  10 -12 158.008 64.7629   1
   3 -10 -11-12.2748 27.7301   1
  -3 -10  10 425.838 29.7209   1
  -3 -10   9 104.032 39.7753   1
  -3 -10   9 104.796 35.5511  -2
   3 -10  -9 104.796 35.5511   1
   3 -10  -8 261.957 21.1033   1
   3  10  -8 335.471 27.9346  -2
  -3  10   8 335.471 27.9346   1
  -3 -10   7 124.989 19.2718   1
  -3  10   7 183.180 22.1685  -2
   3  10  -7 183.180 22.1685   1
   3 -10  -6 10.1322 32.8085   1
   3  10  -6 7.59262 20.9717  -2
  -3  10   6 7.59262 20.9717   1
   3  10  -5 0.13354 35.1112   1
   3  10  -5 12.5755 25.8104  -2
  -3  10   5 12.5755 25.8104   1
   3 -10  -4 11.0317 29.6723  -2
  -3 -10   4 11.0317 29.6723   1
   3 -10  -3 26.3297 29.1339  -2
  -3 -10   3 26.3297 29.1339   1
   3  10  -2 850.897 35.7285  -2
  -3  10   2 850.897 35.7285   1
  -3  10   1 99.4142 43.8041   1
  -3  10   1 185.902 50.5325  -2
   3  10  -1 185.902 50.5325   1
  -3  10   0 259.082 41.6712   1
   3  10   0 346.646 50.6280  -2
  -3  10   0 346.646 50.6280   1
  -3  10  -1 10.5957 35.3714   1
  -3  10  -1 8.51039 38.5748  -2
   3  10   1 8.51039 38.5748   1
  -3  10  -2 257.608 38.1229   1
  -3  10  -2 364.635 51.3754  -2
   3  10   2 364.635 51.3754   1
  -3  10  -3 280.459 24.0144  -2
   3  10   3 280.459 24.0144   1
  -3  10  -4 68.8978 31.5323   1
  -3  10  -4 92.3660 22.8693  -2
   3  10   4 92.3660 22.8693   1
   3 -10   5 52.3626 26.6018   1
   3 -10   5 64.9948 25.6373  -2
  -3 -10  -5 64.9948 25.6373   1
  -3  10  -6 1228.29 45.9993   1
   3 -10   6 1427.74 30.8964  -2
  -3 -10  -6 1427.74 30.8964   1
  -3  10  -7 346.087 35.7939   1
   3 -10   7 471.830 27.4789  -2
  -3 -10  -7 471.830 27.4789   1
   3 -10   8 670.797 24.4609   1
   3 -10   8 778.135 43.1824  -2
  -3 -10  -8 778.135 43.1824   1
   3 -10   9 3100.05 51.3586   1
  -3  10  -9 3343.91 52.2627  -2
   3  10   9 3343.91 52.2627   1
   3  10  10 535.053 25.0759   1
   3  10  11 62.2966 31.1897   1
  -3  10 -12 1368.67 52.4676   1
  -3  10 -13 506.907 45.3406   1
   3 -10  13 721.902 43.5072  -2
  -3 -10 -13 721.902 43.5072   1
  -3 -10 -14-3.67533 20.1585   1
  -3 -10 -15 424.699 21.4082   1
  -3 -10 -16 5.65669 17.8273   1
   3 -10  17 49.1961 16.8590   1
  -3 -10 -18 2.25371 17.0807   1
  -3 -10 -19 30.9543 25.2072   1
   4 -11 -21 42.4953 24.4704  -2
  -3 -11  21 42.4953 24.4704   1
   3 -11 -20-1.43137 24.2492   1
   4 -11 -20 46.1667 29.4982  -2
  -3 -11  20 46.1667 29.4982   1
   3 -11 -19 151.503 27.7839   1
   4 -11 -19 247.259 34.5426  -2
  -3 -11  19 247.259 34.5426   1
   3 -11 -18 13.5339 29.9882   1
   4 -11 -18 16.8420 37.0449  -2
  -3 -11  18 16.8420 37.0449   1
   3 -11 -17 812.712 37.5114   1
   4 -11 -17 1078.79 45.9825  -2
  -3 -11  17 1078.79 45.9825   1
   3 -11 -16 142.956 24.2377   1
  -3 -11  15-0.88408 35.1434   1
  -3 -11  15-37.1241 39.3365  -2
   3 -11 -15-37.1241 39.3365   1
  -4  11  15 18.1019 59.3693  -2
   3  11 -15 18.1019 59.3693   1
   3 -11 -14 1679.82 31.2991   1
  -3 -11  14 1946.77 52.3211  -2
   3 -11 -14 1946.77 52.3211   1
  -4  11  14 1622.06 72.6164  -2
   3  11 -14 1622.06 72.6164   1
  -3 -11  13 1993.88 32.9852   1
  -4  11  13 1955.17 76.2788  -2
   3  11 -13 1955.17 76.2788   1
  -3 -11  12 307.877 24.4991   1
  -4  11  12 220.700 68.0752  -2
   3  11 -12 220.700 68.0752   1
   3 -11 -11 76.0328 30.9143   1
   3 -11 -10 49.1888 30.5529   1
  -3 -11   9 2882.86 29.7192   1
  -3 -11   8 16.2147 22.0982   1
  -3 -11   8 66.6295 33.4969  -2
   3 -11  -8 66.6295 33.4969   1
  -3 -11   7 115.183 18.6689   1
   3  11  -7 154.685 24.4719  -2
  -3  11   7 154.685 24.4719   1
  -3  11   6 596.942 25.0910   1
  -3  11   6 783.488 25.8410  -2
   3  11  -6 783.488 25.8410   1
   3  11  -5 1895.49 87.5273   1
  -3 -11   5 2193.87 30.2804  -2
   3 -11  -5 2193.87 30.2804   1
  -3  11   4 1185.45 19.6122  -2
   3  11  -4 1185.45 19.6122   1
  -3  11   3 38.1244 16.5654  -2
   3  11  -3 38.1244 16.5654   1
  -3 -11   2 34.1781 16.6613  -2
   3 -11  -2 34.1781 16.6613   1
  -3  11   1 4651.68 93.8487   1
  -3  11   1 7090.96 41.5084  -2
   3  11  -1 7090.96 41.5084   1
  -3  11   0 231.574 43.3849   1
  -3 -11   0 418.309 20.7233  -2
   3 -11   0 418.309 20.7233   1
  -3  11  -1 29.8975 18.3620  -2
   3  11   1 29.8975 18.3620   1
  -3 -11  -2 1583.51 33.6214  -2
   3 -11   2 1583.51 33.6214   1
   3 -11   3 7363.49 63.4539   1
   3 -11   3 9044.12 89.1141  -2
  -3 -11  -3 9044.12 89.1141   1
  -3  11  -4 6.36476 33.8237   1
   3 -11   4 8.82694 23.0608  -2
  -3 -11  -4 8.82694 23.0608   1
  -3  11  -5 8318.10 52.6025   1
   3 -11   5 9990.80 93.6445  -2
  -3 -11  -5 9990.80 93.6445   1
  -3  11  -6 2326.76 48.7271   1
   3  11   6 2871.16 42.2728  -2
  -3  11  -6 2871.16 42.2728   1
  -3  11  -7 9465.50 89.2133   1
   3 -11   7 11501.1 80.6725  -2
  -3 -11  -7 11501.1 80.6725   1
  -3  11  -8 231.939 24.9260   1
  -3  11  -8 303.507 42.8814  -2
   3  11   8 303.507 42.8814   1
  -3  11  -9 1806.27 31.9644   1
   3 -11   9 2013.53 60.0787  -2
  -3 -11  -9 2013.53 60.0787   1
  -3  11 -10 1317.77 35.4066   1
   3 -11  10 1614.95 52.1312  -2
  -3 -11 -10 1614.95 52.1312   1
  -3  11 -11 1504.15 53.8985   1
  -3  11 -12 90.6731 43.9821   1
  -3  11 -13 475.885 43.4455   1
   3 -11  14 408.012 26.1924   1
  -3  11 -15 77.5002 22.7654   1
   3 -11  16 560.781 24.1248   1
  -3  11 -17 108.486 18.7940   1
   3 -11  18 235.378 21.4080   1
   4 -12 -20 9.43579 25.0629  -2
  -3 -12  20 9.43579 25.0629   1
   4 -12 -19 1.27280 30.6135  -2
  -3 -12  19 1.27280 30.6135   1
   4 -12 -18 198.031 34.7293  -2
  -3 -12  18 198.031 34.7293   1
   4 -12 -17 29.2644 36.6444  -2
  -3 -12  17 29.2644 36.6444   1
  -3 -12  16 33.1660 31.9102   1
  -3 -12  15 247.782 35.3688   1
  -4  12  15 198.991 55.9133  -2
   3  12 -15 198.991 55.9133   1
   3 -12 -14 216.752 24.3095   1
  -4  12  14 328.690 62.6758  -2
   3  12 -14 328.690 62.6758   1
   3 -12 -13 6.89930 24.3437   1
  -4  12  13 108.886 63.3509  -2
   3  12 -13 108.886 63.3509   1
   3 -12 -12 103.349 25.2320   1
  -4  12  12 51.2183 67.3411  -2
   3  12 -12 51.2183 67.3411   1
   3 -12 -11 265.117 38.7714   1
  -4  12  11 397.101 70.0393  -2
   3  12 -11 397.101 70.0393   1
  -3 -12  10 1668.57 43.1862   1
  -3 -12   9 21.0242 61.2569   1
  -3 -12   9 95.8325 50.4966  -2
   3 -12  -9 95.8325 50.4966   1
  -3  12   8 11.7373 23.6453   1
  -3 -12   8 76.9537 41.0269  -2
   3 -12  -8 76.9537 41.0269   1
  -3  12   7 332.897 25.1079   1
  -3 -12   7 379.281 27.1054  -2
   3 -12  -7 379.281 27.1054   1
  -3  12   6 24.1752 22.5261   1
   3 -12  -6 16.3023 22.1934  -2
  -3 -12   6 16.3023 22.1934   1
   3  12  -5 424.507 71.2271   1
  -3  12   5 575.784 20.8642  -2
   3  12  -5 575.784 20.8642   1
  -3  12   4 2845.71 31.3971  -2
   3  12  -4 2845.71 31.3971   1
  -3  12   3 171.798 17.0384  -2
   3  12  -3 171.798 17.0384   1
  -3  12   2 34.2532 47.0200   1
  -3 -12   2 58.3662 18.4231  -2
   3 -12  -2 58.3662 18.4231   1
   3 -12  -1 323.392 18.6115  -2
  -3 -12   1 323.392 18.6115   1
  -3 -12   0 41.1862 18.0483  -2
   3 -12   0 41.1862 18.0483   1
   3 -12   1 2029.76 32.1543  -2
  -3 -12  -1 2029.76 32.1543   1
   3  12   2 2138.14 29.7229  -2
  -3  12  -2 2138.14 29.7229   1
  -3  12  -3 657.354 42.4716   1
  -3 -12  -3 869.819 32.1734  -2
   3 -12   3 869.819 32.1734   1
  -3  12  -4 1264.90 49.7504   1
  -3  12  -4 1518.97 34.4711  -2
   3  12   4 1518.97 34.4711   1
  -3  12  -5 1126.84 49.9145   1
   3 -12   5 1453.79 35.2285  -2
  -3 -12  -5 1453.79 35.2285   1
  -3  12  -6 302.491 28.7998   1
  -3  12  -6 452.808 44.0673  -2
   3  12   6 452.808 44.0673   1
  -3  12  -7 3238.04 41.3328   1
  -3  12  -7 4012.88 69.0684  -2
   3  12   7 4012.88 69.0684   1
  -3  12  -8 186.693 25.3110   1
   3 -12   8 220.093 45.2878  -2
  -3 -12  -8 220.093 45.2878   1
  -3  12  -9 251.388 27.3602   1
   3 -12   9 242.490 48.3457  -2
  -3 -12  -9 242.490 48.3457   1
  -3  12 -10 220.413 26.3052   1
   3 -12  10 236.259 44.6702  -2
  -3 -12 -10 236.259 44.6702   1
  -3  12 -11 128.263 45.2993   1
  -3  12 -12 15.7044 41.2419   1
  -3  12 -13 439.595 43.8612   1
  -3  12 -14 293.254 24.4857   1
   3 -12  15 67.5845 21.9116   1
  -3  12 -16 185.559 20.1475   1
   3 -12  17 32.4575 17.1184   1
   3 -12  18 1.90980 18.4980   1
   4 -13 -19 60.2727 24.9883  -2
  -3 -13  19 60.2727 24.9883   1
   4 -13 -18 246.619 30.4209  -2
  -3 -13  18 246.619 30.4209   1
   4 -13 -17 256.682 34.2807  -2
  -3 -13  17 256.682 34.2807   1
  -3 -13  16 55.7378 29.5921   1
  -3 -13  15 62.1777 31.0871   1
  -4  13  15 108.769 52.3503  -2
   3  13 -15 108.769 52.3503   1
   3 -13 -14 493.418 24.2264   1
  -4  13  14 436.209 59.6152  -2
   3  13 -14 436.209 59.6152   1
  -3 -13  13 41.9955 23.5986   1
  -4  13  13 106.945 60.0490  -2
   3  13 -13 106.945 60.0490   1
   3 -13 -12 452.399 26.6100   1
  -4  13  12 413.134 67.0589  -2
   3  13 -12 413.134 67.0589   1
  -3 -13  11 36.5392 25.0883   1
  -4  13  11 115.085 69.4325  -2
   3  13 -11 115.085 69.4325   1
   3 -13 -10 664.726 43.7836   1
  -4  13  10 743.992 74.9148  -2
   3  13 -10 743.992 74.9148   1
   3 -13  -9 349.367 40.9307   1
  -3  13   8 7.09432 25.1038   1
  -3 -13   8-31.3433 49.4712  -2
   3 -13  -8-31.3433 49.4712   1
  -3  13   7 241.842 28.2312   1
  -3  13   7 319.435 29.4173  -2
   3  13  -7 319.435 29.4173   1
  -3  13   6 1007.17 34.0923   1
  -3 -13   6 1188.27 48.2308  -2
   3 -13  -6 1188.27 48.2308   1
  -3  13   5 361.040 67.4296   1
  -3 -13   5 630.006 27.0877  -2
   3 -13  -5 630.006 27.0877   1
   3  13  -4 31.3561 67.0634   1
   3  13  -4 153.409 20.1433  -2
  -3  13   4 153.409 20.1433   1
   3  13  -3 289.018 20.7933  -2
  -3  13   3 289.018 20.7933   1
   3  13  -2 1671.84 27.4062  -2
  -3  13   2 1671.84 27.4062   1
  -3 -13   1 402.215 22.5163  -2
   3 -13  -1 402.215 22.5163   1
  -3  13   0 4629.37 39.1539  -2
   3  13   0 4629.37 39.1539   1
  -3  13  -1 105.793 20.5541  -2
   3  13   1 105.793 20.5541   1
  -3  13  -2 3567.02 62.0723  -2
   3  13   2 3567.02 62.0723   1
  -3  13  -3 2604.84 58.5558   1
  -3 -13  -3 3619.50 41.8751  -2
   3 -13   3 3619.50 41.8751   1
  -3  13  -4 52.4473 45.0714   1
   3 -13   4 30.4634 31.4540  -2
  -3 -13  -4 30.4634 31.4540   1
  -3  13  -5 2427.68 61.8897   1
   3 -13   5 2933.60 45.9641  -2
  -3 -13  -5 2933.60 45.9641   1
  -3  13  -6 8270.34 58.8038   1
   3 -13   6 9697.06 97.2894  -2
  -3 -13  -6 9697.06 97.2894   1
  -3  13  -7 279.481 29.3558   1
   3 -13   7 355.805 56.5790  -2
  -3 -13  -7 355.805 56.5790   1
  -3  13  -8 59.9533 27.2762   1
   3 -13   8 29.0490 48.2267  -2
  -3 -13  -8 29.0490 48.2267   1
  -3  13  -9 183.254 25.8726   1
   3 -13   9 221.281 46.0449  -2
  -3 -13  -9 221.281 46.0449   1
  -3  13 -10 917.651 49.6529   1
   3 -13  10 1045.74 49.7728  -2
  -3 -13 -10 1045.74 49.7728   1
  -3  13 -11 619.190 47.0587   1
   3 -13  11 653.522 41.6402  -2
  -3 -13 -11 653.522 41.6402   1
  -3  13 -12 21.4220 41.9046   1
  -3  13 -13 42.8959 41.1116   1
   3 -13  14 470.321 24.1281   1
   3 -13  15-0.83340 19.4880   1
   3 -13  16 32.7729 17.1774   1
   3 -13  17 2.65482 18.4687   1
   4 -14 -18 66.2165 23.7962  -2
  -3 -14  18 66.2165 23.7962   1
   4 -14 -17 142.180 28.3264  -2
  -3 -14  17 142.180 28.3264   1
   4 -14 -16 358.627 32.6941  -2
  -3 -14  16 358.627 32.6941   1
  -3 -14  15 116.613 28.5531   1
  -4  14  15 120.832 48.8689  -2
   3  14 -15 120.832 48.8689   1
  -3 -14  14 28.0717 20.2511   1
  -4  14  14 307.792 55.6274  -2
   3  14 -14 307.792 55.6274   1
  -3 -14  13 17.5637 21.9979   1
  -4  14  13 129.505 57.6280  -2
   3  14 -13 129.505 57.6280   1
  -3 -14  12 108.640 23.5693   1
  -4  14  12 119.667 64.8625  -2
   3  14 -12 119.667 64.8625   1
   3 -14 -11 34.9427 24.1815   1
  -4  14  11 29.3925 68.1741  -2
   3  14 -11 29.3925 68.1741   1
  -3 -14  10 37.5777 24.5764   1
  -4  14  10 480.934 72.0138  -2
   3  14 -10 480.934 72.0138   1
   3 -14  -9 9.59594 41.4864   1
  -4  14   9 113.152 76.6638  -2
   3  14  -9 113.152 76.6638   1
  -3  14   8 99.9668 22.0557   1
  -3  14   7 0.92546 25.8798   1
   3 -14  -7-10.5368 35.7287  -2
  -3 -14   7-10.5368 35.7287   1
  -3  14   6 60.0614 27.0453   1
   3 -14  -6 122.316 28.9116  -2
  -3 -14   6 122.316 28.9116   1
  -3  14   5 223.652 28.9913   1
  -3  14   5 339.330 29.8898  -2
   3  14  -5 339.330 29.8898   1
  -3  14   4 8.74789 20.0620  -2
   3  14  -4 8.74789 20.0620   1
  -3 -14   3 679.320 24.3078  -2
   3 -14  -3 679.320 24.3078   1
  -3  14   2 11.6945 20.2500  -2
   3  14  -2 11.6945 20.2500   1
   3  14  -1 32.1315 19.5253  -2
  -3  14   1 32.1315 19.5253   1
  -3 -14   0 89.5505 19.2428  -2
   3 -14   0 89.5505 19.2428   1
  -3 -14  -1 1432.72 28.1567  -2
   3 -14   1 1432.72 28.1567   1
  -3  14  -2 621.289 47.7868   1
   3 -14   2 801.964 30.8320  -2
  -3 -14  -2 801.964 30.8320   1
  -3  14  -3 45.0774 44.4384   1
  -3 -14  -3 26.8709 27.0005  -2
   3 -14   3 26.8709 27.0005   1
  -3  14  -4 188.947 43.2896   1
   3  14   4 307.739 37.7803  -2
  -3  14  -4 307.739 37.7803   1
  -3  14  -5 32.2074 26.9971   1
   3 -14   5 70.0121 53.6687  -2
  -3 -14  -5 70.0121 53.6687   1
  -3  14  -6 77.5393 26.5994   1
   3 -14   6 76.8249 52.5982  -2
  -3 -14  -6 76.8249 52.5982   1
  -3  14  -7 52.8902 26.0287   1
   3 -14   7 82.4283 48.2758  -2
  -3 -14  -7 82.4283 48.2758   1
  -3  14  -8 0.03915 43.6678   1
   2  14   9 18.3740 42.9840  -2
  -3  14  -8 18.3740 42.9840   1
   3 -14   8-4.63167 46.6880  -2
  -3 -14  -8-4.63167 46.6880   1
  -3  14  -9 51.4989 24.1597   1
   3 -14   9 77.9327 43.5344  -2
  -3 -14  -9 77.9327 43.5344   1
  -3  14 -10-0.01874 40.2363   1
   3 -14  10-3.65832 40.4940  -2
  -3 -14 -10-3.65832 40.4940   1
  -3  14 -11 57.2521 38.9164   1
   3 -14  11 56.5290 36.8497  -2
  -3 -14 -11 56.5290 36.8497   1
  -3  14 -12 39.5045 39.9281   1
   3 -14  13 30.1921 21.5420   1
   3 -14  14 136.158 20.4133   1
   3 -14  15-7.15295 17.1402   1
   3 -14  16 78.8217 14.7794   1
   4 -15 -17 166.528 21.9591  -2
  -3 -15  17 166.528 21.9591   1
   4 -15 -16 12.0856 25.5789  -2
  -3 -15  16 12.0856 25.5789   1
  -3 -15  15 10.4639 23.7056   1
  -4  15  15-17.2030 41.2053  -2
   3  15 -15-17.2030 41.2053   1
  -3 -15  14 314.427 19.1734   1
  -4  15  14 304.907 50.4799  -2
   3  15 -14 304.907 50.4799   1
  -3 -15  13 376.975 21.4725   1
  -4  15  13 307.781 54.3894  -2
   3  15 -13 307.781 54.3894   1
   3 -15 -12 0.75715 20.3705   1
  -4  15  12 21.8379 55.8084  -2
   3  15 -12 21.8379 55.8084   1
   3 -15 -11-0.24043 21.8921   1
  -4  15  11-6.03458 57.7477  -2
   3  15 -11-6.03458 57.7477   1
   3 -15 -10 29.3272 22.8541   1
  -4  15  10 3.73740 57.1227  -2
   3  15 -10 3.73740 57.1227   1
   3  15  -9 176.031 20.6906   1
  -3  15   8 143.110 18.5444   1
  -3  15   7-13.6865 24.6233   1
  -3 -15   7 16.2469 50.1437  -2
   3 -15  -7 16.2469 50.1437   1
  -3  15   6 37.5229 26.3567   1
  -3 -15   6 68.3357 35.6807  -2
   3 -15  -6 68.3357 35.6807   1
  -3  15   5 208.887 28.3436   1
   3 -15  -5 284.647 36.8611  -2
  -3 -15   5 284.647 36.8611   1
  -3 -15   4 228.584 23.7006  -2
   3 -15  -4 228.584 23.7006   1
   3 -15  -3 610.300 25.2549  -2
  -3 -15   3 610.300 25.2549   1
  -3  15   2 64.9510 33.5837   1
  -3 -15   2 132.396 24.0133  -2
   3 -15  -2 132.396 24.0133   1
  -3 -15   1 1424.52 27.7156  -2
   3 -15  -1 1424.52 27.7156   1
  -3  15   0 36.4955 36.9526   1
  -3 -15   0 82.7534 20.8956  -2
   3 -15   0 82.7534 20.8956   1
  -3  15  -1 74.6548 39.2495   1
  -3 -15  -1 111.958 20.5037  -2
   3 -15   1 111.958 20.5037   1
  -3  15  -2 1136.05 50.4573   1
  -3 -15  -2 1520.65 33.4226  -2
   3 -15   2 1520.65 33.4226   1
  -3  15  -3 404.949 22.3572   1
   3 -15   3 527.682 56.3257  -2
  -3 -15  -3 527.682 56.3257   1
  -3  15  -4 187.313 25.7599   1
   3 -15   4 299.934 56.5581  -2
  -3 -15  -4 299.934 56.5581   1
  -3  15  -5 237.887 27.4946   1
   3 -15   5 294.120 52.3108  -2
  -3 -15  -5 294.120 52.3108   1
  -3  15  -6 1651.87 34.7759   1
   3 -15   6 2088.68 66.5821  -2
  -3 -15  -6 2088.68 66.5821   1
  -3  15  -7 490.264 28.0849   1
   3 -15   7 604.276 51.8885  -2
  -3 -15  -7 604.276 51.8885   1
  -3  15  -8 4.67326 39.1268   1
   3 -15   8 3.84344 42.7192  -2
  -3 -15  -8 3.84344 42.7192   1
  -3  15  -9 292.471 45.5505   1
   3 -15   9 343.661 43.3468  -2
  -3 -15  -9 343.661 43.3468   1
  -3  15 -10 496.449 46.0438   1
   3 -15  10 523.294 41.7100  -2
  -3 -15 -10 523.294 41.7100   1
  -3  15 -11 103.815 38.8972   1
   3 -15  11 80.5623 35.1794  -2
  -3 -15 -11 80.5623 35.1794   1
  -3  15 -12 43.9430 20.7985   1
   3 -15  13 12.0536 18.6797   1
  -3  15 -14 25.4180 16.6609   1
  -3  15 -15 60.5069 14.1528   1
  -3 -16  15 71.2149 19.1008   1
   3 -16 -14 17.8960 14.2964   1
  -4  16  14 38.7955 40.7014  -2
   3  16 -14 38.7955 40.7014   1
   3 -16 -13 63.4065 16.6427   1
  -4  16  13 103.584 47.1087  -2
   3  16 -13 103.584 47.1087   1
  -3 -16  12 15.9821 17.8634   1
  -4  16  12 21.7700 50.4452  -2
   3  16 -12 21.7700 50.4452   1
   3 -16 -11 99.6881 19.5483   1
  -4  16  11 188.378 56.9515  -2
   3  16 -11 188.378 56.9515   1
   3 -16 -10 45.6877 20.7208   1
  -4  16  10 70.1995 57.7827  -2
   3  16 -10 70.1995 57.7827   1
   3 -16  -9 59.8455 20.7324   1
  -4  16   9 153.720 63.0028  -2
   3  16  -9 153.720 63.0028   1
   3 -16  -8 11.8864 18.1974   1
  -3  16   7 22.4500 16.8034   1
  -3  16   7 9.01244 38.4266  -2
   3  16  -7 9.01244 38.4266   1
  -3  16   6 58.2053 24.7210   1
  -3 -16   6 98.8954 31.0809  -2
   3 -16  -6 98.8954 31.0809   1
  -3  16   5-15.3925 25.1551   1
   3 -16  -5 19.1009 34.2321  -2
  -3 -16   5 19.1009 34.2321   1
   3 -16  -4 15.8351 25.1268  -2
  -3 -16   4 15.8351 25.1268   1
   3 -16  -3 27.7032 26.0315  -2
  -3 -16   3 27.7032 26.0315   1
   3 -16  -2 164.648 26.6656  -2
  -3 -16   2 164.648 26.6656   1
  -3  16   1 49.4068 32.7767   1
   3  16  -1 42.9807 26.6968  -2
  -3  16   1 42.9807 26.6968   1
  -3  16   0 287.312 37.0197   1
   3  16   0 409.473 28.3118  -2
  -3  16   0 409.473 28.3118   1
  -3  16  -1 160.995 37.9287   1
  -3 -16  -1 253.097 27.8454  -2
   3 -16   1 253.097 27.8454   1
   3 -16   2 75.4612 19.3918   1
   3 -16   2 120.080 49.4115  -2
  -3 -16  -2 120.080 49.4115   1
  -3  16  -3 21.5215 18.4354   1
   3 -16   3 45.6670 49.4628  -2
  -3 -16  -3 45.6670 49.4628   1
  -3  16  -4 39.8940 23.2725   1
   3 -16   4 86.6559 46.4104  -2
  -3 -16  -4 86.6559 46.4104   1
  -3  16  -5 45.2910 23.5229   1
   3 -16   5 80.0473 49.0500  -2
  -3 -16  -5 80.0473 49.0500   1
  -3  16  -6 25.6551 23.8365   1
   3 -16   6 16.0470 38.0983  -2
  -3 -16  -6 16.0470 38.0983   1
  -3  16  -7 11.7987 39.0434   1
   3 -16   7 30.0119 43.6764  -2
  -3 -16  -7 30.0119 43.6764   1
  -3  16  -8 95.2914 37.4218   1
   3 -16   8 16.6380 39.5784  -2
  -3 -16  -8 16.6380 39.5784   1
  -3  16  -9-1.98896 37.7221   1
   3 -16   9 54.1808 38.2046  -2
  -3 -16  -9 54.1808 38.2046   1
  -3  16 -10 55.9890 37.2211   1
   3 -16  10 119.699 36.6624  -2
  -3 -16 -10 119.699 36.6624   1
  -3  16 -11-3.11475 18.6911   1
   3 -16  11 3.24269 32.0702  -2
  -3 -16 -11 3.24269 32.0702   1
   3 -16  12 11.5129 17.3312   1
   3 -16  13-6.13491 15.4883   1
   3 -16  14-4.48409 16.0158   1
   3 -17 -13 27.6555 12.4183   1
  -4  17  13 45.3737 36.2021  -2
   3  17 -13 45.3737 36.2021   1
   3 -17 -12 0.83257 14.1014   1
  -4  17  12 39.7329 42.5088  -2
   3  17 -12 39.7329 42.5088   1
   3 -17 -11 86.7161 16.1116   1
  -4  17  11 70.6681 48.3093  -2
   3  17 -11 70.6681 48.3093   1
  -3 -17  10 1.14780 16.8082   1
  -4  17  10 46.2009 51.7574  -2
   3  17 -10 46.2009 51.7574   1
   3 -17  -9 257.368 18.6808   1
  -4  17   9 213.739 55.9114  -2
   3  17  -9 213.739 55.9114   1
  -3 -17   8 75.6590 18.3350   1
  -4  17   8 113.571 58.2344  -2
   3  17  -8 113.571 58.2344   1
  -3 -17   7 224.968 22.8420   1
  -3 -17   7 311.461 35.3131  -2
   3 -17  -7 311.461 35.3131   1
   3 -17  -6 21.7470 18.0488   1
  -3  17   6 142.995 36.9095  -2
   3  17  -6 142.995 36.9095   1
  -3  17   5 105.502 23.5531   1
  -3 -17   5 124.097 29.1921  -2
   3 -17  -5 124.097 29.1921   1
   3 -17  -4 169.061 22.3414  -2
  -3 -17   4 169.061 22.3414   1
  -3 -17   3 577.075 26.1258  -2
   3 -17  -3 577.075 26.1258   1
   3 -17  -2 45.1842 25.0881  -2
  -3 -17   2 45.1842 25.0881   1
  -3  17   1 196.148 30.2980   1
   3  17  -1 316.837 25.3897  -2
  -3  17   1 316.837 25.3897   1
  -3  17   0 19.5613 31.8939   1
   3  17   0 26.3235 24.3685  -2
  -3  17   0 26.3235 24.3685   1
  -3  17  -1 402.945 24.4375   1
   3 -17   1 655.983 53.6780  -2
  -3 -17  -1 655.983 53.6780   1
  -3  17  -2 76.8303 17.5777   1
   3 -17   2 118.052 46.7819  -2
  -3 -17  -2 118.052 46.7819   1
  -3  17  -3 479.147 24.5679   1
  -3  17  -4 4.13239 21.9333   1
   3 -17   4 1.31433 34.7573  -2
  -3 -17  -4 1.31433 34.7573   1
  -3  17  -5 23.8920 20.5782   1
   3 -17   5 37.1751 44.1924  -2
  -3 -17  -5 37.1751 44.1924   1
  -3  17  -6 15.3232 36.8951   1
   3 -17   6 14.8247 42.4151  -2
  -3 -17  -6 14.8247 42.4151   1
  -3  17  -7 373.167 38.6594   1
   3 -17   7 457.484 43.1185  -2
  -3 -17  -7 457.484 43.1185   1
  -3  17  -8-6.20914 32.2664   1
   3 -17   8 3.42955 36.4728  -2
  -3 -17  -8 3.42955 36.4728   1
  -3  17  -9-17.6045 32.5572   1
   3 -17   9 1.18751 34.7070  -2
  -3 -17  -9 1.18751 34.7070   1
  -3  17 -10 23.3873 17.3838   1
   3 -17  10 44.7826 31.5516  -2
  -3 -17 -10 44.7826 31.5516   1
   3 -17  11 80.5614 15.8085   1
   3 -17  12 3.56978 13.2587   1
   3 -18 -11 29.4946 18.7700   1
  -4  18  11 0.69220 31.8835  -2
   3  18 -11 0.69220 31.8835   1
   3 -18 -10-0.55204 21.8187   1
  -4  18  10 22.6131 42.0315  -2
   3  18 -10 22.6131 42.0315   1
   3 -18  -9 33.0921 24.7843   1
  -4  18   9 21.8000 44.0262  -2
   3  18  -9 21.8000 44.0262   1
   3 -18  -8-7.29308 26.7093   1
  -4  18   8-4.33690 47.6742  -2
   3  18  -8-4.33690 47.6742   1
   3 -18  -7 8.14016 20.0998   1
  -3  18   6-17.8722 30.6008  -2
   3  18  -6-17.8722 30.6008   1
  -3  18   5 142.095 20.8563   1
  -3 -18   5 219.601 25.6729  -2
   3 -18  -5 219.601 25.6729   1
  -3  18   4 44.3398 21.3066   1
   3 -18  -4 28.5619 25.1495  -2
  -3 -18   4 28.5619 25.1495   1
   3  18  -3 16.1629 20.1144  -2
  -3  18   3 16.1629 20.1144   1
   3  18  -2 100.251 20.5778  -2
  -3  18   2 100.251 20.5778   1
   3 -18  -1 12.7599 17.9512   1
  -3  18   1-0.74071 30.2023  -2
   3  18  -1-0.74071 30.2023   1
  -3  18   0-0.57634 18.1630   1
   3 -18   0-1.11023 31.2147  -2
  -3 -18   0-1.11023 31.2147   1
   3  18   1 14.1306 44.6448  -2
  -3  18   0 14.1306 44.6448   1
  -3  18  -1 44.0476 14.3866   1
   3 -18   1 53.5398 30.6091  -2
  -3 -18  -1 53.5398 30.6091   1
   3 -18   2 32.0756 14.7350   1
   3 -18   2 50.8190 29.9114  -2
  -3 -18  -2 50.8190 29.9114   1
  -3  18  -3 19.4022 18.9424   1
   3 -18   3 51.2769 43.3685  -2
  -3 -18  -3 51.2769 43.3685   1
  -3  18  -4-9.91964 18.4687   1
   3 -18   4-3.23601 40.8378  -2
  -3 -18  -4-3.23601 40.8378   1
  -3  18  -5 144.237 31.3013   1
   3 -18   5 223.716 41.4399  -2
  -3 -18  -5 223.716 41.4399   1
  -3  18  -6-0.50724 29.4634   1
   3 -18   6 24.1584 37.8617  -2
  -3 -18  -6 24.1584 37.8617   1
  -3  18  -7-7.78841 29.0911   1
   3 -18   7 15.7428 34.7268  -2
  -3 -18  -7 15.7428 34.7268   1
  -3  18  -8 14.4834 26.6931   1
   3 -18   8 20.2709 32.1795  -2
  -3 -18  -8 20.2709 32.1795   1
  -3  18  -9-0.98124 13.9509   1
   3 -18   9 4.43823 29.8130  -2
  -3 -18  -9 4.43823 29.8130   1
  -3  18 -10 4.53597 12.4663   1
   3 -19  -9 13.0309 17.0163   1
   3  19  -8 14.5796 14.3066   1
   3  19  -7 0.36724 15.4176   1
  -3 -19   6 249.691 24.5070  -2
   3 -19  -6 249.691 24.5070   1
  -3 -19   5 99.4083 25.2644  -2
   3 -19  -5 99.4083 25.2644   1
   3 -19  -4 11.4072 20.5023  -2
  -3 -19   4 11.4072 20.5023   1
  -3 -19   3 56.5156 17.4243  -2
   3 -19  -3 56.5156 17.4243   1
  -3  19   2 159.322 15.5766   1
   3 -19  -2 297.493 29.7517  -2
  -3 -19   2 297.493 29.7517   1
   3 -19  -1 17.4241 14.7779   1
   3 -19  -1 36.1681 27.8846  -2
  -3 -19   1 36.1681 27.8846   1
  -3  19   0 10.2024 14.5524   1
   3 -19   0 31.5513 26.5964  -2
  -3 -19   0 31.5513 26.5964   1
   3 -19   1-4.51569 26.0312  -2
  -3 -19  -1-4.51569 26.0312   1
  -3  19  -2 30.4296 22.7184   1
   3 -19   2 172.241 38.9444  -2
  -3 -19  -2 172.241 38.9444   1
  -3  19  -3 52.8725 23.0236   1
   3 -19   3 82.7207 35.9644  -2
  -3 -19  -3 82.7207 35.9644   1
  -3  19  -4-4.48175 21.9612   1
   3 -19   4 9.53108 32.3458  -2
  -3 -19  -4 9.53108 32.3458   1
  -3  19  -5 101.005 22.9846   1
   3 -19   5 193.332 35.9417  -2
  -3 -19  -5 193.332 35.9417   1
  -3  19  -6 2.58616 21.3352   1
  -2 -19  -7 41.9243 18.8456  -2
   3 -19   6 41.9243 18.8456   1
   3 -19   6-5.80935 30.5561  -2
  -3 -19  -6-5.80935 30.5561   1
   3 -19   7 30.7657 11.3091   1
   3 -19   7 46.0631 28.6338  -2
  -3 -19  -7 46.0631 28.6338   1
   3 -20   1 87.1871 31.1384  -2
  -3 -20  -1 87.1871 31.1384   1
   4   0 -24 339.541 28.3208   1
   4   0 -22 844.325 34.9499   1
  -4   0  20-6.18537 35.2223   1
   4   0 -18 3757.19 48.1733   1
  -4   0  16 146.224 36.7653   1
   4   0 -14 804.548 26.3652   1
   4   0 -12 264.396 34.4091   1
  -4   0  10 62129.5 187.388   1
  -4   0   8 84.3958 27.5834   1
   4   0  -6 264456. 272.422   1
   4   0  -4 999999. 618.140  -2
  -4   0   4 999999. 618.140   1
   4   0  -2 1070.42 14.6551   1
   4   0  -2 1574.84 45.6920  -2
  -4   0   2 1574.84 45.6920   1
   4   0   0 62798.5 123.787   1
   4   0   0 74958.5 191.039  -2
  -4   0   0 74958.5 191.039   1
   4   0   2 24520.8 123.053  -2
  -4   0  -2 24520.8 123.053   1
  -4   0  -4 456.421 20.0040   1
   4   0   6 14081.1 88.4271   1
   4   0   8 5987.40 70.5655   1
   4   0  10 4932.54 73.3103   1
  -4   0 -12 18.0134 32.4365   1
  -4   0 -14 95.9285 38.5650   1
  -4   0 -16 4259.24 71.5224   1
  -4   0 -18 1454.52 53.5566   1
  -4   0 -20 123.547 37.1189   1
  -4   0 -22 161.517 29.6037   1
   4  -1 -25 24.7065 22.1935   1
   4  -1 -24-11.6217 27.6675   1
   4   1 -23 66.8657 28.6339   1
  -5  -1  23 227.130 38.0341  -2
   4  -1 -23 227.130 38.0341   1
   4  -1 -22 86.4896 24.5175   1
   5  -1 -22 130.718 39.5415  -2
  -4  -1  22 130.718 39.5415   1
   4  -1 -21 1.98871 38.2989   1
   5   1 -21 16.7167 23.7435  -2
  -4   1  21 16.7167 23.7435   1
   5   1 -20 214.202 22.1637  -2
  -4   1  20 214.202 22.1637   1
   5  -1 -19 113.948 22.2861  -2
  -4  -1  19 113.948 22.2861   1
  -4   1  18 21.4115 27.5483   1
   5  -1 -18 47.1082 43.4679  -2
  -4  -1  18 47.1082 43.4679   1
  -4  -1  17 142.471 26.7016   1
  -4  -1  16 126.776 24.3699   1
  -4  -1  15 99.0889 19.6829   1
  -4  -1  14-2.06760 18.8805   1
   4  -1 -13 286.652 26.6891   1
   4   1 -12 1086.00 28.9939   1
  -4  -1  11 164.673 17.7287   1
   4   1 -10 655.445 27.0321   1
  -4   1   9 7100.88 72.3862   1
   4   1  -8 1008.79 20.3731   1
  -4  -1   7 89.0535 15.1685   1
   4  -1  -6 7453.48 39.9613   1
  -4  -1   5 5040.47 46.9056   1
   4  -1  -5 5946.36 42.7334  -2
  -4  -1   5 5946.36 42.7334   1
  -4  -1   4 20005.7 77.7950   1
   4  -1  -4 24711.5 93.2729  -2
  -4  -1   4 24711.5 93.2729   1
   4   1  -3 482.445 17.5953   1
   4  -1  -3 670.397 34.9343  -2
  -4  -1   3 670.397 34.9343   1
   4   1  -2 2096.05 24.8298   1
   4  -1  -2 2831.39 49.5601  -2
  -4  -1   2 2831.39 49.5601   1
   4  -1  -1 7777.44 27.6529   1
  -4  -1   1 12833.7 57.3273  -2
   4  -1  -1 12833.7 57.3273   1
  -4   1   0 15313.4 58.4103   1
   4  -1   0 18816.9 104.723  -2
  -4  -1   0 18816.9 104.723   1
   4   1   1 2600.57 41.0071   1
   4   1   1 3255.78 41.8862  -2
  -4   1  -1 3255.78 41.8862   1
   4  -1   2 1283.03 37.5220  -2
  -4  -1  -2 1283.03 37.5220   1
  -4   1  -3 1352.88 18.8509   1
   4   1   4 1153.79 16.6326   1
  -4   1  -5 180.110 21.9277   1
  -4   1  -5 266.444 24.1065  -2
   4   1   5 266.444 24.1065   1
   4  -1   6 2325.62 37.8416   1
  -4   1  -6 3040.77 42.4636  -2
   4   1   6 3040.77 42.4636   1
   4  -1   7 807.444 40.1041   1
  -4   1  -7 938.518 36.7497  -2
   4   1   7 938.518 36.7497   1
   4   1   8 866.470 26.6140   1
   4  -1   9 398.405 40.0584   1
   4  -1  10 45.4688 36.4415   1
   4  -1  11 2862.94 69.0536   1
  -4  -1 -12 1555.08 32.7647   1
  -4   1 -13 748.026 29.4369   1
  -4   1 -14 471.726 30.2940   1
  -4   1 -15 6.99835 28.3557   1
  -4   1 -16 191.728 28.5688   1
  -4   1 -17 1578.32 40.2346   1
  -4  -1 -18 420.638 32.0888   1
  -4  -1 -19 5.30958 26.7842   1
  -4   1 -20-8.73394 25.2221   1
  -4  -1 -21 197.988 24.3350   1
  -4   1 -22 62.2635 20.1399   1
  -4  -1 -23 12.3728 22.7052   1
   4  -2 -25 4.22808 22.9033   1
   4  -2 -24 5.39631 28.1309   1
   4  -2 -23 11.0772 33.4376   1
   5  -2 -23-12.7626 34.1558  -2
  -4  -2  23-12.7626 34.1558   1
   4   2 -22-14.4194 26.9834   1
  -5  -2  22 21.1350 28.9008  -2
   4  -2 -22 21.1350 28.9008   1
   4   2 -21 36.5922 31.1999   1
   5  -2 -21 65.4379 30.7694  -2
  -4  -2  21 65.4379 30.7694   1
   4   2 -20 221.538 27.6145   1
   5  -2 -20 321.860 31.8460  -2
  -4  -2  20 321.860 31.8460   1
  -5   2  19 903.648 27.7068  -2
   4   2 -19 903.648 27.7068   1
   4   2 -18 85.0217 26.0132   1
   5  -2 -18 78.3848 42.9207  -2
  -4  -2  18 78.3848 42.9207   1
  -4  -2  17 501.866 23.5517   1
  -4   2  16 731.694 27.7733   1
  -5  -2  16 717.285 69.2366  -2
   4  -2 -16 717.285 69.2366   1
  -4   2  15 430.819 21.7576   1
  -4  -2  14 3196.59 29.8637   1
   4  -2 -13 485.363 29.0531   1
   4  -2 -12 5.69935 23.4424   1
   4   2 -11 330.125 26.6114   1
  -4  -2  10 81.3447 24.6162   1
   4   2  -9 277.386 15.4155   1
   4  -2  -8 4930.79 44.6609   1
   4  -2  -8 4939.43 39.6526  -2
  -4  -2   8 4939.43 39.6526   1
   4   2  -7 495.113 24.5258   1
   4  -2  -7 600.799 23.1235  -2
  -4  -2   7 600.799 23.1235   1
   4   2  -6 19962.5 90.7755   1
   4  -2  -6 22417.9 73.6027  -2
  -4  -2   6 22417.9 73.6027   1
  -4   2   5 26624.0 69.6604   1
  -4  -2   5 32377.0 76.3662  -2
   4  -2  -5 32377.0 76.3662   1
  -4   2   4 1470.33 32.0378   1
  -4   2   4 1750.64 28.1945  -2
   4   2  -4 1750.64 28.1945   1
  -4   2   3 14914.7 66.1714   1
   4  -2  -3 18262.6 59.9075  -2
  -4  -2   3 18262.6 59.9075   1
   4   2  -2 46348.7 104.866   1
  -4  -2   2 57307.8 167.770  -2
   4  -2  -2 57307.8 167.770   1
   4   2  -1 62539.6 120.837   1
   4  -2  -1 74895.3 131.527  -2
  -4  -2   1 74895.3 131.527   1
   4   2   0 46084.8 106.891   1
  -4  -2   0 55028.2 113.759  -2
   4  -2   0 55028.2 113.759   1
   4   2   1 9541.72 74.9427   1
  -4  -2  -1 11091.2 45.4923  -2
   4  -2   1 11091.2 45.4923   1
   4   2   2 4561.73 29.4747   1
   4  -2   2 5481.30 78.5681  -2
  -4  -2  -2 5481.30 78.5681   1
  -4   2  -3 101.941 15.9086   1
  -4   2  -3 73.9138 42.6384  -2
   4   2   3 73.9138 42.6384   1
   4  -2   4 6531.74 51.9559   1
   4  -2   5 1623.36 11.8796   1
   4  -2   6 10192.2 68.9406   1
  -4   2  -7 793.086 32.3144   1
   4  -2   8 536.458 43.0260   1
   4  -2   9 14382.3 126.622   1
   4  -2  10 1106.69 52.2086   1
   4  -2  11 6008.83 96.6576   1
   4  -2  12 2156.87 35.6227   1
  -4  -2 -13 5321.13 49.2012   1
  -4   2 -14 4904.16 61.4654   1
  -4   2 -15 123.374 27.8729   1
   4   2  16 799.017 31.3400   1
  -4   2 -17 1263.55 38.1134   1
  -4   2 -18 136.607 29.1821   1
  -4  -2 -19 628.337 30.7856   1
  -4   2 -20 21.7533 25.2198   1
  -4   2 -21 166.915 22.8618   1
  -4   2 -22 128.118 19.7808   1
  -4  -2 -23 42.2132 23.6593   1
   4  -3 -25-4.49382 22.8315   1
   4  -3 -24-6.59090 29.7058   1
  -5  -3  23 185.396 26.4245  -2
   4  -3 -23 185.396 26.4245   1
   5  -3 -22 124.895 29.6748  -2
  -4  -3  22 124.895 29.6748   1
  -5  -3  21 286.220 32.1867  -2
   4  -3 -21 286.220 32.1867   1
   5  -3 -20 39.3605 32.7725  -2
  -4  -3  20 39.3605 32.7725   1
  -4   3  19 52.6968 30.5739   1
   5  -3 -19 317.299 45.0211  -2
  -4  -3  19 317.299 45.0211   1
  -4  -3  18 242.297 37.4119   1
   5  -3 -18 411.147 45.1993  -2
  -4  -3  18 411.147 45.1993   1
  -4  -3  17-11.9978 25.7645   1
  -4   3  16 381.728 26.5256   1
  -5  -3  16 825.558 72.3832  -2
   4  -3 -16 825.558 72.3832   1
  -4   3  15 47.3943 21.1578   1
  -5  -3  15 2384.75 88.6447  -2
   4  -3 -15 2384.75 88.6447   1
  -4   3  14 1685.23 24.4653   1
   4  -3 -13 554.846 31.4085   1
   4   3 -12 50.6418 20.3782   1
   4   3 -11 77.4654 20.3515   1
   4  -3 -10 520.293 22.7216   1
  -4   3   9 822.918 23.4458   1
   4  -3  -8 2082.94 31.0966   1
  -4  -3   7 11.3751 16.9890   1
   4  -3  -6 4.41245 5.83134   1
  -4   3   5 546.011 17.8712   1
  -4   3   5 655.824 59.3148  -2
   4   3  -5 655.824 59.3148   1
  -4  -3   4 3614.52 29.8539   1
  -4   3   4 4515.77 49.1391  -2
   4   3  -4 4515.77 49.1391   1
  -4  -3   3 250.822 12.6487   1
  -4  -3   3 348.581 24.6355  -2
   4  -3  -3 348.581 24.6355   1
  -4   3   2 200.626 14.0401   1
  -4  -3   2 237.774 18.4730  -2
   4  -3  -2 237.774 18.4730   1
   4   3  -1 4903.99 57.4967   1
   4   3  -1 6183.65 47.5307  -2
  -4   3   1 6183.65 47.5307   1
   4  -3   0 323.713 26.3479   1
   4   3   0 439.990 30.6384  -2
  -4   3   0 439.990 30.6384   1
   4  -3   1 1540.86 30.5580   1
   4   3   1 2017.01 36.9394  -2
  -4   3  -1 2017.01 36.9394   1
   4  -3   2 4770.25 34.2694   1
   4   3   2 6005.93 73.0956  -2
  -4   3  -2 6005.93 73.0956   1
  -4   3  -3 607.160 37.9446   1
  -4   3  -3 832.699 49.2398  -2
   4   3   3 832.699 49.2398   1
   4  -3   4 643.293 27.9342   1
  -4   3  -4 746.085 50.4487  -2
   4   3   4 746.085 50.4487   1
  -4   3  -5 15.7059 24.8235   1
  -4   3  -5 42.0615 52.3948  -2
   4   3   5 42.0615 52.3948   1
   4  -3   6 1779.75 40.0611   1
   4  -3   7 381.624 24.9990   1
   4   3   8 475.140 34.3001   1
   4   3   9 6409.05 71.2090   1
   4   3  10 609.402 38.6517   1
   4  -3  11 20.1968 22.1724   1
  -4   3 -12 7.22637 17.1880   1
   4   3  13 572.943 21.0733   1
   4   3  14 2053.57 35.9184   1
  -4  -3 -15 516.353 28.9738   1
  -4   3 -16 463.019 32.3717   1
  -4  -3 -17 1.35083 28.0657   1
  -4  -3 -18 41.7632 28.1431   1
  -4  -3 -19 205.959 27.6909   1
  -4   3 -20 52.8161 24.1046   1
  -4  -3 -21 4.10256 34.7971   1
  -4  -3 -22 435.398 32.5351   1
  -4  -3 -23-8.19304 22.3292   1
   4  -4 -25 136.069 23.5423   1
   4  -4 -24 14.1821 28.6856   1
   5  -4 -24 51.5682 29.5068  -2
  -4  -4  24 51.5682 29.5068   1
  -5  -4  23 524.422 27.5425  -2
   4  -4 -23 524.422 27.5425   1
  -5  -4  22 44.2935 28.5267  -2
   4  -4 -22 44.2935 28.5267   1
   5  -4 -21 297.655 31.5092  -2
  -4  -4  21 297.655 31.5092   1
   4  -4 -20 39.9388 42.1393   1
   5  -4 -20 6.36263 41.3192  -2
  -4  -4  20 6.36263 41.3192   1
   4  -4 -19 1389.70 53.8150   1
   5  -4 -19 1511.53 52.0568  -2
  -4  -4  19 1511.53 52.0568   1
  -4   4  18 299.828 44.7831   1
   5  -4 -18 308.721 44.3657  -2
  -4  -4  18 308.721 44.3657   1
  -4   4  17 104.982 26.4643   1
  -5  -4  17 90.2751 73.7542  -2
   4  -4 -17 90.2751 73.7542   1
  -4   4  16 375.358 26.7143   1
  -5  -4  16 302.402 72.5508  -2
   4  -4 -16 302.402 72.5508   1
  -4  -4  15 7445.01 50.3766   1
  -5  -4  15 6908.22 126.656  -2
   4  -4 -15 6908.22 126.656   1
  -4   4  14 4605.36 44.0630   1
  -4   4  13 825.106 23.2778   1
   4  -4 -12 2821.64 43.6664   1
  -4   4  11 18657.8 106.262   1
   4   4 -10 3568.66 43.7282   1
  -4   4   9 1546.59 26.9836   1
   4   4  -8 30.4741 23.7811   1
  -4   4   7 779.055 24.2976   1
   4  -4  -6 1530.89 25.6796   1
  -4  -4   5 166.357 27.5395   1
  -4   4   5 190.308 61.9363  -2
   4   4  -5 190.308 61.9363   1
   4  -4  -4 16.8949 15.4429   1
  -4   4   4 32.0147 53.9055  -2
   4   4  -4 32.0147 53.9055   1
  -4   4   3 636.220 44.3453   1
  -4   4   3 789.846 35.2882  -2
   4   4  -3 789.846 35.2882   1
   4   4  -2 6210.82 71.8229   1
  -4  -4   2 7434.84 37.5221  -2
   4  -4  -2 7434.84 37.5221   1
  -4   4   1 5887.38 72.9634   1
  -4  -4   1 7032.30 51.7153  -2
   4  -4  -1 7032.30 51.7153   1
   4  -4   0 5600.32 57.9053   1
   4  -4   0 6424.29 54.2667  -2
  -4  -4   0 6424.29 54.2667   1
   4  -4   1 677.068 22.4130   1
  -4   4  -1 815.737 47.7731  -2
   4   4   1 815.737 47.7731   1
   4  -4   2 17878.6 62.3666   1
  -4   4  -2 21203.3 131.486  -2
   4   4   2 21203.3 131.486   1
  -4   4  -3 4015.35 24.8399   1
  -4   4  -3 5827.94 83.2164  -2
   4   4   3 5827.94 83.2164   1
  -4   4  -4 6865.16 59.0271   1
  -4   4  -4 8838.70 103.459  -2
   4   4   4 8838.70 103.459   1
  -4   4  -5 1019.32 33.7336   1
  -4   4  -5 1322.96 60.4281  -2
   4   4   5 1322.96 60.4281   1
  -4   4  -6 327.300 28.5277   1
  -4   4  -6 335.186 57.8982  -2
   4   4   6 335.186 57.8982   1
   4   4   7 3259.61 49.3110   1
   4   4   8 1939.01 46.4047   1
   4   4   9 215.461 34.6554   1
   4  -4  10 3278.04 59.3372   1
   4   4  11 26.2193 18.3570   1
   4  -4  12 115.677 18.0368   1
  -4   4 -13 39.5475 18.3634   1
   4   4  14 17.8044 18.9551   1
  -4  -4 -15 57.3774 25.1060   1
  -4   4 -16 4.12528 27.4465   1
  -4  -4 -17 418.369 30.6357   1
  -4   4 -18 25.9116 26.0353   1
  -4  -4 -19 169.284 42.0392   1
  -4  -4 -20 156.172 38.0079   1
  -4  -4 -21 61.0903 34.2345   1
  -4  -4 -22 32.2409 28.2059   1
  -4  -4 -23 202.006 22.9402   1
   4  -5 -25 19.8967 20.7988   1
   4  -5 -24 44.7856 27.8825   1
   5  -5 -24 130.558 28.0079  -2
  -4  -5  24 130.558 28.0079   1
   4  -5 -23 76.3307 34.4889   1
   5  -5 -23 118.366 32.9410  -2
  -4  -5  23 118.366 32.9410   1
   4  -5 -22 23.0312 35.6053   1
   5  -5 -22 1.59874 36.1063  -2
  -4  -5  22 1.59874 36.1063   1
   4  -5 -21 72.0463 41.5948   1
   5  -5 -21 58.6273 39.4519  -2
  -4  -5  21 58.6273 39.4519   1
   4  -5 -20 4.52896 41.2418   1
   5  -5 -20 202.278 43.3922  -2
  -4  -5  20 202.278 43.3922   1
   4  -5 -19 101.769 45.0684   1
   5  -5 -19 778.122 48.4729  -2
  -4  -5  19 778.122 48.4729   1
   5  -5 -18 62.6202 42.7991  -2
  -4  -5  18 62.6202 42.7991   1
  -4   5  17 139.289 37.6794   1
   5  -5 -17 173.861 37.9615  -2
  -4  -5  17 173.861 37.9615   1
  -4  -5  16 75.4059 25.2759   1
  -5  -5  16 232.733 72.0507  -2
   4  -5 -16 232.733 72.0507   1
  -4  -5  15 199.307 24.7207   1
  -5  -5  15 181.430 72.7213  -2
   4  -5 -15 181.430 72.7213   1
  -4  -5  14 98.6443 20.7272   1
  -4   5  13 388.585 18.8456   1
  -4  -5  12 5.65080 18.0567   1
   4  -5 -11 1.11559 24.8593   1
  -4  -5  10 7.47228 18.9281   1
  -4   5   9 250.608 20.7705   1
   4  -5  -8 67.1618 19.4838   1
  -4   5   7 172.547 22.5080   1
   4  -5  -6 24.6316 19.3812   1
   4  -5  -5 1124.09 24.0504   1
  -4   5   4 1231.83 25.2226   1
   4  -5  -4 1577.46 43.4208  -2
  -4  -5   4 1577.46 43.4208   1
  -4   5   3 1509.11 29.1316   1
   4  -5  -3 1934.09 40.8830  -2
  -4  -5   3 1934.09 40.8830   1
   4  -5  -2 547.917 39.7741   1
   4  -5  -2 704.232 24.2700  -2
  -4  -5   2 704.232 24.2700   1
   4  -5  -1 58.5896 31.8748   1
   4  -5  -1 55.7952 19.1635  -2
  -4  -5   1 55.7952 19.1635   1
   4  -5   0 1062.77 36.8038   1
  -4   5   0 1359.95 24.9856  -2
   4   5   0 1359.95 24.9856   1
   4  -5   1 41.1302 20.0073   1
  -4   5  -1 52.3914 45.2142  -2
   4   5   1 52.3914 45.2142   1
  -4   5  -2 909.974 44.1819   1
  -4   5  -2 1024.87 57.8019  -2
   4   5   2 1024.87 57.8019   1
  -4   5  -3 280.763 36.5982   1
  -4   5  -3 300.638 52.6567  -2
   4   5   3 300.638 52.6567   1
   4  -5   4 2401.12 41.9061   1
  -4   5  -4 3149.89 78.8274  -2
   4   5   4 3149.89 78.8274   1
  -4   5  -5 1322.38 36.9710   1
  -4   5  -5 1666.88 66.9650  -2
   4   5   5 1666.88 66.9650   1
  -4   5  -6 1865.50 40.8987   1
  -4   5  -6 2389.98 75.9248  -2
   4   5   6 2389.98 75.9248   1
  -4   5  -7 427.194 30.9649   1
  -4   5  -7 640.919 64.6649  -2
   4   5   7 640.919 64.6649   1
   4   5   8 4901.48 51.1151   1
   4  -5   9 107.491 33.8846   1
   4   5  10 279.344 24.6469   1
   4   5  11 628.268 22.2764   1
   4   5  12 28.3430 20.6779   1
  -4  -5 -13 964.759 27.0125   1
   4   5  14 787.705 34.3314   1
  -4   5 -15 13.7115 25.4061   1
  -4  -5 -16-4.68774 42.1488   1
  -4  -5 -17 72.0193 41.8109   1
  -4  -5 -18 1108.73 51.3397   1
  -4  -5 -19 14.7502 38.5784   1
  -4  -5 -20 12.6457 35.9939   1
  -4  -5 -21 40.3470 32.0159   1
  -4  -5 -22 83.3675 27.0987   1
   4  -6 -24 42.5777 25.6391   1
   4  -6 -23 112.486 32.2052   1
   5  -6 -23 163.125 31.3825  -2
  -4  -6  23 163.125 31.3825   1
   4  -6 -22 166.405 36.1886   1
   5  -6 -22 188.644 36.0785  -2
  -4  -6  22 188.644 36.0785   1
   4  -6 -21 7.58813 38.8122   1
   5  -6 -21-14.1766 38.6700  -2
  -4  -6  21-14.1766 38.6700   1
   4  -6 -20 48.5102 41.4697   1
   5  -6 -20 46.7225 40.9839  -2
  -4  -6  20 46.7225 40.9839   1
   4  -6 -19 26.7470 42.4927   1
   5  -6 -19 83.1652 43.4763  -2
  -4  -6  19 83.1652 43.4763   1
   4  -6 -18 612.036 47.9379   1
   5  -6 -18 593.420 46.4174  -2
  -4  -6  18 593.420 46.4174   1
   5  -6 -17 673.744 46.0282  -2
  -4  -6  17 673.744 46.0282   1
  -4  -6  16 95.8455 31.7864   1
  -5  -6  16 267.880 76.9800  -2
   4  -6 -16 267.880 76.9800   1
  -4  -6  15 165.641 25.1131   1
  -5  -6  15 232.875 75.2008  -2
   4  -6 -15 232.875 75.2008   1
  -4   6  14 3418.52 45.2368   1
   4  -6 -13 285.991 20.9302   1
   4  -6 -12-0.44908 21.0828   1
   4  -6 -11 40.5996 26.0079   1
   4  -6 -10 690.133 29.2930   1
   4   6  -9 66.6954 20.0401   1
  -4   6   8 63.4348 22.2425   1
  -4   6   7 1915.99 46.4397   1
  -4   6   6 2330.36 40.1778   1
  -4   6   6 2883.22 94.8580  -2
   4   6  -6 2883.22 94.8580   1
   4  -6  -5 3983.40 45.4509   1
  -4   6   5 4682.43 63.7298  -2
   4   6  -5 4682.43 63.7298   1
   4  -6  -4 2155.45 35.7857   1
  -4   6   4 2530.72 47.0239  -2
   4   6  -4 2530.72 47.0239   1
   4  -6  -3 2756.33 63.2267   1
  -4   6   3 3413.92 34.0394  -2
   4   6  -3 3413.92 34.0394   1
   4  -6  -2 2290.08 54.7390   1
   4   6  -2 2749.19 34.0623  -2
  -4   6   2 2749.19 34.0623   1
   4  -6  -1 2432.01 52.1101   1
   4   6  -1 2960.52 35.5609  -2
  -4   6   1 2960.52 35.5609   1
   4  -6   0 1127.91 39.3231   1
   4  -6   0 1357.34 25.9504  -2
  -4  -6   0 1357.34 25.9504   1
   4  -6   1 153.541 27.7766   1
  -4   6  -1 175.628 34.4854  -2
   4   6   1 175.628 34.4854   1
   4  -6   2 7042.00 48.1274   1
  -4   6  -2 8816.81 113.388  -2
   4   6   2 8816.81 113.388   1
  -4   6  -3 256.545 37.9862   1
  -4   6  -3 286.975 56.8012  -2
   4   6   3 286.975 56.8012   1
   4  -6   4 8.70460 27.5705   1
  -4   6  -4-16.6113 54.6644  -2
   4   6   4-16.6113 54.6644   1
  -4   6  -5 9778.87 75.2906   1
  -4   6  -5 12484.8 137.803  -2
   4   6   5 12484.8 137.803   1
   4  -6   6 14441.5 92.0514   1
  -4   6  -6 18065.8 162.451  -2
   4   6   6 18065.8 162.451   1
  -4   6  -7 658.366 32.4707   1
  -4   6  -7 817.947 68.0469  -2
   4   6   7 817.947 68.0469   1
   4   6   8 1209.04 44.7299   1
   4   6   9 1056.08 45.1797   1
   4  -6  10 1533.20 31.3156   1
   4  -6  10 1864.48 48.1375  -2
  -4  -6 -10 1864.48 48.1375   1
  -4  -6 -11 15.4120 20.0530   1
  -4  -6 -12 64.8634 21.2817   1
   4   6  13 158.744 23.4575   1
  -4  -6 -14 585.756 27.1204   1
  -4   6 -15-12.8344 27.5599   1
  -4  -6 -16 47.5150 42.0426   1
  -4  -6 -17 65.1355 40.8894   1
  -4  -6 -18 291.110 42.5879   1
  -4  -6 -19 15.2919 36.7599   1
  -4  -6 -20 16.8502 33.2643   1
  -4  -6 -21-12.4285 28.4595   1
  -4  -6 -22 100.253 24.2577   1
   4  -7 -24 12.3110 22.3408   1
   4  -7 -23 107.103 29.3330   1
   5  -7 -23 208.577 29.0565  -2
  -4  -7  23 208.577 29.0565   1
   4  -7 -22 16.3847 32.5664   1
   5  -7 -22 50.9223 33.1216  -2
  -4  -7  22 50.9223 33.1216   1
   4  -7 -21 68.4132 37.9076   1
   5  -7 -21 114.506 37.6366  -2
  -4  -7  21 114.506 37.6366   1
   4  -7 -20-16.8151 38.8894   1
   5  -7 -20 3.30626 40.2946  -2
  -4  -7  20 3.30626 40.2946   1
   4  -7 -19 141.278 43.3639   1
   5  -7 -19 272.635 43.7132  -2
  -4  -7  19 272.635 43.7132   1
   4  -7 -18 41.8706 41.4244   1
   5  -7 -18 26.8105 42.6256  -2
  -4  -7  18 26.8105 42.6256   1
   5  -7 -17 1076.67 49.9356  -2
  -4  -7  17 1076.67 49.9356   1
  -4  -7  16 291.973 33.9463   1
  -5  -7  16 760.050 85.3870  -2
   4  -7 -16 760.050 85.3870   1
  -4  -7  15 146.479 27.8538   1
  -4   7  14 100.510 22.5759   1
  -4   7  13 157.061 21.6289   1
   4  -7 -12 621.248 22.8728   1
  -4  -7  11 303.829 22.9046   1
  -4  -7  10 182.048 26.1857   1
   4  -7  -9 14.7461 24.5344   1
  -4   7   8 776.072 29.4805   1
  -4   7   7 4153.35 53.7704   1
   4  -7  -6 622.570 23.6778   1
  -4  -7   5 196.363 22.6095   1
  -4   7   5 213.305 79.4765  -2
   4   7  -5 213.305 79.4765   1
   4  -7  -4 216.793 43.4920   1
   4   7  -4 279.404 27.0043  -2
  -4   7   4 279.404 27.0043   1
   4  -7  -3 2706.80 64.9528   1
   4   7  -3 3430.01 51.9389  -2
  -4   7   3 3430.01 51.9389   1
   4  -7  -2 2428.53 61.1609   1
   4   7  -2 3216.55 39.1306  -2
  -4   7   2 3216.55 39.1306   1
   4  -7  -1 6112.98 79.5654   1
   4   7  -1 7361.44 60.3833  -2
  -4   7   1 7361.44 60.3833   1
   4  -7   0 127.810 32.8917   1
  -4   7   0 262.490 21.9609  -2
   4   7   0 262.490 21.9609   1
  -4   7  -1 0.51390 22.8394   1
  -4   7  -1 17.6168 52.9661  -2
   4   7   1 17.6168 52.9661   1
  -4   7  -2 426.554 43.1371   1
  -4   7  -2 595.714 59.8700  -2
   4   7   2 595.714 59.8700   1
  -4   7  -3 214.467 27.7783   1
  -4   7  -3 289.922 57.6224  -2
   4   7   3 289.922 57.6224   1
   4  -7   4 801.845 32.6672   1
  -4   7  -4 1035.20 69.2491  -2
   4   7   4 1035.20 69.2491   1
  -4   7  -5 1152.79 46.3279   1
  -4   7  -5 1492.06 53.8119  -2
   4   7   5 1492.06 53.8119   1
  -4   7  -6 1024.83 35.9470   1
  -4   7  -6 1427.37 74.2578  -2
   4   7   6 1427.37 74.2578   1
   4  -7   7 520.951 54.7005   1
  -4   7  -7 678.757 65.5157  -2
   4   7   7 678.757 65.5157   1
   4   7   8 216.730 24.7427   1
   4   7   9 493.505 21.4228   1
   4  -7  10 147.380 25.4345   1
   4  -7  10 177.482 38.8634  -2
  -4  -7 -10 177.482 38.8634   1
   4   7  11 17.2619 20.9036   1
  -4   7 -12 23.0756 21.8940   1
   4   7  13 17.5722 22.5426   1
  -4  -7 -14 597.534 21.1773   1
  -4  -7 -15 8.89740 19.4091   1
  -4   7 -16 225.846 27.9529   1
  -4  -7 -17 19.7846 38.2116   1
  -4  -7 -18-1.88100 35.6207   1
  -4  -7 -19 5.64929 33.4187   1
  -4  -7 -20-4.52975 29.8842   1
  -4  -7 -21 34.9839 26.2741   1
   4  -8 -23 280.715 27.0028   1
   5  -8 -23 382.503 26.9973  -2
  -4  -8  23 382.503 26.9973   1
   4  -8 -22 155.144 30.9752   1
   5  -8 -22 194.805 32.7804  -2
  -4  -8  22 194.805 32.7804   1
   4  -8 -21 40.3107 33.2748   1
   5  -8 -21 78.1246 35.5820  -2
  -4  -8  21 78.1246 35.5820   1
   4  -8 -20 50.2576 36.5982   1
   5  -8 -20 116.138 39.7967  -2
  -4  -8  20 116.138 39.7967   1
   4  -8 -19 535.112 42.1861   1
   5  -8 -19 637.074 45.9446  -2
  -4  -8  19 637.074 45.9446   1
   4  -8 -18 495.104 43.7185   1
   5  -8 -18 572.246 46.3968  -2
  -4  -8  18 572.246 46.3968   1
   4  -8 -17 1167.12 49.5810   1
   5  -8 -17 1297.77 51.0570  -2
  -4  -8  17 1297.77 51.0570   1
  -4  -8  16 257.388 37.4806   1
  -4  -8  15 1370.28 39.5117   1
  -5  -8  15 1300.77 94.5832  -2
   4  -8 -15 1300.77 94.5832   1
  -4  -8  14 3097.45 42.1439   1
   4  -8 -13 263.484 18.3694   1
  -4  -8  12 246.284 17.2818   1
   4  -8 -11 4214.52 45.2589   1
   4  -8 -10 1382.75 36.5550   1
  -4  -8   9 13.6612 35.5017   1
  -4   8   9 13.2488 46.3146  -2
   4   8  -9 13.2488 46.3146   1
  -4   8   8 2015.38 38.7753   1
  -4   8   7 2490.90 52.9603   1
   4  -8  -6 979.410 40.1693   1
   4   8  -6 1355.14 56.9686  -2
  -4   8   6 1355.14 56.9686   1
   4  -8  -5 41.2381 28.9364   1
   4   8  -5 85.0202 34.1750  -2
  -4   8   5 85.0202 34.1750   1
   4  -8  -4 9273.69 116.541   1
   4   8  -4 11946.9 69.6582  -2
  -4   8   4 11946.9 69.6582   1
   4  -8  -3 7237.74 99.5861   1
   4   8  -3 9559.37 81.3426  -2
  -4   8   3 9559.37 81.3426   1
   4  -8  -2 13108.0 90.0326   1
   4   8  -2 16778.0 80.5128  -2
  -4   8   2 16778.0 80.5128   1
   4  -8  -1 3517.77 50.7838   1
   4  -8  -1 4501.88 47.9482  -2
  -4  -8   1 4501.88 47.9482   1
   4  -8   0 2216.86 40.8218   1
   4   8   0 2679.46 61.5501  -2
  -4   8   0 2679.46 61.5501   1
  -4   8  -1 108.352 37.8302   1
  -4   8  -1 176.394 58.7656  -2
   4   8   1 176.394 58.7656   1
   4  -8   2 5543.37 64.7436   1
  -4   8  -2 6759.96 129.593  -2
   4   8   2 6759.96 129.593   1
  -4   8  -3 1808.95 43.0407   1
  -4   8  -3 2218.03 85.8242  -2
   4   8   3 2218.03 85.8242   1
  -4   8  -4 315.373 28.8256   1
  -4   8  -4 393.587 64.0513  -2
   4   8   4 393.587 64.0513   1
  -4   8  -5 4326.36 57.1809   1
  -4   8  -5 5602.84 117.181  -2
   4   8   5 5602.84 117.181   1
  -4   8  -6 1321.46 57.8795  -2
   4   8   6 1321.46 57.8795   1
  -4   8  -7 2222.66 39.5084   1
  -4   8  -7 2683.32 94.2837  -2
   4   8   7 2683.32 94.2837   1
  -4   8  -8-2.93725 18.8389   1
   4  -8   9 83.6812 26.6661   1
   4  -8   9 15.3243 42.4977  -2
  -4  -8  -9 15.3243 42.4977   1
   4  -8  10 2203.26 30.8482   1
   4  -8  11 40.3084 27.7567   1
   4  -8  11 20.4085 41.2680  -2
  -4  -8 -11 20.4085 41.2680   1
   4  -8  12 32.4729 29.5585   1
   4  -8  12 19.7539 43.0283  -2
  -4  -8 -12 19.7539 43.0283   1
  -4  -8 -13 542.431 26.4505   1
  -4  -8 -14 1938.26 27.6663   1
  -4   8 -15 88.7239 19.8117   1
  -4  -8 -16 75.6238 18.6052   1
  -4  -8 -17 20.5371 36.8771   1
  -4  -8 -18 75.9291 34.5095   1
  -4  -8 -19 50.1465 31.0642   1
  -4  -8 -20 89.4180 27.3768   1
  -4  -8 -21-0.75740 21.0609   1
   4  -9 -23-3.64011 19.9227   1
   4  -9 -22 3.09464 25.6670   1
   5  -9 -22 12.7631 28.3413  -2
  -4  -9  22 12.7631 28.3413   1
   4  -9 -21 25.9637 30.1801   1
   5  -9 -21 29.7652 33.2562  -2
  -4  -9  21 29.7652 33.2562   1
   4  -9 -20 69.3798 33.8064   1
   5  -9 -20 105.217 37.4788  -2
  -4  -9  20 105.217 37.4788   1
   4  -9 -19 91.3222 36.5808   1
   5  -9 -19 338.318 41.1400  -2
  -4  -9  19 338.318 41.1400   1
   4  -9 -18 74.8323 37.0876   1
   5  -9 -18 190.268 43.2738  -2
  -4  -9  18 190.268 43.2738   1
   4  -9 -17 383.014 41.2598   1
   5  -9 -17 447.727 44.7699  -2
  -4  -9  17 447.727 44.7699   1
   4  -9 -16 142.954 39.7581   1
   5  -9 -16 193.689 44.5151  -2
  -4  -9  16 193.689 44.5151   1
  -4  -9  15 142.316 37.1157   1
   4  -9 -14-3.32441 20.4156   1
   4  -9 -13 18.4926 20.1822   1
  -5   9  13 111.528 58.5456  -2
   4   9 -13 111.528 58.5456   1
   4  -9 -12 12.2279 19.1428   1
  -4  -9  11 142.290 19.1545   1
   4  -9 -10 57.5942 16.8020   1
   4  -9  -9 547.874 22.4731   1
  -4   9   9 695.720 52.2020  -2
   4   9  -9 695.720 52.2020   1
   4  -9  -8 911.462 45.0526   1
  -4   9   8 1094.81 53.2747  -2
   4   9  -8 1094.81 53.2747   1
  -4   9   7 912.153 32.1230   1
   4  -9  -6 607.886 29.5835   1
   4   9  -6 765.484 70.6834  -2
  -4   9   6 765.484 70.6834   1
   4  -9  -5 1240.39 41.4670   1
   4   9  -5 1504.02 49.4965  -2
  -4   9   5 1504.02 49.4965   1
   4  -9  -4 819.618 55.8542   1
  -4   9   4 1104.80 41.5529  -2
   4   9  -4 1104.80 41.5529   1
   4  -9  -3 25.8856 42.5720   1
   4  -9  -3 15.9275 27.7996  -2
  -4  -9   3 15.9275 27.7996   1
   4  -9  -2 6638.94 96.7520   1
   4  -9  -2 8900.73 57.7480  -2
  -4  -9   2 8900.73 57.7480   1
   4  -9  -1 1028.62 36.8397   1
   4   9  -1 1429.46 55.2745  -2
  -4   9   1 1429.46 55.2745   1
  -4   9   0 38.0181 38.1993   1
  -4   9   0 40.5072 62.6867  -2
   4   9   0 40.5072 62.6867   1
  -4   9  -1 455.007 42.6392   1
  -4   9  -1 615.510 73.5895  -2
   4   9   1 615.510 73.5895   1
   4  -9   2 899.520 38.3107   1
  -4   9  -2 1185.90 81.4723  -2
   4   9   2 1185.90 81.4723   1
  -4   9  -3 522.831 33.1369   1
  -4   9  -3 657.606 71.7277  -2
   4   9   3 657.606 71.7277   1
   4  -9   4 56.7844 48.7161   1
  -4   9  -4 148.123 62.9660  -2
   4   9   4 148.123 62.9660   1
  -4   9  -5-9.30304 26.8748   1
  -4   9  -5 25.6817 64.3968  -2
   4   9   5 25.6817 64.3968   1
  -4   9  -6 2290.69 35.4606   1
  -4   9  -6 2753.09 51.3248  -2
   4   9   6 2753.09 51.3248   1
  -4   9  -7 107.879 19.6516   1
  -4   9  -7 98.1483 35.6329  -2
   4   9   7 98.1483 35.6329   1
  -4   9  -8 23.9983 19.6202   1
  -4   9  -8 10.1536 33.8444  -2
   4   9   8 10.1536 33.8444   1
   4   9   9 802.073 24.2715   1
  -4   9 -10 2072.74 30.3265   1
   4  -9  11 191.387 31.4615   1
   4  -9  11 225.389 40.0119  -2
  -4  -9 -11 225.389 40.0119   1
   4   9  12 163.052 31.4637   1
   4  -9  12 193.247 43.2758  -2
  -4  -9 -12 193.247 43.2758   1
  -4   9 -13 360.290 30.3598   1
  -4   9 -14 209.273 21.2229   1
   4  -9  15 254.084 20.2822   1
  -4  -9 -16 7.38606 17.8416   1
  -4  -9 -17 79.5744 23.9472   1
  -4  -9 -18 12.5691 30.1912   1
  -4  -9 -19 24.0122 27.1488   1
  -4  -9 -20 43.8869 21.8648   1
   4 -10 -22 20.2581 19.8073   1
   5 -10 -22 16.0702 23.9217  -2
  -4 -10  22 16.0702 23.9217   1
   4 -10 -21 33.4506 24.7275   1
   5 -10 -21 82.5675 30.0076  -2
  -4 -10  21 82.5675 30.0076   1
   4 -10 -20 26.5729 30.0178   1
   5 -10 -20 36.4447 34.2567  -2
  -4 -10  20 36.4447 34.2567   1
   4 -10 -19 284.540 33.9204   1
   5 -10 -19 381.843 39.2278  -2
  -4 -10  19 381.843 39.2278   1
   4 -10 -18-3.79602 34.2649   1
   5 -10 -18 71.8506 41.0252  -2
  -4 -10  18 71.8506 41.0252   1
   4 -10 -17 289.911 37.5538   1
   5 -10 -17 412.488 43.8700  -2
  -4 -10  17 412.488 43.8700   1
  -4 -10  16 230.536 26.4922   1
   4 -10 -15 1551.21 33.9330   1
   4 -10 -14 1527.72 30.7735   1
  -5  10  14 1694.73 68.1471  -2
   4  10 -14 1694.73 68.1471   1
   4 -10 -13 1890.82 30.2374   1
  -5  10  13 1698.32 68.6148  -2
   4  10 -13 1698.32 68.6148   1
  -4 -10  12 509.666 23.3505   1
  -4 -10  11 341.430 21.4374   1
   4 -10 -10 1603.56 24.1914   1
   4 -10  -9 2751.78 27.3420   1
  -4  10   9 3157.32 65.7237  -2
   4  10  -9 3157.32 65.7237   1
   4 -10  -8 305.842 17.5035   1
  -4  10   8 392.503 52.9522  -2
   4  10  -8 392.503 52.9522   1
  -4 -10   7 228.897 16.7275   1
   4 -10  -7 311.378 41.9354  -2
  -4 -10   7 311.378 41.9354   1
  -4  10   6 1471.13 24.8033   1
  -4 -10   6 1751.96 35.6801  -2
   4 -10  -6 1751.96 35.6801   1
  -4 -10   5 30.3181 18.3302   1
  -4  10   5 28.9797 18.9516  -2
   4  10  -5 28.9797 18.9516   1
   4 -10  -4 4129.31 59.2788   1
   4  10  -4 5179.35 35.1260  -2
  -4  10   4 5179.35 35.1260   1
   4 -10  -3 2740.35 76.2456   1
   4  10  -3 3522.00 41.5412  -2
  -4  10   3 3522.00 41.5412   1
  -4  10   2 184.732 47.6792   1
   4  10  -2 248.229 50.2965  -2
  -4  10   2 248.229 50.2965   1
  -4  10   1 73.6938 40.7780   1
   4  10  -1 107.937 48.1393  -2
  -4  10   1 107.937 48.1393   1
  -4  10   0 80.1548 40.0818   1
  -4  10   0 83.3982 33.2163  -2
   4  10   0 83.3982 33.2163   1
  -4  10  -1 1161.69 55.3142   1
   4  10   1 1590.85 29.9934  -2
  -4  10  -1 1590.85 29.9934   1
  -4  10  -2 1333.25 55.2634   1
   4 -10   2 1665.45 42.8823  -2
  -4 -10  -2 1665.45 42.8823   1
  -4  10  -3 3665.42 46.5045   1
  -4  10  -3 4138.02 63.1994  -2
   4  10   3 4138.02 63.1994   1
  -4  10  -4 432.138 23.1101   1
   4 -10   4 520.870 35.2064  -2
  -4 -10  -4 520.870 35.2064   1
  -4  10  -5 6351.85 52.9051   1
   4 -10   5 7635.23 78.3778  -2
  -4 -10  -5 7635.23 78.3778   1
   4 -10   6 264.739 21.5754   1
  -4  10  -6 366.389 41.3107  -2
   4  10   6 366.389 41.3107   1
  -4  10  -7 2033.98 30.7364   1
   4 -10   7 2476.87 52.9770  -2
  -4 -10  -7 2476.87 52.9770   1
   4 -10   8 309.613 22.6236   1
  -4  10  -8 331.422 39.7957  -2
   4  10   8 331.422 39.7957   1
  -4  10  -9 469.521 33.2522   1
   3  10  10 547.090 44.1013  -2
  -4  10  -9 547.090 44.1013   1
   4 -10   9 433.333 45.4943  -2
  -4 -10  -9 433.333 45.4943   1
   4 -10  10 39.2041 30.6935   1
   3  10  11 36.1129 40.1972  -2
  -4  10 -10 36.1129 40.1972   1
   4  10  11 637.221 34.7480   1
  -4  10 -12 146.921 45.9252   1
  -4  10 -13 1581.48 34.7870   1
   4 -10  14 62.1894 19.6871   1
  -4  10 -15 66.5320 18.4219   1
   4 -10  16 336.583 22.2697   1
  -4 -10 -17 5.83686 15.0290   1
  -4 -10 -18-1.02998 25.7514   1
  -4 -10 -19 12.8761 23.9108   1
   5 -11 -21-1.77282 25.0202  -2
  -4 -11  21-1.77282 25.0202   1
   4 -11 -20 3.93638 23.0550   1
   5 -11 -20 51.5735 30.5233  -2
  -4 -11  20 51.5735 30.5233   1
   4 -11 -19-9.10094 26.3493   1
   5 -11 -19 140.598 34.9114  -2
  -4 -11  19 140.598 34.9114   1
   4 -11 -18 54.5016 29.5687   1
   5 -11 -18 93.1136 38.6263  -2
  -4 -11  18 93.1136 38.6263   1
   4 -11 -17 68.9777 34.3339   1
   5 -11 -17 260.115 41.2954  -2
  -4 -11  17 260.115 41.2954   1
   4 -11 -16 367.266 25.1887   1
  -4 -11  15 60.4851 22.5081   1
  -4 -11  15 120.412 39.9508  -2
   4 -11 -15 120.412 39.9508   1
   4 -11 -14 42.1027 23.5742   1
  -4 -11  14 139.738 41.4619  -2
   4 -11 -14 139.738 41.4619   1
  -5  11  14 103.668 59.3514  -2
   4  11 -14 103.668 59.3514   1
   4 -11 -13 338.209 25.8818   1
  -4 -11  13 323.367 43.9577  -2
   4 -11 -13 323.367 43.9577   1
  -5  11  13 268.222 63.5902  -2
   4  11 -13 268.222 63.5902   1
   4 -11 -12 55.5460 22.8308   1
  -5  11  12 62.1437 64.0605  -2
   4  11 -12 62.1437 64.0605   1
   4 -11 -11 360.641 24.2199   1
  -4 -11  10 468.737 21.6491   1
   4  11 -10 482.513 89.3695  -2
  -4  11  10 482.513 89.3695   1
   4 -11  -9 55.5168 18.9703   1
   4  11  -9 80.9368 78.1849  -2
  -4  11   9 80.9368 78.1849   1
   4 -11  -8 35.9475 18.8228   1
   4  11  -8 67.0467 44.6635  -2
  -4  11   8 67.0467 44.6635   1
  -4  11   7 867.140 27.4166   1
  -4 -11   7 1101.36 33.5210  -2
   4 -11  -7 1101.36 33.5210   1
  -4 -11   6 101.988 22.8309   1
   4 -11  -6 128.602 24.7308  -2
  -4 -11   6 128.602 24.7308   1
  -4  11   5 21.4445 23.9622   1
   4 -11  -5 17.9398 19.8192  -2
  -4 -11   5 17.9398 19.8192   1
  -4  11   4 1071.65 68.4354   1
   4  11  -4 1587.63 27.7801  -2
  -4  11   4 1587.63 27.7801   1
  -4  11   3 634.572 58.8231   1
  -4  11   3 1031.11 23.3039  -2
   4  11  -3 1031.11 23.3039   1
  -4  11   2-2.38645 49.7695   1
  -4 -11   2 9.50945 17.3973  -2
   4 -11  -2 9.50945 17.3973   1
  -4  11   1 188.107 48.0137   1
  -4 -11   1 321.768 18.0038  -2
   4 -11  -1 321.768 18.0038   1
  -4  11   0 41.6231 42.6078   1
  -4 -11   0 93.6023 18.9806  -2
   4 -11   0 93.6023 18.9806   1
  -4  11  -1 268.012 35.5708   1
   4 -11   1 357.470 21.6843  -2
  -4 -11  -1 357.470 21.6843   1
   4 -11   2 42.4535 23.2346   1
  -4  11  -2 51.3689 24.5649  -2
   4  11   2 51.3689 24.5649   1
   4 -11   3 44.0535 19.6787   1
  -4  11  -3 100.470 38.0909  -2
   4  11   3 100.470 38.0909   1
  -4  11  -4 23.3232 21.1671   1
   4 -11   4 8.28196 40.1289  -2
  -4 -11  -4 8.28196 40.1289   1
  -4  11  -5 44.5742 23.0769   1
  -4  11  -5 60.0153 42.7020  -2
   4  11   5 60.0153 42.7020   1
  -4  11  -6 5393.59 62.8105   1
  -4  11  -6 6268.24 76.6330  -2
   4  11   6 6268.24 76.6330   1
  -4  11  -7 1780.00 31.7195   1
  -4  11  -7 2108.54 57.8175  -2
   4  11   7 2108.54 57.8175   1
  -4  11  -8 258.744 38.1499   1
   3  11   9 582.479 47.5112  -2
  -4  11  -8 582.479 47.5112   1
   4 -11   8 287.901 41.8604  -2
  -4 -11  -8 287.901 41.8604   1
  -4  11  -9 18.9271 22.0872   1
   4 -11   9 28.9818 36.7638  -2
  -4 -11  -9 28.9818 36.7638   1
  -4  11 -10 166.955 24.1055   1
   4 -11  10 175.456 40.7824  -2
  -4 -11 -10 175.456 40.7824   1
  -4  11 -11 13.2801 44.2893   1
  -4  11 -12 378.016 46.1862   1
  -4  11 -13 277.922 44.9006   1
   4 -11  14 63.0944 23.2392   1
   4 -11  15 393.305 23.4254   1
   4 -11  16 16.4367 19.5111   1
   4 -11  17 7.35702 16.1457   1
   5 -12 -20 54.9461 25.5432  -2
  -4 -12  20 54.9461 25.5432   1
   5 -12 -19 49.1139 30.1099  -2
  -4 -12  19 49.1139 30.1099   1
   5 -12 -18 617.121 37.8563  -2
  -4 -12  18 617.121 37.8563   1
   5 -12 -17 123.238 36.8575  -2
  -4 -12  17 123.238 36.8575   1
   5 -12 -16 88.6385 39.4483  -2
  -4 -12  16 88.6385 39.4483   1
   4 -12 -15 27.9562 21.8554   1
  -5  12  15 38.7613 54.5554  -2
   4  12 -15 38.7613 54.5554   1
   4 -12 -14 670.195 26.2567   1
  -5  12  14 606.490 60.0777  -2
   4  12 -14 606.490 60.0777   1
   4 -12 -13 369.915 25.8368   1
  -5  12  13 364.927 63.2125  -2
   4  12 -13 364.927 63.2125   1
  -4 -12  12 105.558 24.8908   1
  -5  12  12 173.171 64.1977  -2
   4  12 -12 173.171 64.1977   1
   4 -12 -11 467.051 27.4693   1
  -4 -12  10 5327.29 42.1759   1
   4 -12  -9 158.198 21.6103   1
  -4 -12   8 76.2220 20.5271   1
   4  12  -8 110.739 46.0873  -2
  -4  12   8 110.739 46.0873   1
   4 -12  -7 1483.44 29.4967   1
   4  12  -7 1746.74 54.1840  -2
  -4  12   7 1746.74 54.1840   1
  -4  12   6 1787.21 29.6094   1
   4  12  -6 2147.81 54.0284  -2
  -4  12   6 2147.81 54.0284   1
   4  12  -5 404.847 25.6476   1
  -4  12   5 572.195 36.2991  -2
   4  12  -5 572.195 36.2991   1
  -4  12   4 47.2033 52.3346   1
   4 -12  -4 139.692 19.3162  -2
  -4 -12   4 139.692 19.3162   1
  -4  12   3 269.993 55.1487   1
  -4  12   3 439.383 19.6145  -2
   4  12  -3 439.383 19.6145   1
  -4  12   2 1406.26 36.8136   1
   4  12  -2 2024.57 32.0245  -2
  -4  12   2 2024.57 32.0245   1
  -4  12   1 77.7708 45.9240   1
   4 -12  -1 166.608 18.9093  -2
  -4 -12   1 166.608 18.9093   1
  -4  12   0 105.120 35.4871   1
   4  12   0 143.379 19.7635  -2
  -4  12   0 143.379 19.7635   1
  -4  12  -1 16.7768 37.1927   1
   4  12   1 43.6553 23.1884  -2
  -4  12  -1 43.6553 23.1884   1
   4 -12   2 610.873 20.2870   1
   4 -12   2 728.197 48.3636  -2
  -4 -12  -2 728.197 48.3636   1
  -4  12  -3 168.824 22.6344   1
  -4  12  -3 177.743 44.7678  -2
   4  12   3 177.743 44.7678   1
  -4  12  -4 1847.45 38.8751   1
  -4  12  -4 2177.91 60.6274  -2
   4  12   4 2177.91 60.6274   1
  -4  12  -5 430.197 26.6119   1
  -4  12  -5 537.036 50.2351  -2
   4  12   5 537.036 50.2351   1
  -4  12  -6 5422.20 45.3763   1
   4 -12   6 6448.31 81.3762  -2
  -4 -12  -6 6448.31 81.3762   1
  -4  12  -7 282.511 35.7280   1
   3  12   8 380.989 48.2978  -2
  -4  12  -7 380.989 48.2978   1
   4 -12   7 403.709 46.2444  -2
  -4 -12  -7 403.709 46.2444   1
  -4  12  -8 213.945 47.2762   1
   3  12   9 236.921 45.1305  -2
  -4  12  -8 236.921 45.1305   1
   4 -12   8 222.348 46.7191  -2
  -4 -12  -8 222.348 46.7191   1
  -4  12  -9 1694.58 55.7813   1
   3  12  10 1634.91 50.4431  -2
  -4  12  -9 1634.91 50.4431   1
   4 -12   9 1865.06 58.2179  -2
  -4 -12  -9 1865.06 58.2179   1
  -4  12 -10 145.239 41.8691   1
   4 -12  10 132.765 41.6695  -2
  -4 -12 -10 132.765 41.6695   1
  -4  12 -11 371.903 44.9954   1
  -4  12 -12-20.3316 43.7942   1
  -4  12 -13 55.5153 40.6002   1
  -4  12 -14 617.294 25.2697   1
   4 -12  15 589.178 23.0427   1
  -4  12 -16 160.441 18.2932   1
   4 -12  17 49.3807 15.1107   1
   5 -13 -19 180.080 25.8311  -2
  -4 -13  19 180.080 25.8311   1
   5 -13 -18 225.751 30.2284  -2
  -4 -13  18 225.751 30.2284   1
   5 -13 -17 83.5713 33.0370  -2
  -4 -13  17 83.5713 33.0370   1
  -4 -13  16 41.8534 30.1011   1
   4 -13 -15 18.6991 20.4264   1
  -5  13  15 79.8825 50.2016  -2
   4  13 -15 79.8825 50.2016   1
   4 -13 -14 17.9628 22.2640   1
  -5  13  14 64.1442 56.8945  -2
   4  13 -14 64.1442 56.8945   1
   4 -13 -13 383.216 25.5317   1
  -5  13  13 548.106 62.4063  -2
   4  13 -13 548.106 62.4063   1
   4 -13 -12 136.292 24.6970   1
  -5  13  12 108.535 63.2192  -2
   4  13 -12 108.535 63.2192   1
   4 -13 -11 315.762 22.6462   1
   4 -13 -10 413.370 19.5583   1
   4 -13  -9 31.4383 21.6555   1
   4 -13  -8 427.277 22.0301   1
   4 -13  -7 55.9542 22.3437   1
   4 -13  -7 34.1259 37.4795  -2
  -4 -13   7 34.1259 37.4795   1
   4 -13  -6 520.323 25.9191   1
  -4  13   6 656.703 58.1310  -2
   4  13  -6 656.703 58.1310   1
  -4  13   5 274.234 26.6754   1
   4 -13  -5 401.376 31.0443  -2
  -4 -13   5 401.376 31.0443   1
  -4  13   4 198.402 68.0819   1
  -4  13   4 281.742 22.6009  -2
   4  13  -4 281.742 22.6009   1
  -4 -13   3 691.162 24.7683  -2
   4 -13  -3 691.162 24.7683   1
  -4  13   2 2532.54 51.1378   1
  -4 -13   2 3544.68 41.9826  -2
   4 -13  -2 3544.68 41.9826   1
  -4  13   1 607.017 40.9851   1
  -4  13   1 845.656 24.1093  -2
   4  13  -1 845.656 24.1093   1
  -4  13   0 507.453 43.4456   1
  -4  13   0 707.465 23.8626  -2
   4  13   0 707.465 23.8626   1
   4 -13   1 364.120 20.9942   1
  -4  13  -1 483.742 51.3214  -2
   4  13   1 483.742 51.3214   1
   4 -13   2 22.3687 19.3123   1
   4 -13   2 37.2194 42.2387  -2
  -4 -13  -2 37.2194 42.2387   1
  -4  13  -3 1307.29 38.0022   1
   4 -13   3 1516.69 58.4044  -2
  -4 -13  -3 1516.69 58.4044   1
  -4  13  -4 557.232 27.6780   1
   4 -13   4 734.472 53.5508  -2
  -4 -13  -4 734.472 53.5508   1
  -4  13  -5 245.773 26.8758   1
  -4  13  -5 280.922 49.3351  -2
   4  13   5 280.922 49.3351   1
  -4  13  -6 210.780 27.7761   1
   4 -13   6 268.878 54.6946  -2
  -4 -13  -6 268.878 54.6946   1
  -4  13  -7 1533.12 34.3909   1
   4 -13   7 1881.97 67.0505  -2
  -4 -13  -7 1881.97 67.0505   1
  -4  13  -8 4.27546 24.2785   1
   4 -13   8 27.3835 46.0835  -2
  -4 -13  -8 27.3835 46.0835   1
  -4  13  -9 326.127 48.7971   1
   3  13  10 471.467 43.2774  -2
  -4  13  -9 471.467 43.2774   1
   4 -13   9 390.735 47.8300  -2
  -4 -13  -9 390.735 47.8300   1
  -4  13 -10 133.207 46.2300   1
   4 -13  10 169.066 42.0993  -2
  -4 -13 -10 169.066 42.0993   1
  -4  13 -11 69.3955 44.4784   1
  -4  13 -12 72.0965 39.1820   1
   4 -13  13 385.853 24.3647   1
   4 -13  14 0.71043 20.6038   1
  -4  13 -15 40.4983 18.7938   1
   4 -13  16-6.68331 15.4899   1
   5 -14 -18 245.599 24.6732  -2
  -4 -14  18 245.599 24.6732   1
   5 -14 -17 63.9937 27.5593  -2
  -4 -14  17 63.9937 27.5593   1
  -4 -14  16 47.9003 25.8848   1
  -4 -14  15 50.4218 18.6684   1
  -5  14  15 112.733 45.7391  -2
   4  14 -15 112.733 45.7391   1
   4 -14 -14 1122.23 25.5139   1
  -5  14  14 938.618 55.3366  -2
   4  14 -14 938.618 55.3366   1
  -4 -14  13 276.310 23.3930   1
  -5  14  13 318.006 56.4425  -2
   4  14 -13 318.006 56.4425   1
  -4 -14  12 19.3584 23.0980   1
  -5  14  12 9.21089 54.3862  -2
   4  14 -12 9.21089 54.3862   1
  -4 -14  11 2.07827 20.2282   1
   4 -14 -10 1820.45 33.8127   1
   4 -14  -9 374.122 19.1530   1
   4 -14  -8 18.4936 17.5697   1
  -4  14   7 56.2227 23.1123   1
   4 -14  -7 89.6138 53.1577  -2
  -4 -14   7 89.6138 53.1577   1
   4 -14  -6 754.383 27.4949   1
  -4  14   6 924.136 55.4471  -2
   4  14  -6 924.136 55.4471   1
  -4  14   5-3.33294 22.8466   1
   4 -14  -5 1.53545 36.6408  -2
  -4 -14   5 1.53545 36.6408   1
   4  14  -4 261.158 24.1171  -2
  -4  14   4 261.158 24.1171   1
  -4 -14   3 587.887 25.9060  -2
   4 -14  -3 587.887 25.9060   1
  -4 -14   2 487.606 25.2133  -2
   4 -14  -2 487.606 25.2133   1
  -4  14   1 1237.20 45.8574   1
  -4  14   1 2006.51 34.8494  -2
   4  14  -1 2006.51 34.8494   1
  -4  14   0 194.713 23.6016   1
  -4  14   0 248.240 48.5163  -2
   4  14   0 248.240 48.5163   1
   4  14   1 451.242 65.4950  -2
  -4  14   0 451.242 65.4950   1
   4 -14   1 533.015 22.2290   1
   4 -14   1 646.310 57.8303  -2
  -4 -14  -1 646.310 57.8303   1
  -4  14  -2 1296.54 33.6074   1
   4 -14   2 1511.37 68.6809  -2
  -4 -14  -2 1511.37 68.6809   1
  -4  14  -3 2225.89 37.5580   1
   4 -14   3 2623.65 77.6899  -2
  -4 -14  -3 2623.65 77.6899   1
  -4  14  -4 18.0048 26.1840   1
   4 -14   4 34.6830 52.4862  -2
  -4 -14  -4 34.6830 52.4862   1
  -4  14  -5 401.682 28.0675   1
   4 -14   5 423.978 56.7789  -2
  -4 -14  -5 423.978 56.7789   1
  -4  14  -6 773.318 30.4232   1
   4 -14   6 923.717 59.0348  -2
  -4 -14  -6 923.717 59.0348   1
  -4  14  -7 119.092 46.3196   1
   3  14   8 66.3223 42.2670  -2
  -4  14  -7 66.3223 42.2670   1
   4 -14   7 114.196 47.4118  -2
  -4 -14  -7 114.196 47.4118   1
  -4  14  -8 838.878 48.3562   1
   3  14   9 929.465 47.5942  -2
  -4  14  -8 929.465 47.5942   1
   4 -14   8 1047.57 53.6212  -2
  -4 -14  -8 1047.57 53.6212   1
  -4  14  -9 233.537 45.8904   1
   4 -14   9 183.059 43.7732  -2
  -4 -14  -9 183.059 43.7732   1
  -4  14 -10 1079.04 50.2242   1
   4 -14  10 1114.41 48.4385  -2
  -4 -14 -10 1114.41 48.4385   1
  -4  14 -11-9.82598 41.4682   1
  -4  14 -12-0.27199 36.2023   1
  -4  14 -13 26.5969 20.0761   1
   4 -14  14 119.140 18.8597   1
   4 -14  15 2.09421 15.5973   1
   5 -15 -17 18.0485 20.6279  -2
  -4 -15  17 18.0485 20.6279   1
  -4 -15  16 74.6038 21.9206   1
  -4 -15  15 20.6883 15.7535   1
  -5  15  15 92.4990 39.5543  -2
   4  15 -15 92.4990 39.5543   1
   4 -15 -14 8.67289 17.9135   1
  -5  15  14 71.9125 45.7722  -2
   4  15 -14 71.9125 45.7722   1
  -4 -15  13-1.07878 19.5951   1
  -5  15  13 23.3667 50.1173  -2
   4  15 -13 23.3667 50.1173   1
   4 -15 -12 3.19027 20.7019   1
  -5  15  12 36.5613 54.4170  -2
   4  15 -12 36.5613 54.4170   1
  -4 -15  11 1.91234 21.7268   1
  -5  15  11 105.067 59.4799  -2
   4  15 -11 105.067 59.4799   1
   4  15 -10 46.0699 19.4971   1
   4 -15  -9 56.1199 14.9978   1
   4 -15  -8 25.0611 16.4174   1
  -4  15   7 96.7096 17.1365   1
   4 -15  -7 143.516 53.2257  -2
  -4 -15   7 143.516 53.2257   1
   4 -15  -6 204.074 23.0182   1
   4 -15  -6 222.788 54.3596  -2
  -4 -15   6 222.788 54.3596   1
   4 -15  -5 255.864 23.7597   1
   4 -15  -5 358.716 37.7358  -2
  -4 -15   5 358.716 37.7358   1
   4 -15  -4-8.04009 22.8087   1
  -4  15   4 14.6497 35.6900  -2
   4  15  -4 14.6497 35.6900   1
   4 -15  -3-2.75861 23.2686  -2
  -4 -15   3-2.75861 23.2686   1
   4 -15  -2 7.48114 23.0670   1
   4 -15  -2 14.1614 35.8229  -2
  -4 -15   2 14.1614 35.8229   1
   4 -15  -1-12.3933 23.6789   1
  -4  15   1 3.93246 33.1298  -2
   4  15  -1 3.93246 33.1298   1
   4  15   0 79.0255 57.8520  -2
  -4  15   1 79.0255 57.8520   1
  -4  15   0 68.2006 23.5186   1
  -4  15   0 68.2625 36.6025  -2
   4  15   0 68.2625 36.6025   1
   4  15   1 73.2841 60.7203  -2
  -4  15   0 73.2841 60.7203   1
   4 -15   1 84.7144 20.1433   1
   4 -15   1 142.398 35.9316  -2
  -4 -15  -1 142.398 35.9316   1
   4 -15   2 145.199 20.3560   1
   4 -15   2 179.119 56.2376  -2
  -4 -15  -2 179.119 56.2376   1
  -4  15  -3 270.971 27.2085   1
   4 -15   3 367.174 57.2559  -2
  -4 -15  -3 367.174 57.2559   1
  -4  15  -4 280.012 26.3169   1
   4 -15   4 320.444 53.6455  -2
  -4 -15  -4 320.444 53.6455   1
  -4  15  -5 196.104 25.9760   1
   4 -15   5 266.818 52.3897  -2
  -4 -15  -5 266.818 52.3897   1
  -4  15  -6 14.8306 40.0664   1
   3  15   7 176.458 44.4918  -2
  -4  15  -6 176.458 44.4918   1
   4 -15   6 17.9746 48.4626  -2
  -4 -15  -6 17.9746 48.4626   1
  -4  15  -7 1.11584 39.3470   1
   3  15   8 3.21443 37.6394  -2
  -4  15  -7 3.21443 37.6394   1
   4 -15   7 6.87420 44.1021  -2
  -4 -15  -7 6.87420 44.1021   1
  -4  15  -8 45.6259 41.2978   1
   3  15   9 76.0066 37.8270  -2
  -4  15  -8 76.0066 37.8270   1
   4 -15   8-9.75820 41.7156  -2
  -4 -15  -8-9.75820 41.7156   1
  -4  15  -9 69.4442 38.2741   1
   4 -15   9 101.295 41.6347  -2
  -4 -15  -9 101.295 41.6347   1
  -4  15 -10 185.691 40.4709   1
   4 -15  10 246.852 40.0174  -2
  -4 -15 -10 246.852 40.0174   1
  -4  15 -11-5.64999 35.6465   1
  -4  15 -12 11.8759 19.4945   1
  -4  15 -13 39.4367 17.3113   1
  -4  15 -14 100.307 15.7683   1
  -4 -16  15 233.816 19.6177   1
  -4 -16  14 17.2816 14.3696   1
  -5  16  14 56.4655 36.9619  -2
   4  16 -14 56.4655 36.9619   1
  -4 -16  13 71.6398 16.7540   1
  -5  16  13 28.4794 43.6112  -2
   4  16 -13 28.4794 43.6112   1
  -4 -16  12 21.8261 17.8939   1
  -5  16  12 56.2497 48.5715  -2
   4  16 -12 56.2497 48.5715   1
   4 -16 -11 399.422 20.8475   1
  -5  16  11 382.507 54.3454  -2
   4  16 -11 382.507 54.3454   1
   4 -16 -10 51.8415 17.3380   1
   4 -16  -9 97.2640 18.1381   1
   4 -16  -8 209.054 15.7277   1
  -4  16   8 204.800 65.1189  -2
   4  16  -8 204.800 65.1189   1
  -4  16   7 793.915 18.4966   1
   4 -16  -7 1184.75 56.5477  -2
  -4 -16   7 1184.75 56.5477   1
  -4  16   6 62.4961 21.3704   1
   4 -16  -6 77.0512 52.8562  -2
  -4 -16   6 77.0512 52.8562   1
   4 -16  -5 267.290 22.9902   1
   4 -16  -5 374.301 53.6106  -2
  -4 -16   5 374.301 53.6106   1
   4 -16  -4 102.380 22.7725   1
  -4  16   4 140.585 33.4207  -2
   4  16  -4 140.585 33.4207   1
   4 -16  -3 683.228 26.3449   1
  -4  16   2 319.139 24.3564   1
  -4  16   2 405.045 36.3144  -2
   4  16  -2 405.045 36.3144   1
   4 -16  -1 69.9283 22.2329   1
   4 -16  -1 86.9804 34.4982  -2
  -4 -16   1 86.9804 34.4982   1
   4  16   0 56.1125 52.7169  -2
  -4  16   1 56.1125 52.7169   1
   4 -16   0 99.9241 23.3857   1
   4 -16   0 151.816 34.9698  -2
  -4 -16   0 151.816 34.9698   1
   4  16   1 250.823 57.7064  -2
  -4  16   0 250.823 57.7064   1
  -4  16  -1 439.616 21.0320   1
   4 -16   1 661.000 56.8005  -2
  -4 -16  -1 661.000 56.8005   1
   4 -16   2 8.96763 18.5775   1
   4 -16   2-6.29263 32.6594  -2
  -4 -16  -2-6.29263 32.6594   1
  -4  16  -3 71.1383 23.5890   1
   4 -16   3 102.491 31.8708  -2
  -4 -16  -3 102.491 31.8708   1
  -4  16  -4 2.18903 21.9938   1
   4 -16   4-12.3959 46.1598  -2
  -4 -16  -4-12.3959 46.1598   1
  -4  16  -5 123.276 23.5802   1
   4 -16   5 153.876 47.9230  -2
  -4 -16  -5 153.876 47.9230   1
  -4  16  -6 241.912 39.8463   1
   3  16   7 296.157 42.2712  -2
  -4  16  -6 296.157 42.2712   1
   4 -16   6 260.313 46.0382  -2
  -4 -16  -6 260.313 46.0382   1
  -4  16  -7 63.4011 37.6102   1
   3  16   8 44.6048 35.8334  -2
  -4  16  -7 44.6048 35.8334   1
   4 -16   7 11.4806 42.6241  -2
  -4 -16  -7 11.4806 42.6241   1
   3  16   9-8.87014 61.3938  -2
  -4  16  -8-8.87014 61.3938   1
   4 -16   8 33.4745 40.0046  -2
  -4 -16  -8 33.4745 40.0046   1
  -4  16  -9 388.893 38.1859   1
   4 -16   9 597.571 43.4786  -2
  -4 -16  -9 597.571 43.4786   1
  -4  16 -10 117.602 34.4142   1
   4 -16  10 143.224 36.4652  -2
  -4 -16 -10 143.224 36.4652   1
   4 -16  11 247.211 19.4876   1
  -4  16 -12-6.66466 15.8698   1
   4 -16  13 65.9116 14.1100   1
   4 -17 -13 41.1538 12.3351   1
  -5  17  13 59.4673 34.2972  -2
   4  17 -13 59.4673 34.2972   1
   4 -17 -12 11.7279 14.0531   1
  -5  17  12 17.6414 39.3879  -2
   4  17 -12 17.6414 39.3879   1
  -4 -17  11 25.8383 15.4827   1
  -5  17  11 104.377 44.6561  -2
   4  17 -11 104.377 44.6561   1
   4 -17 -10 3.64087 14.2987   1
   4 -17  -9 6.69700 14.8263   1
   4 -17  -8 27.1039 23.4720   1
  -4  17   7 91.5966 17.9225   1
  -4  17   7 140.175 61.3567  -2
   4  17  -7 140.175 61.3567   1
   4 -17  -6 7.21259 18.5661   1
   4 -17  -6-3.63016 36.2354  -2
  -4 -17   6-3.63016 36.2354   1
   4 -17  -5 47.7954 19.9215   1
  -4  17   5 60.3255 38.1328  -2
   4  17  -5 60.3255 38.1328   1
   4 -17  -4 91.9682 20.1746   1
   4 -17  -4 105.961 50.1043  -2
  -4 -17   4 105.961 50.1043   1
  -4  17   3 10.6497 20.2702   1
   4 -17  -3 18.5727 49.1188  -2
  -4 -17   3 18.5727 49.1188   1
   4 -17  -2-1.29703 20.1336   1
   4 -17  -2 3.89697 45.0080  -2
  -4 -17   2 3.89697 45.0080   1
  -4  17   1 21.8472 20.8067   1
   4 -17  -1 33.1299 47.1874  -2
  -4 -17   1 33.1299 47.1874   1
   4 -17   0 30.7156 20.3314   1
   4 -17   0 68.4416 48.8302  -2
  -4 -17   0 68.4416 48.8302   1
   4  17   1 54.8830 49.1343  -2
  -4  17   0 54.8830 49.1343   1
  -4  17  -1 26.6412 19.7842   1
   4 -17   1 53.2923 46.3267  -2
  -4 -17  -1 53.2923 46.3267   1
   4  17   2 13.0325 51.4663  -2
  -4  17  -1 13.0325 51.4663   1
   4 -17   2 43.5812 16.2475   1
   4 -17   2 55.9950 48.1210  -2
  -4 -17  -2 55.9950 48.1210   1
  -4  17  -3 36.7509 20.6852   1
   4 -17   3 77.4995 47.8405  -2
  -4 -17  -3 77.4995 47.8405   1
  -4  17  -4-4.63146 20.7353   1
   4 -17   4 15.8723 42.9527  -2
  -4 -17  -4 15.8723 42.9527   1
  -4  17  -5 115.001 21.2715   1
   4 -17   5 147.531 44.9572  -2
  -4 -17  -5 147.531 44.9572   1
  -4  17  -6 23.2417 33.5395   1
   4 -17   6 51.5933 41.6929  -2
  -4 -17  -6 51.5933 41.6929   1
  -4  17  -7 9.36094 31.9628   1
   4 -17   7 33.1091 39.8684  -2
  -4 -17  -7 33.1091 39.8684   1
   3  17   9-7.59642 52.0711  -2
  -4  17  -8-7.59642 52.0711   1
   4 -17   8 2.30061 33.9227  -2
  -4 -17  -8 2.30061 33.9227   1
  -4  17  -9 20.9173 29.9339   1
   4 -17   9 10.1344 35.1354  -2
  -4 -17  -9 10.1344 35.1354   1
  -4  17 -10 71.0005 27.8436   1
  -3 -17 -11 103.993 24.2565  -2
   4 -17  10 103.993 24.2565   1
  -4  17 -11 96.0502 14.5813   1
   4  18 -11 104.185 14.3155   1
   4 -18 -10 151.710 16.8262   1
   4 -18  -9 7.46822 17.9659   1
   4  18  -8-9.18642 19.0088   1
   4 -18  -7 337.682 30.4286   1
  -4  18   7 484.007 51.6243  -2
   4  18  -7 484.007 51.6243   1
   4 -18  -6 155.329 16.4643   1
  -4  18   6 298.559 53.9186  -2
   4  18  -6 298.559 53.9186   1
  -4  18   5 8.62731 17.0461   1
  -4  18   5 32.7178 33.0250  -2
   4  18  -5 32.7178 33.0250   1
  -4  18   4 15.3545 16.9435   1
  -4  18   4 1.55448 34.1854  -2
   4  18  -4 1.55448 34.1854   1
  -4  18   3 76.5443 17.9237   1
   4 -18  -3 90.5664 35.1650  -2
  -4 -18   3 90.5664 35.1650   1
  -4  18   2 8.13582 17.5634   1
  -4  18   2-8.04192 33.9865  -2
   4  18  -2-8.04192 33.9865   1
   4 -18  -1 8.36582 17.4338   1
   4 -18  -1 0.86610 32.0063  -2
  -4 -18   1 0.86610 32.0063   1
  -4  18   0 28.2864 17.4908   1
  -4  18   0 28.5656 32.5597  -2
   4  18   0 28.5656 32.5597   1
  -4  18  -1 83.3809 14.2070   1
   4 -18   1 167.340 32.3829  -2
  -4 -18  -1 167.340 32.3829   1
  -4  18  -2 23.0244 18.5747   1
  -4  18  -2 28.4639 27.6210  -2
   4  18   2 28.4639 27.6210   1
  -4  18  -3 5.77937 18.1833   1
   4 -18   3 3.08453 36.4171  -2
  -4 -18  -3 3.08453 36.4171   1
  -4  18  -4 79.9046 17.7138   1
   4 -18   4 135.297 42.3913  -2
  -4 -18  -4 135.297 42.3913   1
  -4  18  -5 48.3993 28.8221   1
   4 -18   5 73.0751 41.2893  -2
  -4 -18  -5 73.0751 41.2893   1
  -4  18  -6 48.8216 28.1315   1
   4 -18   6 47.3774 37.1878  -2
  -4 -18  -6 47.3774 37.1878   1
  -4  18  -7 42.1136 26.3096   1
   4 -18   7 25.1256 34.9763  -2
  -4 -18  -7 25.1256 34.9763   1
   3  18   9 66.8005 41.2082  -2
  -4  18  -8 66.8005 41.2082   1
   4 -18   8 97.2444 32.3479  -2
  -4 -18  -8 97.2444 32.3479   1
  -4  18  -9 95.3047 22.9467   1
  -3 -18 -10 197.964 20.1042  -2
   4 -18   9 197.964 20.1042   1
   4  19  -8 12.8876 13.5181   1
   4 -19  -7 0.25046 20.2448   1
  -4  19   7 2.13404 33.3161  -2
   4  19  -7 2.13404 33.3161   1
   4 -19  -6 48.5147 20.9367   1
  -4  19   6 31.6469 38.8703  -2
   4  19  -6 31.6469 38.8703   1
   4 -19  -5-5.11081 21.9176   1
  -4  19   5-4.50563 39.3662  -2
   4  19  -5-4.50563 39.3662   1
  -4  19   4 22.7863 13.2511   1
  -4  19   4 32.7054 26.8116  -2
   4  19  -4 32.7054 26.8116   1
  -4  19   3 62.0377 14.2029   1
   4 -19  -3 94.8330 27.7125  -2
  -4 -19   3 94.8330 27.7125   1
  -4  19   2 3.64088 14.1556   1
   4 -19  -2-0.11211 28.2098  -2
  -4 -19   2-0.11211 28.2098   1
  -4  19   1-1.30069 13.9844   1
   4 -19  -1-21.6777 27.5148  -2
  -4 -19   1-21.6777 27.5148   1
   4 -19   0 9.54286 14.6725   1
  -4  19   0 13.4321 26.2236  -2
   4  19   0 13.4321 26.2236   1
  -4  19  -1 11.9740 19.3704   1
  -4  19  -1 12.6230 24.8178  -2
   4  19   1 12.6230 24.8178   1
   4 -19   2 159.651 40.4307  -2
  -4 -19  -2 159.651 40.4307   1
  -4  19  -3 43.0493 22.8775   1
   4 -19   3 134.522 37.5596  -2
  -4 -19  -3 134.522 37.5596   1
  -4  19  -4 7.81185 20.9754   1
   4 -19   4 9.85806 35.8003  -2
  -4 -19  -4 9.85806 35.8003   1
  -4  19  -5 15.0408 19.5861   1
   4 -19   5 52.8815 32.3306  -2
  -4 -19  -5 52.8815 32.3306   1
  -3 -19  -7 160.742 18.6064  -2
   4 -19   6 160.742 18.6064   1
   4 -19   6 162.687 31.4420  -2
  -4 -19  -6 162.687 31.4420   1
  -5   0  23 1.04740 24.1356   1
  -5   0  21 74.7179 29.8773   1
  -5   0  19 46.2871 30.7834   1
  -5   0  17 137.106 42.3660   1
   5   0 -15 27.8958 26.6394   1
  -5   0  13 44.4841 34.2799   1
   5   0 -11 2635.28 55.3150   1
   5   0  -9 3372.05 45.4705   1
   5   0  -7 2582.67 34.2402   1
   5   0  -5 420.750 27.2711   1
   5   0  -3 555.458 47.4280  -2
  -5   0   3 555.458 47.4280   1
   5   0  -1 26469.7 76.5351   1
   5   0  -1 33363.0 138.679  -2
  -5   0   1 33363.0 138.679   1
   5   0   1 270.314 46.5043  -2
  -5   0  -1 270.314 46.5043   1
  -5   0  -3 529.062 41.0203   1
  -5   0  -5 337.114 22.0333   1
   5   0   7 8186.75 74.8140   1
  -5   0 -11 1355.83 38.5678   1
  -5   0 -13 1711.23 52.4491   1
  -5   0 -15 266.011 45.4999   1
  -5   0 -17 1419.14 55.3088   1
  -5   0 -19 337.957 41.6242   1
  -5   0 -21 594.960 36.4948   1
   5  -1 -25 3.15597 21.3161   1
   5  -1 -24 37.8875 28.0592   1
   5   1 -23 460.242 23.2565   1
   6  -1 -23 560.650 40.0973  -2
  -5  -1  23 560.650 40.0973   1
   5  -1 -22 46.1715 23.7666   1
   6  -1 -22 85.9484 28.6522  -2
  -5  -1  22 85.9484 28.6522   1
   5   1 -21 6.40691 25.4702   1
   6   1 -21 6.14715 30.5229  -2
  -5   1  21 6.14715 30.5229   1
   5   1 -20 269.565 28.2212   1
   6  -1 -20 317.035 33.2491  -2
  -5  -1  20 317.035 33.2491   1
  -5   1  19 90.7602 23.4409   1
   6  -1 -19 90.8300 45.1601  -2
  -5  -1  19 90.8300 45.1601   1
  -5  -1  18 13.1568 29.4505   1
  -5   1  17 187.771 29.3097   1
   5  -1 -16 1355.49 30.6445   1
  -5   1  15 413.014 22.0366   1
  -5   1  14 818.455 20.3064   1
  -5  -1  13 212.052 22.9738   1
  -5   1  12 565.766 24.8785   1
  -5   1  11 57.2685 20.9449   1
   5  -1 -10 1428.85 29.2820   1
   5  -1 -10 1547.49 42.9279  -2
  -5  -1  10 1547.49 42.9279   1
  -5  -1   9 123.923 16.8674   1
   5   1  -8 3656.78 34.6901   1
   5   1  -7 22391.0 80.7403   1
   5  -1  -7 27778.4 112.436  -2
  -5  -1   7 27778.4 112.436   1
   5  -1  -6 17804.0 90.1259   1
   5  -1  -6 21323.7 98.8343  -2
  -5  -1   6 21323.7 98.8343   1
   5   1  -5 39833.2 99.2656   1
   5  -1  -5 48018.5 144.710  -2
  -5  -1   5 48018.5 144.710   1
   5  -1  -4 43219.1 125.639   1
   5   1  -4 53115.9 114.840  -2
  -5   1   4 53115.9 114.840   1
   5   1  -3 9150.48 45.8232   1
   5   1  -3 10767.6 58.5954  -2
  -5   1   3 10767.6 58.5954   1
   5   1  -2 17124.5 59.8481   1
   5  -1  -2 20739.6 77.4405  -2
  -5  -1   2 20739.6 77.4405   1
  -5   1   1 26794.1 76.6498   1
  -5  -1   1 31752.6 93.1813  -2
   5  -1  -1 31752.6 93.1813   1
  -5   1   0 31512.9 88.8318   1
   5  -1   0 37464.0 152.413  -2
  -5  -1   0 37464.0 152.413   1
   5   1   1 380.197 28.7177   1
   5  -1   1 470.997 33.8568  -2
  -5  -1  -1 470.997 33.8568   1
   5   1   2 598.705 26.5801   1
   5  -1   2 702.133 52.4438  -2
  -5  -1  -2 702.133 52.4438   1
  -5   1  -3 618.952 19.1603   1
   5  -1   3 709.718 54.0493  -2
  -5  -1  -3 709.718 54.0493   1
  -5   1  -4 156.995 12.8630   1
  -5   1  -5 526.950 26.1687   1
  -5   1  -6 4614.69 49.6997   1
  -5   1  -6 6004.10 52.8844  -2
   5   1   6 6004.10 52.8844   1
   5  -1   7 396.384 36.1863   1
   5  -1   8 2555.44 55.9670   1
   5  -1   9 8627.71 94.8134   1
   5  -1  10 2275.66 59.8864   1
  -5   1 -11 134.307 22.2350   1
  -5   1 -12 3020.76 33.1838   1
  -5  -1 -13 8.72034 28.0693   1
  -5   1 -14 923.967 34.1365   1
  -5   1 -15 20.3027 27.9966   1
  -5   1 -16 1683.63 40.8816   1
  -5  -1 -17 461.288 33.2758   1
  -5   1 -18 256.075 29.6256   1
  -5   1 -19 27.3768 25.9040   1
  -5   1 -20 230.551 26.1668   1
  -5   1 -21 40.3897 21.8121   1
  -5   1 -22 83.6649 18.3459   1
   5  -2 -25 25.1426 22.3884   1
   5  -2 -24 14.9063 28.6891   1
   6  -2 -24 3.83031 31.8663  -2
  -5  -2  24 3.83031 31.8663   1
   5  -2 -23 15.3225 33.0218   1
   6  -2 -23 34.0158 36.4941  -2
  -5  -2  23 34.0158 36.4941   1
   5  -2 -22-10.4717 36.1703   1
   6  -2 -22 31.8980 27.8507  -2
  -5  -2  22 31.8980 27.8507   1
   5   2 -21 26.1895 24.8722   1
   6   2 -21 57.3362 31.1968  -2
  -5   2  21 57.3362 31.1968   1
   5  -2 -20 73.3443 26.7792   1
   6  -2 -20 581.170 33.9423  -2
  -5  -2  20 581.170 33.9423   1
   5   2 -19 250.245 28.5445   1
   6  -2 -19 312.789 47.6758  -2
  -5  -2  19 312.789 47.6758   1
  -5  -2  18-0.61765 22.2949   1
  -5   2  17 375.077 29.2903   1
  -5   2  16 503.079 25.2931   1
  -5   2  15 388.807 23.1141   1
   5   2 -14 172.117 16.8991   1
   5  -2 -13 1.27673 27.2687   1
   5  -2 -12 164.880 27.2288   1
   5   2 -11 796.093 31.2728   1
   5  -2 -10-1.25821 24.9603   1
  -5   2   9 1924.20 34.5929   1
  -5  -2   8 43.3006 14.7639   1
  -5   2   7 8.86085 12.0615   1
   5  -2  -6 3.03247 10.2120   1
  -5  -2   5 2968.58 41.8236   1
   5  -2  -4 122.423 21.6140   1
  -5   2   4 119.074 25.4941  -2
   5   2  -4 119.074 25.4941   1
   5  -2  -3 3004.26 28.9858   1
   5  -2  -3 3728.78 40.1408  -2
  -5  -2   3 3728.78 40.1408   1
   5   2  -2 928.082 24.8440   1
   5  -2  -2 1176.19 33.5566  -2
  -5  -2   2 1176.19 33.5566   1
   5   2  -1 901.954 21.4134   1
   5  -2  -1 1133.68 46.8088  -2
  -5  -2   1 1133.68 46.8088   1
   5   2   0 4578.09 33.2526   1
   5  -2   0 5583.96 72.4300  -2
  -5  -2   0 5583.96 72.4300   1
   5  -2   1 1831.54 24.2187   1
   5  -2   1 2232.57 61.6550  -2
  -5  -2  -1 2232.57 61.6550   1
  -5   2  -2 717.706 19.5744   1
   5  -2   2 807.250 54.4821  -2
  -5  -2  -2 807.250 54.4821   1
  -5   2  -3 104.365 16.2403   1
   5  -2   4 2657.26 23.6132   1
   5   2   5 3556.23 50.0691   1
   5  -2   6 437.600 29.8683   1
  -5   2  -7 4882.99 56.9014   1
   5  -2   8 5324.56 80.8561   1
   5  -2   9 773.974 46.2242   1
   5  -2  10 1751.89 59.6886   1
  -5   2 -11 727.546 24.2445   1
  -5   2 -12 1436.70 30.4368   1
   5   2  13 2455.78 36.2026   1
  -5  -2 -14 40.7911 26.5581   1
  -5   2 -15 96.5534 28.0269   1
  -5   2 -16 776.364 35.5782   1
  -5  -2 -17 246.031 30.9683   1
  -5   2 -18 220.108 29.2603   1
  -5   2 -19 89.5130 26.4616   1
  -5   2 -20 263.847 25.7390   1
  -5  -2 -21 22.9924 21.2315   1
  -5  -2 -22 29.0328 26.6898   1
   5  -3 -25 114.450 23.7281   1
   5  -3 -24 22.3482 29.0734   1
   6  -3 -24 0.07261 30.3703  -2
  -5  -3  24 0.07261 30.3703   1
   5  -3 -23 20.0326 33.6313   1
   6  -3 -23 61.0719 36.0453  -2
  -5  -3  23 61.0719 36.0453   1
   5  -3 -22 57.0777 37.3719   1
   6  -3 -22 79.2674 39.1326  -2
  -5  -3  22 79.2674 39.1326   1
   5  -3 -21 50.0186 41.0095   1
   6  -3 -21 58.1164 30.2753  -2
  -5  -3  21 58.1164 30.2753   1
   5  -3 -20 47.0004 41.9396   1
   6  -3 -20 60.9893 31.5726  -2
  -5  -3  20 60.9893 31.5726   1
  -5   3  19 1210.38 52.7149   1
   6  -3 -19 1329.43 52.1736  -2
  -5  -3  19 1329.43 52.1736   1
  -5  -3  18 555.357 30.3037   1
  -5  -3  17 455.897 26.6177   1
  -5  -3  16 1879.28 33.6595   1
   5  -3 -15 10011.1 72.0090   1
  -5  -3  14 3990.18 38.7565   1
  -5  -3  13 229.136 20.5394   1
   5   3 -12 2438.25 38.8635   1
  -5   3  11 2900.15 44.1579   1
  -5   3  10 249.288 20.6817   1
  -5  -3   9 6.18338 17.7580   1
   5   3  -8 5031.10 48.5836   1
  -5  -3   7 90.4770 9.45212   1
  -5   3   6 578.900 16.9171   1
  -5   3   5 3.18841 7.36279   1
  -5   3   5 54.7423 52.7655  -2
   5   3  -5 54.7423 52.7655   1
   5   3  -4 2462.43 38.4883   1
   5   3  -3 24731.3 77.2697   1
   5  -3  -3 29477.5 112.946  -2
  -5  -3   3 29477.5 112.946   1
   5   3  -2 1152.43 22.8390   1
   5  -3  -2 1330.22 46.1113  -2
  -5  -3   2 1330.22 46.1113   1
  -5   3   1 8009.46 52.5063   1
   5  -3  -1 9705.60 85.6961  -2
  -5  -3   1 9705.60 85.6961   1
   5   3   0 12240.2 52.2039   1
   5  -3   0 14792.1 110.879  -2
  -5  -3   0 14792.1 110.879   1
   5  -3   1 10354.1 70.5271   1
   5   3   1 12226.1 68.9347  -2
  -5   3  -1 12226.1 68.9347   1
  -5   3  -2 19801.6 71.0236   1
   5  -3   3 2239.18 26.7999   1
  -5   3  -3 2783.54 64.7257  -2
   5   3   3 2783.54 64.7257   1
  -5   3  -4 14.8494 26.8921   1
  -5   3  -4 14.8351 49.2252  -2
   5   3   4 14.8351 49.2252   1
   5   3   5 111.914 22.7238   1
   5   3   6 2840.55 37.9000   1
   5  -3   7 5135.61 58.6852   1
   5   3   8 3510.42 55.1322   1
   5   3   9 3995.57 60.3588   1
  -5  -3 -10-1.83500 22.4952   1
  -5  -3 -11 91.4826 16.8447   1
  -5   3 -12 708.168 21.3029   1
  -5  -3 -13 3254.15 44.2297   1
  -5  -3 -14 19.9816 21.8240   1
  -5  -3 -15-2.46546 26.5838   1
  -5   3 -16 93.7470 30.3867   1
  -5   3 -17 175.891 29.5129   1
  -5   3 -18 10.3002 27.7129   1
  -5   3 -19 154.735 26.8788   1
  -5   3 -20 34.8198 22.8437   1
  -5  -3 -21 203.791 33.5357   1
  -5  -3 -22-3.21549 26.0434   1
   5  -4 -25 0.84847 21.8433   1
   5  -4 -24 7.62057 28.4241   1
   6  -4 -24 57.1666 29.6233  -2
  -5  -4  24 57.1666 29.6233   1
   5  -4 -23 21.6146 33.9950   1
   6  -4 -23 66.8957 35.6486  -2
  -5  -4  23 66.8957 35.6486   1
   5  -4 -22-12.2478 36.7757   1
   6  -4 -22-5.56958 39.7907  -2
  -5  -4  22-5.56958 39.7907   1
   5  -4 -21 68.5047 41.2024   1
   6  -4 -21 90.4534 42.1260  -2
  -5  -4  21 90.4534 42.1260   1
   5  -4 -20 55.1053 43.8647   1
   6  -4 -20 103.746 31.7130  -2
  -5  -4  20 103.746 31.7130   1
  -5   4  19-4.89624 45.2817   1
   6  -4 -19 225.576 46.1084  -2
  -5  -4  19 225.576 46.1084   1
  -5   4  18 50.0925 29.2692   1
   5  -4 -17 16.0909 24.4585   1
  -5  -4  16 19.5464 23.2200   1
  -5   4  15 31.3657 22.0117   1
  -5   4  14 82.3927 20.7222   1
   5  -4 -13 649.852 21.8822   1
  -5  -4  12-7.58837 25.7536   1
  -5  -4  11 21.4367 26.0445   1
  -5  -4  10 87.8439 19.9114   1
  -5   4   9 813.925 23.7562   1
   5  -4  -8 412.522 26.9407   1
  -5   4   7 2268.00 27.0257   1
  -5   4   6 2402.34 30.1883   1
  -5   4   5 5012.49 54.0806   1
  -5   4   5 5984.48 91.8535  -2
   5   4  -5 5984.48 91.8535   1
  -5   4   4 42.5892 11.1881   1
  -5   4   4 67.8991 56.4024  -2
   5   4  -4 67.8991 56.4024   1
   5  -4  -3 897.768 28.6353   1
  -5   4   3 1128.10 39.4088  -2
   5   4  -3 1128.10 39.4088   1
   5   4  -2 1738.38 26.2915   1
   5   4  -1 299.521 16.0171   1
  -5   4   0 19.3490 18.4823   1
   5  -4   1 1337.67 28.2221   1
  -5   4  -1 1601.51 57.3360  -2
   5   4   1 1601.51 57.3360   1
   5  -4   2 2003.53 28.5785   1
  -5   4  -2 2482.37 64.6574  -2
   5   4   2 2482.37 64.6574   1
   5  -4   3 2376.35 24.8239   1
  -5   4  -3 3267.13 71.7890  -2
   5   4   3 3267.13 71.7890   1
  -5   4  -4 1559.36 39.0468   1
  -5   4  -4 1965.13 65.0275  -2
   5   4   4 1965.13 65.0275   1
  -5   4  -5 201.950 28.6678   1
  -5   4  -5 180.743 51.5825  -2
   5   4   5 180.743 51.5825   1
   5   4   6 874.203 29.2396   1
   5   4   7 1353.00 33.0566   1
  -5   4  -8 938.570 31.0300   1
   5  -4   9 1549.29 45.9288   1
  -5  -4 -10 281.784 19.8194   1
   5   4  11 321.319 18.4088   1
  -5   4 -12 382.173 19.9553   1
  -5   4 -13 49.5153 20.7087   1
  -5   4 -14 81.3938 21.9114   1
  -5  -4 -15 193.277 23.6426   1
  -5   4 -16 195.674 29.8726   1
  -5   4 -17 26.2175 26.6855   1
  -5  -4 -18 139.454 26.1135   1
  -5  -4 -19 28.4963 38.3721   1
  -5  -4 -20 131.215 36.0236   1
  -5  -4 -21 40.1398 31.0633   1
  -5  -4 -22 195.946 26.5440   1
   5  -5 -25 7.24275 20.6990   1
   5  -5 -24 46.6022 27.4281   1
   6  -5 -24 78.2935 28.1781  -2
  -5  -5  24 78.2935 28.1781   1
   5  -5 -23 299.439 36.0850   1
   6  -5 -23 356.995 35.7149  -2
  -5  -5  23 356.995 35.7149   1
   5  -5 -22 20.4959 36.4422   1
   6  -5 -22 57.6433 37.7151  -2
  -5  -5  22 57.6433 37.7151   1
   5  -5 -21 24.0488 40.3080   1
   6  -5 -21 35.3630 40.5225  -2
  -5  -5  21 35.3630 40.5225   1
   5  -5 -20 640.025 47.6912   1
   6  -5 -20 762.070 47.6519  -2
  -5  -5  20 762.070 47.6519   1
  -5   5  19 2704.56 61.2451   1
   6  -5 -19 2841.52 60.3967  -2
  -5  -5  19 2841.52 60.3967   1
  -5   5  18 1.01910 29.5357   1
  -5  -5  17 103.526 24.9675   1
   5  -5 -16 902.650 30.4788   1
  -5  -5  15 313.335 23.7527   1
  -5   5  14 111.973 21.1511   1
   5  -5 -13 7963.38 57.6874   1
   5  -5 -12 1948.90 31.2493   1
   5   5 -11 5477.45 56.5709   1
   5  -5 -10 2242.44 41.1372   1
  -5  -5   9 31.9254 24.3469   1
   5  -5  -8 862.737 38.2800   1
  -5   5   7 38497.3 151.908   1
  -5   5   6 1230.27 40.0880   1
  -5   5   6 1580.24 52.6793  -2
   5   5  -6 1580.24 52.6793   1
  -5   5   5 415.817 20.0772   1
  -5   5   5 443.351 44.5577  -2
   5   5  -5 443.351 44.5577   1
   5  -5  -4 3154.47 45.1913   1
  -5   5   4 3789.02 83.6971  -2
   5   5  -4 3789.02 83.6971   1
   5  -5  -3 1520.79 32.6286   1
   5   5  -3 1776.11 34.2705  -2
  -5   5   3 1776.11 34.2705   1
   5  -5  -2 3485.59 39.4840   1
  -5   5   2 4520.42 79.7693  -2
   5   5  -2 4520.42 79.7693   1
   5  -5  -1 8331.85 47.6722   1
  -5   5   1 10453.7 74.0512  -2
   5   5  -1 10453.7 74.0512   1
   5  -5   0 16627.1 102.015   1
   5   5   0 20002.9 97.0040  -2
  -5   5   0 20002.9 97.0040   1
  -5   5  -1 77.1101 22.1607   1
  -5   5  -1 108.310 48.1522  -2
   5   5   1 108.310 48.1522   1
  -5   5  -2 3379.13 68.5987   1
  -5   5  -2 4083.06 80.0874  -2
   5   5   2 4083.06 80.0874   1
  -5   5  -3 11528.2 111.844   1
  -5   5  -3 14290.5 134.102  -2
   5   5   3 14290.5 134.102   1
   5  -5   4 8512.44 72.0740   1
  -5   5  -4 10728.4 116.867  -2
   5   5   4 10728.4 116.867   1
   5  -5   5 2559.86 46.1327   1
  -5   5  -5 3189.53 81.9930  -2
   5   5   5 3189.53 81.9930   1
  -5   5  -6 2760.41 48.5498   1
  -5   5  -6 3640.29 87.5228  -2
   5   5   6 3640.29 87.5228   1
   5   5   7 2370.64 40.1941   1
  -5   5  -8 580.736 29.4330   1
   5  -5   9 50.4266 23.4924   1
   5   5  10 1862.77 28.1620   1
  -5   5 -11 407.197 22.6783   1
  -5  -5 -12 50.0509 22.0336   1
  -5  -5 -13 517.043 28.2445   1
  -5  -5 -14 955.067 31.6554   1
  -5   5 -15 9.03599 28.1326   1
  -5  -5 -16 89.2328 43.8947   1
  -5  -5 -17 314.926 44.8742   1
  -5  -5 -18 229.134 43.0671   1
  -5  -5 -19-15.6043 36.4647   1
  -5  -5 -20 63.7546 33.9262   1
  -5  -5 -21 0.70381 28.8299   1
  -5  -5 -22 193.223 24.1055   1
   5  -6 -24-1.40188 26.0799   1
   6  -6 -24 170.615 26.8731  -2
  -5  -6  24 170.615 26.8731   1
   5  -6 -23 78.0771 31.4797   1
   6  -6 -23 102.914 32.7170  -2
  -5  -6  23 102.914 32.7170   1
   5  -6 -22 28.2683 34.1127   1
   6  -6 -22 111.391 36.9382  -2
  -5  -6  22 111.391 36.9382   1
   5  -6 -21 13.8835 39.2742   1
   6  -6 -21 95.9733 39.3138  -2
  -5  -6  21 95.9733 39.3138   1
   6  -6 -20 614.428 46.1883  -2
  -5  -6  20 614.428 46.1883   1
   5  -6 -19 11.1094 43.1338   1
   6  -6 -19 93.7915 43.9822  -2
  -5  -6  19 93.7915 43.9822   1
  -5   6  18 32.9096 28.6306   1
  -5  -6  17 83.7542 29.5581   1
   5  -6 -16 649.862 27.0759   1
  -5  -6  15 56.7644 21.6321   1
  -5  -6  14-2.36762 21.6198   1
  -5  -6  13 782.243 23.8506   1
   5  -6 -12 128.732 19.6769   1
  -5  -6  11 299.695 22.7719   1
   5  -6 -10 314.413 29.2024   1
  -5  -6   9 329.530 28.3872   1
  -5  -6   8 3.30743 31.7024   1
   5  -6  -7 1790.11 38.2862   1
  -5   6   6 4474.70 41.6203   1
   5  -6  -5 585.003 25.3839   1
  -5   6   5 890.952 49.3351  -2
   5   6  -5 890.952 49.3351   1
  -5  -6   4 84.2591 22.5188   1
   5   6  -4 96.6090 30.7589  -2
  -5   6   4 96.6090 30.7589   1
   5  -6  -3 34.3751 28.4413   1
   5   6  -3 63.4950 24.7322  -2
  -5   6   3 63.4950 24.7322   1
   5  -6  -2 3670.66 66.1618   1
   5   6  -2 4584.71 47.7220  -2
  -5   6   2 4584.71 47.7220   1
  -5  -6   1 990.071 21.8105   1
  -5   6   1 1274.63 65.7876  -2
   5   6  -1 1274.63 65.7876   1
   5  -6   0 7.24357 24.7214   1
  -5   6   0 29.7578 51.4434  -2
   5   6   0 29.7578 51.4434   1
  -5   6  -1 18.8622 21.9952   1
  -5   6  -1 78.3279 50.4635  -2
   5   6   1 78.3279 50.4635   1
  -5   6  -2 34.4301 40.4840   1
  -5   6  -2 24.2820 51.1501  -2
   5   6   2 24.2820 51.1501   1
  -5   6  -3 37.4410 39.1300   1
  -5   6  -3 95.1651 53.7140  -2
   5   6   3 95.1651 53.7140   1
   5  -6   4 58.4773 29.7000   1
  -5   6  -4 107.479 56.8250  -2
   5   6   4 107.479 56.8250   1
   5  -6   5 3369.87 52.2382   1
  -5   6  -5 4175.01 93.7822  -2
   5   6   5 4175.01 93.7822   1
  -5   6  -6 1568.50 41.8660   1
  -5   6  -6 1901.48 76.2211  -2
   5   6   6 1901.48 76.2211   1
   5  -6   7-7.88589 27.7426   1
  -5   6  -7 8.60650 58.8510  -2
   5   6   7 8.60650 58.8510   1
   5   6   8 295.459 26.9930   1
   5  -6   9 669.395 27.5894   1
   5  -6   9 903.470 42.4618  -2
  -5  -6  -9 903.470 42.4618   1
  -5  -6 -10 67.7419 19.5962   1
  -5  -6 -11 864.829 31.7644   1
  -5  -6 -12 443.177 25.4012   1
  -5  -6 -13 390.030 25.8353   1
  -5  -6 -14 264.201 29.6902   1
  -5  -6 -15 234.402 29.8976   1
  -5  -6 -16 442.003 29.6304   1
  -5  -6 -17 502.501 44.3894   1
  -5  -6 -18 130.031 38.1229   1
  -5  -6 -19 84.4197 35.0484   1
  -5  -6 -20-7.97374 29.7532   1
  -5  -6 -21 180.054 27.2836   1
   5  -7 -24 199.517 23.9052   1
   5  -7 -23 26.1695 28.1843   1
   6  -7 -23 56.0938 30.1426  -2
  -5  -7  23 56.0938 30.1426   1
   5  -7 -22 65.2242 33.1530   1
   6  -7 -22 65.5360 34.8866  -2
  -5  -7  22 65.5360 34.8866   1
   5  -7 -21 22.0297 36.7477   1
   6  -7 -21 9.86298 38.1202  -2
  -5  -7  21 9.86298 38.1202   1
   5  -7 -20 28.2251 39.2486   1
   6  -7 -20 91.3629 41.4077  -2
  -5  -7  20 91.3629 41.4077   1
   5  -7 -19 271.770 42.5564   1
   6  -7 -19 377.476 45.0203  -2
  -5  -7  19 377.476 45.0203   1
   6  -7 -18 99.4163 42.8629  -2
  -5  -7  18 99.4163 42.8629   1
  -5  -7  17 1363.30 35.5868   1
  -5  -7  16 2650.93 43.0828   1
  -5  -7  15 466.638 24.4478   1
  -5   7  14 269.554 23.9502   1
   5  -7 -13 154.081 22.4362   1
   5  -7 -12 1619.40 21.4347   1
  -5  -7  11 44.5659 15.0374   1
  -5  -7  10 143.340 21.1210   1
  -5   7  10 162.194 47.2955  -2
   5   7 -10 162.194 47.2955   1
   5  -7  -9 4491.41 63.6582   1
   5  -7  -8 1448.31 46.4331   1
  -5   7   7 1861.77 47.2848   1
  -5  -7   6 25.6739 24.3834   1
  -5   7   6 21.3299 76.9917  -2
   5   7  -6 21.3299 76.9917   1
   5  -7  -5 3088.60 49.4293   1
  -5   7   5 3831.52 45.3711  -2
   5   7  -5 3831.52 45.3711   1
  -5  -7   4 92.4481 26.7390   1
   5   7  -4 114.158 29.7564  -2
  -5   7   4 114.158 29.7564   1
   5  -7  -3 1840.91 36.8414   1
   5   7  -3 2296.87 47.2919  -2
  -5   7   3 2296.87 47.2919   1
   5  -7  -2 1484.21 31.7592   1
   5   7  -2 1901.92 40.0633  -2
  -5   7   2 1901.92 40.0633   1
   5  -7  -1 2803.03 45.5795   1
  -5   7   1 3429.74 87.0836  -2
   5   7  -1 3429.74 87.0836   1
  -5   7   0 641.829 30.3224   1
  -5   7   0 744.218 65.9198  -2
   5   7   0 744.218 65.9198   1
   5  -7   1 1455.90 32.8394   1
  -5   7  -1 1732.67 75.7469  -2
   5   7   1 1732.67 75.7469   1
  -5   7  -2 406.218 44.4304   1
  -5   7  -2 470.694 58.5927  -2
   5   7   2 470.694 58.5927   1
  -5   7  -3 831.333 36.2055   1
  -5   7  -3 1110.29 69.5264  -2
   5   7   3 1110.29 69.5264   1
  -5   7  -4 8337.36 77.4356   1
  -5   7  -4 10306.6 137.470  -2
   5   7   4 10306.6 137.470   1
  -5   7  -5 525.587 32.5975   1
  -5   7  -6 51.3380 28.0988   1
  -5   7  -6 98.6456 64.6241  -2
   5   7   6 98.6456 64.6241   1
  -5   7  -7 47.5006 26.9210   1
  -5   7  -7 29.9636 61.8871  -2
   5   7   7 29.9636 61.8871   1
   5   7   8 1119.82 47.3675   1
   5  -7   9 5.04120 23.6207   1
   5  -7   9-12.3869 37.5476  -2
  -5  -7  -9-12.3869 37.5476   1
   5   7  10 1524.44 34.6221   1
   5  -7  10 1864.57 50.8890  -2
  -5  -7 -10 1864.57 50.8890   1
   5   7  11 31.6231 21.6532   1
  -5  -7 -12 178.855 24.3719   1
  -5  -7 -13 854.497 28.2248   1
  -5  -7 -14 196.501 29.7671   1
  -5  -7 -15 163.237 28.8586   1
  -5  -7 -16 24.9634 26.4067   1
  -5  -7 -17-6.99454 37.3428   1
  -5  -7 -18 204.452 36.7615   1
  -5  -7 -19 45.4194 31.9788   1
  -5  -7 -20 90.5214 28.1733   1
  -5  -7 -21 5.72528 22.3939   1
   5  -8 -23-8.70696 25.0343   1
   6  -8 -23 77.6002 26.8814  -2
  -5  -8  23 77.6002 26.8814   1
   5  -8 -22 7.19915 29.8498   1
   6  -8 -22 12.8558 31.8604  -2
  -5  -8  22 12.8558 31.8604   1
   5  -8 -21 53.9145 33.4603   1
   6  -8 -21 57.8273 36.2364  -2
  -5  -8  21 57.8273 36.2364   1
   5  -8 -20 39.3433 37.1825   1
   6  -8 -20 81.8471 39.2682  -2
  -5  -8  20 81.8471 39.2682   1
   5  -8 -19-18.0551 38.7046   1
   6  -8 -19 117.409 41.1390  -2
  -5  -8  19 117.409 41.1390   1
   5  -8 -18 20.1734 38.7760   1
   6  -8 -18 44.7465 43.2640  -2
  -5  -8  18 44.7465 43.2640   1
  -5  -8  17 64.0221 36.7288   1
  -5  -8  16 202.619 30.3337   1
  -5  -8  15-0.24831 23.8183   1
   5  -8 -14 201.089 18.2390   1
   5  -8 -13 396.400 19.2694   1
   5  -8 -12-11.8665 15.7148   1
   5  -8 -11 1568.95 22.1435   1
  -5  -8  10 113.074 14.7030   1
  -5   8  10 109.341 50.3651  -2
   5   8 -10 109.341 50.3651   1
  -5  -8   9 29.2677 17.3058   1
  -5   8   9 16.4408 47.4985  -2
   5   8  -9 16.4408 47.4985   1
   5  -8  -8 3116.74 50.3859   1
   5  -8  -7 789.604 40.2468   1
   5   8  -7 933.342 74.6330  -2
  -5   8   7 933.342 74.6330   1
   5  -8  -6 134.504 30.7839   1
  -5   8   6 152.397 50.7797  -2
   5   8  -6 152.397 50.7797   1
  -5  -8   5 5.90031 24.9234   1
  -5   8   5-41.7258 83.9995  -2
   5   8  -5-41.7258 83.9995   1
  -5  -8   4 71.5650 24.1971   1
  -5   8   4 107.721 72.9638  -2
   5   8  -4 107.721 72.9638   1
   5  -8  -3 555.359 25.6030   1
  -5   8   3 653.122 77.8455  -2
   5   8  -3 653.122 77.8455   1
   5  -8  -2 508.192 33.7425   1
  -5   8   1 16.7507 28.5846   1
  -5   8   1 23.5434 61.8556  -2
   5   8  -1 23.5434 61.8556   1
  -5   8   0 1486.47 37.4962   1
  -5   8   0 1938.17 84.7282  -2
   5   8   0 1938.17 84.7282   1
  -5   8  -1-14.9511 39.5625   1
  -5   8  -1 10.4521 56.9255  -2
   5   8   1 10.4521 56.9255   1
  -5   8  -2 291.305 43.2930   1
  -5   8  -2 379.083 62.8808  -2
   5   8   2 379.083 62.8808   1
   5  -8   3 133.307 29.2614   1
  -5   8  -3 223.279 60.1022  -2
   5   8   3 223.279 60.1022   1
  -5   8  -4 900.865 36.5641   1
  -5   8  -4 1165.68 74.8906  -2
   5   8   4 1165.68 74.8906   1
  -5   8  -5 423.206 33.6547   1
  -5   8  -5 545.898 71.5662  -2
   5   8   5 545.898 71.5662   1
   5  -8   6 951.614 31.4604   1
  -5   8  -6 1381.66 80.6889  -2
   5   8   6 1381.66 80.6889   1
   5  -8   7 50.9226 28.4176   1
  -5   8  -7 82.7843 67.9198  -2
   5   8   7 82.7843 67.9198   1
   5   8   8 195.561 25.4002   1
   5  -8   9 592.894 23.8193   1
  -5  -8 -10 49.1080 24.4659   1
  -4  -8 -11 5.05166 80.6540  -2
   5  -8  10 5.05166 80.6540   1
   5   8  11 36.6372 29.2835   1
   5  -8  11 12.3208 45.6522  -2
  -5  -8 -11 12.3208 45.6522   1
   5   8  12 339.775 31.4256   1
   5  -8  12 471.637 45.2959  -2
  -5  -8 -12 471.637 45.2959   1
  -5  -8 -13 17.5447 28.2716   1
   5  -8  14 42.1489 19.4427   1
  -5  -8 -15 50.8582 27.2692   1
  -5   8 -16 77.2183 26.4786   1
  -5  -8 -17 95.4476 24.0533   1
  -5  -8 -18 0.50331 31.9404   1
  -5  -8 -19 5.99186 28.2778   1
  -5  -8 -20 61.2354 23.5262   1
   5  -9 -23 75.0950 21.3044   1
   6  -9 -23 117.749 23.1047  -2
  -5  -9  23 117.749 23.1047   1
   5  -9 -22-8.97212 26.2541   1
   6  -9 -22 32.4006 28.6001  -2
  -5  -9  22 32.4006 28.6001   1
   5  -9 -21 6.21431 30.4831   1
   6  -9 -21 103.390 33.9560  -2
  -5  -9  21 103.390 33.9560   1
   5  -9 -20 117.097 34.5740   1
   6  -9 -20 179.637 38.1543  -2
  -5  -9  20 179.637 38.1543   1
   5  -9 -19 761.467 43.0152   1
   6  -9 -19 889.853 45.4694  -2
  -5  -9  19 889.853 45.4694   1
   5  -9 -18 228.215 38.7649   1
   6  -9 -18 306.530 43.0433  -2
  -5  -9  18 306.530 43.0433   1
  -5  -9  17 177.201 27.0641   1
  -5  -9  16 145.044 37.4423   1
  -5  -9  15 2138.19 49.8541   1
   5  -9 -14 48.4468 20.4491   1
  -5  -9  13 567.086 22.6488   1
   5   9 -13 473.337 91.1582  -2
  -5   9  13 473.337 91.1582   1
   5  -9 -12 564.598 16.8658   1
  -5   9  11 3390.72 37.2523   1
  -5   9  10 675.938 16.7760   1
  -5  -9   9 84.4232 15.5238   1
  -5   9   9 124.236 51.0103  -2
   5   9  -9 124.236 51.0103   1
  -5  -9   8 694.629 22.0083   1
  -5   9   8 927.624 53.2562  -2
   5   9  -8 927.624 53.2562   1
   5  -9  -7 690.923 24.1385   1
   5   9  -7 917.995 41.8272  -2
  -5   9   7 917.995 41.8272   1
   5   9  -6 442.946 30.2582   1
   5   9  -6 593.511 39.7091  -2
  -5   9   6 593.511 39.7091   1
  -5  -9   5 4722.53 62.3408   1
  -5   9   5 5769.21 85.5670  -2
   5   9  -5 5769.21 85.5670   1
   5  -9  -4 1162.04 32.5528   1
  -5   9   4 1596.55 95.3142  -2
   5   9  -4 1596.55 95.3142   1
   5  -9  -3 2629.98 52.7345   1
  -5   9   3 3530.58 109.170  -2
   5   9  -3 3530.58 109.170   1
   5  -9  -2 1053.09 39.1733   1
  -5   9   2 1465.63 81.4460  -2
   5   9  -2 1465.63 81.4460   1
   5  -9  -1 453.411 32.2380   1
  -5   9   1 648.362 76.0844  -2
   5   9  -1 648.362 76.0844   1
  -5   9   0 772.579 54.2667   1
  -5   9   0 895.517 75.7545  -2
   5   9   0 895.517 75.7545   1
  -5   9  -1 5274.81 93.4512   1
  -5   9  -1 6450.35 132.813  -2
   5   9   1 6450.35 132.813   1
  -5   9  -2 194.147 31.3341   1
  -5   9  -2 232.390 67.0758  -2
   5   9   2 232.390 67.0758   1
   5  -9   3 547.126 35.7154   1
  -5   9  -3 701.567 73.8187  -2
   5   9   3 701.567 73.8187   1
  -5   9  -4 1579.35 25.0116   1
   5  -9   4 1713.00 45.9043  -2
  -5  -9  -4 1713.00 45.9043   1
  -5   9  -5 6943.02 52.6000   1
   5  -9   5 8104.91 72.9937  -2
  -5  -9  -5 8104.91 72.9937   1
  -5   9  -6 1255.07 30.7269   1
  -5   9  -6 1556.73 45.9637  -2
   5   9   6 1556.73 45.9637   1
   5  -9   7 99.7637 19.7835   1
  -5   9  -7 75.1262 35.7929  -2
   5   9   7 75.1262 35.7929   1
  -5   9  -8 1211.17 48.0274   1
   4   9   9 1199.64 39.7816  -2
  -5   9  -8 1199.64 39.7816   1
   5  -9   8 1260.54 43.0635  -2
  -5  -9  -8 1260.54 43.0635   1
   5  -9   9 2170.71 42.2287   1
   5   9  10 117.397 31.0836   1
  -5   9 -11 173.472 35.6633   1
  -4  -9 -12 215.963 86.3515  -2
   5  -9  11 215.963 86.3515   1
   5  -9  11 149.672 40.8104  -2
  -5  -9 -11 149.672 40.8104   1
  -5   9 -12 1812.60 58.2242   1
   5  -9  12 2094.97 54.8628  -2
  -5  -9 -12 2094.97 54.8628   1
  -5  -9 -13 1191.34 35.1194   1
  -5  -9 -14 37.7862 19.0450   1
  -5  -9 -15 12.5106 18.0405   1
  -5  -9 -16 227.744 26.2849   1
  -5   9 -17 15.5591 22.5871   1
  -5  -9 -18 30.9985 29.4278   1
  -5  -9 -19 32.6435 25.2492   1
   5 -10 -22-7.46445 20.7876   1
   6 -10 -22 32.6037 24.2314  -2
  -5 -10  22 32.6037 24.2314   1
   5 -10 -21 33.5410 24.5560   1
   6 -10 -21 83.6893 30.5340  -2
  -5 -10  21 83.6893 30.5340   1
   5 -10 -20 152.365 29.7459   1
   6 -10 -20 180.539 34.4791  -2
  -5 -10  20 180.539 34.4791   1
   5 -10 -19 72.8883 32.6092   1
   6 -10 -19 335.458 38.8751  -2
  -5 -10  19 335.458 38.8751   1
   5 -10 -18 111.462 35.1183   1
   6 -10 -18 141.374 41.1370  -2
  -5 -10  18 141.374 41.1370   1
   5 -10 -17 76.1510 25.0000   1
  -5 -10  16 19.0932 25.1077   1
  -5 -10  15 206.590 23.7004   1
  -5 -10  14 735.679 27.1284   1
   5 -10 -13 21.3862 18.0822   1
   5 -10 -12 136.016 16.4482   1
   5 -10 -11 794.791 19.1569   1
   5 -10 -10 282.006 15.0238   1
   5  10 -10 244.593 82.8936  -2
  -5  10  10 244.593 82.8936   1
   5 -10  -9 57.5523 14.3468   1
  -5  10   9 83.4927 55.7313  -2
   5  10  -9 83.4927 55.7313   1
   5 -10  -8 439.034 22.9211   1
   5  10  -8 530.483 34.8216  -2
  -5  10   8 530.483 34.8216   1
  -5 -10   7 95.1768 20.1051   1
   5  10  -7 78.9437 31.8309  -2
  -5  10   7 78.9437 31.8309   1
   5 -10  -6 1192.97 25.7259   1
   5  10  -6 1424.12 46.3545  -2
  -5  10   6 1424.12 46.3545   1
  -5  10   5 467.690 22.4129   1
  -5  10   5 584.468 43.9773  -2
   5  10  -5 584.468 43.9773   1
   5 -10  -4 1409.00 30.5367   1
  -5  10   4 1744.94 102.171  -2
   5  10  -4 1744.94 102.171   1
   5 -10  -3 1322.14 46.1727   1
  -5  10   3 1966.10 39.1573  -2
   5  10  -3 1966.10 39.1573   1
   5 -10  -2 316.793 33.7787   1
   5 -10  -2 491.715 25.7359  -2
  -5 -10   2 491.715 25.7359   1
  -5  10   1 1010.55 61.5862   1
  -5  10   1 1431.53 23.9465  -2
   5  10  -1 1431.53 23.9465   1
  -5  10   0 54.6712 20.2283   1
   5 -10   0 72.1975 36.0396  -2
  -5 -10   0 72.1975 36.0396   1
  -5  10  -1 988.879 22.6667   1
  -5  10  -1 1120.89 44.4361  -2
   5  10   1 1120.89 44.4361   1
  -5  10  -2 581.679 19.8765   1
  -5  10  -2 679.803 41.3845  -2
   5  10   2 679.803 41.3845   1
  -5  10  -3 59.9933 18.5231   1
   5 -10   3 72.0735 37.1203  -2
  -5 -10  -3 72.0735 37.1203   1
  -5  10  -4 43.5752 19.8369   1
  -5  10  -4 22.0355 34.2808  -2
   5  10   4 22.0355 34.2808   1
  -5  10  -5 6.87723 20.5179   1
  -5  10  -5-0.70391 35.0373  -2
   5  10   5-0.70391 35.0373   1
  -5  10  -6 20.5257 22.0624   1
  -5  10  -6-7.13326 39.3125  -2
   5  10   6-7.13326 39.3125   1
  -5  10  -7 923.025 26.4059   1
  -5  10  -7 1057.54 46.1541  -2
   5  10   7 1057.54 46.1541   1
  -5  10  -8 841.454 39.4920   1
   4  10   9 876.531 45.3109  -2
  -5  10  -8 876.531 45.3109   1
   5 -10   8 960.634 43.8398  -2
  -5 -10  -8 960.634 43.8398   1
   5 -10   9 1321.57 45.9054   1
   4  10  10 1190.65 46.3781  -2
  -5  10  -9 1190.65 46.3781   1
   5  10  10 209.263 32.8594   1
  -5  10 -11 186.659 47.3346   1
  -5  10 -12 610.886 48.1350   1
  -5  10 -13 212.443 45.5046   1
  -5 -10 -14 798.014 21.7408   1
  -5 -10 -15 27.9227 17.0659   1
   5 -10  16 191.783 16.2430   1
  -5 -10 -17 29.6516 20.0186   1
  -5 -10 -18 45.3471 24.2874   1
   6 -11 -21 28.1219 25.3595  -2
  -5 -11  21 28.1219 25.3595   1
   5 -11 -20 35.4036 24.5634   1
   6 -11 -20 70.0052 30.2552  -2
  -5 -11  20 70.0052 30.2552   1
   5 -11 -19 358.724 28.6338   1
   6 -11 -19 498.726 38.0319  -2
  -5 -11  19 498.726 38.0319   1
   5 -11 -18 52.7163 30.5916   1
   6 -11 -18 35.7785 37.3033  -2
  -5 -11  18 35.7785 37.3033   1
   5 -11 -17 437.681 24.7470   1
   5 -11 -16 13.1852 23.4683   1
  -5 -11  15 244.966 19.5343   1
  -5 -11  14 399.993 20.9610   1
  -5 -11  13 4.26396 19.8526   1
  -5 -11  12 14.8002 17.0887   1
   5 -11 -11 1850.23 22.7303   1
   5 -11 -10 1213.95 21.5140   1
  -5 -11   9 45.6390 14.1699   1
  -5 -11   8 394.484 19.2872   1
   5 -11  -8 531.438 40.6319  -2
  -5 -11   8 531.438 40.6319   1
  -5  11   7 326.629 20.0171   1
  -5  11   7 427.686 38.6616  -2
   5  11  -7 427.686 38.6616   1
   5 -11  -6 232.231 18.5250   1
  -5  11   6 305.114 36.0241  -2
   5  11  -6 305.114 36.0241   1
   5 -11  -5 218.264 19.1002   1
  -5  11   5 282.594 33.0620  -2
   5  11  -5 282.594 33.0620   1
   5 -11  -4 3133.15 33.6313   1
  -5  11   4 3954.21 127.897  -2
   5  11  -4 3954.21 127.897   1
   5 -11  -3 698.019 30.1524   1
   5  11  -3 901.308 40.6556  -2
  -5  11   3 901.308 40.6556   1
   5 -11  -2 305.425 27.5764   1
  -5  11   2 381.849 27.8663  -2
   5  11  -2 381.849 27.8663   1
  -5  11   1 477.278 20.3162   1
  -5  11   1 593.695 43.5738  -2
   5  11  -1 593.695 43.5738   1
   5  11   0 464.456 58.5813  -2
  -5  11   1 464.456 58.5813   1
  -5  11   0 19.0571 14.9571   1
   5 -11   0 33.0167 38.0944  -2
  -5 -11   0 33.0167 38.0944   1
   5 -11   1 1240.09 22.0025   1
   5 -11   1 1524.19 51.2235  -2
  -5 -11  -1 1524.19 51.2235   1
   5 -11   2 18.0440 16.6093   1
  -5  11  -2 62.5617 40.6756  -2
   5  11   2 62.5617 40.6756   1
   5 -11   3 87.0173 21.6258   1
  -5  11  -3 69.0381 42.2589  -2
   5  11   3 69.0381 42.2589   1
  -5  11  -4 1558.39 29.3808   1
   5 -11   4 1920.10 56.6893  -2
  -5 -11  -4 1920.10 56.6893   1
  -5  11  -5 6900.10 50.0687   1
  -5  11  -5 8392.46 86.0154  -2
   5  11   5 8392.46 86.0154   1
  -5  11  -6 745.218 26.2187   1
  -5  11  -6 913.527 48.4925  -2
   5  11   6 913.527 48.4925   1
  -5  11  -7 495.495 37.4664   1
   4  11   8 523.361 45.9468  -2
  -5  11  -7 523.361 45.9468   1
  -5  11  -7 648.801 45.6951  -2
   5  11   7 648.801 45.6951   1
  -5  11  -8 112.059 46.4166   1
   4  11   9 92.9423 36.6137  -2
  -5  11  -8 92.9423 36.6137   1
   5 -11   8 137.727 39.6044  -2
  -5 -11  -8 137.727 39.6044   1
   4  11  10 1335.64 40.8953  -2
  -5  11  -9 1335.64 40.8953   1
   5 -11   9 1438.65 51.0630  -2
  -5 -11  -9 1438.65 51.0630   1
   4  11  11 148.743 33.2364  -2
  -5  11 -10 148.743 33.2364   1
  -5  11 -11 7.60761 40.6852   1
  -5  11 -12 151.429 44.0407   1
  -5  11 -13-10.5148 39.7231   1
  -5  11 -14 31.2774 22.0045   1
  -5  11 -15 203.511 20.8584   1
   5 -11  16 111.674 17.3023   1
  -5  11 -17 100.297 26.8209   1
  -5 -12  21-10.0859 17.9429   1
   6 -12 -20 106.620 26.0027  -2
  -5 -12  20 106.620 26.0027   1
   6 -12 -19 130.681 30.7764  -2
  -5 -12  19 130.681 30.7764   1
   6 -12 -18 122.603 34.2481  -2
  -5 -12  18 122.603 34.2481   1
  -5 -12  17 14.5851 31.1597   1
  -5 -12  16-0.01197 31.8321   1
   5 -12 -15 1.52010 22.2232   1
   5 -12 -14 9.48814 23.3245   1
  -6  12  14 2.32855 51.5150  -2
   5  12 -14 2.32855 51.5150   1
   5 -12 -13 32.6081 20.0507   1
   5 -12 -12 44.2913 21.2177   1
   5 -12 -11 21.1826 17.8164   1
  -5  12  10 403.341 20.0647   1
  -5  12   9 790.120 21.5454   1
   5 -12  -8 61.8416 18.0909   1
   5 -12  -8 86.5933 40.5155  -2
  -5 -12   8 86.5933 40.5155   1
  -5  12   7 397.442 23.0160   1
   5 -12  -7 580.250 41.7861  -2
  -5 -12   7 580.250 41.7861   1
   5 -12  -6 141.420 21.9872   1
   5 -12  -6 265.235 38.9011  -2
  -5 -12   6 265.235 38.9011   1
   5 -12  -5 1138.80 28.0710   1
  -5  12   5 1363.36 62.3235  -2
   5  12  -5 1363.36 62.3235   1
   5 -12  -4 7.09794 20.2503   1
  -5  12   4 6.82054 31.3238  -2
   5  12  -4 6.82054 31.3238   1
  -5  12   3 10.0397 20.0081   1
   5 -12  -3 10.1204 43.5283  -2
  -5 -12   3 10.1204 43.5283   1
  -5  12   2 152.359 19.2651   1
  -5  12   2 170.774 44.6586  -2
   5  12  -2 170.774 44.6586   1
   5 -12  -1 131.174 19.5449   1
  -5  12   1 215.714 44.4381  -2
   5  12  -1 215.714 44.4381   1
   5  12   0 269.800 61.1563  -2
  -5  12   1 269.800 61.1563   1
   5 -12   0 320.856 19.2114   1
   5 -12   0 371.665 45.3407  -2
  -5 -12   0 371.665 45.3407   1
   5 -12   1 445.254 19.6299   1
   5 -12   1 577.714 47.4116  -2
  -5 -12  -1 577.714 47.4116   1
   5 -12   2 44.0688 17.9040   1
  -5  12  -2 52.0431 43.1121  -2
   5  12   2 52.0431 43.1121   1
  -5  12  -3 120.686 22.4835   1
   5 -12   3 158.474 45.8886  -2
  -5 -12  -3 158.474 45.8886   1
  -5  12  -4 125.067 24.5019   1
  -5  12  -4 170.626 46.8309  -2
   5  12   4 170.626 46.8309   1
  -5  12  -5 248.004 25.0804   1
  -5  12  -5 298.620 47.9274  -2
   5  12   5 298.620 47.9274   1
   5 -12   6 213.780 24.2002   1
  -5  12  -6 276.341 45.9734  -2
   5  12   6 276.341 45.9734   1
  -5  12  -7 120.225 42.4552   1
   4  12   8 187.701 42.2122  -2
  -5  12  -7 187.701 42.2122   1
   5 -12   7 99.3116 46.7748  -2
  -5 -12  -7 99.3116 46.7748   1
   4  12   9 542.001 39.0882  -2
  -5  12  -8 542.001 39.0882   1
   5 -12   8 165.836 44.9814  -2
  -5 -12  -8 165.836 44.9814   1
   4  12  10 135.921 35.9548  -2
  -5  12  -9 135.921 35.9548   1
   5 -12   9 88.4203 43.6150  -2
  -5 -12  -9 88.4203 43.6150   1
   4  12  11 169.517 76.6124  -2
  -5  12 -10 169.517 76.6124   1
  -5  12 -11 120.994 43.8866   1
  -5  12 -12 86.5657 40.7892   1
  -5  12 -13 86.9492 41.0850   1
  -5  12 -14-11.8834 20.5395   1
   5 -12  15 39.1158 18.4156   1
   5 -12  16 16.7437 16.1062   1
  -5 -13  20 59.8221 17.6304   1
   6 -13 -19 10.0293 24.1212  -2
  -5 -13  19 10.0293 24.1212   1
   6 -13 -18 494.615 31.8958  -2
  -5 -13  18 494.615 31.8958   1
  -5 -13  17 23.7144 27.6423   1
  -5 -13  16 19.5979 29.4419   1
   5 -13 -15 211.850 21.6509   1
  -6  13  15 125.704 49.1390  -2
   5  13 -15 125.704 49.1390   1
  -5 -13  14 159.419 22.9168   1
  -6  13  14 145.066 52.4607  -2
   5  13 -14 145.066 52.4607   1
  -5 -13  13 578.310 26.0844   1
  -5 -13  12 111.133 20.7057   1
   5 -13 -11 380.955 19.1436   1
   5 -13 -10 1098.02 25.0908   1
  -5 -13   9 225.754 18.6683   1
  -5 -13   8 549.584 19.8458   1
  -5  13   7 514.967 19.9933   1
  -5  13   7 658.839 58.4767  -2
   5  13  -7 658.839 58.4767   1
  -5  13   6 441.165 24.9169   1
  -5  13   6 589.926 58.7442  -2
   5  13  -6 589.926 58.7442   1
   5 -13  -5 775.868 27.1184   1
  -5  13   5 920.301 61.4638  -2
   5  13  -5 920.301 61.4638   1
   5 -13  -4 155.801 21.6347   1
  -5  13   4 202.919 36.8892  -2
   5  13  -4 202.919 36.8892   1
   5 -13  -3 742.035 26.6934   1
   5 -13  -3 937.864 39.9123  -2
  -5 -13   3 937.864 39.9123   1
   5 -13  -2 2572.99 42.7891   1
  -5  13   2 3333.36 66.9416  -2
   5  13  -2 3333.36 66.9416   1
   5 -13  -1 48.2818 22.5126   1
  -5  13   1 114.449 48.4049  -2
   5  13  -1 114.449 48.4049   1
   5 -13   0 5180.22 43.4409   1
   5 -13   0 6101.59 95.1102  -2
  -5 -13   0 6101.59 95.1102   1
   5  13   1 5170.56 86.4456  -2
  -5  13   0 5170.56 86.4456   1
  -5  13  -1 369.348 25.8792   1
   5 -13   1 549.543 50.9934  -2
  -5 -13  -1 549.543 50.9934   1
  -5  13  -2 5471.27 36.2187   1
   5 -13   2 6173.26 87.2627  -2
  -5 -13  -2 6173.26 87.2627   1
  -5  13  -3 289.716 26.1283   1
   5 -13   3 388.878 49.6868  -2
  -5 -13  -3 388.878 49.6868   1
  -5  13  -4 2190.80 34.5581   1
   5 -13   4 2616.69 75.4313  -2
  -5 -13  -4 2616.69 75.4313   1
  -5  13  -5 1385.26 34.1774   1
   5 -13   5 1510.80 65.9040  -2
  -5 -13  -5 1510.80 65.9040   1
  -5  13  -6 1878.90 36.1915   1
   5 -13   6 2250.29 70.4068  -2
  -5 -13  -6 2250.29 70.4068   1
  -5  13  -7 1404.84 57.0297   1
   4  13   8 1360.50 50.6422  -2
  -5  13  -7 1360.50 50.6422   1
   5 -13   7 1571.77 60.1967  -2
  -5 -13  -7 1571.77 60.1967   1
   4  13   9 754.136 39.5269  -2
  -5  13  -8 754.136 39.5269   1
   5 -13   8 865.571 52.0028  -2
  -5 -13  -8 865.571 52.0028   1
   4  13  10 111.746 33.9464  -2
  -5  13  -9 111.746 33.9464   1
   5 -13   9 138.628 45.0140  -2
  -5 -13  -9 138.628 45.0140   1
   4  13  11 794.517 77.3385  -2
  -5  13 -10 794.517 77.3385   1
   5 -13  10 775.061 46.1133  -2
  -5 -13 -10 775.061 46.1133   1
   4  13  12 136.241 68.0894  -2
  -5  13 -11 136.241 68.0894   1
  -5  13 -12 144.218 42.6140   1
  -5  13 -13 132.850 21.5829   1
  -5  13 -14 451.718 20.7801   1
   5 -13  15 137.777 16.7552   1
  -5  13 -16 74.5408 25.6958   1
  -5 -14  18 7.77267 20.2441   1
  -5 -14  17 32.5338 23.4360   1
  -5 -14  16 32.4946 25.8863   1
   5 -14 -15 31.9533 19.2923   1
  -6  14  15 18.0958 41.7186  -2
   5  14 -15 18.0958 41.7186   1
   5 -14 -14 5.71316 20.9777   1
  -6  14  14 197.277 48.3973  -2
   5  14 -14 197.277 48.3973   1
   5 -14 -13 103.130 18.8899   1
   5 -14 -12 47.4608 18.9243   1
   5 -14 -11 327.766 21.1099   1
  -5 -14  10 4.26752 16.8414   1
  -5  14   9 51.1109 17.4462   1
   5 -14  -8 24.2289 16.8231   1
   5 -14  -8 21.5200 63.4851  -2
  -5 -14   8 21.5200 63.4851   1
  -5  14   7 24.1960 17.1807   1
  -5  14   7 0.42031 39.4167  -2
   5  14  -7 0.42031 39.4167   1
   5 -14  -6 257.574 24.1510   1
   5 -14  -6 305.555 39.8554  -2
  -5 -14   6 305.555 39.8554   1
  -5  14   5 8.15638 22.3747   1
   5 -14  -5 4.79989 38.2631  -2
  -5 -14   5 4.79989 38.2631   1
   5 -14  -4 167.784 25.0121   1
  -5  14   4 177.778 39.2241  -2
   5  14  -4 177.778 39.2241   1
  -5  14   3 14.3703 22.9360   1
   5 -14  -3 44.4247 38.4702  -2
  -5 -14   3 44.4247 38.4702   1
  -5  14   2 21.7139 24.3930   1
   5 -14  -2-0.36753 38.3939  -2
  -5 -14   2-0.36753 38.3939   1
  -5  14   1 57.6765 19.9909   1
   5 -14  -1 107.898 37.7805  -2
  -5 -14   1 107.898 37.7805   1
  -5  14   0-1.48665 19.6165   1
   5 -14   0 7.86230 52.3714  -2
  -5 -14   0 7.86230 52.3714   1
   5 -14   1 414.323 25.8172   1
   5 -14   1 476.786 60.1326  -2
  -5 -14  -1 476.786 60.1326   1
   5 -14   2 28.3130 20.3313   1
   5 -14   2 0.04918 45.1038  -2
  -5 -14  -2 0.04918 45.1038   1
  -5  14  -3 101.470 26.0335   1
   5 -14   3 106.742 53.3239  -2
  -5 -14  -3 106.742 53.3239   1
  -5  14  -4 998.246 31.1328   1
   5 -14   4 1215.17 64.3424  -2
  -5 -14  -4 1215.17 64.3424   1
  -5  14  -5 530.424 29.3215   1
   5 -14   5 671.013 58.2680  -2
  -5 -14  -5 671.013 58.2680   1
  -5  14  -6 477.668 48.2136   1
   4  14   7 556.189 46.2424  -2
  -5  14  -6 556.189 46.2424   1
   5 -14   6 647.632 56.1931  -2
  -5 -14  -6 647.632 56.1931   1
   4  14   8 297.895 37.4154  -2
  -5  14  -7 297.895 37.4154   1
   5 -14   7 109.164 48.7965  -2
  -5 -14  -7 109.164 48.7965   1
   4  14   9 543.420 37.2084  -2
  -5  14  -8 543.420 37.2084   1
   5 -14   8 617.179 51.0338  -2
  -5 -14  -8 617.179 51.0338   1
   4  14  10 423.872 76.1900  -2
  -5  14  -9 423.872 76.1900   1
   5 -14   9 63.8244 42.4409  -2
  -5 -14  -9 63.8244 42.4409   1
   4  14  11 19.6992 70.0010  -2
  -5  14 -10 19.6992 70.0010   1
   5 -14  10 52.6534 39.8096  -2
  -5 -14 -10 52.6534 39.8096   1
   4  14  12-4.32979 60.7709  -2
  -5  14 -11-4.32979 60.7709   1
  -5  14 -12 33.7405 36.8155   1
  -5  14 -13 121.779 19.1494   1
   5 -14  14 8.44083 15.8111   1
  -5  14 -15 107.842 24.5099   1
  -5 -15  17 25.8491 17.7780   1
  -5 -15  16 26.3861 20.9807   1
  -5 -15  15 319.042 17.1816   1
  -6  15  15 260.661 42.0226  -2
   5  15 -15 260.661 42.0226   1
  -5 -15  14 329.560 19.3247   1
   5 -15 -13 135.547 16.9145   1
   5 -15 -12 197.961 17.9426   1
   5 -15 -11 192.980 18.4537   1
  -5 -15  10 18.7175 14.1900   1
   5 -15  -9 43.9040 15.9243   1
  -5  15   8 849.950 25.5583   1
  -5  15   7 538.198 25.1205   1
   5 -15  -6 15.6094 22.1008   1
   5 -15  -6-7.16446 36.9187  -2
  -5 -15   6-7.16446 36.9187   1
  -5  15   5 24.7115 22.9455   1
   5 -15  -5-8.69695 37.5342  -2
  -5 -15   5-8.69695 37.5342   1
  -5  15   4 282.808 25.5562   1
   5 -15  -4 367.883 38.7227  -2
  -5 -15   4 367.883 38.7227   1
   5 -15  -3 433.464 25.3705   1
   5 -15  -3 560.908 40.7265  -2
  -5 -15   3 560.908 40.7265   1
  -5  15   2 346.903 25.4615   1
   5 -15  -2 407.711 39.2691  -2
  -5 -15   2 407.711 39.2691   1
   5 -15  -1 39.6982 23.2410   1
   5 -15  -1 30.1998 29.6336  -2
  -5 -15   1 30.1998 29.6336   1
   5  15   0 160.348 57.5855  -2
  -5  15   1 160.348 57.5855   1
   5 -15   0 749.261 27.5860   1
  -5  15   0 962.007 42.3280  -2
   5  15   0 962.007 42.3280   1
   5  15   1 833.285 66.4118  -2
  -5  15   0 833.285 66.4118   1
  -5  15  -1 971.030 28.3405   1
   5 -15   1 1321.17 63.1959  -2
  -5 -15  -1 1321.17 63.1959   1
  -5  15  -2 1716.11 29.9699   1
   5 -15   2 2166.82 69.8898  -2
  -5 -15  -2 2166.82 69.8898   1
  -5  15  -3 100.218 25.5715   1
   5 -15   3 117.864 51.3356  -2
  -5 -15  -3 117.864 51.3356   1
  -5  15  -4 225.766 25.3544   1
   5 -15   4 305.269 53.4742  -2
  -5 -15  -4 305.269 53.4742   1
  -5  15  -5 102.524 24.3954   1
   5 -15   5 147.773 49.3389  -2
  -5 -15  -5 147.773 49.3389   1
  -5  15  -6 427.378 42.7518   1
   4  15   7 484.050 42.9132  -2
  -5  15  -6 484.050 42.9132   1
   5 -15   6 572.387 52.8497  -2
  -5 -15  -6 572.387 52.8497   1
   4  15   8 73.7118 33.2216  -2
  -5  15  -7 73.7118 33.2216   1
   5 -15   7 81.3831 45.6790  -2
  -5 -15  -7 81.3831 45.6790   1
   4  15   9 66.3372 31.1076  -2
  -5  15  -8 66.3372 31.1076   1
   5 -15   8 35.1326 43.5800  -2
  -5 -15  -8 35.1326 43.5800   1
   4  15  10 398.881 65.5926  -2
  -5  15  -9 398.881 65.5926   1
   5 -15   9 395.768 43.9450  -2
  -5 -15  -9 395.768 43.9450   1
   4  15  11 97.6808 63.2663  -2
  -5  15 -10 97.6808 63.2663   1
   5 -15  10 37.9365 39.0665  -2
  -5 -15 -10 37.9365 39.0665   1
   4  15  12 0.88635 57.9887  -2
  -5  15 -11 0.88635 57.9887   1
  -5  15 -12 1.32711 30.5939   1
  -4 -15 -13 38.3974 26.0112  -2
   5 -15  12 38.3974 26.0112   1
  -5  15 -13 194.915 16.5584   1
  -5  15 -14 9.76582 24.0570   1
  -5 -16  15 5.03290 17.3468   1
   5 -16 -14-3.73955 11.8516   1
   5 -16 -13-6.17176 13.5668   1
  -5 -16  12 28.3591 15.0812   1
   5 -16 -11 135.400 16.5321   1
   5 -16 -10-3.56887 16.5145   1
   5 -16  -9 14.8715 12.8913   1
  -5  16   8 27.7551 19.9083   1
  -5  16   8 2.04991 58.0167  -2
   5  16  -8 2.04991 58.0167   1
   5 -16  -7 12.1500 20.9628   1
   5 -16  -7 29.6630 50.8698  -2
  -5 -16   7 29.6630 50.8698   1
   5 -16  -6 96.0426 21.7757   1
   5 -16  -6 144.558 54.9358  -2
  -5 -16   6 144.558 54.9358   1
  -5  16   5 14.1283 21.3357   1
   5 -16  -5 25.9726 54.4561  -2
  -5 -16   5 25.9726 54.4561   1
   5 -16  -4 9.59031 21.6654   1
  -5  16   4 14.0158 34.8032  -2
   5  16  -4 14.0158 34.8032   1
   5 -16  -3 9.89813 22.5748   1
   5 -16  -3 38.4447 35.6040  -2
  -5 -16   3 38.4447 35.6040   1
   5 -16  -2 19.8707 21.8943   1
   5 -16  -2 13.8325 35.7138  -2
  -5 -16   2 13.8325 35.7138   1
  -5  16   1 71.0098 22.5856   1
   5 -16  -1 96.5330 35.3626  -2
  -5 -16   1 96.5330 35.3626   1
   5 -16   0 121.580 22.6600   1
   5 -16   0 153.121 35.0765  -2
  -5 -16   0 153.121 35.0765   1
   5  16   1 125.319 54.4341  -2
  -5  16   0 125.319 54.4341   1
  -5  16  -1 13.2594 18.3385   1
   5 -16   1 13.4734 35.0164  -2
  -5 -16  -1 13.4734 35.0164   1
  -5  16  -2 113.800 23.2953   1
   5 -16   2 153.422 33.5033  -2
  -5 -16  -2 153.422 33.5033   1
  -5  16  -3 3.09235 21.6380   1
   5 -16   3 5.06403 31.3991  -2
  -5 -16  -3 5.06403 31.3991   1
  -5  16  -4 11.3912 22.4397   1
   5 -16   4 17.6012 49.6289  -2
  -5 -16  -4 17.6012 49.6289   1
  -5  16  -5 7.90401 22.1298   1
   5 -16   5 2.59720 40.4324  -2
  -5 -16  -5 2.59720 40.4324   1
  -5  16  -6 20.0159 36.5458   1
   4  16   7 40.1284 36.4397  -2
  -5  16  -6 40.1284 36.4397   1
   5 -16   6 29.0486 45.5906  -2
  -5 -16  -6 29.0486 45.5906   1
   4  16   8 41.9911 29.7820  -2
  -5  16  -7 41.9911 29.7820   1
   5 -16   7 9.11374 43.9763  -2
  -5 -16  -7 9.11374 43.9763   1
   4  16   9 166.614 62.1203  -2
  -5  16  -8 166.614 62.1203   1
   5 -16   8 4.62785 40.9435  -2
  -5 -16  -8 4.62785 40.9435   1
   4  16  10 105.681 58.6787  -2
  -5  16  -9 105.681 58.6787   1
   5 -16   9 15.8086 38.1399  -2
  -5 -16  -9 15.8086 38.1399   1
   4  16  11 108.460 55.4255  -2
  -5  16 -10 108.460 55.4255   1
  -4 -16 -12 58.1757 21.7672  -2
   5 -16  11 58.1757 21.7672   1
  -5  16 -12 2.71720 14.1826   1
   5 -17 -13 9.98430 17.6722   1
   5 -17 -12 28.8677 16.2923   1
   5  17 -11 328.874 20.2770   1
   5 -17 -10 1.64770 20.7551   1
   5  17  -9 40.4659 21.4442   1
   5 -17  -8 4.76300 16.1944   1
  -5  17   8 4.57300 54.9888  -2
   5  17  -8 4.57300 54.9888   1
  -5  17   7 223.457 19.0983   1
  -5  17   7 235.837 59.1157  -2
   5  17  -7 235.837 59.1157   1
   5 -17  -6 330.577 20.1517   1
  -5  17   6 419.354 39.1198  -2
   5  17  -6 419.354 39.1198   1
  -5  17   5 5.92861 19.1596   1
   5 -17  -5 40.2073 52.1685  -2
  -5 -17   5 40.2073 52.1685   1
   5 -17  -4 6.06243 19.9436   1
   5 -17  -4-12.2827 51.7485  -2
  -5 -17   4-12.2827 51.7485   1
   5 -17  -3 403.143 22.3175   1
  -5  17   2 5.04105 19.7697   1
  -5  17   2 1.36884 30.7400  -2
   5  17  -2 1.36884 30.7400   1
   5 -17  -1 12.9295 19.5170   1
  -5  17   1 3.43016 26.3188  -2
   5  17  -1 3.43016 26.3188   1
   5 -17   0 44.9721 19.8811   1
  -5  17   0 84.8987 31.7784  -2
   5  17   0 84.8987 31.7784   1
   5  17   1 128.425 47.8280  -2
  -5  17   0 128.425 47.8280   1
   5 -17   1 249.473 20.9120   1
   5 -17   1 470.573 51.1579  -2
  -5 -17  -1 470.573 51.1579   1
  -5  17  -2 14.6812 20.3573   1
   5 -17   2 8.58247 29.8235  -2
  -5 -17  -2 8.58247 29.8235   1
  -5  17  -3 21.5695 20.7089   1
   5 -17   3 10.1245 39.8226  -2
  -5 -17  -3 10.1245 39.8226   1
  -5  17  -4 62.8034 20.1498   1
   5 -17   4 105.371 48.3132  -2
  -5 -17  -4 105.371 48.3132   1
  -5  17  -5 513.254 22.4359   1
   5 -17   5 774.707 51.3015  -2
  -5 -17  -5 774.707 51.3015   1
  -5  17  -6 162.358 33.2392   1
   5 -17   6 262.535 44.5841  -2
  -5 -17  -6 262.535 44.5841   1
   4  17   8 13.6428 50.6100  -2
  -5  17  -7 13.6428 50.6100   1
   5 -17   7-0.52009 39.9853  -2
  -5 -17  -7-0.52009 39.9853   1
   4  17   9 1.22840 50.0458  -2
  -5  17  -8 1.22840 50.0458   1
   5 -17   8-22.2342 37.0653  -2
  -5 -17  -8-22.2342 37.0653   1
   4  17  10 59.2524 45.7564  -2
  -5  17  -9 59.2524 45.7564   1
   5 -17   9-13.5873 34.0876  -2
  -5 -17  -9-13.5873 34.0876   1
   4  17  11 109.914 19.3125  -2
  -5  17 -10 109.914 19.3125   1
  -5  17 -11 3.16253 12.0959   1
   5 -18 -11-2.00734 13.0864   1
   5 -18 -10-1.69069 15.4901   1
   5  18  -9-0.63134 16.9072   1
   5  18  -8 11.7525 18.9957   1
   5 -18  -7-0.24237 14.6652   1
  -5  18   7 27.7609 47.1864  -2
   5  18  -7 27.7609 47.1864   1
   5 -18  -6 16.1161 15.5528   1
  -5  18   6-30.6995 29.0596  -2
   5  18  -6-30.6995 29.0596   1
  -5  18   5 6.94689 16.4321   1
   5 -18  -5-2.42539 32.0992  -2
  -5 -18   5-2.42539 32.0992   1
   5 -18  -4 1.08634 17.2735   1
   5 -18  -4 22.0469 33.1000  -2
  -5 -18   4 22.0469 33.1000   1
  -5  18   3-2.22089 17.0018   1
   5 -18  -3 2.50461 34.8008  -2
  -5 -18   3 2.50461 34.8008   1
  -5  18   2 28.0676 16.9920   1
   5 -18  -2-3.20292 32.1583  -2
  -5 -18   2-3.20292 32.1583   1
  -5  18   1 4.70684 16.9593   1
   5 -18  -1 7.94811 48.7590  -2
  -5 -18   1 7.94811 48.7590   1
   5 -18   0-2.45640 16.1241   1
   5 -18   0 21.3560 46.7599  -2
  -5 -18   0 21.3560 46.7599   1
  -5  18  -1 114.654 24.2227   1
   5 -18   1 187.181 49.9321  -2
  -5 -18  -1 187.181 49.9321   1
  -5  18  -2 58.5891 17.2648   1
   5 -18   2 146.203 46.5496  -2
  -5 -18  -2 146.203 46.5496   1
  -5  18  -3 10.0862 16.5345   1
  -5  18  -3 0.45129 28.0774  -2
   5  18   3 0.45129 28.0774   1
  -5  18  -4 1.84241 16.3793   1
   5 -18   4 18.7445 41.0708  -2
  -5 -18  -4 18.7445 41.0708   1
  -5  18  -5 25.2817 26.1197   1
   5 -18   5 65.8481 39.9957  -2
  -5 -18  -5 65.8481 39.9957   1
  -5  18  -6 18.5801 25.6485   1
   5 -18   6 35.9954 36.8402  -2
  -5 -18  -6 35.9954 36.8402   1
   4  18   8 69.8331 39.7607  -2
  -5  18  -7 69.8331 39.7607   1
   5 -18   7 3.66186 32.9253  -2
  -5 -18  -7 3.66186 32.9253   1
   4  18   9 83.4686 17.8442  -2
  -5  18  -8 83.4686 17.8442   1
   5  19  -8 68.7860 13.2899   1
   5 -19  -7 30.7685 18.9960   1
  -5  19   7 21.0125 34.6142  -2
   5  19  -7 21.0125 34.6142   1
   5 -19  -6 109.601 20.4542   1
  -5  19   6 138.020 36.7503  -2
   5  19  -6 138.020 36.7503   1
  -5  19   5 83.0227 12.5194   1
  -5  19   5 124.127 38.7355  -2
   5  19  -5 124.127 38.7355   1
  -5  19   4 151.101 17.9688   1
  -5  19   4 189.217 26.0045  -2
   5  19  -4 189.217 26.0045   1
  -5 -19   3 112.664 28.9878  -2
   5 -19  -4 112.664 28.9878   1
  -5  19   3 19.6040 13.3407   1
  -5  19   3 8.99049 26.5147  -2
   5  19  -3 8.99049 26.5147   1
   5 -19  -2 79.9417 13.6473   1
  -5  19   2 117.809 27.1735  -2
   5  19  -2 117.809 27.1735   1
   5 -19  -1 2.49310 13.6717   1
   5 -19  -1 7.57159 26.0473  -2
  -5 -19   1 7.57159 26.0473   1
  -5  19   0 132.195 19.2819   1
   5 -19   0 181.864 26.0882  -2
  -5 -19   0 181.864 26.0882   1
  -5  19  -1 231.808 20.5843   1
   5 -19   1 287.674 27.0905  -2
  -5 -19  -1 287.674 27.0905   1
   5 -19   2 317.072 39.8435  -2
  -5 -19  -2 317.072 39.8435   1
   5 -19   3-13.8098 36.4913  -2
  -5 -19  -3-13.8098 36.4913   1
   5 -19   4 33.8244 30.2199  -2
  -5 -19  -4 33.8244 30.2199   1
   5 -19   5 160.162 30.6069  -2
  -5 -19  -5 160.162 30.6069   1
  -6   0  24 705.766 24.5022   1
  -6   0  22 63.2453 28.2365   1
  -6   0  20 16.5724 28.0082   1
  -6   0  18 807.573 49.4423   1
  -6   0  16 1066.62 37.8295   1
   6   0 -14 51.4390 26.3264   1
   6   0 -12 2739.62 76.7744   1
   6   0 -10 18948.9 98.2721   1
   6   0  -8 8758.94 66.2275   1
  -6   0   6 112205. 208.904   1
   6   0  -4 32071.1 165.046   1
   6   0  -4 39106.6 157.153  -2
  -6   0   4 39106.6 157.153   1
   6   0  -2 5040.22 30.2765   1
   6   0  -2 6704.07 77.9624  -2
  -6   0   2 6704.07 77.9624   1
   6   0   0 3086.52 32.9665   1
  -6   0  -2 26654.6 157.849   1
  -6   0  -4 8303.10 103.013   1
   6   0   6 2347.32 43.6884   1
  -6   0 -10 1006.53 40.2110   1
  -6   0 -12 6118.21 52.5206   1
  -6   0 -14 1024.47 53.4579   1
  -6   0 -16 1672.16 58.7380   1
  -6   0 -18 21.8782 39.1251   1
  -6   0 -20 770.854 39.9777   1
  -6   0 -22 122.135 22.8532   1
   6  -1 -25-6.72887 21.3200   1
   6  -1 -24 2.29853 26.5793   1
   7  -1 -24 72.2931 34.4852  -2
  -6  -1  24 72.2931 34.4852   1
   6  -1 -23 54.3080 20.7380   1
   7   1 -23 84.0102 27.2025  -2
  -6   1  23 84.0102 27.2025   1
   6   1 -22 10.8155 23.2855   1
   7   1 -22 38.8479 29.2417  -2
  -6   1  22 38.8479 29.2417   1
  -6   1  21 4.06029 21.5237   1
   7  -1 -21 20.3500 43.8488  -2
  -6  -1  21 20.3500 43.8488   1
  -6   1  20 80.0940 20.5858   1
  -6   1  19 2.33025 23.6641   1
  -6   1  18 81.5083 30.7095   1
  -6   1  17 511.272 32.3872   1
  -6   1  16 82.2599 24.6009   1
  -6   1  15 161.785 21.3633   1
  -6  -1  14 171.190 18.9777   1
  -6  -1  13 247.072 21.6570   1
   6  -1 -12 827.941 32.7013   1
  -6  -1  11 333.531 24.2758   1
   6   1 -10 1619.27 31.4149   1
  -6  -1   9 188.640 17.5132   1
   6  -1  -8 396.182 18.7942   1
   6  -1  -7 731.515 24.8604   1
   6  -1  -7 921.055 41.8277  -2
  -6  -1   7 921.055 41.8277   1
   6  -1  -6 3583.52 34.8025   1
   6  -1  -6 4544.39 60.8522  -2
  -6  -1   6 4544.39 60.8522   1
   6  -1  -5 5616.95 56.7930   1
   6   1  -5 7305.91 83.6443  -2
  -6   1   5 7305.91 83.6443   1
  -6   1   4 1300.11 34.1196   1
   6  -1  -4 1603.06 49.0977  -2
  -6  -1   4 1603.06 49.0977   1
  -6   1   3 216.658 16.6586   1
   6  -1  -3 283.403 40.4568  -2
  -6  -1   3 283.403 40.4568   1
   6  -1  -2 1264.90 24.5789   1
   6  -1  -2 1663.99 38.4217  -2
  -6  -1   2 1663.99 38.4217   1
   6  -1  -1 127.225 9.16374   1
   6  -1  -1 174.762 32.3484  -2
  -6  -1   1 174.762 32.3484   1
  -6   1   0 1215.72 22.7368   1
   6  -1   0 1491.25 54.5784  -2
  -6  -1   0 1491.25 54.5784   1
  -6   1  -1 90.8846 22.3689   1
   6  -1   1 70.5509 47.5459  -2
  -6  -1  -1 70.5509 47.5459   1
   6   1   2 9876.94 64.6931   1
   6  -1   2 11892.8 111.841  -2
  -6  -1  -2 11892.8 111.841   1
   6   1   3 198.748 15.5877   1
   6  -1   4 1769.70 24.4834   1
   6  -1   4 1953.25 72.0660  -2
  -6  -1  -4 1953.25 72.0660   1
   6  -1   5 222.912 24.4321   1
  -6   1  -6 3.83820 23.7555   1
   6  -1   7 193.801 32.8487   1
   6  -1   8 998.953 43.4362   1
  -6  -1 -10-3.27258 23.3936   1
  -6   1 -11 255.593 18.6586   1
  -6  -1 -12 578.890 24.5985   1
   5   1  13 604.713 49.4836  -2
  -6   1 -12 604.713 49.4836   1
  -6  -1 -13 3921.82 36.8393   1
  -6   1 -14 12.0948 28.2451   1
  -6   1 -15 123.891 31.1360   1
  -6  -1 -16 186.710 32.1585   1
  -6  -1 -17 732.955 33.7003   1
  -6   1 -18 213.025 28.7391   1
  -6   1 -19 286.772 27.6722   1
  -6   1 -20 139.494 23.8998   1
  -6   1 -21 143.515 20.9926   1
  -6  -1 -22 2.95208 23.4419   1
   6  -2 -25 18.8192 21.6426   1
   6  -2 -24 11.2246 27.9338   1
   7  -2 -24 38.8447 32.3901  -2
  -6  -2  24 38.8447 32.3901   1
   6  -2 -23 146.321 34.3020   1
   7  -2 -23 144.108 27.3328  -2
  -6  -2  23 144.108 27.3328   1
   6  -2 -22 44.9740 36.9822   1
   7  -2 -22 5.56081 29.9766  -2
  -6  -2  22 5.56081 29.9766   1
   6   2 -21 104.196 21.7991   1
   7  -2 -21 139.640 45.5758  -2
  -6  -2  21 139.640 45.5758   1
   6   2 -20 2152.15 41.6511   1
  -6  -2  19 14.7615 22.4469   1
  -6   2  18 846.610 35.1185   1
  -6   2  17 2720.05 41.8513   1
  -6  -2  16 2398.49 36.5732   1
   6  -2 -15 8291.52 67.8562   1
   6   2 -14 493.086 20.5790   1
  -6  -2  13 18.5437 17.3139   1
   6  -2 -12 2570.55 51.5949   1
   6   2 -11 1572.60 31.9481   1
   6  -2 -10 10432.1 86.3365   1
   6  -2  -9 95.0190 22.3923   1
   6   2  -8 31.3186 16.0844   1
   6  -2  -7 25105.3 120.054   1
   6  -2  -6 7239.63 46.4615   1
  -6  -2   5 6463.98 42.9658   1
   6  -2  -4 2073.22 32.5779   1
   6  -2  -4 2558.47 49.6043  -2
  -6  -2   4 2558.47 49.6043   1
   6   2  -3 4843.15 42.8975   1
   6   2  -3 5938.88 52.1476  -2
  -6   2   3 5938.88 52.1476   1
   6   2  -2 1356.38 28.3788   1
   6   2  -2 1772.14 38.9829  -2
  -6   2   2 1772.14 38.9829   1
   6   2  -1 1313.08 28.1624   1
   6  -2  -1 1617.19 52.6616  -2
  -6  -2   1 1617.19 52.6616   1
  -6   2   0 1329.48 28.2862   1
   6  -2   0 1356.84 54.0758  -2
  -6  -2   0 1356.84 54.0758   1
   6  -2   1 3944.09 41.8121   1
   6  -2   1 4594.39 77.7137  -2
  -6  -2  -1 4594.39 77.7137   1
  -6   2  -2 12977.5 65.2709   1
   6  -2   2 14428.4 122.751  -2
  -6  -2  -2 14428.4 122.751   1
   6   2   3 2962.35 31.2169   1
   6  -2   3 3536.44 81.4724  -2
  -6  -2  -3 3536.44 81.4724   1
   6  -2   4 5524.14 42.0672   1
   6  -2   5 18715.1 103.774   1
   6   2   6 1978.36 33.9387   1
  -6   2  -7 5267.46 66.5699   1
   6   2   8 1065.02 38.2687   1
   6   2   9 5323.98 64.9209   1
  -6   2 -10 1676.74 30.9186   1
  -6  -2 -11 1297.64 29.4952   1
   5   2  12 1692.23 52.8543  -2
  -6   2 -11 1692.23 52.8543   1
   6   2  12 867.902 24.5189   1
  -6   2 -13 3849.98 36.8148   1
  -6   2 -14 458.086 24.5112   1
  -6   2 -15 55.4489 30.2500   1
  -6   2 -16 457.696 33.5931   1
  -6  -2 -17 160.685 29.7645   1
  -6   2 -18-7.30026 27.2563   1
  -6   2 -19 305.569 27.1978   1
  -6   2 -20 9.06168 22.8043   1
  -6  -2 -21 26.9266 19.1899   1
  -6  -2 -22 4.45819 22.8700   1
   6  -3 -25 18.4945 22.6058   1
   6  -3 -24-9.20000 28.8036   1
   7  -3 -24 11.9569 31.6636  -2
  -6  -3  24 11.9569 31.6636   1
   6  -3 -23 89.7316 34.7504   1
   7  -3 -23 116.852 37.5528  -2
  -6  -3  23 116.852 37.5528   1
   6  -3 -22-4.35394 36.1389   1
   7  -3 -22 15.1944 28.8505  -2
  -6  -3  22 15.1944 28.8505   1
   6  -3 -21 60.4009 29.7183   1
   7  -3 -21 125.532 43.4077  -2
  -6  -3  21 125.532 43.4077   1
  -6  -3  20 41.1742 24.6965   1
  -6  -3  19 58.3111 31.0475   1
  -6   3  18 45.9175 30.7007   1
  -6  -3  17 23.2337 24.9966   1
  -6  -3  16 292.713 24.6765   1
  -6  -3  15 355.154 23.8002   1
  -6  -3  14 70.4853 18.9275   1
  -6  -3  13 47.6917 16.4934   1
   6  -3 -12 995.241 42.9447   1
   6   3 -11 552.867 27.3036   1
   6  -3 -10 141.769 23.9332   1
   6  -3  -9 1524.39 32.0004   1
   6   3  -8 1505.92 35.1909   1
   6  -3  -7 2323.69 33.6740   1
   6  -3  -6 1231.86 22.1255   1
  -6  -3   5 93.0043 18.7713   1
  -6   3   5 105.897 37.3115  -2
   6   3  -5 105.897 37.3115   1
  -6  -3   4 358.338 18.6999   1
  -6  -3   3 13.8219 20.7412   1
  -6   3   3 29.2915 27.2921  -2
   6   3  -3 29.2915 27.2921   1
   6   3  -2 22.4379 20.0377   1
   6  -3  -2 53.3882 40.5361  -2
  -6  -3   2 53.3882 40.5361   1
   6   3  -1 27.5486 19.3960   1
   6  -3  -1 54.1440 44.4059  -2
  -6  -3   1 54.1440 44.4059   1
  -6   3   0 1071.40 32.3039   1
   6  -3   0 1268.01 55.9358  -2
  -6  -3   0 1268.01 55.9358   1
  -6   3  -1 309.049 19.7190   1
  -6   3  -2 3560.44 37.6092   1
  -6   3  -3 77.7019 17.8325   1
   6   3   4 109.646 22.9207   1
   6   3   5 903.464 28.5706   1
   6   3   6 94.8634 23.6516   1
   6   3   7 824.880 35.1563   1
   6  -3   8 1873.60 46.4702   1
  -6  -3  -9 43.6574 21.8129   1
   6   3  10 568.635 19.9778   1
   5   3  11 614.189 44.4313  -2
  -6   3 -10 614.189 44.4313   1
  -6   3 -11 95.3616 20.3446   1
   6   3  12 65.4162 25.6483   1
   5   3  13 843.043 48.4252  -2
  -6   3 -12 843.043 48.4252   1
  -6  -3 -13 106.075 27.6417   1
   5   3  14 122.011 46.4465  -2
  -6   3 -13 122.011 46.4465   1
  -6   3 -14-7.15001 22.0408   1
  -6   3 -15 3702.71 46.0652   1
  -6   3 -16 358.601 32.5638   1
  -6   3 -17 448.632 32.0436   1
  -6  -3 -18 47.6056 27.3354   1
  -6   3 -19 0.21230 23.9397   1
  -6  -3 -20 76.0676 21.9175   1
  -6  -3 -21 40.8539 28.8463   1
  -6  -3 -22 32.5493 22.6447   1
   6  -4 -25 21.8455 21.9661   1
   6  -4 -24 21.6727 28.0203   1
   7  -4 -24 38.3090 30.7108  -2
  -6  -4  24 38.3090 30.7108   1
   6  -4 -23 215.166 34.9745   1
   7  -4 -23 235.645 36.8592  -2
  -6  -4  23 235.645 36.8592   1
   6  -4 -22 0.01626 36.6550   1
   7  -4 -22 2.82279 43.5659  -2
  -6  -4  22 2.82279 43.5659   1
  -6   4  21 15.6785 29.1029   1
   7  -4 -21 93.6570 43.0355  -2
  -6  -4  21 93.6570 43.0355   1
  -6   4  20 125.109 25.6295   1
  -6  -4  19 818.367 35.0404   1
  -6  -4  18 474.152 32.4621   1
  -6   4  17 150.544 25.5763   1
  -6   4  16 78.2251 23.9961   1
  -6  -4  15 305.326 22.1174   1
   6  -4 -14 972.723 25.7498   1
   6  -4 -13 728.251 20.1001   1
   6   4 -12 209.152 19.4676   1
   6   4 -11 14202.2 89.1324   1
   6   4 -10 511.182 26.6358   1
   6  -4  -9 31.3341 22.8104   1
   6  -4  -8 1716.75 32.8710   1
   6  -4  -7 36687.9 148.576   1
   6  -4  -6 5614.35 50.9751   1
   6  -4  -5 1553.73 32.8775   1
  -6   4   5 1906.02 75.1508  -2
   6   4  -5 1906.02 75.1508   1
   6  -4  -4 176.171 23.7560   1
  -6   4   4 207.736 55.5910  -2
   6   4  -4 207.736 55.5910   1
   6   4  -3 1331.95 27.6978   1
   6   4  -2 2303.37 40.0544   1
   6  -4  -1 2081.12 38.9453   1
  -6   4   1 2408.63 60.1729  -2
   6   4  -1 2408.63 60.1729   1
  -6   4   0 17493.0 70.2195   1
   6   4   1 116.815 19.0498   1
  -6   4  -2 6154.02 47.6776   1
  -6   4  -2 7545.60 93.5770  -2
   6   4   2 7545.60 93.5770   1
  -6   4  -3 3078.35 48.2455   1
   6  -4   4 3925.86 53.8259   1
   6   4   5 5592.83 63.1330   1
   6   4   6 6698.60 70.2409   1
   6  -4   7 254.396 25.9001   1
  -6   4  -8 1108.08 34.0613   1
   6  -4   9 2411.65 29.0124   1
   6   4  10 19.2007 17.5923   1
   6   4  11 2719.64 40.7440   1
   5   4  12 2809.69 45.5306  -2
  -6   4 -11 2809.69 45.5306   1
   6   4  12 193.115 27.1844   1
   5   4  13 234.603 42.3958  -2
  -6   4 -12 234.603 42.3958   1
  -6  -4 -13 2654.27 32.9960   1
  -6   4 -14 23.0256 21.9353   1
  -6  -4 -15 989.063 28.7814   1
  -6  -4 -16 23.3149 29.7134   1
  -6   4 -17 784.714 31.8977   1
  -6   4 -18 32.7424 24.8280   1
  -6  -4 -19 9.14518 35.7463   1
  -6  -4 -20 14.0127 33.3425   1
  -6  -4 -21 94.1742 27.5531   1
   6  -5 -25-11.5454 20.1117   1
   6  -5 -24 4.84317 27.9721   1
   7  -5 -24 79.4270 29.3557  -2
  -6  -5  24 79.4270 29.3557   1
   6  -5 -23 10.1547 32.2229   1
   7  -5 -23 32.6168 34.2699  -2
  -6  -5  23 32.6168 34.2699   1
   6  -5 -22-6.64118 36.3587   1
   7  -5 -22 35.5034 39.4401  -2
  -6  -5  22 35.5034 39.4401   1
  -6  -5  21 18.3369 27.9494   1
   6  -5 -20 29.0808 24.3986   1
  -6  -5  19 307.712 31.8633   1
  -6  -5  18 71.7876 31.0531   1
  -6  -5  17 38.3511 25.4698   1
  -6  -5  16 7.53311 23.0082   1
  -6  -5  15 93.6687 16.6015   1
  -6  -5  14 99.2154 20.6795   1
  -6  -5  13 134.913 19.7531   1
  -6   5  12 503.642 18.9239   1
  -6  -5  11 5.77146 24.9604   1
  -6  -5  10 144.133 24.5287   1
   6   5  -9 346.459 25.8240   1
  -6  -5   8 22.2944 26.7607   1
  -6   5   7 223.614 27.8400   1
  -6  -5   6 176.851 26.1251   1
  -6   5   6 238.117 71.2270  -2
   6   5  -6 238.117 71.2270   1
   6  -5  -5 1080.04 30.4851   1
  -6   5   5 1397.76 74.9790  -2
   6   5  -5 1397.76 74.9790   1
  -6  -5   4 128.397 27.1545   1
  -6   5   4 154.970 40.8415  -2
   6   5  -4 154.970 40.8415   1
   6  -5  -3 2818.05 40.6314   1
  -6   5   3 3581.84 55.2563  -2
   6   5  -3 3581.84 55.2563   1
   6  -5  -2 109.384 19.6422   1
  -6   5   2 230.927 54.4422  -2
   6   5  -2 230.927 54.4422   1
  -6   5   1 16.4284 25.6839   1
  -6   5   1 32.9708 52.6581  -2
   6   5  -1 32.9708 52.6581   1
   6   5   0 22.2885 20.6505   1
  -6   5  -1 1618.22 32.5627   1
  -6   5  -2 942.848 26.3026   1
  -6   5  -2 1129.24 59.5116  -2
   6   5   2 1129.24 59.5116   1
  -6   5  -3 366.915 43.7111   1
  -6   5  -3 411.286 58.0774  -2
   6   5   3 411.286 58.0774   1
   6   5   4 9.41041 23.5737   1
  -6   5  -5 72.7279 25.1406   1
   6   5   6 147.305 25.6436   1
   6   5   7 873.852 32.5566   1
   6   5   8 703.854 24.0761   1
   6  -5   9-3.22345 19.5435   1
   6   5  10 613.290 24.0746   1
  -6  -5 -11 23.7921 32.0256   1
   5   5  12 62.7500 45.9478  -2
  -6   5 -11 62.7500 45.9478   1
  -6  -5 -12 726.709 30.1395   1
   5   5  13 828.285 38.9263  -2
  -6   5 -12 828.285 38.9263   1
  -6  -5 -13 836.256 31.5698   1
  -6   5 -14 1896.59 37.1794   1
  -6   5 -15 225.083 30.6094   1
  -6   5 -16 208.262 29.6838   1
  -6  -5 -17 190.789 41.4868   1
  -6  -5 -18 5.58220 36.6289   1
  -6  -5 -19 86.9695 34.8590   1
  -6  -5 -20 31.5575 30.7390   1
  -6  -5 -21 41.0312 25.4240   1
   6  -6 -24 467.428 28.4640   1
   7  -6 -24 700.775 30.3094  -2
  -6  -6  24 700.775 30.3094   1
   6  -6 -23 13.4824 30.1537   1
   7  -6 -23 8.81362 32.2137  -2
  -6  -6  23 8.81362 32.2137   1
   6  -6 -22 109.999 35.6343   1
   7  -6 -22 122.146 37.0872  -2
  -6  -6  22 122.146 37.0872   1
   6  -6 -21 56.7626 38.4674   1
   7  -6 -21 102.153 41.2189  -2
  -6  -6  21 102.153 41.2189   1
  -6  -6  20 2091.72 31.8504   1
  -6   6  19 288.712 32.1384   1
  -6  -6  18 78.4261 30.3566   1
  -6  -6  17 847.383 34.8557   1
   6  -6 -16 3111.89 58.5059   1
   6  -6 -15 26.5154 22.4164   1
  -6  -6  14 216.285 21.8831   1
   6  -6 -13 97.7591 16.0285   1
  -6   6  12 3343.47 25.0323   1
  -6   6  11 1009.38 23.2827   1
  -6  -6  10 234.503 25.8284   1
   6  -6  -9 893.631 30.2397   1
   6  -6  -8 4570.48 54.9622   1
   6  -6  -7 4312.87 50.9185   1
   6  -6  -6 58.6522 24.6246   1
  -6   6   6 66.2499 72.6413  -2
   6   6  -6 66.2499 72.6413   1
   6  -6  -5 549.587 26.7374   1
   6  -6  -4 576.290 30.4205   1
   6  -6  -3 15117.2 69.7126   1
  -6   6   3 19177.4 155.976  -2
   6   6  -3 19177.4 155.976   1
   6  -6  -2 7.53724 18.5647   1
  -6   6   2 14.9546 54.3156  -2
   6   6  -2 14.9546 54.3156   1
   6  -6  -1 60.5344 26.3288   1
  -6   6   1 37.8898 55.3647  -2
   6   6  -1 37.8898 55.3647   1
   6  -6   0 20.2184 24.3050   1
  -6   6   0 10.9834 51.5124  -2
   6   6   0 10.9834 51.5124   1
   6  -6   1 3046.51 40.6426   1
  -6   6  -1 3623.87 82.3333  -2
   6   6   1 3623.87 82.3333   1
  -6   6  -2 1748.88 60.3291   1
  -6   6  -2 2075.91 72.6799  -2
   6   6   2 2075.91 72.6799   1
  -6   6  -3 587.600 48.2771   1
  -6   6  -3 720.703 62.9491  -2
   6   6   3 720.703 62.9491   1
   6  -6   4 2060.06 47.0880   1
  -6   6  -4 2456.42 80.0716  -2
   6   6   4 2456.42 80.0716   1
  -6   6  -5 3237.55 55.1394   1
  -6   6  -5 3978.04 92.1328  -2
   6   6   5 3978.04 92.1328   1
  -6   6  -6 123.661 30.5403   1
  -6   6  -6 154.170 58.9176  -2
   6   6   6 154.170 58.9176   1
   6   6   7 237.297 21.1438   1
  -6  -6  -8 2123.10 42.4102   1
   6  -6   9 789.260 23.6421   1
   6   6  10 1540.92 28.7694   1
  -6  -6 -11-4.42214 27.1577   1
   5   6  12 97.9467 70.1447  -2
  -6   6 -11 97.9467 70.1447   1
  -6  -6 -12 23.3241 32.5155   1
  -5  -6 -13 143.813 51.1671  -2
   6  -6  12 143.813 51.1671   1
  -6  -6 -13 1063.47 32.2398   1
  -6  -6 -14 168.644 30.6057   1
  -6  -6 -15 116.533 28.9259   1
  -6  -6 -16 28.8293 26.9508   1
  -6  -6 -17 48.6856 39.8238   1
  -6  -6 -18 186.048 36.7770   1
  -6  -6 -19 3.53445 31.9668   1
  -6  -6 -20 20.6782 28.2742   1
  -6  -6 -21-5.36135 22.5850   1
   6  -7 -24 14.5138 15.7128   1
   6  -7 -23-6.13842 27.3805   1
   7  -7 -23-29.3015 29.3167  -2
  -6  -7  23-29.3015 29.3167   1
   6  -7 -22 15.5732 32.7105   1
   7  -7 -22 46.3402 35.0882  -2
  -6  -7  22 46.3402 35.0882   1
   6  -7 -21 31.5560 37.5727   1
   7  -7 -21 29.3516 38.5969  -2
  -6  -7  21 29.3516 38.5969   1
  -6  -7  20 93.6164 26.8948   1
  -6  -7  19 164.102 29.4416   1
  -6  -7  18 228.870 30.2240   1
  -6  -7  17 26.0702 30.3370   1
  -6  -7  16 167.707 30.7103   1
  -6   7  15 34.7783 23.0047   1
  -6  -7  14 9.50938 16.5529   1
   6  -7 -13 91.5755 16.7638   1
   6  -7 -12 16.9346 15.8593   1
  -6  -7  11 184.341 15.5883   1
  -6   7  10 233.209 14.4372   1
  -6   7  10 277.029 49.9201  -2
   6   7 -10 277.029 49.9201   1
   6  -7  -9 562.848 28.8309   1
  -6   7   9 634.102 50.4970  -2
   6   7  -9 634.102 50.4970   1
   6  -7  -8 4.56406 29.1336   1
   6  -7  -7 498.691 30.6953   1
   6  -7  -6 338.493 27.5860   1
  -6   7   6 399.118 80.0189  -2
   6   7  -6 399.118 80.0189   1
   6  -7  -5 11.9925 23.7846   1
  -6   7   5 63.8120 74.4794  -2
   6   7  -5 63.8120 74.4794   1
  -6  -7   4 20.9500 23.1060   1
  -6   7   4 25.8757 69.1751  -2
   6   7  -4 25.8757 69.1751   1
   6  -7  -3 212.312 22.4174   1
  -6   7   3 323.753 65.4541  -2
   6   7  -3 323.753 65.4541   1
  -6   7   2 320.866 31.3973   1
  -6   7   2 397.747 64.0191  -2
   6   7  -2 397.747 64.0191   1
   6  -7  -1 778.573 32.9573   1
  -6   7   1 990.658 67.0333  -2
   6   7  -1 990.658 67.0333   1
   6  -7   0 294.962 27.2921   1
  -6   7   0 412.767 61.3755  -2
   6   7   0 412.767 61.3755   1
  -6   7  -1 393.965 48.9797   1
  -6   7  -1 552.194 60.3924  -2
   6   7   1 552.194 60.3924   1
  -6   7  -2 364.664 45.1442   1
  -6   7  -2 580.506 62.6254  -2
   6   7   2 580.506 62.6254   1
   6  -7   3 1612.65 45.3341   1
  -6   7  -3 1949.41 78.2047  -2
   6   7   3 1949.41 78.2047   1
  -6   7  -4 293.521 34.6783   1
  -6   7  -4 344.972 62.5746  -2
   6   7   4 344.972 62.5746   1
   6  -7   5 1912.56 48.0161   1
  -6   7  -5 2337.74 86.8975  -2
   6   7   5 2337.74 86.8975   1
  -6   7  -6 460.848 23.7738   1
  -6   7  -6 538.310 69.2178  -2
   6   7   6 538.310 69.2178   1
   6   7   7 17.4676 24.0434   1
   6   7   8 533.992 22.7993   1
   6   7   9 242.576 30.9876   1
  -5  -7 -10 633.212 82.9043  -2
   6  -7   9 633.212 82.9043   1
   6  -7   9 309.332 41.5535  -2
  -6  -7  -9 309.332 41.5535   1
   6   7  10-51.2043 52.8250   1
   5   7  11-10.9909 50.7570  -2
  -6   7 -10-10.9909 50.7570   1
   6  -7  10 52.4428 41.8153  -2
  -6  -7 -10 52.4428 41.8153   1
  -6  -7 -11 268.904 33.5169   1
  -5  -7 -12 317.577 54.9566  -2
   6  -7  11 317.577 54.9566   1
  -6  -7 -12 132.829 33.9554   1
  -5  -7 -13 395.860 54.4586  -2
   6  -7  12 395.860 54.4586   1
  -6  -7 -13 17.9269 29.0819   1
  -6  -7 -14-11.9287 28.6015   1
  -6  -7 -15 207.853 29.3586   1
  -6  -7 -16 363.693 28.5607   1
  -6  -7 -17 66.7399 24.2637   1
  -6  -7 -18 10.9548 33.6439   1
  -6  -7 -19 61.1735 30.0924   1
  -6  -7 -20-0.43440 25.4492   1
   6  -8 -23 135.058 25.0588   1
   7  -8 -23 246.474 28.4993  -2
  -6  -8  23 246.474 28.4993   1
   6  -8 -22 27.0555 29.3345   1
   7  -8 -22 84.0546 32.6515  -2
  -6  -8  22 84.0546 32.6515   1
  -6  -8  21-2.09110 23.3738   1
  -6  -8  20 73.8888 25.3967   1
  -6  -8  19 257.492 27.6479   1
  -6  -8  18 20.4390 36.1561   1
  -6  -8  17 11.4328 36.4775   1
  -6  -8  16 1428.91 36.6944   1
   6  -8 -15 982.153 24.2500   1
   6  -8 -14 352.068 15.9868   1
   6  -8 -13 9.71517 16.8901   1
   6  -8 -12 2703.02 34.0899   1
   6  -8 -11 1240.87 20.5810   1
  -6  -8  10 307.381 16.0586   1
  -6   8  10 358.945 53.9315  -2
   6   8 -10 358.945 53.9315   1
  -6  -8   9 3.43473 14.0572   1
  -6   8   9 17.9964 49.5455  -2
   6   8  -9 17.9964 49.5455   1
   6  -8  -8 1026.08 19.1590   1
  -6  -8   7 32.2991 27.8559   1
   6  -8  -6 774.518 28.6436   1
  -6  -8   5 11.9705 24.6268   1
  -6   8   5 78.4556 78.0602  -2
   6   8  -5 78.4556 78.0602   1
   6  -8  -4 5059.31 49.1904   1
  -6   8   4 6606.51 127.027  -2
   6   8  -4 6606.51 127.027   1
   6  -8  -3 126.654 31.7848   1
  -6   8   3 168.767 68.6478  -2
   6   8  -3 168.767 68.6478   1
   6  -8  -2 5533.88 64.9466   1
   6  -8  -1 40.0174 27.7472   1
  -6   8   1 10.6953 57.1523  -2
   6   8  -1 10.6953 57.1523   1
  -6   8   0 1133.30 58.8461   1
  -6   8   0 1431.63 81.7293  -2
   6   8   0 1431.63 81.7293   1
  -6   8  -1 2861.57 76.9616   1
  -6   8  -1 3839.75 104.924  -2
   6   8   1 3839.75 104.924   1
  -6   8  -2 99.5422 40.8760   1
  -6   8  -2 204.248 63.3268  -2
   6   8   2 204.248 63.3268   1
  -6   8  -3 685.674 37.8327   1
  -6   8  -3 857.122 70.3286  -2
   6   8   3 857.122 70.3286   1
   6  -8   4 1598.17 34.7181   1
  -6   8  -4 2071.37 87.8831  -2
   6   8   4 2071.37 87.8831   1
  -6   8  -5 2409.71 51.9177   1
  -6   8  -5 3087.13 98.6194  -2
   6   8   5 3087.13 98.6194   1
  -6   8  -6 189.208 21.4246   1
   6  -8   6 232.258 36.9608  -2
  -6  -8  -6 232.258 36.9608   1
  -6   8  -7 11.6087 27.6268   1
  -6   8  -7-10.0998 69.9728  -2
   6   8   7-10.0998 69.9728   1
  -6   8  -8 1791.87 42.8494   1
   6   8   9 74.1997 56.8870   1
  -5  -8 -10 138.538 53.8190  -2
   6  -8   9 138.538 53.8190   1
   6  -8   9 130.287 39.1938  -2
  -6  -8  -9 130.287 39.1938   1
  -6  -8 -10 52.5884 29.9693   1
   5   8  11 79.7024 54.8548  -2
  -6   8 -10 79.7024 54.8548   1
   6   8  11 334.044 65.1787   1
  -5  -8 -12 351.726 55.0453  -2
   6  -8  11 351.726 55.0453   1
   6  -8  11 377.026 45.2324  -2
  -6  -8 -11 377.026 45.2324   1
  -6  -8 -12 1156.84 47.6180   1
   5   8  13 1143.25 80.1483  -2
  -6   8 -12 1143.25 80.1483   1
  -6  -8 -13 40.1745 38.5365   1
   5   8  14 58.8138 71.3664  -2
  -6   8 -13 58.8138 71.3664   1
  -6  -8 -14 27.8302 27.5157   1
  -6  -8 -15 176.313 27.1273   1
  -6   8 -16 135.393 25.7426   1
  -6  -8 -17 24.8802 23.0615   1
  -6  -8 -18 183.741 31.3712   1
  -6  -8 -19 20.5885 27.3053   1
   6  -9 -23 6.82220 14.2735   1
  -6  -9  22 88.6225 18.6206   1
  -6  -9  21 138.384 21.8251   1
   6  -9 -20 30.5920 23.0713   1
   6  -9 -19 156.592 25.6148   1
  -6  -9  18 59.1189 25.7992   1
  -6  -9  17 143.444 36.9673   1
  -6  -9  16 37.5585 36.5965   1
  -6  -9  15 1.73204 22.2847   1
   6  -9 -14 5.10943 20.0509   1
   6  -9 -13 556.099 18.0924   1
  -6  -9  12 342.620 19.4024   1
  -6  -9  11 10.7652 17.5219   1
   6   9 -10 97.0806 15.3520   1
   6  -9  -9 568.647 17.6187   1
  -6   9   9 722.142 56.2553  -2
   6   9  -9 722.142 56.2553   1
  -6  -9   8 22.2197 15.3536   1
  -6   9   8 86.4156 36.5443  -2
   6   9  -8 86.4156 36.5443   1
  -6  -9   7 99.7836 16.1313   1
  -6   9   7 107.980 35.0541  -2
   6   9  -7 107.980 35.0541   1
   6   9  -6 81.0474 17.5363   1
  -6   9   6 131.813 33.2188  -2
   6   9  -6 131.813 33.2188   1
   6  -9  -5 700.798 23.1876   1
  -6   9   5 875.756 92.7473  -2
   6   9  -5 875.756 92.7473   1
   6  -9  -4 585.560 21.6702   1
  -6   9   4 791.102 88.7700  -2
   6   9  -4 791.102 88.7700   1
   6  -9  -3 242.666 32.9434   1
  -6   9   3 332.641 80.2245  -2
   6   9  -3 332.641 80.2245   1
   6  -9  -2 414.371 33.5311   1
  -6   9   2 554.355 74.1641  -2
   6   9  -2 554.355 74.1641   1
  -6   9   1 788.467 55.4503   1
  -6   9   1 1004.37 81.2902  -2
   6   9  -1 1004.37 81.2902   1
  -6   9   0 138.207 45.5229   1
  -6   9   0 179.040 35.5538  -2
   6   9   0 179.040 35.5538   1
  -6   9  -1 106.863 21.1267   1
   6  -9   1 119.295 34.3863  -2
  -6  -9  -1 119.295 34.3863   1
  -6   9  -2 256.521 17.0947   1
  -6   9  -2 293.779 37.2896  -2
   6   9   2 293.779 37.2896   1
  -6   9  -3 565.036 18.8852   1
  -6   9  -3 656.926 39.8124  -2
   6   9   3 656.926 39.8124   1
   6  -9   4 1916.41 33.8993   1
   6  -9   4 2135.83 48.5021  -2
  -6  -9  -4 2135.83 48.5021   1
  -6   9  -5 214.322 20.3865   1
   6  -9   5 253.951 39.2182  -2
  -6  -9  -5 253.951 39.2182   1
   6  -9   6 568.958 22.2328   1
   6  -9   6 613.990 40.1983  -2
  -6  -9  -6 613.990 40.1983   1
   6  -9   7 38.2064 19.4140   1
   6  -9   7 68.3907 36.3342  -2
  -6  -9  -7 68.3907 36.3342   1
   6   9   8 21.7063 35.7180   1
  -5  -9  -9 549.541 93.8384  -2
   6  -9   8 549.541 93.8384   1
   6   9   9 2533.54 51.3584   1
  -5  -9 -10 2731.07 117.286  -2
   6  -9   9 2731.07 117.286   1
   6   9  10 898.656 75.9930   1
   5   9  11 1155.41 61.0772  -2
  -6   9 -10 1155.41 61.0772   1
   5   9  12 438.359 80.8355  -2
  -6   9 -11 438.359 80.8355   1
   6  -9  11-2.50463 40.4029  -2
  -6  -9 -11-2.50463 40.4029   1
  -6  -9 -12 72.5309 37.1419   1
   5   9  13 483.664 73.9128  -2
  -6   9 -12 483.664 73.9128   1
  -6  -9 -13 364.694 39.5945   1
   5   9  14 361.986 74.9300  -2
  -6   9 -13 361.986 74.9300   1
  -6   9 -14 332.256 28.8807   1
  -6  -9 -15 27.3041 25.8682   1
  -6  -9 -16 48.5379 24.3318   1
  -6   9 -17 13.5766 20.9707   1
  -6  -9 -18 317.832 28.9236   1
  -6 -10  22 42.2662 15.1860   1
   6 -10 -21 136.523 19.2677   1
  -6 -10  20 26.0996 21.1236   1
   6 -10 -19 830.569 26.6081   1
   6 -10 -18 67.9003 24.4765   1
   6 -10 -17 66.1051 24.6870   1
  -6 -10  16 19.6108 34.8815   1
   6 -10 -15 350.859 24.2605   1
  -6 -10  14 334.437 24.8030   1
   6 -10 -13 801.068 18.5653   1
   6 -10 -12 109.485 16.9890   1
   6 -10 -11 4431.48 34.7882   1
  -6 -10  10 123.836 16.0860   1
  -6 -10   9 238.964 16.7176   1
  -6  10   9 298.212 56.4569  -2
   6  10  -9 298.212 56.4569   1
  -6 -10   8 17.1586 15.9472   1
  -6  10   8 26.6395 38.0230  -2
   6  10  -8 26.6395 38.0230   1
   6 -10  -7 22.3577 16.6901   1
   6 -10  -7 34.2511 38.0151  -2
  -6 -10   7 34.2511 38.0151   1
   6  10  -6 1753.03 30.8893   1
  -6  10   6 2232.09 60.2883  -2
   6  10  -6 2232.09 60.2883   1
   6 -10  -5 4.05218 21.0166   1
   6 -10  -5 11.1235 41.0363  -2
  -6 -10   5 11.1235 41.0363   1
   6 -10  -4 77.1356 22.1374   1
  -6  10   4 142.415 41.7211  -2
   6  10  -4 142.415 41.7211   1
   6  10  -3 1354.51 77.8809  -2
  -6  10   4 1354.51 77.8809   1
   6 -10  -3 4353.71 66.4825   1
  -6  10   2 125.618 22.8697   1
  -6  10   2 174.114 38.0764  -2
   6  10  -2 174.114 38.0764   1
  -6  10   1 5.67929 21.0623   1
   6 -10  -1 1.75179 38.2491  -2
  -6 -10   1 1.75179 38.2491   1
  -6  10   0 93.7245 14.9363   1
   6 -10   0 105.781 38.3312  -2
  -6 -10   0 105.781 38.3312   1
   6 -10   1 2102.27 27.6558   1
  -6  10  -1 2568.66 52.7090  -2
   6  10   1 2568.66 52.7090   1
  -6  10  -2 82.1159 17.5220   1
  -6  10  -2 103.391 37.5816  -2
   6  10   2 103.391 37.5816   1
   6 -10   3 472.437 22.6513   1
   6 -10   3 611.518 42.8292  -2
  -6 -10  -3 611.518 42.8292   1
  -6  10  -4 211.529 22.6010   1
   6 -10   4 270.173 42.9631  -2
  -6 -10  -4 270.173 42.9631   1
  -6  10  -5 5799.31 44.9238   1
   6 -10   5 6842.21 74.7758  -2
  -6 -10  -5 6842.21 74.7758   1
   6 -10   6 843.322 25.5076   1
   6 -10   6 984.533 45.7337  -2
  -6 -10  -6 984.533 45.7337   1
  -6  10  -7 1267.80 50.4095   1
   5  10   8 1423.63 41.4306  -2
  -6  10  -7 1423.63 41.4306   1
   6 -10   7 1477.77 46.9599  -2
  -6 -10  -7 1477.77 46.9599   1
  -6  10  -8 47.3501 44.2222   1
  -5 -10  -9 452.674 96.6932  -2
   6 -10   8 452.674 96.6932   1
   6 -10   8 45.7205 39.6303  -2
  -6 -10  -8 45.7205 39.6303   1
   6  10   9 2705.71 99.9418   1
  -5 -10 -10 2953.30 70.9576  -2
   6 -10   9 2953.30 70.9576   1
   5  10  11 879.934 78.3969  -2
  -6  10 -10 879.934 78.3969   1
   5  10  12 215.265 74.4017  -2
  -6  10 -11 215.265 74.4017   1
   5  10  13 92.3880 76.9418  -2
  -6  10 -12 92.3880 76.9418   1
   5  10  14 547.725 73.2172  -2
  -6  10 -13 547.725 73.2172   1
  -6  10 -14 113.936 23.9599   1
  -5 -10 -15 136.439 29.4665  -2
   6 -10  14 136.439 29.4665   1
  -6 -10 -15 5.42681 22.5461   1
  -6 -10 -16 276.700 22.7149   1
  -6  10 -17 230.938 28.9119   1
  -6 -11  21 34.7556 23.5532   1
   6 -11 -20 82.5078 17.9657   1
   6 -11 -19 37.5454 19.8039   1
  -6 -11  18 3.03399 21.8761   1
   6 -11 -17 89.6714 22.8541   1
   6 -11 -16 39.9773 18.0697   1
  -6 -11  15 44.8744 23.1189   1
  -6 -11  14 127.548 19.7739   1
   6 -11 -13 278.693 16.5460   1
   6 -11 -12 47.3909 17.7407   1
   6 -11 -11 340.668 21.6655   1
   6 -11 -10 616.218 19.6856   1
   6 -11  -9 34.8010 15.3887   1
  -6  11   9 97.4149 58.1909  -2
   6  11  -9 97.4149 58.1909   1
   6 -11  -8 10.8460 15.5573   1
   6 -11  -8 1.83036 40.1046  -2
  -6 -11   8 1.83036 40.1046   1
   6 -11  -7 139.185 15.6510   1
  -6  11   7 203.539 39.4981  -2
   6  11  -7 203.539 39.4981   1
   6 -11  -6 237.381 19.2890   1
  -6  11   6 336.026 38.2384  -2
   6  11  -6 336.026 38.2384   1
   6 -11  -5 1887.42 30.0005   1
  -6  11   5 2329.05 63.4702  -2
   6  11  -5 2329.05 63.4702   1
   6 -11  -4 291.552 20.5256   1
   6 -11  -4 396.411 46.0874  -2
  -6 -11   4 396.411 46.0874   1
   6  11  -3 375.219 70.7143  -2
  -6  11   4 375.219 70.7143   1
  -6  11   3 385.676 20.9095   1
   6 -11  -3 487.657 45.8255  -2
  -6 -11   3 487.657 45.8255   1
   6 -11  -2 202.111 21.1282   1
   6 -11  -2 304.587 44.7477  -2
  -6 -11   2 304.587 44.7477   1
   6  11  -1 256.830 68.0402  -2
  -6  11   2 256.830 68.0402   1
   6 -11  -1 433.878 22.4398   1
  -6  11   1 505.829 44.5175  -2
   6  11  -1 505.829 44.5175   1
   6  11   0 535.735 62.4544  -2
  -6  11   1 535.735 62.4544   1
   6 -11   0 336.615 16.8993   1
   6 -11   0 446.626 45.1661  -2
  -6 -11   0 446.626 45.1661   1
   6 -11   1 313.132 17.0148   1
  -6  11  -1 378.541 43.5761  -2
   6  11   1 378.541 43.5761   1
  -6  11  -2 276.627 22.9911   1
  -6  11  -2 350.454 45.0621  -2
   6  11   2 350.454 45.0621   1
  -6  11  -3 36.1176 22.5439   1
  -6  11  -3 81.6147 44.8650  -2
   6  11   3 81.6147 44.8650   1
  -6  11  -4 1883.00 34.0207   1
   6 -11   4 2276.94 59.4175  -2
  -6 -11  -4 2276.94 59.4175   1
  -6  11  -5 169.037 24.7219   1
   6 -11   5 331.487 46.9926  -2
  -6 -11  -5 331.487 46.9926   1
  -6  11  -6 998.254 27.8475   1
   6 -11   6 1206.60 50.1454  -2
  -6 -11  -6 1206.60 50.1454   1
  -6  11  -7 627.780 48.9734   1
  -5 -11  -8 611.029 38.4777  -2
   6 -11   7 611.029 38.4777   1
  -6  11  -7 733.462 45.2905  -2
   6  11   7 733.462 45.2905   1
   5  11   9 320.554 36.2673  -2
  -6  11  -8 320.554 36.2673   1
   6 -11   8 10.9178 43.9761  -2
  -6 -11  -8 10.9178 43.9761   1
   5  11  10 76.9312 32.4442  -2
  -6  11  -9 76.9312 32.4442   1
   5  11  11 146.525 71.9277  -2
  -6  11 -10 146.525 71.9277   1
   5  11  12 120.525 76.8694  -2
  -6  11 -11 120.525 76.8694   1
   5  11  13 28.9363 66.7879  -2
  -6  11 -12 28.9363 66.7879   1
   5  11  14 234.204 68.7066  -2
  -6  11 -13 234.204 68.7066   1
  -6  11 -14-3.31697 38.5873   1
  -5 -11 -15 40.1067 26.9455  -2
   6 -11  14 40.1067 26.9455   1
  -6  11 -15 69.0566 35.9163   1
  -6  11 -16 57.8927 30.5934   1
  -6  11 -17 16.6820 25.8153   1
  -6 -12  20 38.1001 22.7051   1
  -6 -12  19-22.7708 25.8650   1
  -6 -12  18 374.061 30.8812   1
  -6 -12  17 74.6568 31.6354   1
  -6 -12  16 19.1566 20.8446   1
  -6 -12  15 527.799 24.5788   1
   6 -12 -14 96.5895 19.2573   1
   6 -12 -13 101.695 20.4194   1
  -6 -12  12 877.686 21.1427   1
   6 -12 -11 109.109 18.6127   1
  -6 -12  10 707.502 21.0144   1
   6 -12  -9 1.05185 16.8019   1
  -6  12   9 31.6369 59.4412  -2
   6  12  -9 31.6369 59.4412   1
   6 -12  -8 49.4295 17.3535   1
   6 -12  -8 72.4211 41.8696  -2
  -6 -12   8 72.4211 41.8696   1
   6 -12  -7 1109.36 24.8033   1
  -6  12   7 1347.06 62.9645  -2
   6  12  -7 1347.06 62.9645   1
   6 -12  -6 778.376 24.7886   1
  -6  12   6 1025.36 60.7759  -2
   6  12  -6 1025.36 60.7759   1
   6 -12  -5 663.300 25.4341   1
  -6  12   5 741.340 53.0579  -2
   6  12  -5 741.340 53.0579   1
   6 -12  -4 266.661 24.5157   1
  -6  12   4 328.510 37.3503  -2
   6  12  -4 328.510 37.3503   1
   6  12  -3 229.606 72.8895  -2
  -6  12   4 229.606 72.8895   1
   6 -12  -3 206.539 23.1027   1
  -6  12   3 216.276 49.3767  -2
   6  12  -3 216.276 49.3767   1
   6  12  -2 444.261 77.5880  -2
  -6  12   3 444.261 77.5880   1
   6 -12  -2 1613.68 27.9187   1
   6 -12  -2 1956.88 64.6405  -2
  -6 -12   2 1956.88 64.6405   1
   6  12  -1 2267.26 94.6656  -2
  -6  12   2 2267.26 94.6656   1
   6 -12  -1 3217.14 43.7615   1
   6 -12  -1 3912.19 68.3950  -2
  -6 -12   1 3912.19 68.3950   1
   6  12   0 3110.37 60.7440  -2
  -6  12   1 3110.37 60.7440   1
   6 -12   0 737.165 21.5763   1
   6 -12   0 895.979 51.9606  -2
  -6 -12   0 895.979 51.9606   1
   6 -12   1 6777.33 42.7386   1
   6 -12   1 8107.70 87.4204  -2
  -6 -12  -1 8107.70 87.4204   1
  -6  12  -2 179.581 23.7369   1
  -6  12  -2 241.518 48.0488  -2
   6  12   2 241.518 48.0488   1
  -6  12  -3 702.817 27.6822   1
   6 -12   3 823.006 52.3091  -2
  -6 -12  -3 823.006 52.3091   1
   6 -12   4 4049.26 42.7983   1
   6 -12   4 4905.59 74.8742  -2
  -6 -12  -4 4905.59 74.8742   1
  -6  12  -5 133.451 23.9469   1
   6 -12   5 173.985 45.8210  -2
  -6 -12  -5 173.985 45.8210   1
  -6  12  -6 76.3673 23.9576   1
   6 -12   6 97.5450 48.3889  -2
  -6 -12  -6 97.5450 48.3889   1
  -6  12  -7 1224.51 52.1422   1
   5  12   8 1217.39 47.7845  -2
  -6  12  -7 1217.39 47.7845   1
   6 -12   7 1421.39 58.0143  -2
  -6 -12  -7 1421.39 58.0143   1
   5  12   9 1285.40 40.0241  -2
  -6  12  -8 1285.40 40.0241   1
   6 -12   8 1521.92 56.5980  -2
  -6 -12  -8 1521.92 56.5980   1
   5  12  10 903.901 36.4465  -2
  -6  12  -9 903.901 36.4465   1
   6 -12   9 1127.55 52.0483  -2
  -6 -12  -9 1127.55 52.0483   1
   5  12  11 293.007 73.7146  -2
  -6  12 -10 293.007 73.7146   1
   5  12  12 425.077 74.5844  -2
  -6  12 -11 425.077 74.5844   1
   5  12  13-6.01889 67.4704  -2
  -6  12 -12-6.01889 67.4704   1
   5  12  14 14.4428 26.8656  -2
  -6  12 -13 14.4428 26.8656   1
   6 -12  14 29.2270 21.6841   1
   5  12  15 2.11512 53.9384  -2
  -6  12 -14 2.11512 53.9384   1
   6 -12  15 30.8744 15.8154   1
  -6  12 -16 65.7509 25.9644   1
  -6 -13  19 28.2595 21.2695   1
  -6 -13  18 22.8559 24.4132   1
  -6 -13  17 43.6287 27.3072   1
   6 -13 -16 10.1492 18.9378   1
   6 -13 -15 114.341 21.1807   1
  -6 -13  14 8.44771 17.5912   1
   6 -13 -13 11.3067 18.9532   1
   6 -13 -12 204.597 16.2522   1
  -6 -13  11 1.00426 17.4038   1
  -6  13  10 92.2210 17.5983   1
   6 -13  -9 141.487 17.3846   1
   6 -13  -8 170.115 18.0590   1
   6 -13  -8 216.980 42.4852  -2
  -6 -13   8 216.980 42.4852   1
   6 -13  -7 256.322 24.3831   1
  -6  13   7 311.087 42.3800  -2
   6  13  -7 311.087 42.3800   1
   6 -13  -6 256.061 24.5804   1
   6 -13  -6 354.643 41.7526  -2
  -6 -13   6 354.643 41.7526   1
  -6  13   5 60.4094 23.2122   1
   6 -13  -5 111.769 40.4917  -2
  -6 -13   5 111.769 40.4917   1
   6 -13  -4 289.631 25.5988   1
  -6  13   4 336.406 38.3975  -2
   6  13  -4 336.406 38.3975   1
   6 -13  -3 217.102 22.9007   1
   6 -13  -3 311.994 37.6130  -2
  -6 -13   3 311.994 37.6130   1
   6 -13  -2 458.675 24.4243   1
  -6  13   2 560.406 53.5294  -2
   6  13  -2 560.406 53.5294   1
  -6  13   1 8.60923 21.9998   1
   6 -13  -1 62.2991 48.8749  -2
  -6 -13   1 62.2991 48.8749   1
   6  13   0 132.446 62.9452  -2
  -6  13   1 132.446 62.9452   1
   6 -13   0 483.270 24.6063   1
  -6  13   0 586.823 53.5646  -2
   6  13   0 586.823 53.5646   1
   6  13   1 504.463 68.7062  -2
  -6  13   0 504.463 68.7062   1
  -6  13  -1 71.7340 20.1182   1
   6 -13   1 118.972 48.5133  -2
  -6 -13  -1 118.972 48.5133   1
  -6  13  -2 1077.37 31.2427   1
   6 -13   2 1380.70 59.5279  -2
  -6 -13  -2 1380.70 59.5279   1
  -6  13  -3 1117.63 31.3306   1
   6 -13   3 1395.40 66.2900  -2
  -6 -13  -3 1395.40 66.2900   1
  -6  13  -4 119.532 26.4191   1
   6 -13   4 262.729 57.8439  -2
  -6 -13  -4 262.729 57.8439   1
  -6  13  -5 89.1353 24.9055   1
   6 -13   5 107.571 53.3462  -2
  -6 -13  -5 107.571 53.3462   1
  -6  13  -6 65.7605 45.5005   1
   5  13   7 399.700 43.0712  -2
  -6  13  -6 399.700 43.0712   1
   6 -13   6 4.70376 45.6032  -2
  -6 -13  -6 4.70376 45.6032   1
  -6  13  -7 10.8858 45.1259   1
   5  13   8 160.516 40.5732  -2
  -6  13  -7 160.516 40.5732   1
   6 -13   7-11.7996 48.1749  -2
  -6 -13  -7-11.7996 48.1749   1
   5  13   9 287.890 36.0639  -2
  -6  13  -8 287.890 36.0639   1
   6 -13   8 299.575 49.0024  -2
  -6 -13  -8 299.575 49.0024   1
   5  13  10 269.726 33.9056  -2
  -6  13  -9 269.726 33.9056   1
   6 -13   9 95.8631 45.4230  -2
  -6 -13  -9 95.8631 45.4230   1
   5  13  11 223.546 72.3106  -2
  -6  13 -10 223.546 72.3106   1
   5  13  12 52.6581 69.5895  -2
  -6  13 -11 52.6581 69.5895   1
   5  13  13 217.044 64.4812  -2
  -6  13 -12 217.044 64.4812   1
   5  13  14 363.173 26.2042  -2
  -6  13 -13 363.173 26.2042   1
  -6  13 -14 8.97472 16.1125   1
  -6  13 -15 15.5898 26.8145   1
  -6 -14  18 9.87159 19.2656   1
  -6 -14  17 25.9209 22.7505   1
  -6 -14  16 269.404 17.6660   1
   6 -14 -15 95.3587 19.0994   1
  -6 -14  14 695.068 23.2819   1
   6 -14 -13 32.2222 17.5958   1
   6 -14 -12 39.5116 18.6322   1
  -6 -14  11 241.752 15.9408   1
   6 -14 -10 18.7821 16.8285   1
  -6 -14   9 146.937 16.5251   1
   6 -14  -8 81.8540 17.2743   1
   6 -14  -8 123.906 58.6081  -2
  -6 -14   8 123.906 58.6081   1
   6 -14  -7 336.867 25.1007   1
   6 -14  -7 436.011 42.0739  -2
  -6 -14   7 436.011 42.0739   1
  -6  14   6 41.4699 22.7698   1
   6 -14  -6 112.355 40.7356  -2
  -6 -14   6 112.355 40.7356   1
   6 -14  -5 591.696 27.0289   1
   6 -14  -5 776.926 43.4391  -2
  -6 -14   5 776.926 43.4391   1
   6 -14  -4 111.797 24.9172   1
   6 -14  -4 188.285 41.0809  -2
  -6 -14   4 188.285 41.0809   1
   6 -14  -3 1025.19 29.4738   1
   6 -14  -3 1344.89 45.8025  -2
  -6 -14   3 1344.89 45.8025   1
   6 -14  -2 108.391 24.5444   1
  -6  14   2 190.101 40.7832  -2
   6  14  -2 190.101 40.7832   1
   6 -14  -1 636.308 26.5210   1
   6 -14  -1 795.615 63.6952  -2
  -6 -14   1 795.615 63.6952   1
   6  14   0 516.947 62.4913  -2
  -6  14   1 516.947 62.4913   1
   6 -14   0 198.166 20.3449   1
   6 -14   0 208.622 59.6529  -2
  -6 -14   0 208.622 59.6529   1
   6 -14   1 55.1677 20.1613   1
   6 -14   1 60.7235 52.4780  -2
  -6 -14  -1 60.7235 52.4780   1
  -6  14  -2 25.5530 24.9999   1
   6 -14   2 85.6775 54.4686  -2
  -6 -14  -2 85.6775 54.4686   1
  -6  14  -3 395.217 26.2487   1
   6 -14   3 485.735 55.7067  -2
  -6 -14  -3 485.735 55.7067   1
  -6  14  -4 328.355 26.7368   1
   6 -14   4 453.483 57.7945  -2
  -6 -14  -4 453.483 57.7945   1
  -6  14  -5 294.778 26.3504   1
   6 -14   5 427.625 55.6301  -2
  -6 -14  -5 427.625 55.6301   1
  -6  14  -6 154.940 45.4746   1
   5  14   7 179.439 40.9764  -2
  -6  14  -6 179.439 40.9764   1
   6 -14   6 219.339 52.0485  -2
  -6 -14  -6 219.339 52.0485   1
  -6  14  -7 42.3587 41.7991   1
   5  14   8 115.857 38.9154  -2
  -6  14  -7 115.857 38.9154   1
   6 -14   7 24.4246 48.7714  -2
  -6 -14  -7 24.4246 48.7714   1
   5  14   9 334.074 34.5725  -2
  -6  14  -8 334.074 34.5725   1
   6 -14   8 418.690 48.5263  -2
  -6 -14  -8 418.690 48.5263   1
   5  14  10 549.614 69.7226  -2
  -6  14  -9 549.614 69.7226   1
   6 -14   9 676.183 49.1747  -2
  -6 -14  -9 676.183 49.1747   1
   5  14  11 304.327 66.8872  -2
  -6  14 -10 304.327 66.8872   1
   5  14  12 94.4584 64.2448  -2
  -6  14 -11 94.4584 64.2448   1
   5  14  13 153.622 25.3468  -2
  -6  14 -12 153.622 25.3468   1
   5  14  14 82.5642 21.2456  -2
  -6  14 -13 82.5642 21.2456   1
  -6  14 -14 73.6643 14.2274   1
  -6 -15  16 47.3359 19.8527   1
  -6 -15  15 20.6825 15.3460   1
   6 -15 -14 28.4351 14.3894   1
   6 -15 -13 132.398 15.9684   1
   6 -15 -12 117.080 16.9299   1
  -6 -15  11 17.7866 13.4715   1
   6 -15 -10 55.2804 14.1623   1
  -6  15   9 13.9026 20.7629   1
   6 -15  -8-9.56310 21.8831   1
   6 -15  -8 7.93368 52.7731  -2
  -6 -15   8 7.93368 52.7731   1
   6 -15  -7 96.2779 23.0564   1
   6 -15  -7 158.605 59.2532  -2
  -6 -15   7 158.605 59.2532   1
   6 -15  -6 1.18514 22.6956   1
   6 -15  -6 14.5870 38.8613  -2
  -6 -15   6 14.5870 38.8613   1
   6 -15  -5-3.54793 22.7718   1
   6 -15  -5-20.8830 38.3728  -2
  -6 -15   5-20.8830 38.3728   1
  -6  15   4 24.2635 30.3525   1
   6 -15  -4 15.0407 39.8326  -2
  -6 -15   4 15.0407 39.8326   1
  -6 -15   3 6.52512 46.5054  -2
   6 -15  -4 6.52512 46.5054   1
  -6  15   3 82.7686 30.5935   1
   6 -15  -3 48.0107 39.1580  -2
  -6 -15   3 48.0107 39.1580   1
  -6 -15   2 146.803 46.8639  -2
   6 -15  -3 146.803 46.8639   1
   6 -15  -2 206.333 24.1853   1
  -6  15   2 299.300 39.5647  -2
   6  15  -2 299.300 39.5647   1
   6 -15  -1 38.5493 22.9104   1
   6 -15  -1 24.6678 38.1964  -2
  -6 -15   1 24.6678 38.1964   1
   6 -15   0 60.2630 19.6798   1
   6 -15   0 88.4183 37.8068  -2
  -6 -15   0 88.4183 37.8068   1
   6 -15   1 105.720 19.2512   1
   6 -15   1 157.241 59.3108  -2
  -6 -15  -1 157.241 59.3108   1
  -6  15  -2 37.8764 24.2135   1
   6 -15   2 76.8817 56.2024  -2
  -6 -15  -2 76.8817 56.2024   1
  -6  15  -3 28.3182 23.0415   1
   6 -15   3 87.4326 54.7771  -2
  -6 -15  -3 87.4326 54.7771   1
  -6  15  -4 289.783 24.4813   1
   6 -15   4 419.287 54.1722  -2
  -6 -15  -4 419.287 54.1722   1
  -6  15  -5 113.475 23.6683   1
   6 -15   5 175.341 50.5198  -2
  -6 -15  -5 175.341 50.5198   1
  -6  15  -6 219.789 40.1871   1
   5  15   7 278.603 38.7019  -2
  -6  15  -6 278.603 38.7019   1
   6 -15   6 392.863 51.9557  -2
  -6 -15  -6 392.863 51.9557   1
   5  15   8 11.3226 30.5342  -2
  -6  15  -7 11.3226 30.5342   1
   6 -15   7 0.10397 43.2544  -2
  -6 -15  -7 0.10397 43.2544   1
   5  15   9 109.071 62.1048  -2
  -6  15  -8 109.071 62.1048   1
   6 -15   8 12.4445 43.7477  -2
  -6 -15  -8 12.4445 43.7477   1
   5  15  10 32.6605 63.7922  -2
  -6  15  -9 32.6605 63.7922   1
   6 -15   9 36.4588 40.8965  -2
  -6 -15  -9 36.4588 40.8965   1
   5  15  11 7.83839 48.3442  -2
  -6  15 -10 7.83839 48.3442   1
   5  15  12 78.9141 55.6817  -2
  -6  15 -11 78.9141 55.6817   1
   5  15  13 147.160 21.0533  -2
  -6  15 -12 147.160 21.0533   1
   5  15  14 18.0010 39.7163  -2
  -6  15 -13 18.0010 39.7163   1
   6 -16 -14 7.84793 13.4874   1
  -6 -16  13 22.5809 13.1688   1
   6 -16 -12 21.8343 14.3516   1
   6 -16 -11 476.476 24.0148   1
   6 -16 -10 135.356 15.7107   1
   6 -16  -9 222.089 17.2565   1
   6 -16  -8 10.6731 20.1054   1
   6 -16  -8-2.58831 47.0820  -2
  -6 -16   8-2.58831 47.0820   1
   6 -16  -7 642.113 23.4931   1
   6 -16  -7 845.512 58.0465  -2
  -6 -16   7 845.512 58.0465   1
   6 -16  -6 175.516 22.1386   1
   6 -16  -6 275.284 57.6731  -2
  -6 -16   6 275.284 57.6731   1
   6 -16  -5 0.82789 21.3303   1
  -6  16   5 42.5302 36.7485  -2
   6  16  -5 42.5302 36.7485   1
  -6  16   4 113.154 28.1898   1
  -6  16   4 150.215 37.5058  -2
   6  16  -4 150.215 37.5058   1
  -6 -16   3 132.827 46.0987  -2
   6 -16  -4 132.827 46.0987   1
  -6  16   3 105.235 28.7577   1
  -6  16   3 145.223 38.0801  -2
   6  16  -3 145.223 38.0801   1
  -6 -16   2 133.313 45.5617  -2
   6 -16  -3 133.313 45.5617   1
  -6  16   2 47.9479 29.0280   1
   6 -16  -2 74.6634 36.2762  -2
  -6 -16   2 74.6634 36.2762   1
  -6 -16   1 118.118 42.3263  -2
   6 -16  -2 118.118 42.3263   1
  -6  16   1 279.487 23.0192   1
   6 -16  -1 392.713 38.7861  -2
  -6 -16   1 392.713 38.7861   1
   6 -16   0-0.44807 21.1200   1
   6 -16   0 17.4576 34.6807  -2
  -6 -16   0 17.4576 34.6807   1
   6  16   1 42.7050 52.2899  -2
  -6  16   0 42.7050 52.2899   1
   6 -16   1 80.9648 17.5029   1
   6 -16   1 147.890 36.4972  -2
  -6 -16  -1 147.890 36.4972   1
  -6  16  -2-6.70154 21.1667   1
  -6  16  -2 33.1767 34.8459  -2
   6  16   2 33.1767 34.8459   1
  -6  16  -3 380.849 24.0653   1
   6 -16   3 569.991 36.5455  -2
  -6 -16  -3 569.991 36.5455   1
  -6  16  -4 189.822 22.9634   1
   6 -16   4 331.828 53.8742  -2
  -6 -16  -4 331.828 53.8742   1
  -6  16  -5 269.555 22.7629   1
   6 -16   5 383.614 52.7405  -2
  -6 -16  -5 383.614 52.7405   1
  -6  16  -6-2.98260 34.2901   1
   5  16   7 2.91484 32.6410  -2
  -6  16  -6 2.91484 32.6410   1
   6 -16   6-10.0532 45.7891  -2
  -6 -16  -6-10.0532 45.7891   1
   5  16   8 174.431 28.2814  -2
  -6  16  -7 174.431 28.2814   1
   6 -16   7 267.609 45.2056  -2
  -6 -16  -7 267.609 45.2056   1
   5  16   9 41.5726 54.3950  -2
  -6  16  -8 41.5726 54.3950   1
   6 -16   8 45.2851 40.7447  -2
  -6 -16  -8 45.2851 40.7447   1
   5  16  10 315.223 53.7125  -2
  -6  16  -9 315.223 53.7125   1
   6 -16   9 359.099 38.3102  -2
  -6 -16  -9 359.099 38.3102   1
   5  16  11 22.1652 49.5160  -2
  -6  16 -10 22.1652 49.5160   1
   5  16  12 83.1427 19.0582  -2
  -6  16 -11 83.1427 19.0582   1
   6 -17 -13 35.2769 17.4310   1
   6  17 -12 29.7495 15.1423   1
   6 -17 -11 96.6362 17.7411   1
   6 -17 -10 12.3356 19.1648   1
   6 -17  -9 31.3814 14.1696   1
  -6  17   8 89.4850 17.3126   1
  -6  17   8 56.0922 51.0963  -2
   6  17  -8 56.0922 51.0963   1
   6 -17  -7 17.6789 17.5233   1
  -6  17   7 35.5136 33.7441  -2
   6  17  -7 35.5136 33.7441   1
   6 -17  -6-18.2962 18.3766   1
   6 -17  -6-97.4200 47.7247  -2
  -6 -17   6-97.4200 47.7247   1
  -6  17   5 26.3264 18.8004   1
   6 -17  -5-9.41140 52.1375  -2
  -6 -17   5-9.41140 52.1375   1
  -6  17   4 1.77767 24.2812   1
   6 -17  -4-5.31332 53.1020  -2
  -6 -17   4-5.31332 53.1020   1
  -6 -17   3 17.6124 40.8759  -2
   6 -17  -4 17.6124 40.8759   1
  -6  17   3 18.8295 24.6733   1
   6 -17  -3 67.2511 33.1731  -2
  -6 -17   3 67.2511 33.1731   1
  -6 -17   2 52.9852 40.9056  -2
   6 -17  -3 52.9852 40.9056   1
  -6  17   2-1.71286 18.5748   1
   6 -17  -2 22.9199 32.6159  -2
  -6 -17   2 22.9199 32.6159   1
   6 -17  -1 69.2421 19.7851   1
  -6  17   1 86.2221 32.9316  -2
   6  17  -1 86.2221 32.9316   1
  -6  17   0 4.93655 18.2221   1
  -6  17   0 24.5250 32.1038  -2
   6  17   0 24.5250 32.1038   1
  -6  17  -1 12.7413 19.1833   1
   6 -17   1-32.5617 31.7832  -2
  -6 -17  -1-32.5617 31.7832   1
  -6  17  -2 8.71389 18.9512   1
   6 -17   2 1.27467 30.4269  -2
  -6 -17  -2 1.27467 30.4269   1
  -6  17  -3-7.01176 19.1580   1
   6 -17   3-8.13004 29.0420  -2
  -6 -17  -3-8.13004 29.0420   1
  -6  17  -4-2.63562 18.8542   1
  -6  17  -4 8.98629 24.4016  -2
   6  17   4 8.98629 24.4016   1
  -6  17  -5-8.40985 31.1419   1
   5  17   6 100.041 33.1706  -2
  -6  17  -5 100.041 33.1706   1
   6 -17   5 28.1842 25.6483  -2
  -6 -17  -5 28.1842 25.6483   1
  -6  17  -6-19.6837 30.4370   1
   6 -17   6 27.1922 41.7098  -2
  -6 -17  -6 27.1922 41.7098   1
  -6  17  -7-0.56416 28.3664   1
   6 -17   7-23.2554 38.5967  -2
  -6 -17  -7-23.2554 38.5967   1
   5  17   9 69.7390 46.0420  -2
  -6  17  -8 69.7390 46.0420   1
   6 -17   8 111.204 33.6358  -2
  -6 -17  -8 111.204 33.6358   1
   5  17  10 48.5875 39.8347  -2
  -6  17  -9 48.5875 39.8347   1
   5  17  11 45.3221 34.1651  -2
  -6  17 -10 45.3221 34.1651   1
   6 -18 -11-0.01543 16.3555   1
   6 -18 -10 47.6436 14.1312   1
   6 -18  -9 112.856 16.9226   1
   6 -18  -8 336.271 26.1808   1
  -6  18   8 364.730 44.2218  -2
   6  18  -8 364.730 44.2218   1
   6 -18  -7 24.7254 14.5194   1
  -6  18   7 74.3518 45.8731  -2
   6  18  -7 74.3518 45.8731   1
   6 -18  -6 131.489 16.2027   1
  -6  18   6 145.377 28.6960  -2
   6  18  -6 145.377 28.6960   1
  -6  18   5 86.1798 21.0322   1
  -6  18   5 83.3256 31.2360  -2
   6  18  -5 83.3256 31.2360   1
  -6 -18   4 150.548 35.1732  -2
   6 -18  -5 150.548 35.1732   1
  -6  18   4 246.730 22.9835   1
   6 -18  -4 308.057 34.2363  -2
  -6 -18   4 308.057 34.2363   1
  -6 -18   3 292.465 36.1044  -2
   6 -18  -4 292.465 36.1044   1
  -6  18   3 280.673 23.6657   1
   6 -18  -3 368.938 48.7911  -2
  -6 -18   3 368.938 48.7911   1
  -6 -18   2 240.830 35.4341  -2
   6 -18  -3 240.830 35.4341   1
  -6  18   2-1.86090 15.9205   1
   6 -18  -2-0.28649 47.5524  -2
  -6 -18   2-0.28649 47.5524   1
   6 -18  -1 95.1255 16.1211   1
   6 -18  -1 141.275 47.9628  -2
  -6 -18   1 141.275 47.9628   1
  -6  18   0 5.34681 22.1364   1
   6 -18   0-1.15942 46.6482  -2
  -6 -18   0-1.15942 46.6482   1
  -6  18  -1 223.719 24.0366   1
   6 -18   1 371.345 49.2130  -2
  -6 -18  -1 371.345 49.2130   1
  -6  18  -2 17.0002 20.2178   1
   6 -18   2 31.3836 45.9679  -2
  -6 -18  -2 31.3836 45.9679   1
  -6  18  -3 29.0834 15.6512   1
   6 -18   3 53.1276 27.1210  -2
  -6 -18  -3 53.1276 27.1210   1
  -6  18  -4 8.06768 14.8858   1
   6 -18   4-25.9899 40.3429  -2
  -6 -18  -4-25.9899 40.3429   1
  -6  18  -5 11.1341 22.9976   1
   6 -18   5 24.2995 37.4779  -2
  -6 -18  -5 24.2995 37.4779   1
   5  18   7-7.08369 36.5481  -2
  -6  18  -6-7.08369 36.5481   1
   6 -18   6 2.89745 31.3874  -2
  -6 -18  -6 2.89745 31.3874   1
   5  18   8 55.5491 33.9903  -2
  -6  18  -7 55.5491 33.9903   1
   6 -19  -7 8.71611 16.8975   1
  -6  19   7-12.8749 31.9018  -2
   6  19  -7-12.8749 31.9018   1
   6 -19  -6-8.56072 17.9950   1
  -6  19   6 1.61903 29.5077  -2
   6  19  -6 1.61903 29.5077   1
  -6  19   5 31.0836 34.1398  -2
   6  19  -5 31.0836 34.1398   1
  -6 -19   4 21.4050 25.9599  -2
   6 -19  -5 21.4050 25.9599   1
  -6  19   4 11.7899 16.4770   1
  -6  19   4 6.76285 34.7964  -2
   6  19  -4 6.76285 34.7964   1
  -6 -19   3 15.6376 26.1037  -2
   6 -19  -4 15.6376 26.1037   1
  -6  19   3 6.93922 16.7652   1
  -6  19   3 7.07489 22.1601  -2
   6  19  -3 7.07489 22.1601   1
  -6  19   2 16.7812 17.4194   1
   6 -19  -2 50.4467 24.6230  -2
  -6 -19   2 50.4467 24.6230   1
  -6  19   1 171.559 18.7696   1
  -6  19   1 189.458 24.7606  -2
   6  19  -1 189.458 24.7606   1
  -6  19   0 35.2824 17.3466   1
   6 -19   0 84.5048 23.2415  -2
  -6 -19   0 84.5048 23.2415   1
  -6  19  -1 23.1893 16.6929   1
   6 -19   1 78.8543 36.2663  -2
  -6 -19  -1 78.8543 36.2663   1
   6 -19   2 71.9176 33.9211  -2
  -6 -19  -2 71.9176 33.9211   1
   6 -19   3-15.9351 31.3248  -2
  -6 -19  -3-15.9351 31.3248   1
   7   0 -23 119.338 23.2444   1
   7   0 -21 270.286 28.5454   1
  -7   0  19 158.306 46.8895   1
  -7   0  17 8.40306 42.6947   1
  -7   0  15 118.258 30.4505   1
  -7   0  13 231.408 28.3478   1
  -7   0  11 100.035 28.4011   1
   7   0  -9 2781.90 47.5885   1
   7   0  -7 1351.20 37.3848   1
   7   0  -5 2589.57 44.3865   1
   7   0  -3 553.393 31.0084   1
   7   0  -1 219.834 19.1567   1
   7   0  -1 298.836 50.1269  -2
  -7   0   1 298.836 50.1269   1
   7   0   1 3676.10 41.5272   1
   7   0   3 1401.17 35.0639   1
  -7   0  -5 9203.72 120.439   1
  -7   0  -9 128.246 24.6754   1
  -7   0 -11 6142.16 66.7668   1
   7   0  13 3919.79 125.587   1
   6   0  14 3953.97 54.9908  -2
  -7   0 -13 3953.97 54.9908   1
   6   0  16 471.018 53.9247  -2
  -7   0 -15 471.018 53.9247   1
  -7   0 -17 47.4414 41.6450   1
  -7   0 -19-24.5952 34.8476   1
  -7   0 -21 19.9704 24.9057   1
   7  -1 -25 19.1939 21.4493   1
   7  -1 -24 412.500 24.5980   1
   7  -1 -23 279.644 21.4088   1
  -7  -1  22 21.3003 17.6999   1
  -7  -1  21 110.991 19.7199   1
  -7  -1  20 273.598 24.5210   1
  -7   1  19 0.66107 31.5433   1
  -7   1  18 1088.35 37.1257   1
  -7   1  17 1461.26 37.7366   1
  -7   1  16 873.358 29.8127   1
   7  -1 -15 1023.57 26.1787   1
  -7   1  14 89.7839 20.7003   1
  -7   1  13-5.65492 18.9924   1
   7  -1 -12 105.845 27.1479   1
   7   1 -11 1700.94 50.1883   1
   7  -1 -10 1648.55 34.6685   1
  -7  -1   9 3427.85 48.5102   1
   7   1  -8 57556.6 175.347   1
  -7  -1   7 1413.26 26.3086   1
  -7   1   6 1727.29 31.0552   1
  -7  -1   5 1359.50 26.1112   1
  -7  -1   4 38365.7 129.020   1
   7   1  -3 6897.62 61.6024   1
   7  -1  -3 8224.91 87.6685  -2
  -7  -1   3 8224.91 87.6685   1
   7  -1  -2 7815.63 63.6708   1
   7  -1  -2 9460.06 96.1524  -2
  -7  -1   2 9460.06 96.1524   1
  -7   1   1 859.091 20.2867   1
  -7   1   0 1580.17 29.6923   1
   7   1   1 6168.64 44.5008   1
   7  -1   1 6559.26 93.9906  -2
  -7  -1  -1 6559.26 93.9906   1
   7   1   2 3207.80 44.5492   1
   7  -1   2 3941.70 82.8968  -2
  -7  -1  -2 3941.70 82.8968   1
   7   1   3 1466.90 24.3189   1
   7  -1   3 1666.62 70.9089  -2
  -7  -1  -3 1666.62 70.9089   1
   7   1   4 998.991 27.9209   1
   7   1   5 1615.98 30.3119   1
   7   1   6 437.722 23.4274   1
   7   1   7 51.2105 43.9541   1
   7   1   8 2090.27 71.9681   1
  -7   1  -9 162.967 17.1614   1
  -7   1 -10 11.6281 17.4124   1
  -7   1 -11 834.327 21.6704   1
  -7  -1 -12 7395.82 55.0812   1
   6   1  13 8358.12 67.8319  -2
  -7   1 -12 8358.12 67.8319   1
   7   1  13 1206.32 91.4868   1
   6   1  14 1207.57 36.4357  -2
  -7   1 -13 1207.57 36.4357   1
  -7   1 -14 106.388 39.7715   1
   6   1  15 117.156 35.8900  -2
  -7   1 -14 117.156 35.8900   1
  -7  -1 -15 404.755 49.1146   1
   6   1  16 457.530 52.3072  -2
  -7   1 -15 457.530 52.3072   1
  -7   1 -16 706.201 34.6792   1
  -7  -1 -17 7.53730 28.7331   1
  -7   1 -18 11.1306 26.9246   1
  -7   1 -19 149.532 25.3753   1
  -7   1 -20 136.567 22.5511   1
  -7   1 -21 21.5863 17.1909   1
   7  -2 -25-1.66706 20.6939   1
   7  -2 -24 88.7425 21.4067   1
   7  -2 -23 14.1127 20.2920   1
   7  -2 -22 23.4095 22.4680   1
   7   2 -21 29.8228 18.0388   1
  -7   2  20 119.489 23.1061   1
  -7   2  19 61.1190 31.8992   1
  -7   2  18 37.2006 31.5272   1
  -7   2  17 26.1821 27.4168   1
  -7   2  16-8.40848 25.7625   1
  -7   2  15 62.5799 22.1471   1
  -7   2  14 64.1016 19.9297   1
  -7  -2  13 290.654 17.9558   1
  -7  -2  12 3.02652 24.2977   1
  -7  -2  11 90.5200 23.6996   1
   7  -2 -10 373.940 26.7600   1
   7  -2  -9 637.007 27.4550   1
   7   2  -8 755.641 23.3367   1
  -7  -2   7 1645.20 25.3374   1
  -7  -2   6 293.118 20.2188   1
  -7   2   5 115.697 21.6914   1
  -7   2   4 1647.03 31.2992   1
   7   2  -3 636.568 19.6161   1
   7   2  -2 614.654 20.2957   1
   7   2  -1 21.9515 19.1755   1
   7  -2  -1 40.1464 46.5853  -2
  -7  -2   1 40.1464 46.5853   1
  -7   2   0 1783.88 28.6944   1
  -7   2  -1 7684.30 61.2929   1
   7  -2   1 9333.47 106.873  -2
  -7  -2  -1 9333.47 106.873   1
   7   2   2 455.346 19.7853   1
  -7   2  -3-0.94430 17.5286   1
   7  -2   4 14864.0 91.0813   1
   7   2   5 120.064 22.1132   1
   7   2   6 1776.93 34.0954   1
  -7   2  -7 1195.17 38.0135   1
   7  -2   8 1949.68 44.6303   1
  -7   2  -9 4975.37 34.4633   1
  -7   2 -10 1257.32 24.8863   1
  -7  -2 -11 872.064 35.9929   1
   6   2  12 1122.52 41.4219  -2
  -7   2 -11 1122.52 41.4219   1
  -7  -2 -12 12131.9 92.8773   1
   6   2  13 12958.4 79.5491  -2
  -7   2 -12 12958.4 79.5491   1
  -7  -2 -13 882.414 45.0017   1
   6   2  14 911.922 43.8212  -2
  -7   2 -13 911.922 43.8212   1
   6   2  15 369.953 32.5169  -2
  -7   2 -14 369.953 32.5169   1
  -7  -2 -15 1306.98 36.5294   1
   6   2  16 1486.51 57.3840  -2
  -7   2 -15 1486.51 57.3840   1
  -7   2 -16 597.120 33.5592   1
  -7   2 -17 124.316 29.2195   1
  -7   2 -18 323.875 29.2128   1
  -7   2 -19 8.58488 24.4195   1
  -7  -2 -20 700.575 24.2088   1
  -7  -2 -21 11.8625 25.1980   1
   7  -3 -25 115.145 22.9091   1
  -7  -3  24-12.6716 20.4961   1
  -7   3  23 91.6482 20.4399   1
  -7  -3  22 29.8024 22.7159   1
  -7  -3  21 256.736 25.3199   1
  -7  -3  20 311.683 33.2823   1
  -7   3  19 38.3738 31.3784   1
  -7  -3  18 329.276 32.1306   1
  -7   3  17 66.2642 27.6135   1
  -7   3  16 73.0346 24.7157   1
  -7  -3  15 5.06576 23.1224   1
  -7  -3  14 183.705 18.7453   1
  -7   3  13 705.598 20.5445   1
  -7   3  12 5842.19 39.6124   1
   7  -3 -11 5214.52 74.1494   1
  -7  -3  10 284.047 25.8122   1
   7  -3  -9 8812.88 68.2429   1
  -7  -3   8 37.0222 23.1402   1
   7  -3  -7 14206.8 96.4158   1
  -7  -3   6 62.0590 18.0572   1
   7  -3  -5 1231.73 31.6253   1
  -7   3   4 221.077 18.3822   1
   7   3  -3 363.583 19.5490   1
   7   3  -2 8278.59 63.5455   1
   7   3  -1 3229.87 45.2870   1
   7  -3  -1 3666.34 71.4609  -2
  -7  -3   1 3666.34 71.4609   1
   7  -3   0 608.776 26.9383   1
   7  -3   0 792.087 57.0484  -2
  -7  -3   0 792.087 57.0484   1
  -7   3  -1 279.685 21.0464   1
   7  -3   1 405.657 57.5678  -2
  -7  -3  -1 405.657 57.5678   1
   7   3   2 5010.03 40.9825   1
  -7   3  -3 15.7723 18.1097   1
   7   3   4 1960.40 35.4588   1
   7   3   5 281.533 25.3753   1
   7   3   6 2.24916 23.7745   1
   7   3   7 223.722 26.0567   1
  -7  -3  -8 1500.27 25.2454   1
  -7  -3  -9 2896.35 30.7839   1
  -7  -3 -10 226.844 32.9108   1
   6   3  11 221.723 36.0531  -2
  -7   3 -10 221.723 36.0531   1
   7   3  11 332.828 35.7496   1
   6   3  12 341.908 38.8919  -2
  -7   3 -11 341.908 38.8919   1
  -7  -3 -12 256.831 37.2667   1
   6   3  13 265.082 39.6339  -2
  -7   3 -12 265.082 39.6339   1
   7   3  13 207.695 66.1719   1
   6  -3  14 213.461 31.5329  -2
  -7  -3 -13 213.461 31.5329   1
  -7  -3 -14 660.207 49.5971   1
   6   3  15 1578.33 45.2800  -2
  -7   3 -14 1578.33 45.2800   1
  -7  -3 -15 665.001 33.8492   1
   6   3  16 800.232 51.8933  -2
  -7   3 -15 800.232 51.8933   1
  -7   3 -16 13.7155 30.9462   1
  -7   3 -17 836.012 32.6698   1
  -7  -3 -18 190.722 26.6269   1
  -7   3 -19 191.072 24.0356   1
  -7  -3 -20 3.97545 29.6822   1
  -7  -3 -21 88.7133 25.0711   1
   7  -4 -25 13.9064 21.1641   1
  -7  -4  24 26.0173 20.2851   1
  -7  -4  23 25.0216 23.6191   1
  -7   4  22-6.18075 22.1580   1
  -7  -4  21 125.515 24.0937   1
  -7  -4  20 37.4619 31.4875   1
  -7  -4  19 11.7734 30.7332   1
  -7   4  18 123.568 32.3104   1
  -7  -4  17 8.40533 25.2541   1
  -7  -4  16-6.08355 24.4929   1
  -7   4  15 15.9490 21.0856   1
  -7   4  14 210.870 21.0073   1
  -7   4  13 88.2429 18.2118   1
  -7   4  12 9.00500 17.0025   1
   7  -4 -11 1425.39 41.2746   1
  -7  -4  10 177.870 25.1453   1
  -7  -4   9 125.191 24.9545   1
   7  -4  -8 3166.91 46.6582   1
   7  -4  -7 3626.35 47.3058   1
  -7  -4   6 132.329 26.6016   1
   7  -4  -5 501.672 27.9916   1
  -7   4   5 565.970 63.6090  -2
   7   4  -5 565.970 63.6090   1
  -7  -4   4 44.1119 16.2441   1
  -7   4   3 13.3631 29.1953   1
  -7   4   3 16.1309 49.7219  -2
   7   4  -3 16.1309 49.7219   1
   7   4  -2 835.948 31.8472   1
   7   4  -1 419.088 24.4660   1
  -7   4   0 1216.89 27.8183   1
  -7   4  -1 268.071 20.3545   1
   7   4   2 4.61627 17.7072   1
   7   4   3 2021.13 45.5217   1
   7   4   4 277.326 25.6184   1
  -7   4  -5 83.4206 25.1958   1
   7   4   6 111.801 24.9640   1
   7   4   7 9.34381 24.8279   1
  -7  -4  -8 2826.87 38.0923   1
  -7  -4  -9 839.338 21.0410   1
  -6  -4 -10 851.141 67.1322  -2
   7  -4   9 851.141 67.1322   1
  -7  -4 -10 1247.47 40.7553   1
   6   4  11 1904.84 43.2357  -2
  -7   4 -10 1904.84 43.2357   1
   7   4  11 38.5919 34.0829   1
   6   4  12 91.3347 35.8335  -2
  -7   4 -11 91.3347 35.8335   1
   7   4  12 2465.52 53.1051   1
   6   4  13 3136.98 52.0717  -2
  -7   4 -12 3136.98 52.0717   1
   7   4  13 229.876 39.0121   1
   6   4  14 230.789 37.9474  -2
  -7   4 -13 230.789 37.9474   1
  -7  -4 -14 432.355 48.5591   1
   6   4  15 662.301 39.5808  -2
  -7   4 -14 662.301 39.5808   1
  -7   4 -15 904.113 35.4985   1
   6   4  16 928.586 67.7791  -2
  -7   4 -15 928.586 67.7791   1
  -7   4 -16 1200.48 28.6856   1
  -7   4 -17 194.634 27.0617   1
  -7   4 -18 12.5880 24.5754   1
  -7  -4 -19 39.9433 34.8449   1
  -7  -4 -20 48.4599 29.5422   1
  -7  -4 -21 14.8108 22.8865   1
   7  -5 -25 43.4450 19.7207   1
  -7  -5  24 175.684 19.4247   1
  -7  -5  23 29.7712 22.8432   1
  -7  -5  22 124.692 21.7936   1
  -7  -5  21 835.658 33.1408   1
  -7  -5  20 896.797 35.4254   1
  -7  -5  19 2.05900 31.6587   1
  -7  -5  18 11.8226 30.8718   1
  -7  -5  17 198.007 32.2049   1
  -7  -5  16 2525.97 38.1122   1
  -7  -5  15 161.987 22.4272   1
   7  -5 -14 47.8743 20.6531   1
  -7  -5  13 352.008 21.7060   1
   7  -5 -12 1953.83 27.0438   1
   7   5 -11 677.555 20.1770   1
   7  -5 -10 1549.91 35.3321   1
   7  -5  -9 311.260 26.1516   1
   7  -5  -8 955.191 34.4901   1
  -7  -5   7 146.870 26.8742   1
   7  -5  -6 623.146 29.7032   1
  -7  -5   5 70.6573 24.1261   1
  -7   5   5 120.651 67.3324  -2
   7   5  -5 120.651 67.3324   1
   7  -5  -4 724.595 27.8960   1
  -7   5   4 893.922 66.1591  -2
   7   5  -4 893.922 66.1591   1
  -7   5   3 3775.28 54.4917   1
  -7   5   3 4835.46 88.4665  -2
   7   5  -3 4835.46 88.4665   1
  -7   5   2 272.415 30.0504   1
  -7   5   2 422.658 56.3871  -2
   7   5  -2 422.658 56.3871   1
  -7   5   1 223.174 27.7358   1
  -7   5   1 323.518 54.1005  -2
   7   5  -1 323.518 54.1005   1
  -7   5   0 10611.0 73.5212   1
  -7   5   0 12966.4 121.938  -2
   7   5   0 12966.4 121.938   1
   7   5   1 12.9264 19.3968   1
  -7   5  -2 558.988 33.8484   1
  -7   5  -3 1501.94 42.9618   1
   7   5   4 5440.13 67.7702   1
   7   5   5 661.108 29.7690   1
   7   5   6 146.392 25.9377   1
   7   5   7 555.018 17.8309   1
  -7   5  -8 897.596 21.1042   1
  -6  -5  -9 827.419 73.0759  -2
   7  -5   8 827.419 73.0759   1
  -7   5  -9 3288.23 38.1201   1
  -6  -5 -10 3383.02 62.4624  -2
   7  -5   9 3383.02 62.4624   1
  -7  -5 -10 96.3570 24.4113   1
   6   5  11 123.473 34.9973  -2
  -7   5 -10 123.473 34.9973   1
  -7  -5 -11 45.4306 33.2529   1
   6   5  12 229.540 70.9863  -2
  -7   5 -11 229.540 70.9863   1
   7   5  12 127.234 36.7847   1
   6   5  13 345.848 38.2936  -2
  -7   5 -12 345.848 38.2936   1
  -7  -5 -13 1779.80 58.8160   1
   6   5  14 2377.29 46.9007  -2
  -7   5 -13 2377.29 46.9007   1
  -7  -5 -14 49.7688 43.8089   1
   6   5  15 104.633 35.8565  -2
  -7   5 -14 104.633 35.8565   1
  -7   5 -15-2.82902 28.3453   1
   6   5  16 91.1745 63.9835  -2
  -7   5 -15 91.1745 63.9835   1
  -7   5 -16 31.5835 27.9231   1
  -7  -5 -17 17.4311 39.2712   1
  -7  -5 -18-1.29192 34.8202   1
  -7  -5 -19-2.68251 32.0869   1
  -7  -5 -20 26.5321 28.0147   1
  -7  -6  24 66.0337 17.8621   1
  -7  -6  23-0.27743 20.9851   1
  -7  -6  22 10.9063 24.1188   1
  -7  -6  21 9.74985 22.0568   1
  -7  -6  20 5.82465 29.2610   1
  -7   6  19 130.340 31.2026   1
  -7  -6  18 17.4889 30.9175   1
  -7  -6  17 2.64653 29.8573   1
  -7  -6  16 75.0109 18.6115   1
  -7  -6  15 20.8529 17.3360   1
   7  -6 -14 73.7737 16.9651   1
  -7  -6  13 303.419 17.7288   1
  -7  -6  12 29.0843 15.6850   1
  -7  -6  11 319.376 15.8081   1
  -7  -6  10 78.7178 12.7077   1
   7  -6  -9 31.7097 24.7198   1
   7  -6  -8 467.284 31.9753   1
  -7  -6   7 5.69135 26.5201   1
  -7   6   6 49.8751 25.5441   1
  -7   6   6 22.9579 71.7051  -2
   7   6  -6 22.9579 71.7051   1
  -7  -6   5-2.92391 23.5918   1
  -7   6   5 30.0403 67.3712  -2
   7   6  -5 30.0403 67.3712   1
   7  -6  -4 550.503 26.9853   1
  -7   6   4 731.139 68.6588  -2
   7   6  -4 731.139 68.6588   1
  -7   6   3 3876.90 57.3047   1
  -7   6   3 4951.95 96.7702  -2
   7   6  -3 4951.95 96.7702   1
   7  -6  -2 80.1071 28.4959   1
  -7   6   2 129.743 58.3281  -2
   7   6  -2 129.743 58.3281   1
  -7   6   1 170.076 29.0895   1
  -7   6   1 240.285 57.9220  -2
   7   6  -1 240.285 57.9220   1
  -7   6   0 603.873 25.6644   1
  -7   6  -1 17.8575 29.3340   1
  -7   6  -2 1376.83 62.1399   1
  -7   6  -2 1676.78 71.8890  -2
   7   6   2 1676.78 71.8890   1
  -7   6  -3 60.6718 41.5132   1
  -7   6  -3 39.7866 56.2775  -2
   7   6   3 39.7866 56.2775   1
  -7   6  -4 169.800 33.6822   1
  -7   6  -4 244.176 61.3050  -2
   7   6   4 244.176 61.3050   1
   7   6   5 15.6956 25.6568   1
  -7   6  -6 569.139 24.2858   1
  -7  -6  -7 3177.85 31.0134   1
  -7  -6  -8 45.7923 18.4908   1
   7   6   9 561.667 26.7727   1
  -6  -6 -10 1001.15 81.7982  -2
   7  -6   9 1001.15 81.7982   1
  -7  -6 -10 1.56545 32.0156   1
   6   6  11 3.54975 48.8341  -2
  -7   6 -10 3.54975 48.8341   1
  -7  -6 -11 143.047 33.9882   1
  -6  -6 -12 214.661 53.8287  -2
   7  -6  11 214.661 53.8287   1
  -7  -6 -12 442.878 37.7866   1
   6   6  13 714.216 75.0572  -2
  -7   6 -12 714.216 75.0572   1
  -7  -6 -13 998.626 51.1519   1
   6   6  14 1035.66 75.0134  -2
  -7   6 -13 1035.66 75.0134   1
  -7  -6 -14-1.79642 42.1992   1
   6   6  15 2.53402 66.2659  -2
  -7   6 -14 2.53402 66.2659   1
  -7  -6 -15 32.0046 40.1305   1
   6   6  16 6.11182 60.3698  -2
  -7   6 -15 6.11182 60.3698   1
  -7  -6 -16 346.141 28.6178   1
  -7  -6 -17 90.4958 24.1947   1
  -7  -6 -18 26.3254 32.9451   1
  -7  -6 -19 42.7560 29.6948   1
  -7  -6 -20-2.14471 23.8469   1
   7  -7 -24 656.739 18.1129   1
  -7  -7  23-4.56608 19.4362   1
  -7  -7  22 52.4856 22.7035   1
  -7  -7  21 0.15763 24.6393   1
  -7  -7  20 874.098 31.4205   1
  -7  -7  19 38.1745 30.0778   1
  -7  -7  18 48.9582 30.4547   1
  -7  -7  17 149.415 31.4506   1
  -7  -7  16 2813.57 43.6819   1
  -7   7  15 216.664 19.3545   1
  -7   7  14 139.139 17.7161   1
  -7   7  13 50.2528 17.4226   1
   7  -7 -12 11581.4 48.3975   1
   7  -7 -11 857.788 17.2614   1
  -7   7  10 64.7517 13.1316   1
   7   7  -9 6936.65 46.9151   1
  -7   7   9 8512.36 81.4197  -2
   7   7  -9 8512.36 81.4197   1
   7  -7  -8 737.357 20.2891   1
  -7   7   8 971.770 54.2059  -2
   7   7  -8 971.770 54.2059   1
   7  -7  -7 413.770 30.7703   1
   7  -7  -6 2112.26 48.3108   1
  -7   7   6 2560.06 103.784  -2
   7   7  -6 2560.06 103.784   1
   7  -7  -5 923.317 31.2584   1
  -7   7   5 1101.48 84.5878  -2
   7   7  -5 1101.48 84.5878   1
   7  -7  -4 929.440 39.6091   1
  -7   7   4 1279.58 80.0894  -2
   7   7  -4 1279.58 80.0894   1
  -7   7   3 450.910 34.1327   1
  -7   7   3 552.572 69.1847  -2
   7   7  -3 552.572 69.1847   1
   7  -7  -2 5265.42 63.1658   1
  -7   7   2 6649.97 114.121  -2
   7   7  -2 6649.97 114.121   1
   7  -7  -1 669.683 32.6757   1
  -7   7   1 851.732 68.6114  -2
   7   7  -1 851.732 68.6114   1
  -7   7   0 1380.25 63.7427   1
  -7   7   0 1923.98 78.6386  -2
   7   7   0 1923.98 78.6386   1
  -7   7  -1 635.065 52.6195   1
  -7   7  -1 717.731 63.7273  -2
   7   7   1 717.731 63.7273   1
  -7   7  -2 447.442 51.8339   1
  -7   7  -2 581.494 62.0017  -2
   7   7   2 581.494 62.0017   1
   7  -7   3 367.464 35.1348   1
  -7   7  -3 457.346 64.2766  -2
   7   7   3 457.346 64.2766   1
   7  -7   4 6098.99 56.7231   1
  -7   7  -4 7173.92 121.124  -2
   7   7   4 7173.92 121.124   1
   7   7   5 3.15379 19.7178   1
  -7   7  -6 24.4247 18.1253   1
  -7  -7  -7 518.347 20.5123   1
  -7  -7  -8 506.588 23.4321   1
   7   7   9 24.0286 32.1501   1
  -6  -7 -10-77.4412 78.7995  -2
   7  -7   9-77.4412 78.7995   1
   7  -7   9-4.82443 40.5785  -2
  -7  -7  -9-4.82443 40.5785   1
   7   7  10 488.585 65.5188   1
  -6  -7 -11 589.346 56.4630  -2
   7  -7  10 589.346 56.4630   1
   7  -7  10 614.316 46.5132  -2
  -7  -7 -10 614.316 46.5132   1
   7   7  11 12.4932 33.3690   1
  -6  -7 -12 65.4507 54.7020  -2
   7  -7  11 65.4507 54.7020   1
  -7  -7 -12 502.116 43.9917   1
   6   7  13 747.825 79.4749  -2
  -7   7 -12 747.825 79.4749   1
  -7  -7 -13 3.45998 39.1528   1
   6   7  14-7.06601 67.4048  -2
  -7   7 -13-7.06601 67.4048   1
  -7  -7 -14 18.7414 39.0639   1
   6   7  15 63.5895 63.4101  -2
  -7   7 -14 63.5895 63.4101   1
  -7  -7 -15 83.9068 39.6307   1
   6   7  16 159.941 63.4249  -2
  -7   7 -15 159.941 63.4249   1
  -7  -7 -16-13.1864 25.7661   1
  -7  -7 -17 34.6245 22.5878   1
  -7  -7 -18 63.0560 31.0708   1
  -7  -7 -19-13.8142 27.1024   1
  -7  -8  23 28.3780 16.8995   1
   7  -8 -22 231.797 21.8162   1
  -7  -8  21 25.1458 23.4506   1
  -7  -8  20 4.36587 24.8389   1
  -7  -8  19 77.0198 36.2503   1
  -7  -8  18 67.0152 37.0712   1
  -7  -8  17-7.85751 29.4237   1
  -7  -8  16 17.6209 30.1755   1
  -7  -8  15 158.472 17.0383   1
  -7  -8  14 373.847 20.0833   1
  -7  -8  13 17.4088 17.4893   1
  -7  -8  12 26.4472 17.3296   1
   7  -8 -11 505.961 16.8884   1
  -7  -8  10 875.687 17.8746   1
  -7  -8   9 110.999 14.7582   1
  -7   8   9 162.848 54.3071  -2
   7   8  -9 162.848 54.3071   1
   7  -8  -8 1899.01 22.1165   1
  -7   8   8 2476.29 62.0718  -2
   7   8  -8 2476.29 62.0718   1
   7  -8  -7 1729.77 27.1894   1
  -7   8   7 2083.78 57.9895  -2
   7   8  -7 2083.78 57.9895   1
  -7  -8   6 2.77487 16.0078   1
   7  -8  -5 194.978 34.8426   1
  -7   8   5 242.454 80.3602  -2
   7   8  -5 242.454 80.3602   1
   7  -8  -4 60.6298 42.5772   1
  -7   8   4 68.6191 73.6965  -2
   7   8  -4 68.6191 73.6965   1
   7   8  -3 61.3833 60.8999  -2
  -7   8   4 61.3833 60.8999   1
  -7   8   3 140.384 32.5266   1
  -7   8   3 171.638 69.7402  -2
   7   8  -3 171.638 69.7402   1
   7  -8  -2 1782.34 44.6389   1
  -7   8   2 2365.01 89.1608  -2
   7   8  -2 2365.01 89.1608   1
  -7   8   1 29.1811 27.8284   1
  -7   8   1 15.9986 64.2751  -2
   7   8  -1 15.9986 64.2751   1
  -7   8   0 468.178 53.3100   1
  -7   8   0 516.111 69.6458  -2
   7   8   0 516.111 69.6458   1
  -7   8  -1 302.298 48.8055   1
  -7   8  -1 321.137 66.5615  -2
   7   8   1 321.137 66.5615   1
  -7   8  -2 285.625 49.6897   1
  -7   8  -2 376.255 67.5785  -2
   7   8   2 376.255 67.5785   1
   7  -8   3 523.118 26.4038   1
  -7   8  -3 631.652 38.4937  -2
   7   8   3 631.652 38.4937   1
  -7   8  -4 162.277 17.7756   1
   7  -8   4 231.267 37.7061  -2
  -7  -8  -4 231.267 37.7061   1
  -7   8  -5 228.999 19.8502   1
  -7   8  -5 321.388 38.3994  -2
   7   8   5 321.388 38.3994   1
   7  -8   6-12.9776 30.1224   1
   7  -8   6 40.3170 36.8557  -2
  -7  -8  -6 40.3170 36.8557   1
   7   8   7 136.297 27.4178   1
  -7  -8  -8 449.046 26.5020   1
  -6  -8  -9 472.656 87.1269  -2
   7  -8   8 472.656 87.1269   1
   7   8   9 278.294 61.4951   1
  -6  -8 -10 246.849 56.2641  -2
   7  -8   9 246.849 56.2641   1
   7  -8   9 344.769 42.3156  -2
  -7  -8  -9 344.769 42.3156   1
  -7  -8 -10 449.729 34.7777   1
  -6  -8 -11 605.373 60.1783  -2
   7  -8  10 605.373 60.1783   1
  -7  -8 -11 96.8030 37.4508   1
   6   8  12 410.551 78.9978  -2
  -7   8 -11 410.551 78.9978   1
  -7  -8 -12 103.645 38.4267   1
   6   8  13 162.461 71.9384  -2
  -7   8 -12 162.461 71.9384   1
  -7  -8 -13 145.511 39.3325   1
   6   8  14 237.020 70.8755  -2
  -7   8 -13 237.020 70.8755   1
  -7  -8 -14 5.19945 35.7462   1
   6   8  15 101.194 64.2219  -2
  -7   8 -14 101.194 64.2219   1
  -7  -8 -15 237.746 38.6749   1
   6   8  16 263.892 61.8503  -2
  -7   8 -15 263.892 61.8503   1
  -7  -8 -16-12.8296 23.8933   1
  -7  -8 -17 197.131 23.0000   1
  -7  -8 -18 23.1663 26.8793   1
  -7  -8 -19 4.72272 23.1800   1
  -7  -9  23 55.6605 20.9362   1
  -7  -9  22 69.3450 18.2667   1
  -7  -9  21 345.897 22.3363   1
  -7  -9  20 421.685 25.2896   1
  -7  -9  19 729.535 28.5399   1
  -7  -9  18 452.654 38.8711   1
  -7  -9  17 109.664 36.2302   1
   7  -9 -16 11.5627 21.9082   1
   7  -9 -15 353.442 18.4727   1
   7  -9 -14 29.5552 17.4166   1
   7  -9 -13 1559.89 26.2479   1
   7  -9 -12 33.2521 18.4669   1
   7  -9 -11 126.103 18.2241   1
  -7  -9  10 651.702 19.6703   1
  -7   9  10 782.337 61.1399  -2
   7   9 -10 782.337 61.1399   1
  -7  -9   9 935.001 19.2845   1
  -7   9   9 1067.28 61.0356  -2
   7   9  -9 1067.28 61.0356   1
   7  -9  -8 1497.88 23.0516   1
  -7   9   8 2047.37 62.8468  -2
   7   9  -8 2047.37 62.8468   1
  -7   9   7 96.1087 20.9174   1
  -7   9   7 121.640 52.2867  -2
   7   9  -7 121.640 52.2867   1
   7  -9  -6 1393.73 31.3191   1
  -7   9   6 1694.36 56.1580  -2
   7   9  -6 1694.36 56.1580   1
   7  -9  -5 1478.87 28.2769   1
  -7   9   5 1882.59 106.338  -2
   7   9  -5 1882.59 106.338   1
   7  -9  -4 279.641 22.7089   1
   7  -9  -4 353.662 43.9357  -2
  -7  -9   4 353.662 43.9357   1
   7   9  -3 531.214 69.5735  -2
  -7   9   4 531.214 69.5735   1
   7  -9  -3 1093.12 27.2311   1
  -7   9   3 1468.66 90.4000  -2
   7   9  -3 1468.66 90.4000   1
   7   9  -2 1198.47 75.5330  -2
  -7   9   3 1198.47 75.5330   1
   7  -9  -2 882.448 25.0719   1
   7  -9  -2 1103.68 47.9507  -2
  -7  -9   2 1103.68 47.9507   1
   7   9  -1 1415.97 78.6356  -2
  -7   9   2 1415.97 78.6356   1
  -7   9   1 2806.64 35.8451   1
  -7   9   1 3612.39 108.946  -2
   7   9  -1 3612.39 108.946   1
  -7   9   0 1669.51 25.4518   1
  -7   9   0 2052.23 94.2421  -2
   7   9   0 2052.23 94.2421   1
  -7   9  -1 138.669 18.5407   1
   7  -9   1 170.439 38.6134  -2
  -7  -9  -1 170.439 38.6134   1
  -7   9  -2 17.5772 17.5327   1
   7  -9   2 60.3736 38.9439  -2
  -7  -9  -2 60.3736 38.9439   1
   7  -9   3 1368.72 25.0405   1
  -7   9  -3 1770.25 47.3798  -2
   7   9   3 1770.25 47.3798   1
  -7   9  -4 581.896 21.4500   1
  -7   9  -4 751.636 43.7108  -2
   7   9   4 751.636 43.7108   1
  -7   9  -5 4192.71 55.1989   1
   7  -9   5 5003.58 61.8398  -2
  -7  -9  -5 5003.58 61.8398   1
  -7   9  -6 37.4107 20.3363   1
   7  -9   6 35.2861 38.7648  -2
  -7  -9  -6 35.2861 38.7648   1
   7   9   7 380.949 33.4502   1
   7  -9   7 448.051 48.8646  -2
  -7  -9  -7 448.051 48.8646   1
   7   9   8 2875.88 101.450   1
  -6  -9  -9 3605.99 75.2921  -2
   7  -9   8 3605.99 75.2921   1
   7   9   9 766.363 75.6157   1
  -6  -9 -10 966.477 60.1784  -2
   7  -9   9 966.477 60.1784   1
   6   9  11-6.42026 76.0625  -2
  -7   9 -10-6.42026 76.0625   1
   6   9  12 401.549 74.0511  -2
  -7   9 -11 401.549 74.0511   1
   7  -9  11 538.245 43.3509  -2
  -7  -9 -11 538.245 43.3509   1
  -7  -9 -12 121.740 35.3942   1
   6   9  13 251.592 75.8251  -2
  -7   9 -12 251.592 75.8251   1
  -7  -9 -13 505.007 38.1735   1
   6   9  14 640.914 71.8468  -2
  -7   9 -13 640.914 71.8468   1
  -7  -9 -14 7.34167 34.5789   1
   6   9  15-18.0762 62.4777  -2
  -7   9 -14-18.0762 62.4777   1
  -7  -9 -15 8.62765 31.7422   1
   6   9  16 64.2265 58.1964  -2
  -7   9 -15 64.2265 58.1964   1
  -7  -9 -16 114.904 22.7286   1
  -7  -9 -17 163.130 19.9589   1
  -7 -10  22 13.4370 21.6214   1
  -7 -10  21 21.6670 17.9348   1
  -7 -10  20 116.282 20.9545   1
  -7 -10  19 27.2783 22.6098   1
   7 -10 -18 196.195 24.6821   1
  -7 -10  17-17.1049 34.8134   1
   7 -10 -16 14.1038 21.1283   1
   7 -10 -15 118.269 23.1822   1
   7 -10 -14-1.65193 17.1822   1
   7 -10 -13-2.80649 17.7233   1
  -7 -10  12 178.424 17.4251   1
  -7 -10  11 25.9131 19.2388   1
   7 -10 -10 571.150 21.3678   1
  -7  10  10 653.532 61.6410  -2
   7  10 -10 653.532 61.6410   1
  -7 -10   9 263.105 17.9271   1
  -7  10   9 302.204 59.4859  -2
   7  10  -9 302.204 59.4859   1
  -7  10   8 240.860 17.7618   1
  -7  10   8 270.404 57.5605  -2
   7  10  -8 270.404 57.5605   1
   7 -10  -7 387.236 24.7551   1
   7 -10  -7 566.649 40.8834  -2
  -7 -10   7 566.649 40.8834   1
  -7  10   6 78.6289 22.5951   1
  -7  10   6 109.516 35.1754  -2
   7  10  -6 109.516 35.1754   1
   7 -10  -5 627.846 25.7076   1
  -7  10   5 750.525 99.1159  -2
   7  10  -5 750.525 99.1159   1
   7 -10  -4 11.1629 22.9967   1
  -7  10   4 54.6773 45.2128  -2
   7  10  -4 54.6773 45.2128   1
   7  10  -3 313.358 68.9994  -2
  -7  10   4 313.358 68.9994   1
  -7  10   3 1387.07 32.2099   1
  -7  10   3 1788.10 103.366  -2
   7  10  -3 1788.10 103.366   1
  -7  10   2 580.316 29.5323   1
   7 -10  -2 835.755 51.5523  -2
  -7 -10   2 835.755 51.5523   1
   7  10  -1 533.297 72.5509  -2
  -7  10   2 533.297 72.5509   1
  -7  10   1 98.3653 23.5870   1
  -7  10   1 137.227 40.8577  -2
   7  10  -1 137.227 40.8577   1
   7  10   0 296.727 64.0336  -2
  -7  10   1 296.727 64.0336   1
  -7  10   0 891.231 29.1594   1
   7 -10   0 1073.13 46.6041  -2
  -7 -10   0 1073.13 46.6041   1
   7  10   1 968.956 64.2895  -2
  -7  10   0 968.956 64.2895   1
   7 -10   1 125.072 15.6524   1
   7 -10   1 199.601 41.3740  -2
  -7 -10  -1 199.601 41.3740   1
  -7  10  -2 117.948 19.5973   1
   7 -10   2 146.754 43.2551  -2
  -7 -10  -2 146.754 43.2551   1
  -7  10  -3 1666.98 35.0860   1
   7 -10   3 2037.10 53.3760  -2
  -7 -10  -3 2037.10 53.3760   1
  -7  10  -4 868.699 25.9692   1
   7 -10   4 1080.82 49.8958  -2
  -7 -10  -4 1080.82 49.8958   1
   7 -10   5 2508.34 51.3809   1
   7 -10   5 2971.36 58.8822  -2
  -7 -10  -5 2971.36 58.8822   1
  -7  10  -6 2243.03 34.2175   1
   7 -10   6 2740.17 57.2424  -2
  -7 -10  -6 2740.17 57.2424   1
   7 -10   7 50.1137 36.6356   1
   6  10   8 74.8909 37.5305  -2
  -7  10  -7 74.8909 37.5305   1
   7 -10   7 159.623 42.5402  -2
  -7 -10  -7 159.623 42.5402   1
  -7  10  -8 2634.95 55.1653   1
  -6 -10  -9 3856.82 126.712  -2
   7 -10   8 3856.82 126.712   1
   6  10  10 827.196 83.2978  -2
  -7  10  -9 827.196 83.2978   1
   6  10  11 43.8567 79.8482  -2
  -7  10 -10 43.8567 79.8482   1
   6  10  12-25.0200 72.1986  -2
  -7  10 -11-25.0200 72.1986   1
   6  10  13 209.238 70.9454  -2
  -7  10 -12 209.238 70.9454   1
   6  10  14 84.0003 26.0895  -2
  -7  10 -13 84.0003 26.0895   1
   6  10  15-32.9201 60.7580  -2
  -7  10 -14-32.9201 60.7580   1
   6  10  16 327.258 55.9858  -2
  -7  10 -15 327.258 55.9858   1
   6  10  17 262.111 47.8130  -2
  -7  10 -16 262.111 47.8130   1
  -7  10 -17 111.366 27.1054   1
  -7 -11  21 11.5935 21.9588   1
  -7 -11  20 63.2775 17.3206   1
  -7 -11  19 221.370 20.9052   1
  -7 -11  18 237.393 22.5187   1
   7 -11 -17 38.2453 22.8084   1
   7 -11 -16 14.3959 21.3347   1
   7 -11 -15 429.856 24.7334   1
   7 -11 -14 548.650 19.1879   1
   7 -11 -13 603.896 20.1548   1
   7 -11 -12 437.208 20.1533   1
   7 -11 -11 152.937 18.8258   1
   7 -11 -10 64.9803 14.8895   1
  -7 -11   9 52.5879 16.4433   1
  -7  11   9 31.1032 55.1793  -2
   7  11  -9 31.1032 55.1793   1
  -7 -11   8 129.870 17.6147   1
  -7  11   8 144.600 57.1162  -2
   7  11  -8 144.600 57.1162   1
  -7  11   7 428.363 26.9705   1
   7 -11  -7 615.355 43.5832  -2
  -7 -11   7 615.355 43.5832   1
  -7  11   6 5.19985 22.0480   1
  -7  11   6 51.2502 39.6936  -2
   7  11  -6 51.2502 39.6936   1
   7 -11  -5 377.114 26.6012   1
   7 -11  -5 500.807 37.8839  -2
  -7 -11   5 500.807 37.8839   1
   7  11  -4 339.826 74.1137  -2
  -7  11   5 339.826 74.1137   1
  -7  11   4 218.162 30.4741   1
   7 -11  -4 332.240 50.7515  -2
  -7 -11   4 332.240 50.7515   1
   7  11  -3 252.205 72.0047  -2
  -7  11   4 252.205 72.0047   1
  -7  11   3 288.606 30.6073   1
   7 -11  -3 324.625 48.2155  -2
  -7 -11   3 324.625 48.2155   1
   7  11  -2 514.804 74.8844  -2
  -7  11   3 514.804 74.8844   1
  -7  11   2 463.622 32.6879   1
  -7  11   2 545.605 92.9713  -2
   7  11  -2 545.605 92.9713   1
  -7 -11   1 587.876 37.6555  -2
   7 -11  -2 587.876 37.6555   1
   7 -11  -1 245.137 21.4568   1
   7 -11  -1 353.414 47.8170  -2
  -7 -11   1 353.414 47.8170   1
   7  11   0 416.847 75.4793  -2
  -7  11   1 416.847 75.4793   1
  -7  11   0 958.390 20.1809   1
   7 -11   0 1225.19 62.4209  -2
  -7 -11   0 1225.19 62.4209   1
   7 -11   1 4268.06 36.5164   1
  -7  11  -1 5320.56 71.5574  -2
   7  11   1 5320.56 71.5574   1
   7 -11   2 1036.91 27.3063   1
  -7  11  -2 1236.72 52.8832  -2
   7  11   2 1236.72 52.8832   1
  -7  11  -3 419.895 25.5778   1
   7 -11   3 629.560 51.1347  -2
  -7 -11  -3 629.560 51.1347   1
  -7  11  -4 3756.35 58.8142   1
   7 -11   4 4241.07 68.2791  -2
  -7 -11  -4 4241.07 68.2791   1
  -7  11  -5 1285.49 30.2103   1
  -7  11  -5 1627.91 54.7199  -2
   7  11   5 1627.91 54.7199   1
  -7  11  -6 157.255 22.5117   1
   7 -11   6 173.586 44.0224  -2
  -7 -11  -6 173.586 44.0224   1
  -7  11  -7 430.526 50.0267   1
   6  11   8 451.183 40.3816  -2
  -7  11  -7 451.183 40.3816   1
   7 -11   7 635.627 54.0635  -2
  -7 -11  -7 635.627 54.0635   1
   6  11   9 378.364 34.7048  -2
  -7  11  -8 378.364 34.7048   1
   7 -11   8 470.381 51.3626  -2
  -7 -11  -8 470.381 51.3626   1
   6  11  10 586.982 73.5762  -2
  -7  11  -9 586.982 73.5762   1
   6  11  11 157.044 73.6041  -2
  -7  11 -10 157.044 73.6041   1
   6  11  12 825.010 77.6669  -2
  -7  11 -11 825.010 77.6669   1
   6  11  13 186.019 72.0569  -2
  -7  11 -12 186.019 72.0569   1
   6  11  14 135.385 26.0747  -2
  -7  11 -13 135.385 26.0747   1
   6  11  15 150.159 60.4539  -2
  -7  11 -14 150.159 60.4539   1
   6  11  16 717.746 55.5143  -2
  -7  11 -15 717.746 55.5143   1
  -7  11 -16 177.387 29.9742   1
  -7 -12  20 26.0841 21.7083   1
  -7 -12  19 91.7456 25.7788   1
  -7 -12  18-2.28710 28.4495   1
   7 -12 -17 6.11750 19.2876   1
   7 -12 -16 197.070 17.3374   1
  -7 -12  15 61.5014 21.7721   1
   7 -12 -14 8.18234 14.4017   1
   7 -12 -13 7.47594 15.3681   1
   7 -12 -12 132.370 18.3721   1
   7 -12 -11 750.212 21.4419   1
   7 -12 -10 1224.21 22.9849   1
   7 -12  -9 28.5975 16.9463   1
  -7  12   9 51.7942 59.9223  -2
   7  12  -9 51.7942 59.9223   1
   7 -12  -8 303.312 23.2208   1
  -7  12   8 302.495 59.6300  -2
   7  12  -8 302.495 59.6300   1
   7 -12  -7 266.633 24.0545   1
   7 -12  -7 344.052 44.0014  -2
  -7 -12   7 344.052 44.0014   1
   7 -12  -6 172.090 22.9673   1
  -7  12   6 236.685 43.1224  -2
   7  12  -6 236.685 43.1224   1
  -7  12   5 196.216 31.3364   1
   7 -12  -5 233.812 40.0924  -2
  -7 -12   5 233.812 40.0924   1
   7  12  -4 339.465 40.3343  -2
  -7  12   5 339.465 40.3343   1
  -7  12   4 632.852 35.9917   1
  -7  12   4 790.777 53.9867  -2
   7  12  -4 790.777 53.9867   1
  -7 -12   3 1244.63 46.1838  -2
   7 -12  -4 1244.63 46.1838   1
  -7  12   3 2608.83 47.4328   1
   7 -12  -3 3361.56 77.6000  -2
  -7 -12   3 3361.56 77.6000   1
   7  12  -2 2940.34 51.7650  -2
  -7  12   3 2940.34 51.7650   1
   7 -12  -2 1864.75 38.5976   1
  -7  12   2 2419.77 64.4278  -2
   7  12  -2 2419.77 64.4278   1
  -7 -12   1 2151.52 48.7902  -2
   7 -12  -2 2151.52 48.7902   1
   7 -12  -1 1382.69 29.2477   1
   7 -12  -1 1737.25 69.0450  -2
  -7 -12   1 1737.25 69.0450   1
   7  12   0 1149.91 56.6752  -2
  -7  12   1 1149.91 56.6752   1
   7 -12   0 48.8926 18.9533   1
   7 -12   0 88.8092 51.2279  -2
  -7 -12   0 88.8092 51.2279   1
   7 -12   1 2959.83 34.5350   1
   7 -12   1 3939.33 71.1860  -2
  -7 -12  -1 3939.33 71.1860   1
  -7  12  -2 36.0227 22.8617   1
   7 -12   2 64.9694 47.8390  -2
  -7 -12  -2 64.9694 47.8390   1
  -7  12  -3 220.060 24.4465   1
   7 -12   3 216.589 50.5268  -2
  -7 -12  -3 216.589 50.5268   1
  -7  12  -4 979.046 30.0013   1
   7 -12   4 1149.04 62.2039  -2
  -7 -12  -4 1149.04 62.2039   1
  -7  12  -5 269.769 25.3632   1
   7 -12   5 339.240 55.1744  -2
  -7 -12  -5 339.240 55.1744   1
  -7  12  -6 517.782 26.8651   1
   7 -12   6 720.125 56.7958  -2
  -7 -12  -6 720.125 56.7958   1
  -7  12  -7 523.693 48.8265   1
   6  12   8 823.757 43.7212  -2
  -7  12  -7 823.757 43.7212   1
   7 -12   7 774.677 56.0831  -2
  -7 -12  -7 774.677 56.0831   1
   6  12   9 654.909 36.6364  -2
  -7  12  -8 654.909 36.6364   1
   7 -12   8 555.920 52.3064  -2
  -7 -12  -8 555.920 52.3064   1
   6  12  10 758.763 81.6822  -2
  -7  12  -9 758.763 81.6822   1
   6  12  11 111.038 75.8740  -2
  -7  12 -10 111.038 75.8740   1
   6  12  12 440.586 71.1746  -2
  -7  12 -11 440.586 71.1746   1
   6  12  13 45.5833 67.5268  -2
  -7  12 -12 45.5833 67.5268   1
   6  12  14 88.4135 23.1605  -2
  -7  12 -13 88.4135 23.1605   1
   6  12  15 40.0690 52.5026  -2
  -7  12 -14 40.0690 52.5026   1
   6  12  16 0.44861 39.3461  -2
  -7  12 -15 0.44861 39.3461   1
  -7 -13  19-14.6753 20.0589   1
  -7 -13  18 23.7689 23.7175   1
  -7 -13  17 106.614 27.0617   1
  -7 -13  16 356.550 20.1827   1
   7 -13 -15 75.7803 20.8569   1
  -7 -13  14 4.56943 17.2081   1
   7 -13 -13 167.156 14.8605   1
  -7 -13  12 544.849 17.4598   1
  -7 -13  11 312.265 18.7062   1
   7 -13 -10 871.166 19.6139   1
   7 -13  -9 332.731 18.9210   1
   7 -13  -8 373.747 23.0560   1
  -7  13   8 440.639 59.3912  -2
   7  13  -8 440.639 59.3912   1
   7 -13  -7 36.3982 24.0858   1
   7 -13  -7 43.6127 45.0989  -2
  -7 -13   7 43.6127 45.0989   1
   7 -13  -6 338.401 25.4605   1
   7 -13  -6 399.793 44.6963  -2
  -7 -13   6 399.793 44.6963   1
  -7  13   5 497.387 35.4274   1
   7 -13  -5 613.085 44.9111  -2
  -7 -13   5 613.085 44.9111   1
  -7 -13   4 1192.39 53.4525  -2
   7 -13  -5 1192.39 53.4525   1
  -7  13   4 2552.73 49.2376   1
  -7  13   4 3365.36 54.7600  -2
   7  13  -4 3365.36 54.7600   1
  -7 -13   3 2697.92 60.4870  -2
   7 -13  -4 2697.92 60.4870   1
  -7  13   3 97.8312 30.9336   1
   7 -13  -3 154.535 42.9321  -2
  -7 -13   3 154.535 42.9321   1
  -7 -13   2 125.366 47.6124  -2
   7 -13  -3 125.366 47.6124   1
  -7  13   2 19.8117 31.2774   1
   7 -13  -2 26.0704 58.2923  -2
  -7 -13   2 26.0704 58.2923   1
  -7 -13   1 403.937 46.8471  -2
   7 -13  -2 403.937 46.8471   1
  -7  13   1 1368.15 41.3884   1
   7 -13  -1 1870.80 72.4104  -2
  -7 -13   1 1870.80 72.4104   1
  -7 -13   0 1948.38 43.5581  -2
   7 -13  -1 1948.38 43.5581   1
   7 -13   0 2596.56 35.3131   1
   7 -13   0 3501.74 78.2128  -2
  -7 -13   0 3501.74 78.2128   1
   7  13   1 2470.50 77.7285  -2
  -7  13   0 2470.50 77.7285   1
  -7  13  -1 86.4089 20.2597   1
   7 -13   1 187.947 61.9108  -2
  -7 -13  -1 187.947 61.9108   1
  -7  13  -2 1561.36 33.2476   1
   7 -13   2 2137.63 73.2642  -2
  -7 -13  -2 2137.63 73.2642   1
  -7  13  -3 5.63687 24.1444   1
   7 -13   3 53.0063 55.4447  -2
  -7 -13  -3 53.0063 55.4447   1
  -7  13  -4 1417.99 32.4377   1
   7 -13   4 1917.73 69.3274  -2
  -7 -13  -4 1917.73 69.3274   1
  -7  13  -5 643.439 27.5996   1
   7 -13   5 898.028 61.3369  -2
  -7 -13  -5 898.028 61.3369   1
  -7  13  -6 126.162 24.2554   1
   7 -13   6 157.307 53.6412  -2
  -7 -13  -6 157.307 53.6412   1
  -7  13  -7 22.6448 43.9804   1
   6  13   8 62.8912 39.1867  -2
  -7  13  -7 62.8912 39.1867   1
   7 -13   7-20.0527 50.8340  -2
  -7 -13  -7-20.0527 50.8340   1
   6  13   9 1250.40 37.6353  -2
  -7  13  -8 1250.40 37.6353   1
   7 -13   8 1766.77 59.9483  -2
  -7 -13  -8 1766.77 59.9483   1
   6  13  10 150.883 29.5671  -2
  -7  13  -9 150.883 29.5671   1
   6  13  11 22.8290 67.0181  -2
  -7  13 -10 22.8290 67.0181   1
   6  13  12 186.835 66.2933  -2
  -7  13 -11 186.835 66.2933   1
   6  13  13 247.199 25.5207  -2
  -7  13 -12 247.199 25.5207   1
   6  13  14 145.288 21.2662  -2
  -7  13 -13 145.288 21.2662   1
   6  13  15 31.9458 45.5105  -2
  -7  13 -14 31.9458 45.5105   1
  -7  13 -15 22.9534 22.7687   1
  -7 -14  17 21.6644 21.1511   1
   7 -14 -16 48.1776 16.1563   1
  -7 -14  15 34.9183 18.1025   1
   7 -14 -14 101.878 16.0701   1
   7 -14 -13 2.76789 16.6243   1
   7 -14 -12 6.36347 13.9114   1
   7 -14 -11 9.88128 15.8768   1
   7 -14 -10 276.130 17.2985   1
  -7 -14   9 68.0357 20.0154   1
   7 -14  -8 2.07913 20.8078   1
  -7  14   8 6.15307 54.6871  -2
   7  14  -8 6.15307 54.6871   1
   7 -14  -7 25.0056 23.4503   1
  -7  14   7 19.7428 41.2226  -2
   7  14  -7 19.7428 41.2226   1
   7 -14  -6 271.373 25.1212   1
  -7  14   6 393.687 44.1290  -2
   7  14  -6 393.687 44.1290   1
  -7  14   5 93.0036 30.9545   1
  -7  14   5 117.594 42.6042  -2
   7  14  -5 117.594 42.6042   1
  -7 -14   4 85.8943 48.9997  -2
   7 -14  -5 85.8943 48.9997   1
  -7  14   4 26.1444 31.5580   1
   7 -14  -4 79.2161 42.6413  -2
  -7 -14   4 79.2161 42.6413   1
  -7 -14   3 118.503 46.9457  -2
   7 -14  -4 118.503 46.9457   1
  -7  14   3 236.784 32.7254   1
   7 -14  -3 254.783 42.9171  -2
  -7 -14   3 254.783 42.9171   1
  -7 -14   2 241.916 46.8526  -2
   7 -14  -3 241.916 46.8526   1
  -7  14   2 7.49580 31.1283   1
  -7  14   2 1.37755 41.1764  -2
   7  14  -2 1.37755 41.1764   1
  -7 -14   1 5.53646 46.0189  -2
   7 -14  -2 5.53646 46.0189   1
  -7  14   1 23.8403 31.6694   1
   7 -14  -1-22.8551 62.4866  -2
  -7 -14   1-22.8551 62.4866   1
  -7 -14   0 46.9045 44.9190  -2
   7 -14  -1 46.9045 44.9190   1
   7 -14   0 118.200 22.7667   1
   7 -14   0 139.224 58.2421  -2
  -7 -14   0 139.224 58.2421   1
   7  14   1 128.688 61.6973  -2
  -7  14   0 128.688 61.6973   1
   7 -14   1 37.3829 19.1127   1
   7 -14   1 3.95298 60.6201  -2
  -7 -14  -1 3.95298 60.6201   1
  -7  14  -2 18.7618 23.5129   1
   7 -14   2 40.7473 58.6196  -2
  -7 -14  -2 40.7473 58.6196   1
  -7  14  -3 277.832 25.1809   1
   7 -14   3 412.732 57.4463  -2
  -7 -14  -3 412.732 57.4463   1
  -7  14  -4 4.50383 24.0365   1
   7 -14   4 11.5278 55.6160  -2
  -7 -14  -4 11.5278 55.6160   1
  -7  14  -5 491.974 25.9153   1
   7 -14   5 686.632 58.5486  -2
  -7 -14  -5 686.632 58.5486   1
  -7  14  -6 113.395 22.6941   1
   7 -14   6 234.601 52.0302  -2
  -7 -14  -6 234.601 52.0302   1
  -7  14  -7 91.7802 42.4079   1
   6  14   8 160.872 35.7013  -2
  -7  14  -7 160.872 35.7013   1
   7 -14   7 96.4334 50.8267  -2
  -7 -14  -7 96.4334 50.8267   1
   6  14   9 371.451 31.8004  -2
  -7  14  -8 371.451 31.8004   1
   7 -14   8 252.437 48.4989  -2
  -7 -14  -8 252.437 48.4989   1
   6  14  10 152.581 63.7015  -2
  -7  14  -9 152.581 63.7015   1
   6  14  11 34.0548 60.0991  -2
  -7  14 -10 34.0548 60.0991   1
   6  14  12 32.3370 59.0911  -2
  -7  14 -11 32.3370 59.0911   1
  -6 -14 -13 158.794 21.5150  -2
   7 -14  12 158.794 21.5150   1
   6  14  14 59.1711 44.5923  -2
  -7  14 -13 59.1711 44.5923   1
  -7  14 -14 2.36286 22.6423   1
  -7 -15  15 50.3463 14.8113   1
  -7 -15  14 189.629 13.8155   1
  -7 -15  13 211.239 20.8936   1
   7 -15 -12 170.320 12.7997   1
   7 -15 -11 328.407 19.9159   1
   7 -15 -10 551.280 22.5847   1
   7 -15  -9 184.759 19.5737   1
   7 -15  -8 332.026 21.6514   1
   7 -15  -7 859.422 26.5760   1
   7 -15  -7 943.935 41.5753  -2
  -7 -15   7 943.935 41.5753   1
   7 -15  -6 531.713 25.0861   1
  -7  15   6 618.820 55.0926  -2
   7  15  -6 618.820 55.0926   1
  -7  15   5 66.8148 28.9920   1
   7 -15  -5 118.111 40.7482  -2
  -7 -15   5 118.111 40.7482   1
  -7 -15   4 130.173 47.3964  -2
   7 -15  -5 130.173 47.3964   1
  -7  15   4 327.011 30.9657   1
  -7  15   4 454.230 41.8099  -2
   7  15  -4 454.230 41.8099   1
  -7 -15   3 325.405 48.6626  -2
   7 -15  -4 325.405 48.6626   1
  -7  15   3 61.6183 29.3739   1
   7 -15  -3 109.340 42.0865  -2
  -7 -15   3 109.340 42.0865   1
  -7 -15   2 63.2867 45.2916  -2
   7 -15  -3 63.2867 45.2916   1
  -7  15   2 16.5871 31.0893   1
   7 -15  -2 12.2888 40.5355  -2
  -7 -15   2 12.2888 40.5355   1
  -7 -15   1 261.586 45.9063  -2
   7 -15  -2 261.586 45.9063   1
   7 -15  -1 834.382 27.4488   1
  -7  15   1 1215.44 46.8428  -2
   7  15  -1 1215.44 46.8428   1
  -7  15   0 814.730 26.3103   1
   7 -15   0 1241.59 47.2965  -2
  -7 -15   0 1241.59 47.2965   1
   7  15   1 773.261 60.6910  -2
  -7  15   0 773.261 60.6910   1
  -7  15  -1 267.017 19.3095   1
   7 -15   1 446.978 57.9137  -2
  -7 -15  -1 446.978 57.9137   1
  -7  15  -2 75.4021 23.0772   1
   7 -15   2 139.476 55.8977  -2
  -7 -15  -2 139.476 55.8977   1
  -7  15  -3 372.398 24.8861   1
   7 -15   3 612.158 61.2961  -2
  -7 -15  -3 612.158 61.2961   1
  -7  15  -4 31.6916 22.2932   1
   7 -15   4 86.2043 53.6605  -2
  -7 -15  -4 86.2043 53.6605   1
  -7  15  -5 169.828 22.4227   1
   7 -15   5 301.646 54.9426  -2
  -7 -15  -5 301.646 54.9426   1
  -7  15  -6 38.6157 20.2316   1
   7 -15   6 82.3841 49.0163  -2
  -7 -15  -6 82.3841 49.0163   1
   6  15   8 382.802 30.5684  -2
  -7  15  -7 382.802 30.5684   1
   7 -15   7 560.034 50.7059  -2
  -7 -15  -7 560.034 50.7059   1
   6  15   9 162.859 59.8564  -2
  -7  15  -8 162.859 59.8564   1
   7 -15   8 309.303 45.1223  -2
  -7 -15  -8 309.303 45.1223   1
   6  15  10 50.2833 59.3132  -2
  -7  15  -9 50.2833 59.3132   1
   6  15  11 2.16058 45.6863  -2
  -7  15 -10 2.16058 45.6863   1
   6  15  12 274.962 21.5029  -2
  -7  15 -11 274.962 21.5029   1
   6  15  13 57.7467 40.6189  -2
  -7  15 -12 57.7467 40.6189   1
   7 -16 -14 87.5506 19.5777   1
   7 -16 -13 35.1662 16.0704   1
   7 -16 -12 151.835 19.2622   1
   7 -16 -11 54.8125 13.5233   1
   7 -16 -10 97.0908 15.2044   1
   7 -16  -9 2.02500 16.1641   1
   7 -16  -8 33.9886 17.7336   1
   7 -16  -7 67.9911 20.5696   1
   7 -16  -7 92.0707 51.4237  -2
  -7 -16   7 92.0707 51.4237   1
   7 -16  -6 118.583 20.8068   1
   7 -16  -6 142.021 55.8795  -2
  -7 -16   6 142.021 55.8795   1
  -7  16   5 32.5000 28.2928   1
   7 -16  -5 26.3994 36.3064  -2
  -7 -16   5 26.3994 36.3064   1
  -7 -16   4 153.283 44.7997  -2
   7 -16  -5 153.283 44.7997   1
  -7  16   4 467.371 31.6700   1
   7 -16  -4 609.755 40.7910  -2
  -7 -16   4 609.755 40.7910   1
  -7 -16   3 453.325 45.8929  -2
   7 -16  -4 453.325 45.8929   1
  -7  16   3 25.6272 28.3221   1
   7 -16  -3 13.1174 33.6554  -2
  -7 -16   3 13.1174 33.6554   1
  -7 -16   2 9.86077 42.3271  -2
   7 -16  -3 9.86077 42.3271   1
  -7  16   2 21.3868 26.2318   1
   7 -16  -2 34.9369 36.9687  -2
  -7 -16   2 34.9369 36.9687   1
  -7 -16   1 14.2829 40.8821  -2
   7 -16  -2 14.2829 40.8821   1
  -7  16   1 21.0147 28.3856   1
  -7  16   1 47.0085 36.6169  -2
   7  16  -1 47.0085 36.6169   1
  -7 -16   0 70.1157 38.9874  -2
   7 -16  -1 70.1157 38.9874   1
   7 -16   0 106.131 20.5944   1
   7 -16   0 105.047 37.2295  -2
  -7 -16   0 105.047 37.2295   1
  -7  16  -1 10.4210 20.3533   1
  -7  16  -1-0.78859 34.8993  -2
   7  16   1-0.78859 34.8993   1
  -7  16  -2 27.4228 20.1847   1
  -7  16  -2 21.2880 34.3720  -2
   7  16   2 21.2880 34.3720   1
  -7  16  -3 35.5244 20.4161   1
   7 -16   3 32.3974 34.4110  -2
  -7 -16  -3 32.3974 34.4110   1
  -7  16  -4 263.166 21.5945   1
   7 -16   4 456.851 55.6807  -2
  -7 -16  -4 456.851 55.6807   1
  -7  16  -5 19.7678 19.2906   1
   7 -16   5 26.8700 50.1538  -2
  -7 -16  -5 26.8700 50.1538   1
  -7  16  -6 21.2002 18.1719   1
   7 -16   6 21.6094 46.2226  -2
  -7 -16  -6 21.6094 46.2226   1
  -7  16  -7 24.4402 32.4941   1
   7 -16   7 38.2735 41.3810  -2
  -7 -16  -7 38.2735 41.3810   1
   6  16   9 102.722 52.7701  -2
  -7  16  -8 102.722 52.7701   1
   7 -16   8 76.9352 36.4407  -2
  -7 -16  -8 76.9352 36.4407   1
   6  16  10-1.23521 47.0940  -2
  -7  16  -9-1.23521 47.0940   1
   6  16  11 27.3784 18.6964  -2
  -7  16 -10 27.3784 18.6964   1
   6  16  12-6.00812 35.3513  -2
  -7  16 -11-6.00812 35.3513   1
   7 -17 -12 22.2172 19.9248   1
   7 -17 -11 1.16499 16.0424   1
  -7  17  10 15.7540 13.4207   1
   7 -17  -9 701.849 18.4336   1
  -7  17   8 136.592 17.4626   1
  -7  17   8 167.537 50.7651  -2
   7  17  -8 167.537 50.7651   1
  -7  17   7 10.5093 17.1383   1
   7 -17  -7 23.3670 32.2274  -2
  -7 -17   7 23.3670 32.2274   1
   7 -17  -6 134.482 18.5177   1
   7 -17  -6 194.386 45.7662  -2
  -7 -17   6 194.386 45.7662   1
  -7  17   5 189.098 24.4217   1
   7 -17  -5 227.776 52.4282  -2
  -7 -17   5 227.776 52.4282   1
  -7 -17   4 223.791 39.1033  -2
   7 -17  -5 223.791 39.1033   1
  -7  17   4 18.2815 24.4559   1
   7 -17  -4 23.2168 53.0118  -2
  -7 -17   4 23.2168 53.0118   1
  -7 -17   3 78.6080 38.6726  -2
   7 -17  -4 78.6080 38.6726   1
  -7  17   3 177.233 26.2407   1
   7 -17  -3 229.833 33.7637  -2
  -7 -17   3 229.833 33.7637   1
  -7 -17   2 246.660 38.4825  -2
   7 -17  -3 246.660 38.4825   1
  -7  17   2 181.895 26.8680   1
  -7  17   2 273.530 34.2630  -2
   7  17  -2 273.530 34.2630   1
  -7 -17   1 230.262 37.0796  -2
   7 -17  -2 230.262 37.0796   1
   7 -17  -1 112.870 18.2164   1
  -7  17   1 169.187 33.9393  -2
   7  17  -1 169.187 33.9393   1
  -7  17   0 11.4550 24.1387   1
   7 -17   0 46.9038 32.3087  -2
  -7 -17   0 46.9038 32.3087   1
  -7  17  -1 105.036 24.1137   1
  -7  17  -1 163.365 32.6239  -2
   7  17   1 163.365 32.6239   1
  -7  17  -2 5.37452 17.9902   1
   7 -17   2 74.9430 30.2617  -2
  -7 -17  -2 74.9430 30.2617   1
  -7  17  -3 48.1493 17.6238   1
  -7  17  -3 89.3341 29.1742  -2
   7  17   3 89.3341 29.1742   1
  -7  17  -4 25.6059 17.2505   1
   7 -17   4 14.6916 27.3530  -2
  -7 -17  -4 14.6916 27.3530   1
  -7  17  -5 23.0278 15.8963   1
   7 -17   5 48.4359 25.6383  -2
  -7 -17  -5 48.4359 25.6383   1
  -7  17  -6 6.34312 26.9742   1
  -7  17  -6-7.68748 23.3302  -2
   7  17   6-7.68748 23.3302   1
   6  17   8 11.7311 42.5987  -2
  -7  17  -7 11.7311 42.5987   1
   7 -17   7 55.1259 31.5460  -2
  -7 -17  -7 55.1259 31.5460   1
   6  17   9 67.1071 37.7128  -2
  -7  17  -8 67.1071 37.7128   1
   7 -18 -10-1.12990 18.0094   1
   7  18  -9 0.94031 14.4643   1
   7 -18  -8 3.13042 21.7900   1
  -7  18   8 6.37072 38.1754  -2
   7  18  -8 6.37072 38.1754   1
  -7  18   7 0.13735 13.5940   1
  -7  18   7-14.3823 39.5474  -2
   7  18  -7-14.3823 39.5474   1
  -7  18   6 70.1799 18.3352   1
   7 -18  -6 92.5517 27.7785  -2
  -7 -18   6 92.5517 27.7785   1
  -7 -18   5 60.1526 32.7238  -2
   7 -18  -6 60.1526 32.7238   1
  -7  18   5 54.1455 19.7130   1
  -7  18   5 59.2449 28.9800  -2
   7  18  -5 59.2449 28.9800   1
  -7 -18   4 67.9005 32.1815  -2
   7 -18  -5 67.9005 32.1815   1
  -7  18   4 37.9367 20.6728   1
  -7  18   4 28.8505 30.8123  -2
   7  18  -4 28.8505 30.8123   1
  -7 -18   3 76.4906 31.4585  -2
   7 -18  -4 76.4906 31.4585   1
  -7  18   3 97.0585 20.7903   1
   7 -18  -3 185.203 43.8477  -2
  -7 -18   3 185.203 43.8477   1
  -7 -18   2 88.0068 30.6963  -2
   7 -18  -3 88.0068 30.6963   1
  -7  18   2 13.2619 20.0347   1
   7 -18  -2 55.1528 44.7298  -2
  -7 -18   2 55.1528 44.7298   1
  -7 -18   1 44.6280 28.5646  -2
   7 -18  -2 44.6280 28.5646   1
  -7  18   1 67.2225 21.6546   1
   7 -18  -1 96.9564 45.7373  -2
  -7 -18   1 96.9564 45.7373   1
  -7  18   0 10.4503 20.0397   1
   7 -18   0 9.80531 25.5952  -2
  -7 -18   0 9.80531 25.5952   1
  -7  18  -1 21.4920 20.0016   1
   7 -18   1 24.8331 25.7318  -2
  -7 -18  -1 24.8331 25.7318   1
  -7  18  -2 12.3599 19.4608   1
   7 -18   2 77.9726 42.7500  -2
  -7 -18  -2 77.9726 42.7500   1
  -7  18  -3 9.31506 17.8501   1
   7 -18   3 15.6810 38.1346  -2
  -7 -18  -3 15.6810 38.1346   1
   7 -18   4 74.9719 36.2811  -2
  -7 -18  -4 74.9719 36.2811   1
   7 -18   5 26.1089 30.6816  -2
  -7 -18  -5 26.1089 30.6816   1
  -7  19   5 46.4947 31.0420  -2
   7  19  -5 46.4947 31.0420   1
  -7  19   4 119.365 32.1410  -2
   7  19  -4 119.365 32.1410   1
  -7  19   3 3.85695 15.0650   1
  -7  19   3-13.9881 30.9369  -2
   7  19  -3-13.9881 30.9369   1
  -7  19   2 0.00538 15.0684   1
  -7  19   2 10.3652 20.6751  -2
   7  19  -2 10.3652 20.6751   1
  -7  19   1 5.23473 15.3025   1
   7 -19  -1 3.43448 31.8659  -2
  -7 -19   1 3.43448 31.8659   1
  -7  19   0 82.4524 15.0089   1
   7 -19   0 125.512 31.5280  -2
  -7 -19   0 125.512 31.5280   1
   7 -19   1 78.5783 29.7685  -2
  -7 -19  -1 78.5783 29.7685   1
  -8   0  24 243.020 20.0789   1
  -8   0  22 4.21577 24.9854   1
  -8   0  20 23.2579 46.4214   1
  -8   0  18 2724.00 64.1773   1
  -8   0  16 539.198 37.6862   1
  -8   0  14 367.273 32.6330   1
  -8   0  12 8406.44 63.1312   1
   8   0 -10 9741.84 81.4013   1
  -8   0   8 4210.22 57.2855   1
  -8   0   6 2919.18 49.4510   1
  -8   0   4 6763.46 64.9377   1
  -8   0   2 204.887 42.6673   1
   8   0   0 3801.10 40.5715   1
   8   0   2 164.988 25.1840   1
   8   0   4 760.821 34.5406   1
   8   0   6 2979.77 72.6818   1
  -8   0  -8 6780.12 57.3645   1
  -8   0 -10 4720.10 45.3881   1
   8   0  12 8525.37 163.763   1
   7   0  13 8672.88 72.2383  -2
  -8   0 -12 8672.88 72.2383   1
   7   0  15 571.444 54.1783  -2
  -8   0 -14 571.444 54.1783   1
   7   0  17 3.67952 46.3975  -2
  -8   0 -16 3.67952 46.3975   1
  -8   0 -18 67.3331 37.5469   1
  -8   0 -20 8.02016 26.6471   1
   8  -1 -24 5.62226 17.1827   1
  -8   1  23-2.62620 19.9512   1
  -8  -1  22-18.0605 17.6393   1
  -8   1  21-1.70647 18.8013   1
  -8   1  20 9.00728 31.8287   1
  -8   1  19 74.0221 32.5838   1
  -8   1  18 299.651 34.1948   1
   8  -1 -17 10.0218 28.3724   1
  -8   1  16 325.165 25.6924   1
  -8   1  15 20.9562 22.8495   1
  -8   1  14 37.4547 21.8596   1
  -8   1  13 242.269 21.2825   1
  -8   1  12 411.857 19.3786   1
   8  -1 -11 395.404 30.0296   1
   8   1 -10 3250.24 47.4643   1
  -8   1   9 134.197 22.7698   1
  -8   1   8 2344.54 37.2766   1
  -8  -1   7 581.848 24.0760   1
  -8  -1   6 965.445 26.3828   1
  -8  -1   5 1154.94 31.8980   1
  -8   1   4 3817.85 42.9287   1
  -8   1   3 797.484 27.8296   1
  -8   1   2 492.924 18.3043   1
  -8  -1   1 2356.92 27.4769   1
   8   1   0 2558.26 32.4623   1
   8   1   1 479.494 16.6313   1
   8   1   2 179.773 15.6754   1
   8   1   3 1741.16 35.1092   1
   8   1   4 843.096 23.4839   1
   8   1   5 209.659 31.8782   1
   8   1   6 439.698 35.4270   1
  -8   1  -7 350.818 19.0221   1
  -8  -1  -8 292.270 17.4785   1
  -8   1  -9 203.935 18.8915   1
   7   1  10 362.508 209.314  -2
  -8   1  -9 362.508 209.314   1
  -8  -1 -10 14.0022 19.3958   1
   7  -1  11 1051.19 242.152  -2
  -8  -1 -10 1051.19 242.152   1
  -8   1 -11 6137.96 55.8194   1
   7  -1  12 7926.95 68.6683  -2
  -8  -1 -11 7926.95 68.6683   1
   8   1  12 5843.82 114.629   1
   7   1  13 6985.42 54.4171  -2
  -8   1 -12 6985.42 54.4171   1
   8   1  13 234.978 55.5928   1
   7   1  14 290.263 32.7319  -2
  -8   1 -13 290.263 32.7319   1
   7   1  15 571.200 32.8683  -2
  -8   1 -14 571.200 32.8683   1
   7   1  16 220.721 35.3203  -2
  -8   1 -15 220.721 35.3203   1
   7   1  17 0.00850 33.8587  -2
  -8   1 -16 0.00850 33.8587   1
  -8   1 -17-13.4296 37.9206   1
   7  -1  18-11.5079 43.0722  -2
  -8  -1 -17-11.5079 43.0722   1
  -8   1 -18-12.6570 25.3511   1
  -8   1 -19 123.644 23.0955   1
  -8   1 -20 83.0528 18.9521   1
  -8  -2  25 224.117 16.9697   1
  -8   2  24 25.4810 17.4406   1
  -8  -2  23 100.602 20.4527   1
  -8  -2  22 156.508 23.1458   1
  -8  -2  21 405.163 33.6797   1
  -8   2  20 306.957 23.8040   1
  -8   2  19 49.0135 33.0524   1
  -8   2  18-2.27946 32.2998   1
  -8   2  17 367.719 29.9365   1
  -8   2  16 148.001 27.7035   1
  -8   2  15 296.306 24.5023   1
  -8   2  14 1308.18 27.9160   1
  -8   2  13 1723.30 27.9680   1
  -8   2  12 1136.13 24.4078   1
   8  -2 -11 2771.60 59.8921   1
  -8   2  10 131.781 29.0302   1
   8  -2  -9 7927.78 80.0407   1
  -8  -2   8 3933.68 49.8595   1
  -8   2   7 6864.31 52.5763   1
  -8  -2   6 1438.57 28.4141   1
  -8   2   5 1227.52 36.1287   1
   8  -2  -4 139.120 24.3816   1
  -8   2   4 159.900 40.9646  -2
   8   2  -4 159.900 40.9646   1
  -8   2   3 2135.34 44.6332   1
  -8  -2   2 56.9870 23.7125   1
  -8   2   1 8999.86 75.9466   1
  -8   2   0 18.4198 18.5526   1
   8   2   1 61.4885 18.6202   1
   8   2   2 10109.4 73.4584   1
   8   2   3 11072.4 84.9312   1
   8   2   4 415.073 25.0005   1
   8  -2   5 3676.59 43.1390   1
   8   2   6 1274.06 31.4542   1
  -8   2  -7 951.064 17.1777   1
  -8   2  -8 2484.27 23.9947   1
  -8   2  -9 124.337 20.9943   1
  -8  -2 -10 86.3951 34.0232   1
   7   2  11 231.939 38.0268  -2
  -8   2 -10 231.939 38.0268   1
  -8  -2 -11 6157.54 71.4863   1
   7   2  12 9035.37 72.6212  -2
  -8   2 -11 9035.37 72.6212   1
   8   2  12 83.0567 71.4752   1
   7   2  13 313.848 33.2880  -2
  -8   2 -12 313.848 33.2880   1
   7   2  14 203.770 31.6403  -2
  -8   2 -13 203.770 31.6403   1
   7   2  15 638.619 33.8418  -2
  -8   2 -14 638.619 33.8418   1
   7   2  16 235.041 30.5768  -2
  -8   2 -15 235.041 30.5768   1
   7   2  17 264.704 33.2296  -2
  -8   2 -16 264.704 33.2296   1
  -8  -2 -17-11.1021 40.9907   1
   7   2  18 108.076 40.2614  -2
  -8   2 -17 108.076 40.2614   1
  -8   2 -18 22.1590 25.0192   1
  -8   2 -19 226.331 23.5987   1
  -8   2 -20 25.4708 18.2536   1
   8  -3 -25 37.0271 21.0366   1
  -8  -3  24 18.8711 17.2890   1
  -8   3  23 25.4648 20.0518   1
  -8  -3  22 7.99835 22.4529   1
  -8  -3  21 18.1176 31.3511   1
  -8   3  20 27.1791 32.2018   1
  -8   3  19 25.3063 32.7928   1
  -8   3  18 13.7287 32.4591   1
  -8   3  17 9.09352 27.7523   1
  -8   3  16 17.8554 26.8431   1
  -8   3  15 282.698 27.1698   1
  -8  -3  14 300.552 30.8112   1
  -8   3  13 95.3722 18.8784   1
  -8   3  12 16.3293 17.6190   1
   8  -3 -11 606.291 23.8996   1
  -8  -3  10 37.4612 24.5730   1
  -8  -3   9 11.6610 24.7518   1
   8  -3  -8 1852.40 40.0170   1
  -8   3   7 48.4092 18.8805   1
  -8   3   6 83.0172 21.5718   1
   8  -3  -5 351.909 33.6664   1
   8   3  -4 17.8766 18.1218   1
  -8   3   3 1653.65 27.0122   1
  -8   3   2 1737.68 30.3386   1
  -8   3   1 95.3221 19.7153   1
  -8   3   0 1569.82 30.0459   1
  -8  -3  -1 356.134 20.4695   1
   8   3   2 4034.40 40.4953   1
   8   3   3 2220.66 47.6084   1
   8  -3   4 253.082 24.6505   1
   8   3   5 1829.46 36.0983   1
   8   3   6 51.2662 24.1948   1
  -8   3  -7 206.886 15.0885   1
  -8   3  -8 2615.80 28.7897   1
  -8   3  -9 39.8248 20.8849   1
  -8  -3 -10 133.183 35.4441   1
   7   3  11 230.068 37.0798  -2
  -8   3 -10 230.068 37.0798   1
  -8  -3 -11 110.569 36.7250   1
   7   3  12 171.116 41.0440  -2
  -8   3 -11 171.116 41.0440   1
  -8  -3 -12 150.281 39.9909   1
   7   3  13 185.053 40.7213  -2
  -8   3 -12 185.053 40.7213   1
   7   3  14 219.118 31.7989  -2
  -8   3 -13 219.118 31.7989   1
   7   3  15 1648.59 37.7920  -2
  -8   3 -14 1648.59 37.7920   1
   7   3  16 797.084 32.6116  -2
  -8   3 -15 797.084 32.6116   1
   7   3  17 684.004 34.9889  -2
  -8   3 -16 684.004 34.9889   1
  -8   3 -17 169.919 36.3604   1
   7  -3  18 161.690 44.2832  -2
  -8  -3 -17 161.690 44.2832   1
  -8   3 -18 14.2122 24.4497   1
  -8   3 -19 22.4964 20.5811   1
  -8  -3 -20 227.787 27.9256   1
   8  -4 -25 133.877 21.0524   1
  -8  -4  24 5.34384 19.2769   1
  -8  -4  23 24.8262 19.6632   1
  -8   4  22 140.599 22.5150   1
  -8  -4  21 1041.58 35.4982   1
  -8  -4  20 93.7958 32.1127   1
  -8  -4  19 405.902 33.7878   1
  -8   4  18 219.462 22.0001   1
  -8  -4  17 2077.37 41.5789   1
  -8   4  16 29.0631 27.1999   1
  -8   4  15 19.2683 24.5468   1
  -8   4  14-15.5320 20.1361   1
  -8  -4  13 2027.18 27.3140   1
  -8   4  12 246.292 19.3992   1
  -8  -4  11 572.980 19.8454   1
   8  -4 -10 717.593 30.4641   1
   8   4  -9 4453.79 70.1258   1
  -8  -4   8 20.0580 23.4574   1
   8  -4  -7 947.580 33.6979   1
   8  -4  -6 665.998 38.1890   1
   8  -4  -5 273.920 23.7131   1
  -8   4   5 364.886 61.6559  -2
   8   4  -5 364.886 61.6559   1
   8  -4  -4 2490.41 49.6062   1
  -8   4   4 3247.50 75.9245  -2
   8   4  -4 3247.50 75.9245   1
   8   4  -3 1687.01 28.3492   1
   8   4  -2 6895.34 66.3802   1
   8   4  -1 769.526 27.2067   1
  -8   4   0 165.144 22.0905   1
   8   4   1 3361.48 38.8521   1
   8   4   2 2385.79 48.4078   1
  -8   4  -3 87.3318 31.6736   1
   8  -4   4 2560.07 41.8957   1
   8  -4   5 2185.92 39.9747   1
   8   4   6 13.0630 16.7394   1
  -8   4  -7 4015.93 33.0766   1
  -8   4  -8 65.3892 16.8672   1
  -8  -4  -9 27.1002 22.4540   1
   7   4  10 259.417 43.3107  -2
  -8   4  -9 259.417 43.3107   1
   8   4  10-10.0552 32.9639   1
   7   4  11 5.24785 37.6109  -2
  -8   4 -10 5.24785 37.6109   1
  -8  -4 -11 1729.78 48.6971   1
   7   4  12 2461.58 50.3810  -2
  -8   4 -11 2461.58 50.3810   1
  -8  -4 -12 18.3185 37.1378   1
   7   4  13 77.8248 38.8480  -2
  -8   4 -12 77.8248 38.8480   1
   7   4  14 268.629 32.0269  -2
  -8   4 -13 268.629 32.0269   1
   7   4  15 518.604 32.1018  -2
  -8   4 -14 518.604 32.1018   1
   7   4  16 396.760 30.1652  -2
  -8   4 -15 396.760 30.1652   1
   7   4  17 323.994 27.2092  -2
  -8   4 -16 323.994 27.2092   1
  -8   4 -17 107.300 26.1523   1
  -8   4 -18 183.521 23.2627   1
  -8  -4 -19 0.47178 30.2846   1
  -8  -4 -20 2.99995 24.7041   1
  -8  -5  24 25.1629 18.4434   1
  -8  -5  23 19.0941 22.1760   1
  -8  -5  22 4.25836 21.0605   1
  -8  -5  21 4.98933 23.2438   1
  -8  -5  20-0.47774 30.8246   1
  -8  -5  19 139.093 32.3681   1
  -8   5  18 24.7290 20.5021   1
  -8   5  17 241.525 22.1804   1
  -8  -5  16 155.251 22.7133   1
  -8   5  15-0.97119 23.6258   1
  -8  -5  14 425.707 24.0727   1
  -8   5  13 10.7619 19.4170   1
  -8   5  12 30.2674 18.5683   1
   8  -5 -11 481.593 20.2923   1
  -8   5  10 7.50040 17.1662   1
  -8   5   9 299.166 27.3998   1
  -8  -5   8-5.47848 24.3699   1
  -8  -5   7 16.1271 27.4261   1
   8   5  -6 455.972 24.6694   1
  -8   5   5 1487.45 45.6858   1
  -8   5   5 1879.10 78.3851  -2
   8   5  -5 1879.10 78.3851   1
   8  -5  -4-4.60720 41.1101   1
  -8   5   4 32.0513 60.5386  -2
   8   5  -4 32.0513 60.5386   1
   8   5  -3 148.864 59.8582  -2
  -8   5   4 148.864 59.8582   1
   8   5  -3 697.556 29.1729   1
  -8   5   2 2300.04 37.6933   1
   8   5  -1 140.039 23.5691   1
   8  -5   0 991.363 28.7099   1
  -8   5  -1 204.570 31.0412   1
  -8   5  -2 315.281 34.4703   1
   8   5   3 370.160 35.4515   1
   8  -5   4 4974.97 55.9260   1
  -8   5  -5 176.847 21.3363   1
  -8   5  -6 551.241 18.5013   1
  -8   5  -7 868.581 20.8499   1
  -8   5  -8 521.427 21.0382   1
   7   5   9 685.762 150.897  -2
  -8   5  -8 685.762 150.897   1
  -8   5  -9-0.63301 21.1477   1
  -7  -5 -10 57.4028 63.2128  -2
   8  -5   9 57.4028 63.2128   1
  -8  -5 -10 450.110 37.3497   1
   7   5  11 488.599 39.5677  -2
  -8   5 -10 488.599 39.5677   1
  -8  -5 -11 25.5291 35.5232   1
   7   5  12 113.446 38.5427  -2
  -8   5 -11 113.446 38.5427   1
  -8  -5 -12 254.041 45.2599   1
   7   5  13 677.460 79.4275  -2
  -8   5 -12 677.460 79.4275   1
  -8  -5 -13 339.935 47.2847   1
   7   5  14 389.916 37.9507  -2
  -8   5 -13 389.916 37.9507   1
   7   5  15 222.632 29.3218  -2
  -8   5 -14 222.632 29.3218   1
   7   5  16 27.9986 25.7119  -2
  -8   5 -15 27.9986 25.7119   1
   7  -5  17 150.618 34.1539  -2
  -8  -5 -16 150.618 34.1539   1
  -8  -5 -17 15.8555 35.6155   1
  -8  -5 -18 8.45641 33.4833   1
  -8  -5 -19 263.522 30.4167   1
  -8  -5 -20 53.1648 23.5106   1
  -8  -6  24 399.723 18.7960   1
  -8  -6  23 72.1542 20.9765   1
  -8  -6  22 29.6791 23.8479   1
  -8  -6  21 192.512 23.1118   1
  -8   6  20 800.241 33.6879   1
  -8   6  19 70.7776 31.6688   1
  -8   6  18 29.5606 30.7412   1
  -8  -6  17 82.7722 21.1388   1
  -8  -6  16 1099.75 25.7536   1
  -8  -6  15 451.358 21.1455   1
  -8  -6  14 1275.82 23.6954   1
  -8  -6  13 231.363 18.3359   1
   8  -6 -12 2708.72 28.0208   1
  -8  -6  11-3.55072 13.6101   1
   8  -6 -10 1920.72 18.8900   1
  -8   6   9 3.08413 14.1448   1
  -8   6   8 234.634 17.4622   1
   8  -6  -7 108.340 27.8390   1
   8  -6  -6 904.755 32.9656   1
  -8   6   6 1050.70 80.6768  -2
   8   6  -6 1050.70 80.6768   1
   8  -6  -5 1185.18 33.6581   1
   8  -6  -4 8780.98 113.763   1
  -8   6   4 11287.8 137.505  -2
   8   6  -4 11287.8 137.505   1
   8   6  -3 9330.52 131.767  -2
  -8   6   4 9330.52 131.767   1
   8   6  -3 11.4240 24.2879   1
   8   6  -2 96.0612 24.5992   1
   8   6  -1 127.742 23.9044   1
  -8   6   0 472.762 36.2554   1
  -8   6  -1 7507.81 79.6568   1
  -8   6  -2 45.4464 31.9418   1
   8   6   3 57.2702 32.3014   1
   8  -6   4 17.1936 20.6614   1
   8  -6   5 1545.29 27.7048   1
   8   6   6 1567.65 28.4541   1
  -8   6  -7 323.517 17.7340   1
  -8  -6  -8 46.4433 19.7286   1
  -8  -6  -9 426.718 27.0168   1
  -7  -6 -10 403.374 75.1320  -2
   8  -6   9 403.374 75.1320   1
  -8  -6 -10 1052.91 41.6964   1
   7   6  11 1253.70 80.9300  -2
  -8   6 -10 1253.70 80.9300   1
  -8  -6 -11 19.7026 35.1723   1
   7   6  12 264.705 73.9476  -2
  -8   6 -11 264.705 73.9476   1
  -8  -6 -12 392.154 45.4830   1
   7   6  13 703.636 78.9303  -2
  -8   6 -12 703.636 78.9303   1
  -8  -6 -13-9.18022 41.3594   1
   7   6  14-37.2447 66.5647  -2
  -8   6 -13-37.2447 66.5647   1
   7  -6  15 46.5045 35.0778  -2
  -8  -6 -14 46.5045 35.0778   1
   7  -6  16 199.003 35.9650  -2
  -8  -6 -15 199.003 35.9650   1
   7  -6  17 50.5679 32.5190  -2
  -8  -6 -16 50.5679 32.5190   1
  -8  -6 -17 5.67841 34.6893   1
   7   6  18 7.18509 44.1445  -2
  -8   6 -17 7.18509 44.1445   1
  -8  -6 -18 69.3530 31.8510   1
  -8  -6 -19 17.7914 26.1834   1
   8  -7 -24 7.18338 19.4691   1
  -8  -7  23 11.9032 18.3201   1
  -8  -7  22 13.2626 21.8905   1
  -8  -7  21 36.7431 24.8798   1
  -8  -7  20 23.0341 36.4713   1
  -8  -7  19 9.92777 29.7730   1
  -8  -7  18 13.0956 30.0468   1
  -8  -7  17 44.1952 19.8888   1
  -8  -7  16 118.501 20.9790   1
  -8   7  15 139.849 19.4972   1
  -8   7  14 40.4094 17.8960   1
  -8   7  13 185.941 18.5589   1
  -8  -7  12 313.124 18.9100   1
   8  -7 -11 927.079 17.9541   1
   8  -7 -10 473.818 16.0536   1
  -8   7  10 581.153 59.2801  -2
   8   7 -10 581.153 59.2801   1
  -8   7   9 18.0971 13.8189   1
  -8   7   9 62.8926 53.7994  -2
   8   7  -9 62.8926 53.7994   1
  -8   7   8 7.13295 16.4343   1
  -8   7   8 84.2245 53.0440  -2
   8   7  -8 84.2245 53.0440   1
   8  -7  -7 446.483 15.7363   1
   8  -7  -6 1112.30 26.2960   1
   8  -7  -5 1176.47 61.9313   1
   8   7  -4 1330.37 76.6613  -2
  -8   7   5 1330.37 76.6613   1
   8  -7  -4 186.886 45.5349   1
  -8   7   4 328.212 72.0401  -2
   8   7  -4 328.212 72.0401   1
   8   7  -3 319.542 63.8795  -2
  -8   7   4 319.542 63.8795   1
   8  -7  -3 429.145 45.7824   1
  -8   7   3 562.474 72.9122  -2
   8   7  -3 562.474 72.9122   1
   8   7  -2 431.385 65.3705  -2
  -8   7   3 431.385 65.3705   1
   8   7  -2 70.8431 24.5441   1
  -8   7   1 342.385 31.6587   1
  -8   7   1 415.246 64.3958  -2
   8   7  -1 415.246 64.3958   1
  -8   7   0 961.060 60.7190   1
  -8   7   0 1249.78 71.5158  -2
   8   7   0 1249.78 71.5158   1
  -8   7  -1 79.3674 46.7594   1
  -8   7  -1 178.322 60.3728  -2
   8   7   1 178.322 60.3728   1
  -8   7  -2 243.047 35.4383   1
  -8   7  -3 98.9197 25.2733   1
  -8   7  -3 99.5019 37.8190  -2
   8   7   3 99.5019 37.8190   1
  -8   7  -4 82.1128 18.8858   1
   8  -7   4 120.694 38.7879  -2
  -8  -7  -4 120.694 38.7879   1
  -8   7  -5 20.3603 19.3485   1
  -8   7  -5 3.20903 41.3585  -2
   8   7   5 3.20903 41.3585   1
   8   7   6 20.3792 17.3372   1
  -8  -7  -7 1302.69 27.9875   1
  -8  -7  -8 20.8337 21.7597   1
   7   7   9 341.271 231.487  -2
  -8   7  -8 341.271 231.487   1
  -8  -7  -9 9.25147 25.5897   1
  -7  -7 -10 50.0626 78.2771  -2
   8  -7   9 50.0626 78.2771   1
  -8  -7 -10 1398.55 43.2300   1
  -7  -7 -11 1436.45 65.9649  -2
   8  -7  10 1436.45 65.9649   1
  -8  -7 -11 1274.65 50.6344   1
   7   7  12 1435.59 87.8094  -2
  -8   7 -11 1435.59 87.8094   1
  -8  -7 -12 16.9324 39.7535   1
   7   7  13-14.7739 72.8848  -2
  -8   7 -12-14.7739 72.8848   1
  -8  -7 -13 13.1267 37.9861   1
   7   7  14 3.54871 70.3052  -2
  -8   7 -13 3.54871 70.3052   1
   7  -7  15 127.903 35.7576  -2
  -8  -7 -14 127.903 35.7576   1
   7  -7  16 363.355 35.0963  -2
  -8  -7 -15 363.355 35.0963   1
   7  -7  17 21.2929 30.6081  -2
  -8  -7 -16 21.2929 30.6081   1
  -8  -7 -17 30.7553 31.8993   1
   7   7  18 63.2895 41.7006  -2
  -8   7 -17 63.2895 41.7006   1
  -8  -7 -18-8.68027 26.7071   1
  -8  -8  23 3.11325 16.3275   1
  -8  -8  22 257.092 21.3457   1
  -8  -8  21 9.30951 22.7841   1
  -8  -8  20 200.380 25.7025   1
  -8  -8  19 46.4514 35.8447   1
  -8  -8  18 19.2365 35.4404   1
  -8  -8  17 520.324 21.1462   1
   8  -8 -16 82.0815 16.4789   1
  -8  -8  15 5.49541 20.2801   1
  -8  -8  14 102.582 19.3169   1
  -8  -8  13 449.035 20.6074   1
  -8  -8  12 435.440 19.5187   1
   8   8 -11 409.211 16.0210   1
  -8  -8  10 225.259 15.9500   1
  -8   8  10 306.298 61.5471  -2
   8   8 -10 306.298 61.5471   1
  -8  -8   9 35.1928 14.7315   1
  -8   8   9 115.051 58.4949  -2
   8   8  -9 115.051 58.4949   1
   8  -8  -8 6013.21 32.8470   1
  -8   8   8 7952.82 86.0394  -2
   8   8  -8 7952.82 86.0394   1
   8  -8  -7 3777.46 39.8282   1
  -8   8   7 4847.21 72.2996  -2
   8   8  -7 4847.21 72.2996   1
  -8  -8   6 41.3783 17.7159   1
  -8   8   5 150.305 19.0688   1
  -8   8   5 171.022 83.0893  -2
   8   8  -5 171.022 83.0893   1
   8  -8  -4 30.1421 20.3592   1
   8  -8  -4 46.9883 41.6479  -2
  -8  -8   4 46.9883 41.6479   1
   8   8  -3 10.0074 61.2819  -2
  -8   8   4 10.0074 61.2819   1
   8  -8  -3 56.0807 20.1890   1
  -8   8   3 95.6056 40.6522  -2
   8   8  -3 95.6056 40.6522   1
   8   8  -2 112.002 64.9750  -2
  -8   8   3 112.002 64.9750   1
  -8   8   2 49.9209 18.4330   1
  -8   8   2 20.4341 37.9841  -2
   8   8  -2 20.4341 37.9841   1
  -8   8   1 757.132 25.9198   1
  -8   8   1 895.076 78.9972  -2
   8   8  -1 895.076 78.9972   1
  -8   8   0 1.20689 20.1978   1
   8  -8   0 17.9308 39.2806  -2
  -8  -8   0 17.9308 39.2806   1
  -8   8  -1 70.8729 17.7865   1
  -8   8  -1 52.4186 38.0613  -2
   8   8   1 52.4186 38.0613   1
  -8   8  -2 178.766 19.2737   1
   8  -8   2 218.458 39.1217  -2
  -8  -8  -2 218.458 39.1217   1
   8  -8   3 47.1492 17.3772   1
  -8   8  -3 23.2956 39.6920  -2
   8   8   3 23.2956 39.6920   1
   8  -8   4 2581.86 24.6872   1
  -8   8  -4 3385.03 55.9926  -2
   8   8   4 3385.03 55.9926   1
   8   8   5 81.4016 21.4141   1
   8  -8   5 67.5515 50.6373  -2
  -8  -8  -5 67.5515 50.6373   1
   8   8   6 91.6080 25.5992   1
   8  -8   6 78.4817 50.0154  -2
  -8  -8  -6 78.4817 50.0154   1
   8   8   7 271.331 30.8256   1
  -8  -8  -8 860.081 28.4509   1
   7   8   9 2660.14 285.317  -2
  -8   8  -8 2660.14 285.317   1
  -8  -8  -9 290.731 33.1640   1
  -7  -8 -10 411.223 59.3025  -2
   8  -8   9 411.223 59.3025   1
  -8  -8 -10 24.8879 37.1695   1
   7   8  11 12.1087 69.2805  -2
  -8   8 -10 12.1087 69.2805   1
  -8  -8 -11 366.553 40.2534   1
   7   8  12 384.473 78.0366  -2
  -8   8 -11 384.473 78.0366   1
  -8  -8 -12 33.9153 39.5248   1
   7   8  13 71.0882 73.4480  -2
  -8   8 -12 71.0882 73.4480   1
  -8  -8 -13 270.555 40.1525   1
   7   8  14 422.633 70.5326  -2
  -8   8 -13 422.633 70.5326   1
  -8  -8 -14 529.417 39.5153   1
   7   8  15 769.635 68.6571  -2
  -8   8 -14 769.635 68.6571   1
  -8  -8 -15-2.46777 34.0279   1
   7   8  16 25.0272 57.4042  -2
  -8   8 -15 25.0272 57.4042   1
   7  -8  17 250.380 28.7455  -2
  -8  -8 -16 250.380 28.7455   1
  -8  -8 -17 12.4759 26.7633   1
   7   8  18-2.98173 41.7720  -2
  -8   8 -17-2.98173 41.7720   1
  -8  -8 -18 31.3364 24.0599   1
  -8  -9  22-4.75946 17.1419   1
  -8  -9  21 16.2433 20.8895   1
  -8  -9  20 2.42628 22.6034   1
  -8  -9  19 65.6885 24.5802   1
  -8  -9  18 13.3420 34.1880   1
  -8  -9  17 45.8878 35.6709   1
   8  -9 -16 10.4605 16.4937   1
   8  -9 -15 168.191 18.0910   1
  -8  -9  14 62.2541 22.4494   1
  -8  -9  13 33.5819 21.2643   1
  -8  -9  12 157.646 20.5144   1
  -8   9  11 4.48739 15.7689   1
   8  -9 -10 206.365 17.0242   1
   8  -9  -9 171.718 17.4397   1
  -8   9   9 202.287 60.3814  -2
   8   9  -9 202.287 60.3814   1
   8  -9  -8 184.114 22.1877   1
  -8   9   8 221.538 59.5023  -2
   8   9  -8 221.538 59.5023   1
  -8   9   7 89.6043 21.2982   1
  -8   9   7 108.480 55.0890  -2
   8   9  -7 108.480 55.0890   1
  -8   9   6 125.674 21.2657   1
  -8   9   6 151.328 45.8191  -2
   8   9  -6 151.328 45.8191   1
  -8  -9   5 204.842 21.8190   1
  -8   9   5 223.018 91.4760  -2
   8   9  -5 223.018 91.4760   1
   8   9  -4 240.536 69.3225  -2
  -8   9   5 240.536 69.3225   1
   8  -9  -4 128.758 21.9620   1
  -8   9   4 197.193 46.7629  -2
   8   9  -4 197.193 46.7629   1
   8   9  -3 150.362 68.3771  -2
  -8   9   4 150.362 68.3771   1
   8  -9  -3 7.90544 21.8382   1
  -8   9   3 58.3617 45.2997  -2
   8   9  -3 58.3617 45.2997   1
   8   9  -2 114.915 66.5210  -2
  -8   9   3 114.915 66.5210   1
  -8   9   2 591.188 28.7607   1
  -8   9   2 703.639 45.3355  -2
   8   9  -2 703.639 45.3355   1
   8   9  -1 1207.36 81.6742  -2
  -8   9   2 1207.36 81.6742   1
  -8   9   1 2961.33 42.6684   1
   8  -9  -1 3834.34 61.1734  -2
  -8  -9   1 3834.34 61.1734   1
   8   9   0 2955.52 60.3958  -2
  -8   9   1 2955.52 60.3958   1
  -8   9   0 131.798 24.0959   1
  -8   9   0 181.408 44.4413  -2
   8   9   0 181.408 44.4413   1
   8   9   1 614.951 65.5357  -2
  -8   9   0 614.951 65.5357   1
  -8   9  -1 1668.59 26.7811   1
   8  -9   1 2289.47 53.7255  -2
  -8  -9  -1 2289.47 53.7255   1
  -8   9  -2 13.4340 18.5718   1
  -8   9  -2 69.3902 43.4990  -2
   8   9   2 69.3902 43.4990   1
  -8   9  -3 319.225 20.1450   1
   8  -9   3 483.599 45.3705  -2
  -8  -9  -3 483.599 45.3705   1
  -8   9  -4 835.719 24.4455   1
  -8   9  -4 1045.72 49.0182  -2
   8   9   4 1045.72 49.0182   1
  -8   9  -5 85.8892 20.8937   1
  -8   9  -5 95.8973 42.9475  -2
   8   9   5 95.8973 42.9475   1
   8  -9   6 7.59913 34.3591   1
  -8   9  -6 18.2537 42.8344  -2
   8   9   6 18.2537 42.8344   1
   8   9   7 375.003 33.7340   1
   8   9   8 51.7071 31.6845   1
  -8   9  -9 726.225 50.3238   1
   7   9  11 182.016 81.1590  -2
  -8   9 -10 182.016 81.1590   1
  -8  -9 -11 57.8063 37.7975   1
   7   9  12 44.0577 75.8867  -2
  -8   9 -11 44.0577 75.8867   1
  -8  -9 -12 55.8919 33.6883   1
   7   9  13 158.966 69.6233  -2
  -8   9 -12 158.966 69.6233   1
  -8  -9 -13-13.2511 32.3829   1
   7   9  14 43.5615 67.2701  -2
  -8   9 -13 43.5615 67.2701   1
  -8  -9 -14 98.9519 33.7123   1
   7   9  15 107.622 63.3648  -2
  -8   9 -14 107.622 63.3648   1
  -8  -9 -15 296.819 32.3546   1
   7   9  16 510.169 58.5947  -2
  -8   9 -15 510.169 58.5947   1
  -8  -9 -16 166.303 29.6569   1
   7   9  17 308.646 48.2883  -2
  -8   9 -16 308.646 48.2883   1
  -8   9 -17-1.18649 27.7483   1
  -8 -10  22 13.4943 20.6378   1
  -8 -10  21 239.095 18.2991   1
  -8 -10  20 54.1145 19.9511   1
  -8 -10  19 642.812 25.2235   1
  -8 -10  18 298.654 24.6655   1
   8 -10 -17 50.8691 20.5135   1
   8 -10 -16-2.38164 15.6490   1
   8 -10 -15 17.0376 17.0461   1
   8 -10 -14 1215.71 29.2474   1
   8 -10 -13 805.315 21.6210   1
  -8 -10  12 438.135 23.7135   1
   8 -10 -11 27.7688 18.8609   1
  -8 -10  10 69.1878 16.7851   1
   8 -10  -9 1583.52 32.3216   1
  -8  10   9 2015.46 68.6374  -2
   8  10  -9 2015.46 68.6374   1
  -8 -10   8 389.756 24.0264   1
  -8  10   8 567.275 61.4618  -2
   8  10  -8 567.275 61.4618   1
  -8  10   7 50.5986 21.8631   1
  -8  10   7 34.6111 56.4360  -2
   8  10  -7 34.6111 56.4360   1
   8 -10  -6 151.354 21.8678   1
  -8  10   6 161.803 55.2229  -2
   8  10  -6 161.803 55.2229   1
   8  10  -5 1631.73 90.2137  -2
  -8  10   6 1631.73 90.2137   1
   8 -10  -5 6077.42 53.0007   1
  -8  10   5 8616.01 87.2926  -2
   8  10  -5 8616.01 87.2926   1
   8  10  -4 5879.15 130.688  -2
  -8  10   5 5879.15 130.688   1
  -8  10   4 6.02521 27.1985   1
   8 -10  -4 50.6694 50.2813  -2
  -8 -10   4 50.6694 50.2813   1
   8  10  -3 54.4609 71.8533  -2
  -8  10   4 54.4609 71.8533   1
  -8  10   3-0.48843 27.9357   1
   8 -10  -3 31.9525 47.6248  -2
  -8 -10   3 31.9525 47.6248   1
   8  10  -2 303.811 71.8641  -2
  -8  10   3 303.811 71.8641   1
  -8  10   2 931.471 34.0737   1
   8 -10  -2 1288.03 61.0640  -2
  -8 -10   2 1288.03 61.0640   1
   8  10  -1 1159.70 83.2289  -2
  -8  10   2 1159.70 83.2289   1
  -8  10   1 1028.45 35.4224   1
   8 -10  -1 1515.92 63.2325  -2
  -8 -10   1 1515.92 63.2325   1
   8  10   0 1104.08 52.3684  -2
  -8  10   1 1104.08 52.3684   1
  -8  10   0 37.1407 22.3582   1
   8 -10   0 44.9284 47.9838  -2
  -8 -10   0 44.9284 47.9838   1
   8  10   1 8.06724 76.8286  -2
  -8  10   0 8.06724 76.8286   1
  -8  10  -1 36.4193 18.9457   1
  -8  10  -1 67.6293 44.7447  -2
   8  10   1 67.6293 44.7447   1
  -8  10  -2 33.9857 19.6612   1
   8 -10   2 43.1687 45.3574  -2
  -8 -10  -2 43.1687 45.3574   1
   8 -10   3 1676.72 31.5232   1
   8 -10   3 2191.72 58.8208  -2
  -8 -10  -3 2191.72 58.8208   1
  -8  10  -4 1584.50 29.2933   1
   8 -10   4 2151.49 58.8542  -2
  -8 -10  -4 2151.49 58.8542   1
  -8  10  -5 1356.69 30.3927   1
   8 -10   5 1782.88 55.6469  -2
  -8 -10  -5 1782.88 55.6469   1
  -8  10  -6 32.1088 21.4110   1
   8 -10   6 54.2676 45.7794  -2
  -8 -10  -6 54.2676 45.7794   1
  -8  10  -7 808.656 54.5887   1
   8 -10   7 1044.48 59.2002  -2
  -8 -10  -7 1044.48 59.2002   1
  -8  10  -8 158.001 49.3325   1
   7  10  10 312.662 80.2236  -2
  -8  10  -9 312.662 80.2236   1
   7  10  11 41.2857 77.0129  -2
  -8  10 -10 41.2857 77.0129   1
   7  10  12 100.713 73.2699  -2
  -8  10 -11 100.713 73.2699   1
   7  10  13 120.340 68.1144  -2
  -8  10 -12 120.340 68.1144   1
   7  10  14-19.4802 64.8259  -2
  -8  10 -13-19.4802 64.8259   1
   7  10  15 42.3921 57.9955  -2
  -8  10 -14 42.3921 57.9955   1
   7  10  16 234.159 53.5479  -2
  -8  10 -15 234.159 53.5479   1
   7  10  17 81.5549 41.8216  -2
  -8  10 -16 81.5549 41.8216   1
  -8 -11  21 62.2827 21.3518   1
  -8 -11  20 12.5409 16.8229   1
  -8 -11  19-3.63804 18.7814   1
  -8 -11  18 70.5364 20.9341   1
   8 -11 -17 54.1311 16.5131   1
   8 -11 -16 33.3537 20.7419   1
   8 -11 -15-4.15843 16.1998   1
   8 -11 -14 24.4695 16.9705   1
   8 -11 -13 462.717 19.8457   1
   8 -11 -12 33.4389 18.1847   1
   8 -11 -11 277.920 18.1707   1
  -8 -11  10 132.765 19.6097   1
  -8  11  10 143.412 61.1064  -2
   8  11 -10 143.412 61.1064   1
   8 -11  -9 59.8589 23.9907   1
  -8  11   9 82.5928 59.7065  -2
   8  11  -9 82.5928 59.7065   1
  -8 -11   8 114.349 25.5161   1
  -8  11   8 186.990 60.1374  -2
   8  11  -8 186.990 60.1374   1
  -8 -11   7 273.058 28.4802   1
  -8  11   7 370.569 60.7765  -2
   8  11  -7 370.569 60.7765   1
   8 -11  -6 3.19865 24.3622   1
  -8  11   6 70.1033 57.2859  -2
   8  11  -6 70.1033 57.2859   1
   8  11  -5 6.75238 74.0646  -2
  -8  11   6 6.75238 74.0646   1
  -8  11   5 112.905 31.3477   1
  -8  11   5 211.529 38.8560  -2
   8  11  -5 211.529 38.8560   1
   8  11  -4 128.791 75.1945  -2
  -8  11   5 128.791 75.1945   1
  -8  11   4 88.0851 29.7927   1
   8 -11  -4 83.9929 52.5975  -2
  -8 -11   4 83.9929 52.5975   1
   8  11  -3 330.835 78.0337  -2
  -8  11   4 330.835 78.0337   1
  -8  11   3 1470.23 40.1145   1
   8 -11  -3 1866.69 63.6291  -2
  -8 -11   3 1866.69 63.6291   1
   8  11  -2 1282.21 90.1925  -2
  -8  11   3 1282.21 90.1925   1
  -8  11   2 17.8900 29.9639   1
  -8  11   2 42.6424 50.7099  -2
   8  11  -2 42.6424 50.7099   1
   8  11  -1 24.1050 70.6132  -2
  -8  11   2 24.1050 70.6132   1
  -8  11   1-1.66690 25.3304   1
   8 -11  -1-13.8985 51.2174  -2
  -8 -11   1-13.8985 51.2174   1
  -8 -11   0 64.7149 35.4501  -2
   8 -11  -1 64.7149 35.4501   1
   8 -11   0 227.039 21.4818   1
   8 -11   0 318.523 51.3114  -2
  -8 -11   0 318.523 51.3114   1
   8  11   1 316.618 52.9712  -2
  -8  11   0 316.618 52.9712   1
  -8  11  -1 362.789 18.7667   1
  -8  11  -1 504.714 55.2258  -2
   8  11   1 504.714 55.2258   1
   8 -11   2 1502.23 30.2960   1
   8 -11   2 1974.35 62.2241  -2
  -8 -11  -2 1974.35 62.2241   1
   8 -11   3 1018.25 27.3762   1
   8 -11   3 1392.14 56.3009  -2
  -8 -11  -3 1392.14 56.3009   1
  -8  11  -4 16.7870 21.4688   1
  -8  11  -4 59.0858 46.9153  -2
   8  11   4 59.0858 46.9153   1
  -8  11  -5 8.31124 23.3823   1
   8 -11   5-1.52922 55.7642  -2
  -8 -11  -5-1.52922 55.7642   1
  -8  11  -6 8.01904 22.0283   1
   8 -11   6 8.26439 54.2717  -2
  -8 -11  -6 8.26439 54.2717   1
  -8  11  -7 258.998 23.4678   1
   8 -11   7 322.270 54.2894  -2
  -8 -11  -7 322.270 54.2894   1
   7  11   9 205.987 78.3905  -2
  -8  11  -8 205.987 78.3905   1
   7  11  10 86.0213 72.9873  -2
  -8  11  -9 86.0213 72.9873   1
   7  11  11 419.311 78.1414  -2
  -8  11 -10 419.311 78.1414   1
   7  11  12 68.4395 69.1416  -2
  -8  11 -11 68.4395 69.1416   1
   7  11  13 439.692 68.0708  -2
  -8  11 -12 439.692 68.0708   1
   7  11  14 28.9987 58.3428  -2
  -8  11 -13 28.9987 58.3428   1
   7  11  15 301.708 57.0294  -2
  -8  11 -14 301.708 57.0294   1
   7  11  16 317.106 48.4972  -2
  -8  11 -15 317.106 48.4972   1
  -8 -12  20 114.249 20.7412   1
  -8 -12  19 30.1733 23.7159   1
  -8 -12  18 18.4309 26.8474   1
   8 -12 -17 307.247 19.3644   1
   8 -12 -16 400.665 21.7785   1
   8 -12 -15 81.9146 15.2481   1
   8 -12 -14 1.04544 16.1310   1
   8 -12 -13 380.088 16.7390   1
   8 -12 -12 422.406 19.3023   1
   8 -12 -11 164.045 18.5853   1
   8 -12 -10 186.733 17.5007   1
   8 -12  -9 16.7945 21.4470   1
  -8  12   9 3.05789 60.4322  -2
   8  12  -9 3.05789 60.4322   1
  -8 -12   8 467.058 23.8397   1
  -8  12   8 536.724 61.1787  -2
   8  12  -8 536.724 61.1787   1
   8 -12  -7 442.810 24.1667   1
  -8  12   7 555.067 61.3279  -2
   8  12  -7 555.067 61.3279   1
  -8  12   6 428.654 30.7926   1
  -8  12   6 482.700 60.1173  -2
   8  12  -6 482.700 60.1173   1
  -8 -12   5 451.507 49.4536  -2
   8 -12  -6 451.507 49.4536   1
  -8  12   5 43.9868 31.1939   1
   8 -12  -5 86.5687 41.2638  -2
  -8 -12   5 86.5687 41.2638   1
  -8 -12   4 119.358 47.9414  -2
   8 -12  -5 119.358 47.9414   1
  -8  12   4 197.917 32.2918   1
  -8  12   4 323.216 41.3713  -2
   8  12  -4 323.216 41.3713   1
  -8 -12   3 217.283 46.3985  -2
   8 -12  -4 217.283 46.3985   1
  -8  12   3 40.7752 29.2788   1
   8 -12  -3 25.9776 55.6108  -2
  -8 -12   3 25.9776 55.6108   1
  -8 -12   2 132.814 44.7026  -2
   8 -12  -3 132.814 44.7026   1
  -8  12   2 383.745 32.5857   1
  -8  12   2 529.620 54.6959  -2
   8  12  -2 529.620 54.6959   1
  -8 -12   1 788.924 49.5321  -2
   8 -12  -2 788.924 49.5321   1
   8 -12  -1 1281.29 37.5036   1
   8 -12  -1 2079.65 75.6477  -2
  -8 -12   1 2079.65 75.6477   1
  -8 -12   0 2374.24 45.7225  -2
   8 -12  -1 2374.24 45.7225   1
   8 -12   0 3432.39 36.2128   1
  -8  12   0 4524.98 77.0886  -2
   8  12   0 4524.98 77.0886   1
   8  12   1 3283.49 83.4304  -2
  -8  12   0 3283.49 83.4304   1
   8 -12   1 612.247 20.9752   1
   8 -12   1 791.008 58.1575  -2
  -8 -12  -1 791.008 58.1575   1
  -8  12  -2 338.026 26.5584   1
   8 -12   2 404.348 65.3034  -2
  -8 -12  -2 404.348 65.3034   1
  -8  12  -3 1634.34 32.7013   1
   8 -12   3 2408.59 73.4566  -2
  -8 -12  -3 2408.59 73.4566   1
  -8  12  -4 698.520 27.5799   1
   8 -12   4 995.642 65.5989  -2
  -8 -12  -4 995.642 65.5989   1
  -8  12  -5 869.520 27.5418   1
   8 -12   5 1263.98 64.5409  -2
  -8 -12  -5 1263.98 64.5409   1
  -8  12  -6 581.302 25.8663   1
   8 -12   6 843.041 60.9636  -2
  -8 -12  -6 843.041 60.9636   1
  -8  12  -7 245.763 23.1172   1
   8 -12   7 401.885 54.8055  -2
  -8 -12  -7 401.885 54.8055   1
   7  12   9 1501.60 81.1999  -2
  -8  12  -8 1501.60 81.1999   1
   8 -12   8 1505.88 57.5762  -2
  -8 -12  -8 1505.88 57.5762   1
   7  12  10 30.4394 74.2192  -2
  -8  12  -9 30.4394 74.2192   1
   7  12  11 171.126 74.0042  -2
  -8  12 -10 171.126 74.0042   1
   7  12  12 91.2050 68.8117  -2
  -8  12 -11 91.2050 68.8117   1
   7  12  13 381.098 24.4462  -2
  -8  12 -12 381.098 24.4462   1
   7  12  14 68.9553 55.9307  -2
  -8  12 -13 68.9553 55.9307   1
   7  12  15 187.533 48.8302  -2
  -8  12 -14 187.533 48.8302   1
   7  12  16 117.518 37.8240  -2
  -8  12 -15 117.518 37.8240   1
  -8 -13  18 31.4254 22.0817   1
  -8 -13  17 154.524 25.5510   1
   8 -13 -16 116.058 18.3893   1
   8 -13 -15 1.55824 19.4253   1
   8 -13 -14 52.5013 15.0770   1
   8 -13 -13 131.571 14.6277   1
   8 -13 -12-12.6241 16.4536   1
   8 -13 -11 232.845 17.8278   1
   8 -13 -10 34.9917 21.0122   1
   8 -13  -9 127.208 18.8619   1
  -8 -13   8 15.7170 22.2480   1
  -8  13   8 22.4992 58.7063  -2
   8  13  -8 22.4992 58.7063   1
   8 -13  -7 120.254 22.0194   1
  -8  13   7 125.975 57.6028  -2
   8  13  -7 125.975 57.6028   1
  -8 -13   6 207.963 29.7469   1
  -8  13   6 236.745 58.2735  -2
   8  13  -6 236.745 58.2735   1
  -8 -13   5 240.998 48.7339  -2
   8 -13  -6 240.998 48.7339   1
  -8  13   5 57.3260 31.9068   1
   8 -13  -5 90.1156 45.2355  -2
  -8 -13   5 90.1156 45.2355   1
  -8 -13   4 87.1024 47.8240  -2
   8 -13  -5 87.1024 47.8240   1
  -8  13   4 170.262 34.2716   1
   8 -13  -4 252.151 45.9005  -2
  -8 -13   4 252.151 45.9005   1
  -8 -13   3 255.625 49.2166  -2
   8 -13  -4 255.625 49.2166   1
  -8  13   3 145.753 33.4922   1
   8 -13  -3 181.152 46.7114  -2
  -8 -13   3 181.152 46.7114   1
  -8 -13   2 102.889 47.3546  -2
   8 -13  -3 102.889 47.3546   1
  -8  13   2 23.1626 31.9289   1
   8 -13  -2 31.2487 69.8486  -2
  -8 -13   2 31.2487 69.8486   1
  -8 -13   1 46.0440 44.8334  -2
   8 -13  -2 46.0440 44.8334   1
  -8  13   1-7.99778 30.1337   1
   8 -13  -1-7.51712 67.8457  -2
  -8 -13   1-7.51712 67.8457   1
  -8 -13   0 5.03819 44.4031  -2
   8 -13  -1 5.03819 44.4031   1
   8 -13   0 0.24440 19.3229   1
   8 -13   0 51.0230 62.4467  -2
  -8 -13   0 51.0230 62.4467   1
  -8  13  -1 151.287 24.9124   1
   8 -13   1 235.494 65.5349  -2
  -8 -13  -1 235.494 65.5349   1
  -8  13  -2 413.964 26.5684   1
   8 -13   2 598.652 65.6457  -2
  -8 -13  -2 598.652 65.6457   1
  -8  13  -3 412.149 26.7122   1
   8 -13   3 603.232 66.1083  -2
  -8 -13  -3 603.232 66.1083   1
  -8  13  -4 865.980 28.3414   1
   8 -13   4 1198.82 66.0298  -2
  -8 -13  -4 1198.82 66.0298   1
  -8  13  -5 269.196 24.5931   1
   8 -13   5 349.504 60.3913  -2
  -8 -13  -5 349.504 60.3913   1
  -8  13  -6 201.517 22.6114   1
   8 -13   6 345.146 56.8927  -2
  -8 -13  -6 345.146 56.8927   1
  -8  13  -7 248.890 22.2156   1
   8 -13   7 299.531 53.8917  -2
  -8 -13  -7 299.531 53.8917   1
  -8  13  -8 29.7699 22.0635   1
   7  13   9 26.7163 71.1713  -2
  -8  13  -8 26.7163 71.1713   1
   8 -13   8 11.4940 46.8695  -2
  -8 -13  -8 11.4940 46.8695   1
   7  13  10 113.269 63.8254  -2
  -8  13  -9 113.269 63.8254   1
   7  13  11 25.1902 60.7202  -2
  -8  13 -10 25.1902 60.7202   1
   7  13  12 83.9980 57.1905  -2
  -8  13 -11 83.9980 57.1905   1
   7  13  13 50.7885 19.9290  -2
  -8  13 -12 50.7885 19.9290   1
   7  13  14 40.7721 47.4266  -2
  -8  13 -13 40.7721 47.4266   1
   7  13  15 19.6385 37.7394  -2
  -8  13 -14 19.6385 37.7394   1
  -8 -14  17-23.5891 19.2740   1
  -8 -14  16 299.887 16.2664   1
   8 -14 -15 8.68953 16.7149   1
   8 -14 -14 14.0103 18.2610   1
   8 -14 -13 71.8104 12.9373   1
   8 -14 -12 3.78515 13.4653   1
   8 -14 -11 18.3302 19.8379   1
   8 -14 -10 816.968 22.6959   1
   8 -14  -9 176.149 21.1467   1
  -8 -14   8 618.592 23.2876   1
  -8  14   8 712.553 57.0059  -2
   8  14  -8 712.553 57.0059   1
   8 -14  -7 923.539 28.3287   1
  -8  14   7 1114.63 60.9020  -2
   8  14  -7 1114.63 60.9020   1
  -8  14   6 158.287 31.0106   1
  -8  14   6 237.120 43.1819  -2
   8  14  -6 237.120 43.1819   1
  -8 -14   5 232.089 48.8209  -2
   8 -14  -6 232.089 48.8209   1
  -8  14   5 91.8957 29.7838   1
   8 -14  -5 99.9519 43.7639  -2
  -8 -14   5 99.9519 43.7639   1
  -8 -14   4 91.0153 47.2170  -2
   8 -14  -5 91.0153 47.2170   1
  -8  14   4 39.5383 30.8421   1
   8 -14  -4 22.2873 38.7015  -2
  -8 -14   4 22.2873 38.7015   1
  -8 -14   3 226.379 46.6611  -2
   8 -14  -4 226.379 46.6611   1
  -8  14   3 767.918 37.1601   1
  -8  14   3 1038.60 49.1196  -2
   8  14  -3 1038.60 49.1196   1
  -8 -14   2 956.091 51.1239  -2
   8 -14  -3 956.091 51.1239   1
  -8  14   2 707.084 37.8014   1
   8 -14  -2 984.452 48.4622  -2
  -8 -14   2 984.452 48.4622   1
  -8 -14   1 775.238 47.1375  -2
   8 -14  -2 775.238 47.1375   1
  -8  14   1 354.320 33.7471   1
   8 -14  -1 603.454 70.5166  -2
  -8 -14   1 603.454 70.5166   1
  -8 -14   0 410.838 44.5655  -2
   8 -14  -1 410.838 44.5655   1
   8 -14   0 181.254 22.4534   1
   8 -14   0 263.896 66.3385  -2
  -8 -14   0 263.896 66.3385   1
   8  14   1 84.9670 60.2116  -2
  -8  14   0 84.9670 60.2116   1
  -8  14  -1 16.4165 23.5241   1
   8 -14   1 42.7917 65.4447  -2
  -8 -14  -1 42.7917 65.4447   1
  -8  14  -2 1362.59 31.2439   1
   8 -14   2 2041.49 76.1685  -2
  -8 -14  -2 2041.49 76.1685   1
  -8  14  -3 245.042 25.0027   1
   8 -14   3 439.099 62.3628  -2
  -8 -14  -3 439.099 62.3628   1
  -8  14  -4 253.936 23.7001   1
   8 -14   4 425.127 59.3000  -2
  -8 -14  -4 425.127 59.3000   1
  -8  14  -5 4.48415 21.5050   1
   8 -14   5 79.7795 55.3122  -2
  -8 -14  -5 79.7795 55.3122   1
  -8  14  -6 259.165 22.0133   1
   8 -14   6 444.354 55.5747  -2
  -8 -14  -6 444.354 55.5747   1
  -8  14  -7 55.6993 19.9733   1
   8 -14   7 118.532 48.5184  -2
  -8 -14  -7 118.532 48.5184   1
   7  14   9 9.48402 63.9999  -2
  -8  14  -8 9.48402 63.9999   1
   8 -14   8 72.5784 41.8255  -2
  -8 -14  -8 72.5784 41.8255   1
   7  14  10 4.46332 52.7862  -2
  -8  14  -9 4.46332 52.7862   1
   7  14  11-6.49909 53.6786  -2
  -8  14 -10-6.49909 53.6786   1
   7  14  12 166.909 20.9678  -2
  -8  14 -11 166.909 20.9678   1
   7  14  13 120.452 46.3791  -2
  -8  14 -12 120.452 46.3791   1
   7  14  14 150.462 36.4891  -2
  -8  14 -13 150.462 36.4891   1
   8 -15 -15 13.5949 19.4320   1
   8 -15 -14 84.2342 24.6734   1
   8 -15 -13 94.5543 18.9185   1
   8 -15 -12 50.6570 14.2420   1
   8 -15 -11 1.69474 15.3713   1
   8 -15 -10-8.31102 19.1209   1
   8 -15  -9-10.4603 18.0767   1
   8 -15  -8 67.9043 19.9727   1
   8 -15  -7 234.238 20.9483   1
  -8  15   7 187.796 51.7278  -2
   8  15  -7 187.796 51.7278   1
  -8  15   6 0.01177 28.4728   1
   8 -15  -6-10.6185 39.6170  -2
  -8 -15   6-10.6185 39.6170   1
  -8 -15   5 30.9820 45.8341  -2
   8 -15  -6 30.9820 45.8341   1
  -8  15   5 9.82467 29.4576   1
   8 -15  -5 0.70687 39.6746  -2
  -8 -15   5 0.70687 39.6746   1
  -8 -15   4 5.92003 44.3452  -2
   8 -15  -5 5.92003 44.3452   1
  -8  15   4 128.566 30.5883   1
   8 -15  -4 177.005 42.0997  -2
  -8 -15   4 177.005 42.0997   1
  -8 -15   3 173.349 44.3789  -2
   8 -15  -4 173.349 44.3789   1
  -8  15   3 56.0706 29.1525   1
  -8  15   3 34.9201 41.6099  -2
   8  15  -3 34.9201 41.6099   1
  -8 -15   2 80.6154 43.4925  -2
   8 -15  -3 80.6154 43.4925   1
  -8  15   2 281.346 33.0068   1
   8 -15  -2 416.313 43.9284  -2
  -8 -15   2 416.313 43.9284   1
  -8 -15   1 286.122 43.2289  -2
   8 -15  -2 286.122 43.2289   1
  -8  15   1 59.3600 30.3155   1
   8 -15  -1 114.909 42.6280  -2
  -8 -15   1 114.909 42.6280   1
  -8 -15   0 128.297 41.3453  -2
   8 -15  -1 128.297 41.3453   1
   8 -15   0 76.4056 21.3230   1
   8 -15   0 115.818 39.9506  -2
  -8 -15   0 115.818 39.9506   1
  -8  15  -1 3.55894 21.5335   1
   8 -15   1 22.7914 59.8515  -2
  -8 -15  -1 22.7914 59.8515   1
  -8  15  -2 38.4985 21.3134   1
   8 -15   2 40.1732 57.5405  -2
  -8 -15  -2 40.1732 57.5405   1
  -8  15  -3 19.0738 20.9529   1
   8 -15   3 19.2792 58.3538  -2
  -8 -15  -3 19.2792 58.3538   1
  -8  15  -4 145.488 21.3507   1
   8 -15   4 270.244 58.0295  -2
  -8 -15  -4 270.244 58.0295   1
  -8  15  -5 71.3284 20.3174   1
   8 -15   5 61.8135 52.2634  -2
  -8 -15  -5 61.8135 52.2634   1
  -8  15  -6-11.1995 18.5196   1
   8 -15   6 6.28646 51.2489  -2
  -8 -15  -6 6.28646 51.2489   1
  -8  15  -7 2.97826 16.9924   1
   8 -15   7 0.65442 42.2782  -2
  -8 -15  -7 0.65442 42.2782   1
   7  15   9 53.5350 55.0433  -2
  -8  15  -8 53.5350 55.0433   1
   8 -15   8 75.7619 36.2670  -2
  -8 -15  -8 75.7619 36.2670   1
   7  15  10 9.25460 49.7408  -2
  -8  15  -9 9.25460 49.7408   1
   7  15  11 109.305 46.2748  -2
  -8  15 -10 109.305 46.2748   1
   7  15  12 24.1428 40.2593  -2
  -8  15 -11 24.1428 40.2593   1
   8 -16 -14 1.39684 17.8091   1
   8 -16 -13 139.941 22.5637   1
   8 -16 -12 9.38593 16.7706   1
   8 -16 -11 41.7872 13.1090   1
   8 -16 -10 42.6405 14.5354   1
   8 -16  -9 381.328 19.4877   1
  -8  16   9 423.738 53.5938  -2
   8  16  -9 423.738 53.5938   1
   8 -16  -8 44.5214 17.6355   1
  -8 -16   7 117.083 18.5331   1
  -8  16   6 283.848 28.3330   1
   8 -16  -6 322.829 55.7325  -2
  -8 -16   6 322.829 55.7325   1
  -8 -16   5 347.296 43.5656  -2
   8 -16  -6 347.296 43.5656   1
  -8  16   5 386.476 29.6501   1
  -8  16   5 442.951 38.5644  -2
   8  16  -5 442.951 38.5644   1
  -8 -16   4 349.937 43.0792  -2
   8 -16  -5 349.937 43.0792   1
  -8  16   4 9.79727 27.4079   1
  -8  16   4 17.7700 37.0725  -2
   8  16  -4 17.7700 37.0725   1
  -8 -16   3 30.4719 40.5821  -2
   8 -16  -4 30.4719 40.5821   1
  -8  16   3 82.2498 27.5875   1
   8 -16  -3 117.310 38.9892  -2
  -8 -16   3 117.310 38.9892   1
  -8 -16   2 174.984 40.8077  -2
   8 -16  -3 174.984 40.8077   1
  -8  16   2 212.001 28.1531   1
   8 -16  -2 310.082 39.1564  -2
  -8 -16   2 310.082 39.1564   1
  -8 -16   1 450.664 40.9917  -2
   8 -16  -2 450.664 40.9917   1
  -8  16   1 793.484 32.4189   1
   8 -16  -1 1051.26 43.2323  -2
  -8 -16   1 1051.26 43.2323   1
  -8  16   0 70.3268 25.9913   1
   8 -16   0 144.903 37.3852  -2
  -8 -16   0 144.903 37.3852   1
  -8  16  -1 27.3980 19.5225   1
  -8  16  -1-15.4042 35.8277  -2
   8  16   1-15.4042 35.8277   1
  -8  16  -2 108.711 19.6410   1
   8 -16   2 145.576 35.0059  -2
  -8 -16  -2 145.576 35.0059   1
  -8  16  -3 810.393 23.3975   1
   8 -16   3 1245.67 39.2022  -2
  -8 -16  -3 1245.67 39.2022   1
  -8  16  -4 41.1299 18.6907   1
   8 -16   4 126.698 31.8673  -2
  -8 -16  -4 126.698 31.8673   1
  -8  16  -5 202.315 18.1891   1
   8 -16   5 313.984 47.6220  -2
  -8 -16  -5 313.984 47.6220   1
  -8  16  -6 8.74586 16.0813   1
   8 -16   6-7.22817 39.8379  -2
  -8 -16  -6-7.22817 39.8379   1
  -8  16  -7 13.8391 28.7777   1
   8 -16   7 14.5371 33.9088  -2
  -8 -16  -7 14.5371 33.9088   1
   7  16   9 38.3117 44.7227  -2
  -8  16  -8 38.3117 44.7227   1
   7  16  10 35.7981 40.2175  -2
  -8  16  -9 35.7981 40.2175   1
   7  16  11-6.11633 34.3956  -2
  -8  16 -10-6.11633 34.3956   1
   8 -17 -12 23.2603 17.8751   1
   8 -17 -11 53.4203 14.5064   1
   8 -17 -10 20.3727 11.7144   1
   8 -17  -9 26.7787 12.7240   1
   8 -17  -8 1.40298 13.9164   1
   8 -17  -7 10.1382 15.0748   1
  -8  17   6 5.55386 19.1739   1
  -8 -17   5 42.7145 35.4231  -2
   8 -17  -6 42.7145 35.4231   1
  -8  17   5 32.4183 22.7013   1
   8 -17  -5 52.9242 45.5001  -2
  -8 -17   5 52.9242 45.5001   1
  -8 -17   4 33.2796 36.9578  -2
   8 -17  -5 33.2796 36.9578   1
  -8  17   4 43.9338 23.4683   1
   8 -17  -4 13.1485 48.4865  -2
  -8 -17   4 13.1485 48.4865   1
  -8 -17   3 3.42351 34.8531  -2
   8 -17  -4 3.42351 34.8531   1
  -8  17   3-20.3162 23.2537   1
  -8  17   3 12.7489 31.7406  -2
   8  17  -3 12.7489 31.7406   1
  -8 -17   2 28.9481 34.6934  -2
   8 -17  -3 28.9481 34.6934   1
  -8  17   2 75.7273 24.2243   1
   8 -17  -2 105.630 31.7505  -2
  -8 -17   2 105.630 31.7505   1
  -8 -17   1 78.6589 32.8393  -2
   8 -17  -2 78.6589 32.8393   1
   8 -17  -1 15.7763 16.6168   1
  -8  17   1 11.6820 30.5507  -2
   8  17  -1 11.6820 30.5507   1
  -8  17   0 30.7563 23.4703   1
   8 -17   0 40.2132 32.0508  -2
  -8 -17   0 40.2132 32.0508   1
  -8  17  -1 4.27107 22.2652   1
   8 -17   1 3.38472 29.9772  -2
  -8 -17  -1 3.38472 29.9772   1
  -8  17  -2 46.7915 21.7999   1
   8 -17   2 88.0773 28.8831  -2
  -8 -17  -2 88.0773 28.8831   1
  -8  17  -3 16.5599 15.8791   1
   8 -17   3 22.0047 27.4531  -2
  -8 -17  -3 22.0047 27.4531   1
  -8  17  -4 137.882 15.6877   1
   8 -17   4 182.728 25.6528  -2
  -8 -17  -4 182.728 25.6528   1
  -8  17  -5 26.1503 24.2036   1
  -8  17  -5 5.32335 22.5361  -2
   8  17   5 5.32335 22.5361   1
  -8  17  -6 1.50445 22.8305   1
   8 -17   6 21.6788 29.8792  -2
  -8 -17  -6 21.6788 29.8792   1
  -8  17  -7 3.57374 21.4900   1
   8 -18  -9 308.899 19.8635   1
   8 -18  -8 38.7876 19.7108   1
  -8  18   8 32.9881 34.3035  -2
   8  18  -8 32.9881 34.3035   1
   8 -18  -7 87.0120 12.8754   1
  -8  18   7 106.949 37.3350  -2
   8  18  -7 106.949 37.3350   1
  -8  18   6 2.53712 17.1010   1
  -8  18   6 4.23626 39.3625  -2
   8  18  -6 4.23626 39.3625   1
  -8 -18   5 65.2796 29.3865  -2
   8 -18  -6 65.2796 29.3865   1
   8 -18  -5 182.107 26.0855  -2
  -8 -18   5 182.107 26.0855   1
  -8 -18   4 171.699 19.7709  -2
   8 -18  -5 171.699 19.7709   1
   8 -18  -4 46.3712 37.4457  -2
  -8 -18   4 46.3712 37.4457   1
  -8 -18   3 15.2177 19.0715  -2
   8 -18  -4 15.2177 19.0715   1
  -8  18   3 44.1212 19.2103   1
   8 -18  -3 51.6445 38.7950  -2
  -8 -18   3 51.6445 38.7950   1
  -8 -18   2 70.2754 27.7409  -2
   8 -18  -3 70.2754 27.7409   1
  -8  18   2-5.43624 19.4103   1
   8 -18  -2-8.58980 39.2159  -2
  -8 -18   2-8.58980 39.2159   1
  -8  18   1 117.373 19.3850   1
   8 -18  -1 105.107 40.1095  -2
  -8 -18   1 105.107 40.1095   1
  -8  18   0-5.00010 18.0148   1
  -8  18   0 17.5838 23.2592  -2
   8  18   0 17.5838 23.2592   1
   8  18   1 5.26118 12.5103   1
   8 -18   1 3.74261 37.6734  -2
  -8 -18  -1 3.74261 37.6734   1
  -8  18  -2 8.45909 16.3880   1
   8 -18   2-4.36699 34.2898  -2
  -8 -18  -2-4.36699 34.2898   1
  -8  18  -3 18.5240 15.2606   1
   8 -18   3 58.5909 31.7515  -2
  -8 -18  -3 58.5909 31.7515   1
   9   0 -23 34.0377 22.6298   1
  -9   0  21 6.36202 26.1605   1
  -9   0  19-3.50272 47.2649   1
  -9   0  17 2.26735 40.5960   1
   9   0 -15 95.7938 34.5658   1
  -9   0  13 2203.06 45.0146   1
  -9   0  11 2897.14 44.8120   1
   9   0  -9 112.044 35.6811   1
  -9   0   7 388.276 35.5497   1
  -9   0   5 10670.9 86.2491   1
  -9   0   3 7901.87 75.3596   1
  -9   0   1 1235.58 40.6895   1
  -9   0  -1 2123.43 71.6214   1
   9   0   3 1779.67 40.2162   1
   9   0   5 4904.38 65.2388   1
  -9   0  -7 5723.43 55.9616   1
  -9   0  -9 5194.10 62.7394   1
   8   0  10 6657.78 259.458  -2
  -9   0  -9 6657.78 259.458   1
   9   0  11 13694.6 191.209   1
   8   0  12 15792.3 90.6768  -2
  -9   0 -11 15792.3 90.6768   1
   8   0  14 579.378 54.7420  -2
  -9   0 -13 579.378 54.7420   1
   8   0  16 701.114 53.7563  -2
  -9   0 -15 701.114 53.7563   1
   8   0  18 7.05038 42.6584  -2
  -9   0 -17 7.05038 42.6584   1
  -9   0 -19 10.9647 28.0434   1
  -9   1  24 25.8294 16.4343   1
  -9  -1  23 10.3980 19.7680   1
   9   1 -22 373.679 23.2355   1
  -9   1  21 12.1350 22.1299   1
  -9   1  20 21.8614 33.1737   1
  -9   1  19-12.0388 33.4491   1
  -9   1  18 647.030 37.5444   1
  -9   1  17 6.91181 29.0358   1
  -9   1  16 285.041 27.1935   1
  -9   1  15 73.5515 25.0032   1
  -9   1  14 2625.46 34.7942   1
  -9  -1  13 521.803 24.9267   1
  -9   1  12 1763.44 28.7003   1
  -9   1  11 1602.70 27.1874   1
  -9   1  10 5962.73 72.3308   1
  -9  -1   9 803.745 30.7731   1
  -9   1   8 15269.0 105.549   1
  -9   1   7 3296.35 39.1291   1
  -9   1   6 1544.51 31.6876   1
  -9   1   5 6235.56 48.6390   1
  -9  -1   4 7202.50 72.6712   1
   9   1  -3 8058.37 109.462  -2
  -9   1   4 8058.37 109.462   1
  -9   1   3 4405.28 59.3413   1
  -9  -1   2 4541.10 91.2326  -2
   9  -1  -3 4541.10 91.2326   1
  -9   1   2 191.334 32.1439   1
  -9  -1   1 1244.41 64.4965  -2
   9  -1  -2 1244.41 64.4965   1
  -9   1   1 4639.34 50.0463   1
  -9   1   0 459.162 27.8233   1
   9   1   1 36.8877 19.0192   1
  -9   1  -2 43.2237 19.0095   1
   9  -1   3 642.838 19.6460   1
   9   1   4 1191.53 27.3184   1
   9   1   5 820.444 29.2755   1
  -9   1  -6 2804.58 25.4745   1
  -9   1  -7 976.963 17.4082   1
  -9   1  -8 1995.98 23.1490   1
  -9   1  -9 4110.39 35.3353   1
   8   1  10 4108.05 255.966  -2
  -9   1  -9 4108.05 255.966   1
  -9   1 -10 3219.77 33.1049   1
   8  -1  11 5282.66 219.389  -2
  -9  -1 -10 5282.66 219.389   1
  -9  -1 -11 1258.45 44.5779   1
   8   1  12 2874.85 55.1953  -2
  -9   1 -11 2874.85 55.1953   1
   8   1  13 1086.21 36.6926  -2
  -9   1 -12 1086.21 36.6926   1
   8   1  14 127.298 31.5771  -2
  -9   1 -13 127.298 31.5771   1
   8   1  15 684.013 38.7652  -2
  -9   1 -14 684.013 38.7652   1
   8   1  16 140.518 33.8383  -2
  -9   1 -15 140.518 33.8383   1
   8   1  17 105.244 31.4280  -2
  -9   1 -16 105.244 31.4280   1
   8   1  18 6.55058 29.3331  -2
  -9   1 -17 6.55058 29.3331   1
   8   1  19 250.014 25.9908  -2
  -9   1 -18 250.014 25.9908   1
  -9  -1 -19 75.7321 19.8934   1
  -9  -1 -20 3.93218 22.0419   1
  -9  -2  24-4.42202 16.7886   1
  -9   2  23 12.6998 19.5558   1
  -9  -2  22-10.2542 22.3863   1
  -9  -2  21-19.8398 31.1466   1
  -9   2  20 22.5063 21.7916   1
  -9   2  19 0.66115 33.0729   1
  -9   2  18 140.053 33.6488   1
  -9   2  17 206.044 33.7479   1
  -9   2  16 62.1763 28.4654   1
  -9   2  15 81.0876 24.8218   1
  -9   2  14 82.2302 23.2812   1
  -9   2  13 183.347 23.3507   1
  -9   2  12 17.7408 19.2166   1
  -9   2  11 825.970 22.6729   1
   9  -2 -10 1408.35 41.2330   1
   9  -2  -9 2103.74 52.3739   1
   9  -2  -8 305.840 23.9058   1
  -9   2   7 1892.06 32.6829   1
  -9  -2   6 1926.45 33.2981   1
  -9  -2   5 9.75624 29.0300   1
   9   2  -4 1015.42 64.3802  -2
  -9   2   5 1015.42 64.3802   1
   9  -2  -4 3885.38 83.3420   1
   9  -2  -3 4337.75 61.1196  -2
  -9  -2   4 4337.75 61.1196   1
  -9   2   3 274.400 31.1307   1
  -9  -2   2 1058.13 64.2197  -2
   9  -2  -3 1058.13 64.2197   1
  -9   2   2 3132.86 53.3556   1
  -9  -2   1 2945.16 75.0264  -2
   9  -2  -2 2945.16 75.0264   1
  -9   2   1 187.138 26.5515   1
   9   2   0 1483.63 34.3200   1
   9   2   1 6429.10 46.3769   1
   9   2   2 199.824 20.6266   1
   9   2   3 1390.31 40.9470   1
   9  -2   4 383.933 24.7675   1
  -9  -2  -5 579.918 18.6142   1
  -9   2  -6 123.382 14.3686   1
  -9   2  -7 1751.27 22.9284   1
  -9   2  -8 190.857 21.4606   1
  -9   2  -9 711.296 26.1262   1
  -9   2 -10 356.206 27.6795   1
   8  -2  11 1346.49 197.005  -2
  -9  -2 -10 1346.49 197.005   1
  -9  -2 -11 484.994 38.4522   1
   8   2  12 517.007 43.4658  -2
  -9   2 -11 517.007 43.4658   1
  -9  -2 -12 2004.25 63.0063   1
   8   2  13 2175.13 51.8500  -2
  -9   2 -12 2175.13 51.8500   1
   8   2  14 119.694 32.1162  -2
  -9   2 -13 119.694 32.1162   1
   8   2  15 18.7080 30.2025  -2
  -9   2 -14 18.7080 30.2025   1
   8   2  16 88.8443 33.6253  -2
  -9   2 -15 88.8443 33.6253   1
   8   2  17 429.188 32.9576  -2
  -9   2 -16 429.188 32.9576   1
   8   2  18 16.7142 29.1920  -2
  -9   2 -17 16.7142 29.1920   1
   8   2  19 121.032 24.9147  -2
  -9   2 -18 121.032 24.9147   1
  -9   2 -19 62.3177 19.3312   1
  -9  -2 -20 298.968 23.9193   1
  -9  -3  24-0.18011 16.6042   1
  -9   3  23 5.45135 20.0532   1
  -9  -3  22 110.409 22.6576   1
  -9   3  21 1608.19 38.8304   1
  -9  -3  20 14.4820 20.1832   1
  -9  -3  19-9.42346 32.8974   1
  -9   3  18 211.392 34.1632   1
  -9   3  17 298.914 34.4432   1
  -9   3  16 6.95052 27.8131   1
  -9   3  15 336.412 26.5019   1
  -9   3  14-6.88612 23.1728   1
  -9   3  13 1403.96 31.2804   1
  -9   3  12 7.33677 19.7700   1
  -9   3  11 643.062 21.6142   1
  -9   3  10 60.6629 22.8200   1
   9  -3  -9 6605.81 80.0052   1
   9  -3  -8 3261.06 50.5126   1
  -9   3   7 2468.77 44.7668   1
   9  -3  -6 0.40651 23.7903   1
   9  -3  -5 12198.0 86.1790   1
   9   3  -4 12935.6 140.891  -2
  -9   3   5 12935.6 140.891   1
  -9   3   4 693.066 53.3051   1
   9  -3  -3 773.859 40.4668  -2
  -9  -3   4 773.859 40.4668   1
  -9  -3   3 187.646 41.2017   1
  -9  -3   2 584.277 42.8969  -2
   9  -3  -3 584.277 42.8969   1
  -9   3   2 1590.93 38.1757   1
  -9  -3   1 1499.27 63.2804  -2
   9  -3  -2 1499.27 63.2804   1
  -9   3   1 8.14205 19.2831   1
  -9   3   0 188.174 20.9698   1
   9   3   1 5412.84 60.3200   1
   9   3   2 2127.79 46.5708   1
   9   3   3 5185.10 66.0390   1
   9  -3   4 563.688 28.2339   1
  -9   3  -5 402.580 15.1820   1
  -9   3  -6 9.12513 14.4156   1
  -9   3  -7 1487.44 22.7960   1
  -9   3  -8 272.651 21.5027   1
  -9   3  -9 6.12121 22.0624   1
  -9  -3 -10 1604.88 36.8137   1
   8   3  11 1555.06 57.0609  -2
  -9   3 -10 1555.06 57.0609   1
  -9  -3 -11 1413.13 47.8577   1
   8   3  12 1496.92 49.3775  -2
  -9   3 -11 1496.92 49.3775   1
   8   3  13 217.271 32.9099  -2
  -9   3 -12 217.271 32.9099   1
   8   3  14 1248.58 36.7033  -2
  -9   3 -13 1248.58 36.7033   1
   8   3  15 343.073 36.5275  -2
  -9   3 -14 343.073 36.5275   1
   8   3  16 516.333 30.9505  -2
  -9   3 -15 516.333 30.9505   1
   8   3  17 17.2109 29.6094  -2
  -9   3 -16 17.2109 29.6094   1
   8   3  18-11.7019 26.0688  -2
  -9   3 -17-11.7019 26.0688   1
   8  -3  19 14.0685 22.9486  -2
  -9  -3 -18 14.0685 22.9486   1
  -9  -3 -19 72.6151 29.1482   1
  -9  -4  24 11.9809 18.5590   1
  -9  -4  23 9.84553 19.2508   1
  -9  -4  22 18.5672 21.6334   1
  -9  -4  21 70.9224 30.6959   1
  -9  -4  20 18.2726 31.4887   1
  -9  -4  19 18.6470 20.5374   1
  -9  -4  18 86.5038 21.8253   1
  -9   4  17 19.9636 32.8875   1
  -9   4  16 58.3567 28.3865   1
  -9   4  15 121.985 27.6175   1
  -9   4  14 105.505 22.4240   1
   9   4 -13 562.154 26.0265   1
  -9   4  12 10.3064 20.5203   1
  -9   4  11 15.9755 18.9803   1
  -9  -4  10 3.32781 18.6982   1
   9  -4  -9 1952.59 33.9300   1
  -9   4   8 2686.25 48.8493   1
   9  -4  -7 699.106 34.4155   1
  -9   4   6 32.7414 33.8598   1
  -9   4   5 476.932 38.7788   1
  -9  -4   4 98.9525 36.2380   1
  -9   4   4 172.676 56.4012  -2
   9   4  -4 172.676 56.4012   1
  -9  -4   3 323.261 41.6100  -2
   9  -4  -4 323.261 41.6100   1
   9   4  -3 862.347 44.4180   1
  -9  -4   2 1066.90 45.8355  -2
   9  -4  -3 1066.90 45.8355   1
   9   4  -2 1206.01 51.2723   1
  -9  -4   1 1215.24 45.8765  -2
   9  -4  -2 1215.24 45.8765   1
  -9   4   1 590.868 26.6539   1
  -9   4   0 1812.28 44.4220   1
   9   4   1 814.989 37.8646   1
   9   4   2 312.575 33.8015   1
   9   4   3 1833.13 48.6459   1
   9  -4   4 163.806 17.0742   1
  -9   4  -5 2156.28 23.4756   1
  -9   4  -6 905.319 17.5884   1
  -9   4  -7-0.52716 17.1000   1
  -9   4  -8 1793.35 30.9525   1
  -9   4  -9 1124.99 27.2089   1
   8   4  10 557.371 248.420  -2
  -9   4  -9 557.371 248.420   1
  -9   4 -10 5212.12 46.0408   1
   8   4  11 6227.95 377.009  -2
  -9   4 -10 6227.95 377.009   1
  -9  -4 -11 15.0216 37.7671   1
   8   4  12 17.6460 41.2210  -2
  -9   4 -11 17.6460 41.2210   1
  -9   4 -12 815.256 251.195   1
   8   4  13 1359.67 37.6769  -2
  -9   4 -12 1359.67 37.6769   1
   8   4  14 145.958 31.4459  -2
  -9   4 -13 145.958 31.4459   1
   8   4  15 673.133 32.2931  -2
  -9   4 -14 673.133 32.2931   1
   8   4  16 326.819 28.9508  -2
  -9   4 -15 326.819 28.9508   1
   8   4  17 455.259 29.7190  -2
  -9   4 -16 455.259 29.7190   1
   8   4  18 57.1798 24.6034  -2
  -9   4 -17 57.1798 24.6034   1
   8  -4  19 44.8012 33.2468  -2
  -9  -4 -18 44.8012 33.2468   1
  -9  -4 -19 449.684 29.9628   1
  -9  -5  24 144.940 18.3572   1
  -9  -5  23 63.1716 21.6946   1
  -9  -5  22 45.6180 20.6829   1
  -9  -5  21 304.686 30.6796   1
  -9   5  20 123.864 31.2709   1
  -9  -5  19 580.947 22.6534   1
  -9  -5  18 189.818 22.1212   1
  -9   5  17 3314.72 39.1000   1
  -9  -5  16 183.858 22.9719   1
  -9  -5  15 756.048 31.7249   1
  -9  -5  14 72.5995 24.5661   1
  -9  -5  13 2852.04 38.2469   1
  -9  -5  12 758.085 23.6407   1
  -9   5  11 127.617 20.4910   1
  -9   5  10 1880.21 26.5421   1
   9  -5  -9 1324.45 31.9764   1
  -9   5   8 3.17364 24.0460   1
   9  -5  -7 5020.84 73.2579   1
   9  -5  -6 2832.07 58.1029   1
  -9   5   5 4668.57 94.6686  -2
   9   5  -5 4668.57 94.6686   1
   9   5  -4 4952.62 71.7667  -2
  -9   5   5 4952.62 71.7667   1
  -9   5   4 5804.74 99.9277  -2
   9   5  -4 5804.74 99.9277   1
   9   5  -3 5200.12 70.9502  -2
  -9   5   4 5200.12 70.9502   1
  -9   5   3 2561.30 77.1099  -2
   9   5  -3 2561.30 77.1099   1
  -9  -5   2 3587.08 60.7800  -2
   9  -5  -3 3587.08 60.7800   1
   9   5  -2 7237.64 101.030   1
  -9  -5   1 6602.01 73.1040  -2
   9  -5  -2 6602.01 73.1040   1
  -9   5   1 188.884 24.1627   1
  -9   5   0 2788.07 45.5458   1
  -9   5  -1 2.18668 30.2738   1
   9   5   2 783.191 40.0098   1
   9  -5   3 1976.62 24.3654   1
  -9  -5  -4 8.83747 14.2737   1
   9  -5   5 908.952 18.1739   1
  -9  -5  -6 1249.43 25.4587   1
   9  -5   7 1736.78 24.9323   1
  -9   5  -8-0.60617 21.3377   1
   8   5   9 3.84111 167.286  -2
  -9   5  -8 3.84111 167.286   1
  -9  -5  -9 500.829 25.1404   1
   8   5  10-335.100 277.670  -2
  -9   5  -9-335.100 277.670   1
  -9  -5 -10 127.558 28.4501   1
   8   5  11 104.001 44.8076  -2
  -9   5 -10 104.001 44.8076   1
  -9  -5 -11 3.03786 42.5945   1
   8   5  12 92.3353 38.1889  -2
  -9   5 -11 92.3353 38.1889   1
  -9  -5 -12 240.614 45.6384   1
   8   5  13 393.667 39.2831  -2
  -9   5 -12 393.667 39.2831   1
   8   5  14 44.4910 28.7572  -2
  -9   5 -13 44.4910 28.7572   1
   8   5  15 10.1563 26.7314  -2
  -9   5 -14 10.1563 26.7314   1
   8   5  16 169.383 26.5031  -2
  -9   5 -15 169.383 26.5031   1
   8  -5  17 141.629 32.1598  -2
  -9  -5 -16 141.629 32.1598   1
   8  -5  18-26.0301 35.1403  -2
  -9  -5 -17-26.0301 35.1403   1
   8  -5  19 125.180 32.2327  -2
  -9  -5 -18 125.180 32.2327   1
  -9  -5 -19 16.9075 24.3182   1
  -9  -6  24 6.11664 15.4977   1
  -9  -6  23-1.43714 19.8814   1
  -9  -6  22 10.2592 23.0517   1
  -9  -6  21 25.6797 21.9161   1
  -9  -6  20-9.87793 29.4941   1
  -9  -6  19 230.625 20.5238   1
  -9   6  18 7.17365 19.9319   1
  -9  -6  17 374.936 23.1117   1
  -9  -6  16 306.871 23.3100   1
  -9  -6  15 88.5814 20.7901   1
  -9   6  14 212.255 19.5119   1
  -9   6  13 123.715 18.3099   1
  -9  -6  12 687.605 19.4339   1
   9   6 -11 62.1971 14.6604   1
  -9  -6  10 665.209 18.1744   1
  -9   6  10 809.939 58.5056  -2
   9   6 -10 809.939 58.5056   1
  -9  -6   9 665.712 16.6480   1
  -9   6   9 754.977 56.9918  -2
   9   6  -9 754.977 56.9918   1
  -9   6   8 23.6078 15.0222   1
  -9   6   7 360.208 15.9866   1
   9  -6  -6 467.024 21.6465   1
   9   6  -5 917.915 73.8472  -2
  -9   6   6 917.915 73.8472   1
  -9   6   5 1899.00 86.9439  -2
   9   6  -5 1899.00 86.9439   1
   9   6  -4 1733.87 55.5216  -2
  -9   6   5 1733.87 55.5216   1
  -9   6   4 7.42083 67.4242  -2
   9   6  -4 7.42083 67.4242   1
   9   6  -3 367.688 42.4089  -2
  -9   6   4 367.688 42.4089   1
  -9   6   3 1982.42 80.5955  -2
   9   6  -3 1982.42 80.5955   1
  -9  -6   2 1726.98 51.4560  -2
   9  -6  -3 1726.98 51.4560   1
   9   6  -2 155.454 33.6036   1
  -9  -6   1 289.789 48.5558  -2
   9  -6  -2 289.789 48.5558   1
  -9   6   1 559.190 34.0465   1
  -9   6   1 737.553 64.2368  -2
   9   6  -1 737.553 64.2368   1
  -9   6   0 26.7572 47.7224   1
  -9   6   0 0.76252 59.6586  -2
   9   6   0 0.76252 59.6586   1
  -9   6  -1 483.760 38.5796   1
   9   6   2 458.439 20.3278   1
  -9  -6  -3 217.698 17.1844   1
  -9  -6  -4 58.7749 15.7219   1
  -9   6  -5 1028.26 19.7831   1
  -9  -6  -6 741.216 18.6647   1
  -9  -6  -7 90.5037 19.6738   1
  -9  -6  -8 19.5097 20.0047   1
  -9  -6  -9 22.2622 26.6068   1
   8   6  10 219.381 42.5981  -2
  -9   6  -9 219.381 42.5981   1
  -9  -6 -10 57.5757 30.2635   1
   8   6  11 66.1663 41.0160  -2
  -9   6 -10 66.1663 41.0160   1
  -9  -6 -11 922.099 49.7996   1
   8   6  12 1023.69 42.4350  -2
  -9   6 -11 1023.69 42.4350   1
   8  -6  13 12.5491 39.0423  -2
  -9  -6 -12 12.5491 39.0423   1
   8  -6  14 235.859 39.1245  -2
  -9  -6 -13 235.859 39.1245   1
   8  -6  15 21.8445 35.8607  -2
  -9  -6 -14 21.8445 35.8607   1
   8  -6  16 94.4083 34.3822  -2
  -9  -6 -15 94.4083 34.3822   1
   8  -6  17 21.4011 29.5106  -2
  -9  -6 -16 21.4011 29.5106   1
   8  -6  18 79.4483 33.9067  -2
  -9  -6 -17 79.4483 33.9067   1
   8  -6  19 3.71206 30.7902  -2
  -9  -6 -18 3.71206 30.7902   1
  -9  -7  23-3.29455 13.5655   1
  -9  -7  22 295.479 22.7776   1
  -9  -7  21 2.58073 23.5753   1
  -9  -7  20 359.051 39.1825   1
  -9  -7  19 23.6607 29.6403   1
  -9  -7  18 161.902 19.9214   1
  -9  -7  17 55.7758 20.5326   1
  -9  -7  16 33.2024 21.1554   1
  -9  -7  15 275.823 22.6081   1
  -9  -7  14 928.708 23.3616   1
  -9  -7  13 111.339 18.6711   1
  -9  -7  12 167.775 18.4704   1
  -9  -7  11-7.53385 14.8944   1
  -9   7  10 319.022 14.7247   1
  -9  -7   9 171.353 15.4532   1
  -9   7   9 295.038 58.5365  -2
   9   7  -9 295.038 58.5365   1
  -9   7   8 182.508 16.9853   1
  -9   7   8 255.044 56.6240  -2
   9   7  -8 255.044 56.6240   1
  -9   7   7 798.345 19.6691   1
   9   7  -6 2025.04 54.1016  -2
  -9   7   7 2025.04 54.1016   1
   9  -7  -6 4525.47 44.0000   1
  -9   7   6 5254.99 121.815  -2
   9   7  -6 5254.99 121.815   1
   9   7  -5 4584.50 54.9948  -2
  -9   7   6 4584.50 54.9948   1
  -9   7   5 831.947 25.3738   1
  -9   7   5 947.722 87.6480  -2
   9   7  -5 947.722 87.6480   1
   9   7  -4 761.483 49.6572  -2
  -9   7   5 761.483 49.6572   1
  -9  -7   4 1.87195 21.2794   1
  -9   7   4 84.9511 70.5570  -2
   9   7  -4 84.9511 70.5570   1
   9   7  -3 46.3678 42.1811  -2
  -9   7   4 46.3678 42.1811   1
  -9  -7   3 98.7898 21.2395   1
  -9   7   3 57.8137 69.0619  -2
   9   7  -3 57.8137 69.0619   1
  -9  -7   2 1092.94 48.0892  -2
   9  -7  -3 1092.94 48.0892   1
   9   7  -2 4366.21 41.5428   1
   9   7  -1 4567.78 107.671  -2
  -9   7   2 4567.78 107.671   1
  -9   7   1 405.468 21.4680   1
  -9   7   0 1847.20 39.3083   1
  -9   7   0 2327.42 88.4272  -2
   9   7   0 2327.42 88.4272   1
   9   7   1 1881.83 48.4929  -2
  -9   7   0 1881.83 48.4929   1
  -9   7  -1 172.438 15.6924   1
   9  -7   1 250.814 44.2288  -2
  -9  -7  -1 250.814 44.2288   1
  -9  -7  -2 2583.66 27.5197   1
  -9  -7  -3 1.18170 17.1625   1
  -9  -7  -4 1770.42 33.0281   1
  -9   7  -5 47.3139 18.1019   1
  -9  -7  -6 118.711 19.2843   1
  -9  -7  -7 271.737 23.6820   1
  -9  -7  -8 668.654 27.4994   1
  -9  -7  -9-8.61883 26.1069   1
   8   7  10 1072.85 320.690  -2
  -9   7  -9 1072.85 320.690   1
  -9  -7 -10 906.246 47.2846   1
   8   7  11 1457.17 85.2144  -2
  -9   7 -10 1457.17 85.2144   1
  -9  -7 -11 286.917 42.6123   1
   8   7  12 298.817 71.8122  -2
  -9   7 -11 298.817 71.8122   1
  -9  -7 -12 240.874 43.3519   1
   8   7  13 403.058 74.9420  -2
  -9   7 -12 403.058 74.9420   1
   8  -7  14 185.705 36.5721  -2
  -9  -7 -13 185.705 36.5721   1
   8  -7  15 706.973 38.4203  -2
  -9  -7 -14 706.973 38.4203   1
   8  -7  16 30.5864 28.5324  -2
  -9  -7 -15 30.5864 28.5324   1
   8  -7  17 93.0700 28.3959  -2
  -9  -7 -16 93.0700 28.3959   1
   8  -7  18 0.24628 29.9173  -2
  -9  -7 -17 0.24628 29.9173   1
  -9  -7 -18 137.016 24.1863   1
  -9  -8  23 7.58331 15.1240   1
  -9   8  22 72.4328 15.6760   1
  -9  -8  21-2.54768 22.0085   1
  -9  -8  20 5.69309 33.8458   1
  -9  -8  19 15.9665 35.9969   1
  -9  -8  18 52.7291 20.1976   1
   9  -8 -17 35.8086 16.4486   1
  -9  -8  16-6.28264 20.5002   1
  -9  -8  15 3.45042 20.6760   1
  -9  -8  14 147.811 21.6730   1
  -9  -8  13 56.4881 19.3844   1
  -9  -8  12 1072.48 23.3635   1
   9   8 -11 18.5362 16.3125   1
   9   8 -10 5.56356 14.6735   1
  -9  -8   9 203.265 15.9693   1
  -9   8   9 324.770 61.9153  -2
   9   8  -9 324.770 61.9153   1
  -9   8   8 188.789 18.8352   1
  -9   8   8 236.933 61.8815  -2
   9   8  -8 236.933 61.8815   1
  -9   8   7 1268.21 31.3084   1
  -9   8   7 1602.29 63.9467  -2
   9   8  -7 1602.29 63.9467   1
   9   8  -6 1535.77 54.0984  -2
  -9   8   7 1535.77 54.0984   1
   9  -8  -6 1985.85 35.6867   1
  -9   8   6 2221.19 105.964  -2
   9   8  -6 2221.19 105.964   1
   9   8  -5 2064.21 47.4076  -2
  -9   8   6 2064.21 47.4076   1
  -9  -8   5 49.0157 23.6269   1
  -9   8   5 18.0678 75.9939  -2
   9   8  -5 18.0678 75.9939   1
   9   8  -4 31.1232 32.2522  -2
  -9   8   5 31.1232 32.2522   1
  -9  -8   4 77.3199 23.2865   1
  -9   8   4 41.6052 77.0237  -2
   9   8  -4 41.6052 77.0237   1
   9   8  -3 139.310 31.5778  -2
  -9   8   4 139.310 31.5778   1
  -9  -8   3 197.006 23.1901   1
  -9   8   3 255.511 73.6675  -2
   9   8  -3 255.511 73.6675   1
   9   8  -2 648.017 41.3075  -2
  -9   8   3 648.017 41.3075   1
  -9   8   2 2134.95 34.4074   1
  -9   8   2 2622.85 98.2484  -2
   9   8  -2 2622.85 98.2484   1
  -9  -8   1 191.769 22.8814   1
  -9   8   1 208.301 74.5214  -2
   9   8  -1 208.301 74.5214   1
   9   8   0 515.033 33.6810  -2
  -9   8   1 515.033 33.6810   1
  -9  -8   0 1629.03 39.6314   1
  -9   8   0 1851.10 92.0573  -2
   9   8   0 1851.10 92.0573   1
   9   8   1 1554.21 49.4437  -2
  -9   8   0 1554.21 49.4437   1
  -9   8  -1 40.6185 15.2520   1
  -9   8  -1 41.6469 70.3078  -2
   9   8   1 41.6469 70.3078   1
  -9  -8  -2 1564.40 34.7360   1
  -9   8  -2 1743.14 90.1511  -2
   9   8   2 1743.14 90.1511   1
  -9   8  -3 288.127 16.0640   1
  -9   8  -3 346.401 74.9438  -2
   9   8   3 346.401 74.9438   1
   9   8   4 27.5615 18.0473   1
  -9  -8  -5 95.7613 19.9420   1
   9   8   6 548.631 34.0987   1
   9   8   7 2742.82 49.4907   1
  -9  -8  -8 47.4259 24.9265   1
   8   8   9 631.272 278.316  -2
  -9   8  -8 631.272 278.316   1
  -9  -8  -9 7.10703 28.4574   1
   8   8  10 306.760 333.247  -2
  -9   8  -9 306.760 333.247   1
  -9  -8 -10 70.9451 38.9741   1
   8   8  11 200.658 71.6876  -2
  -9   8 -10 200.658 71.6876   1
  -9  -8 -11 562.944 42.8375   1
   8   8  12 732.690 73.3421  -2
  -9   8 -11 732.690 73.3421   1
  -9  -8 -12 8.56547 37.1637   1
   8   8  13 131.482 69.9318  -2
  -9   8 -12 131.482 69.9318   1
   8  -8  14 220.966 34.7996  -2
  -9  -8 -13 220.966 34.7996   1
   8  -8  15 371.921 33.2139  -2
  -9  -8 -14 371.921 33.2139   1
   8  -8  16 378.636 30.4319  -2
  -9  -8 -15 378.636 30.4319   1
   8  -8  17 161.224 25.2127  -2
  -9  -8 -16 161.224 25.2127   1
   8  -8  18 46.3325 25.1786  -2
  -9  -8 -17 46.3325 25.1786   1
  -9  -9  22 94.6304 16.4277   1
  -9  -9  21 940.542 23.6694   1
  -9  -9  20 24.9774 21.7871   1
  -9  -9  19 290.512 22.4179   1
  -9  -9  18 179.679 35.9112   1
   9  -9 -17 49.1606 15.8734   1
   9  -9 -16 9.25995 16.5322   1
  -9  -9  15 635.374 25.4050   1
  -9  -9  14 39.8858 22.2704   1
  -9  -9  13 433.608 24.8395   1
  -9   9  12 117.465 19.6532   1
   9  -9 -11 1909.14 30.6501   1
   9  -9 -10 336.534 17.5986   1
  -9   9  10 456.210 65.5902  -2
   9   9 -10 456.210 65.5902   1
   9  -9  -9 2899.75 44.6348   1
  -9   9   9 3732.78 79.3657  -2
   9   9  -9 3732.78 79.3657   1
  -9   9   8-1.49844 22.2276   1
  -9   9   8 77.3366 61.7730  -2
   9   9  -8 77.3366 61.7730   1
  -9  -9   7 113.334 19.0474   1
  -9  -9   6 198.751 26.6270   1
  -9   9   6 270.708 50.2341  -2
   9   9  -6 270.708 50.2341   1
   9   9  -5 781.804 53.1098  -2
  -9   9   6 781.804 53.1098   1
  -9   9   5 2823.02 39.9214   1
  -9   9   5 3053.25 119.037  -2
   9   9  -5 3053.25 119.037   1
   9   9  -4 2481.23 65.6395  -2
  -9   9   5 2481.23 65.6395   1
  -9  -9   4 14.3844 25.4713   1
  -9   9   4 0.74124 88.6918  -2
   9   9  -4 0.74124 88.6918   1
   9   9  -3 272.532 72.8553  -2
  -9   9   4 272.532 72.8553   1
  -9   9   3 1010.38 29.9911   1
   9   9  -2 967.395 84.1518  -2
  -9   9   3 967.395 84.1518   1
  -9   9   2 293.053 27.3203   1
  -9   9   2 249.212 86.2182  -2
   9   9  -2 249.212 86.2182   1
   9   9  -1 1758.01 94.4390  -2
  -9   9   2 1758.01 94.4390   1
  -9   9   1 5728.85 51.6000   1
   9  -9  -1 8270.60 85.4844  -2
  -9  -9   1 8270.60 85.4844   1
   9   9   0 6072.36 87.9177  -2
  -9   9   1 6072.36 87.9177   1
  -9   9   0 1851.86 34.6272   1
  -9   9   0 2627.73 61.1600  -2
   9   9   0 2627.73 61.1600   1
  -9   9  -1 630.979 27.6853   1
   9  -9   1 880.661 52.6975  -2
  -9  -9  -1 880.661 52.6975   1
  -9   9  -2 11.7116 19.6574   1
   9  -9   2-2.10330 47.7882  -2
  -9  -9  -2-2.10330 47.7882   1
   9  -9   3 1295.64 25.4156   1
  -9   9  -3 1858.17 57.8037  -2
   9   9   3 1858.17 57.8037   1
   9   9   4 290.195 19.9220   1
   9  -9   4 413.802 60.8137  -2
  -9  -9  -4 413.802 60.8137   1
   9  -9   5 2025.39 48.5727   1
   9   9   6 2384.56 39.2041   1
  -9   9  -7 87.5074 42.7778   1
  -9   9  -8 1127.92 53.3665   1
   8   9   9 2105.98 292.409  -2
  -9   9  -8 2105.98 292.409   1
  -9   9  -9 117.072 43.6885   1
   8   9  10 356.008 327.319  -2
  -9   9  -9 356.008 327.319   1
   8   9  11 496.277 81.4582  -2
  -9   9 -10 496.277 81.4582   1
  -9  -9 -11 54.1803 35.7828   1
   8   9  12 156.362 75.0088  -2
  -9   9 -11 156.362 75.0088   1
  -9  -9 -12 3.35337 33.3154   1
   8   9  13 1.42257 58.7944  -2
  -9   9 -12 1.42257 58.7944   1
   8  -9  14 210.273 31.9622  -2
  -9  -9 -13 210.273 31.9622   1
   8  -9  15 246.539 29.3705  -2
  -9  -9 -14 246.539 29.3705   1
   8  -9  16 237.178 25.9775  -2
  -9  -9 -15 237.178 25.9775   1
   8   9  17-2.55622 38.8977  -2
  -9   9 -16-2.55622 38.8977   1
  -9 -10  21 35.1339 16.4249   1
  -9 -10  20 114.757 19.8998   1
  -9 -10  19 21.9468 21.7002   1
  -9 -10  18 2.82557 32.2796   1
   9 -10 -17 37.5171 14.9708   1
   9 -10 -16 54.3581 16.0349   1
   9 -10 -15 14.3133 16.8304   1
   9 -10 -14-0.74656 17.5997   1
  -9 -10  13-4.07068 21.4480   1
  -9 -10  12 546.361 25.2863   1
   9  10 -11 1645.99 32.1164   1
  -9 -10  10 218.782 19.4050   1
  -9  10  10 301.929 64.5300  -2
   9  10 -10 301.929 64.5300   1
  -9 -10   9 108.229 25.6141   1
  -9  10   9 151.671 63.5187  -2
   9  10  -9 151.671 63.5187   1
  -9 -10   8 1178.84 34.9125   1
  -9  10   8 1395.86 66.6944  -2
   9  10  -8 1395.86 66.6944   1
  -9  10   7 637.023 29.0959   1
  -9  10   7 826.693 63.9774  -2
   9  10  -7 826.693 63.9774   1
  -9 -10   6 548.903 29.5824   1
  -9  10   6 655.828 60.8321  -2
   9  10  -6 655.828 60.8321   1
   9  10  -5 490.919 54.8004  -2
  -9  10   6 490.919 54.8004   1
  -9 -10   5 293.709 28.6763   1
  -9  10   5 308.832 105.360  -2
   9  10  -5 308.832 105.360   1
   9  10  -4 296.515 79.3381  -2
  -9  10   5 296.515 79.3381   1
  -9 -10   4-6.85453 26.6076   1
  -9  10   4-64.8909 97.3572  -2
   9  10  -4-64.8909 97.3572   1
   9  10  -3 61.1583 75.5416  -2
  -9  10   4 61.1583 75.5416   1
  -9  10   3 91.0289 26.0849   1
  -9  10   3 49.8691 92.4370  -2
   9  10  -3 49.8691 92.4370   1
   9  10  -2 67.0052 74.2658  -2
  -9  10   3 67.0052 74.2658   1
  -9 -10   2 359.129 27.8172   1
  -9  10   2 282.001 93.8960  -2
   9  10  -2 282.001 93.8960   1
   9  10  -1 487.788 82.6407  -2
  -9  10   2 487.788 82.6407   1
  -9  10   1 825.524 31.6189   1
   9 -10  -1 1167.70 58.5438  -2
  -9 -10   1 1167.70 58.5438   1
   9  10   0 815.344 69.1453  -2
  -9  10   1 815.344 69.1453   1
  -9  10   0 30.0855 26.3058   1
   9 -10   0 93.0623 53.4606  -2
  -9 -10   0 93.0623 53.4606   1
   9  10   1 64.0322 67.9552  -2
  -9  10   0 64.0322 67.9552   1
  -9  10  -1 12.6980 20.4073   1
   9 -10   1 25.1112 52.1181  -2
  -9 -10  -1 25.1112 52.1181   1
  -9  10  -2 309.760 22.6295   1
   9 -10   2 382.451 53.7840  -2
  -9 -10  -2 382.451 53.7840   1
  -9  10  -3 5.64438 21.9322   1
  -9  10  -3 13.2885 51.5478  -2
   9  10   3 13.2885 51.5478   1
  -9  10  -4 586.062 26.4506   1
   9 -10   4 788.247 54.5160  -2
  -9 -10  -4 788.247 54.5160   1
  -9  10  -5 176.660 23.5684   1
   9 -10   5 225.412 59.6580  -2
  -9 -10  -5 225.412 59.6580   1
  -9  10  -6 1456.27 41.9004   1
  -9  10  -7 91.9616 45.1510   1
  -9  10  -8 1034.91 55.2796   1
   8  10  10 80.1716 78.2357  -2
  -9  10  -9 80.1716 78.2357   1
   8  10  11 75.6896 74.9313  -2
  -9  10 -10 75.6896 74.9313   1
   8  10  12 145.725 66.7318  -2
  -9  10 -11 145.725 66.7318   1
   8  10  13 49.7771 68.5745  -2
  -9  10 -12 49.7771 68.5745   1
   8  10  14-17.8365 60.1041  -2
  -9  10 -13-17.8365 60.1041   1
   8  10  15 270.273 55.9070  -2
  -9  10 -14 270.273 55.9070   1
   8  10  16 89.7671 46.4948  -2
  -9  10 -15 89.7671 46.4948   1
  -9 -11  20 102.100 24.0362   1
  -9 -11  19 0.64379 18.0717   1
  -9 -11  18 25.8639 19.5347   1
   9 -11 -17 412.462 21.3245   1
   9 -11 -16 27.9709 14.8601   1
   9 -11 -15 101.827 16.2193   1
   9 -11 -14 51.8570 16.8958   1
   9 -11 -13 177.252 18.1666   1
   9 -11 -12 62.9352 17.8528   1
   9 -11 -11 239.219 18.9886   1
  -9  11  10 1054.31 33.1523   1
  -9  11  10 1281.01 69.0251  -2
   9  11 -10 1281.01 69.0251   1
  -9  11   9 261.966 28.5632   1
  -9  11   9 249.151 64.6148  -2
   9  11  -9 249.151 64.6148   1
  -9  11   8 400.766 30.4414   1
  -9  11   8 502.349 64.7538  -2
   9  11  -8 502.349 64.7538   1
  -9  11   7 26.6549 26.3488   1
  -9  11   7-31.6115 60.2504  -2
   9  11  -7-31.6115 60.2504   1
  -9 -11   6 132.840 29.1063   1
  -9  11   6 180.646 59.5587  -2
   9  11  -6 180.646 59.5587   1
  -9 -11   5 229.769 29.0541   1
  -9  11   5 245.273 52.9209  -2
   9  11  -5 245.273 52.9209   1
  -9  11   4 372.366 30.9161   1
  -9  11   4 247.491 109.635  -2
   9  11  -4 247.491 109.635   1
  -9 -11   3 373.092 30.4510   1
  -9  11   3 399.698 109.054  -2
   9  11  -3 399.698 109.054   1
  -9  11   2 26.9446 30.4404   1
   9 -11  -2-0.22295 55.2128  -2
  -9 -11   2-0.22295 55.2128   1
  -9  11   1 4158.59 55.6462   1
   9 -11  -1 6292.38 102.200  -2
  -9 -11   1 6292.38 102.200   1
  -9 -11   0 4450.14 49.9286  -2
   9 -11  -1 4450.14 49.9286   1
   9 -11   0 1062.98 22.6796   1
  -9  11   0 1409.70 62.8500  -2
   9  11   0 1409.70 62.8500   1
   9 -11   1 768.905 26.6725   1
   9 -11   1 1112.92 59.9767  -2
  -9 -11  -1 1112.92 59.9767   1
  -9  11  -2 332.510 23.7554   1
   9 -11   2 470.525 55.2749  -2
  -9 -11  -2 470.525 55.2749   1
  -9  11  -3 1312.71 30.8680   1
   9 -11   3 1978.07 75.5622  -2
  -9 -11  -3 1978.07 75.5622   1
  -9  11  -4 10.9325 22.4250   1
   9 -11   4 58.3618 61.8549  -2
  -9 -11  -4 58.3618 61.8549   1
  -9  11  -5 151.978 23.0943   1
   9 -11   5 145.770 59.6949  -2
  -9 -11  -5 145.770 59.6949   1
  -9  11  -6 453.125 24.0634   1
   9 -11   6 630.910 60.2713  -2
  -9 -11  -6 630.910 60.2713   1
  -9  11  -7 140.373 42.7403   1
   9 -11   7 280.212 51.3769  -2
  -9 -11  -7 280.212 51.3769   1
  -9  11  -8 6.76478 41.9147   1
  -9  11  -9 242.852 45.3017   1
   8  11  11-6.87194 71.5174  -2
  -9  11 -10-6.87194 71.5174   1
   8  11  12 1274.25 76.8219  -2
  -9  11 -11 1274.25 76.8219   1
   8  11  13 55.1462 58.7997  -2
  -9  11 -12 55.1462 58.7997   1
   8  11  14 71.0760 54.5267  -2
  -9  11 -13 71.0760 54.5267   1
   8  11  15 42.3421 46.3884  -2
  -9  11 -14 42.3421 46.3884   1
   8  11  16 145.777 38.5128  -2
  -9  11 -15 145.777 38.5128   1
  -9 -12  19 5.79196 21.9873   1
  -9 -12  18 3.47002 25.1343   1
   9 -12 -17 10.1075 17.0516   1
   9 -12 -16-6.58869 14.8177   1
   9 -12 -15 9.70154 14.7016   1
   9 -12 -14 18.2780 15.7782   1
   9 -12 -13 176.234 17.1376   1
  -9 -12  12 90.9263 17.1917   1
   9 -12 -11 4.29586 22.7651   1
   9 -12 -10 36.3447 20.9269   1
   9 -12  -9 194.427 22.1052   1
  -9  12   9 208.195 62.0294  -2
   9  12  -9 208.195 62.0294   1
   9 -12  -8 8.18261 21.2152   1
  -9  12   8 2.22885 53.6332  -2
   9  12  -8 2.22885 53.6332   1
  -9 -12   7 3.19056 28.7749   1
  -9  12   7 26.8480 60.1920  -2
   9  12  -7 26.8480 60.1920   1
  -9 -12   6-7.14923 46.5627  -2
   9 -12  -7-7.14923 46.5627   1
  -9  12   6 18.5127 28.8828   1
  -9  12   6 23.2650 60.8943  -2
   9  12  -6 23.2650 60.8943   1
  -9 -12   5 57.4575 46.3236  -2
   9 -12  -6 57.4575 46.3236   1
  -9 -12   5 169.533 64.2451   1
  -9  12   5 205.514 60.0947  -2
   9  12  -5 205.514 60.0947   1
  -9 -12   4 176.424 32.0640  -2
   9 -12  -5 176.424 32.0640   1
  -9 -12   4 181.425 30.0042   1
  -9  12   4 170.088 60.6600  -2
   9  12  -4 170.088 60.6600   1
  -9 -12   3 131.702 46.9586  -2
   9 -12  -4 131.702 46.9586   1
  -9 -12   3 67.4426 29.3284   1
  -9 -12   2 176.092 47.0847  -2
   9 -12  -3 176.092 47.0847   1
  -9  12   2 291.032 35.5311   1
   9 -12  -2 360.061 73.8285  -2
  -9 -12   2 360.061 73.8285   1
  -9 -12   1 373.613 45.9205  -2
   9 -12  -2 373.613 45.9205   1
  -9  12   1 212.874 33.1230   1
   9 -12  -1 319.242 68.3571  -2
  -9 -12   1 319.242 68.3571   1
  -9 -12   0 165.136 43.9654  -2
   9 -12  -1 165.136 43.9654   1
   9 -12   0 26.4339 22.0492   1
   9 -12   0 72.1038 71.2897  -2
  -9 -12   0 72.1038 71.2897   1
   9  12   1 200.857 67.9302  -2
  -9  12   0 200.857 67.9302   1
  -9  12  -1 701.435 27.7257   1
   9 -12   1 1007.63 75.2791  -2
  -9 -12  -1 1007.63 75.2791   1
  -9  12  -2-6.03379 23.4755   1
   9 -12   2 53.1514 63.5146  -2
  -9 -12  -2 53.1514 63.5146   1
  -9  12  -3 11.3523 22.3699   1
   9 -12   3 65.7239 64.8860  -2
  -9 -12  -3 65.7239 64.8860   1
  -9  12  -4 17.2533 22.8884   1
   9 -12   4 15.8673 62.4512  -2
  -9 -12  -4 15.8673 62.4512   1
  -9  12  -5 38.8698 21.7159   1
   9 -12   5 103.914 57.9675  -2
  -9 -12  -5 103.914 57.9675   1
  -9  12  -6 91.3431 21.5030   1
   9 -12   6 123.476 54.6058  -2
  -9 -12  -6 123.476 54.6058   1
  -9  12  -7 147.704 42.1941   1
   9 -12   7 206.697 50.8596  -2
  -9 -12  -7 206.697 50.8596   1
  -9  12  -8 6.59406 39.9827   1
  -9  12  -9 17.2718 38.1990   1
   8  12  11 26.2245 68.8438  -2
  -9  12 -10 26.2245 68.8438   1
   8  12  12 431.218 63.1825  -2
  -9  12 -11 431.218 63.1825   1
   8  12  13 120.861 56.2150  -2
  -9  12 -12 120.861 56.2150   1
   8  12  14 27.8130 48.9718  -2
  -9  12 -13 27.8130 48.9718   1
   8  12  15 44.0358 39.2710  -2
  -9  12 -14 44.0358 39.2710   1
  -9 -13  18 109.049 20.3594   1
   9 -13 -17 58.7155 16.0212   1
   9 -13 -16 11.5973 16.9461   1
   9 -13 -15 39.1825 13.1632   1
   9 -13 -14 70.6878 14.6778   1
   9 -13 -13 50.0554 13.8205   1
   9 -13 -12 92.2461 20.9221   1
   9 -13 -11 452.817 24.3205   1
   9 -13 -10 1165.73 25.3299   1
   9 -13  -9 236.476 22.1094   1
  -9  13   9 318.867 57.7614  -2
   9  13  -9 318.867 57.7614   1
   9 -13  -8 415.128 23.5882   1
  -9  13   8 524.330 60.8273  -2
   9  13  -8 524.330 60.8273   1
  -9 -13   7 9.92947 27.1433   1
  -9  13   7 38.4050 57.1786  -2
   9  13  -7 38.4050 57.1786   1
  -9 -13   6 161.521 48.3661  -2
   9 -13  -7 161.521 48.3661   1
  -9  13   6 579.178 31.3408   1
  -9  13   6 720.746 62.3092  -2
   9  13  -6 720.746 62.3092   1
  -9 -13   5 653.307 51.6160  -2
   9 -13  -6 653.307 51.6160   1
  -9 -13   5 281.666 66.2583   1
  -9  13   5 313.893 61.7767  -2
   9  13  -5 313.893 61.7767   1
  -9 -13   4 1638.17 37.8440  -2
   9 -13  -5 1638.17 37.8440   1
   9 -13  -4 6950.38 71.5478  -2
  -9 -13   4 6950.38 71.5478   1
  -9 -13   3 5343.41 50.1841  -2
   9 -13  -4 5343.41 50.1841   1
   9 -13  -3 230.257 47.1298  -2
  -9 -13   3 230.257 47.1298   1
  -9 -13   2 99.5623 31.4721  -2
   9 -13  -3 99.5623 31.4721   1
  -9  13   2 144.886 31.5633   1
   9 -13  -2 164.796 68.5808  -2
  -9 -13   2 164.796 68.5808   1
  -9 -13   1 216.743 45.4340  -2
   9 -13  -2 216.743 45.4340   1
  -9  13   1 352.883 35.5258   1
   9 -13  -1 520.395 74.5455  -2
  -9 -13   1 520.395 74.5455   1
  -9 -13   0 624.803 45.4113  -2
   9 -13  -1 624.803 45.4113   1
   9 -13   0 1121.34 26.9574   1
   9 -13   0 1560.36 76.6046  -2
  -9 -13   0 1560.36 76.6046   1
   9  13   1 1055.59 67.9705  -2
  -9  13   0 1055.59 67.9705   1
  -9  13  -1 585.023 26.6170   1
   9 -13   1 948.322 72.3051  -2
  -9 -13  -1 948.322 72.3051   1
  -9  13  -2 380.946 25.7630   1
   9 -13   2 579.784 67.3070  -2
  -9 -13  -2 579.784 67.3070   1
  -9  13  -3 337.245 24.5294   1
   9 -13   3 585.495 67.2270  -2
  -9 -13  -3 585.495 67.2270   1
  -9  13  -4 44.2119 22.0374   1
   9 -13   4 20.5562 61.1477  -2
  -9 -13  -4 20.5562 61.1477   1
  -9  13  -5 498.865 24.3175   1
   9 -13   5 842.633 61.9856  -2
  -9 -13  -5 842.633 61.9856   1
  -9  13  -6 132.042 20.9597   1
   9 -13   6 263.150 54.1157  -2
  -9 -13  -6 263.150 54.1157   1
  -9  13  -7 25.0988 39.1978   1
   9 -13   7 38.4559 47.1256  -2
  -9 -13  -7 38.4559 47.1256   1
  -9  13  -8 84.9495 39.6680   1
   8  13  10-20.2663 60.8657  -2
  -9  13  -9-20.2663 60.8657   1
   8  13  11 75.0397 57.3589  -2
  -9  13 -10 75.0397 57.3589   1
   8  13  12 76.4521 56.0318  -2
  -9  13 -11 76.4521 56.0318   1
   8  13  13 37.8779 48.1963  -2
  -9  13 -12 37.8779 48.1963   1
   8  13  14 38.6833 38.3190  -2
  -9  13 -13 38.6833 38.3190   1
   9 -14 -16 53.4930 19.7580   1
   9 -14 -15 31.4960 23.8056   1
   9 -14 -14 53.3497 15.2482   1
   9 -14 -13 336.896 18.7651   1
   9 -14 -12 47.0923 15.7445   1
   9 -14 -11 5.50566 19.3599   1
   9 -14 -10 21.1775 21.2432   1
   9 -14  -9 134.716 20.6482   1
  -9  14   8 0.42983 19.8408   1
  -9  14   8-17.0619 54.0273  -2
   9  14  -8-17.0619 54.0273   1
  -9 -14   7 5.18590 26.2035   1
  -9  14   7 11.4803 55.3309  -2
   9  14  -7 11.4803 55.3309   1
  -9 -14   6 42.4199 44.1965  -2
   9 -14  -7 42.4199 44.1965   1
  -9  14   6 223.191 26.9537   1
  -9  14   6 268.634 56.9998  -2
   9  14  -6 268.634 56.9998   1
  -9 -14   5 343.783 46.1565  -2
   9 -14  -6 343.783 46.1565   1
  -9 -14   5 324.707 64.2212   1
  -9  14   5 322.047 58.5821  -2
   9  14  -5 322.047 58.5821   1
  -9 -14   4 351.835 31.1852  -2
   9 -14  -5 351.835 31.1852   1
   9 -14  -4 115.477 43.1789  -2
  -9 -14   4 115.477 43.1789   1
  -9 -14   3 115.412 31.1214  -2
   9 -14  -4 115.412 31.1214   1
  -9  14   3 191.874 31.4987   1
   9 -14  -3 206.804 45.4717  -2
  -9 -14   3 206.804 45.4717   1
  -9 -14   2 249.705 44.5500  -2
   9 -14  -3 249.705 44.5500   1
  -9  14   2 286.348 31.4911   1
   9 -14  -2 342.973 46.1324  -2
  -9 -14   2 342.973 46.1324   1
  -9 -14   1 271.182 43.7960  -2
   9 -14  -2 271.182 43.7960   1
  -9  14   1 78.3910 30.5413   1
   9 -14  -1 89.1209 65.6789  -2
  -9 -14   1 89.1209 65.6789   1
  -9 -14   0 93.5365 41.5348  -2
   9 -14  -1 93.5365 41.5348   1
   9 -14   0 301.826 22.8234   1
   9 -14   0 547.922 73.7091  -2
  -9 -14   0 547.922 73.7091   1
   9  14   1 191.138 56.4579  -2
  -9  14   0 191.138 56.4579   1
  -9  14  -1 8.41280 22.6081   1
   9 -14   1-13.1052 66.7232  -2
  -9 -14  -1-13.1052 66.7232   1
  -9  14  -2 37.4334 22.5714   1
   9 -14   2 64.3427 62.5443  -2
  -9 -14  -2 64.3427 62.5443   1
  -9  14  -3 371.509 23.9441   1
   9 -14   3 512.400 65.7020  -2
  -9 -14  -3 512.400 65.7020   1
  -9  14  -4 48.0454 20.7581   1
   9 -14   4 53.3224 57.4215  -2
  -9 -14  -4 53.3224 57.4215   1
  -9  14  -5 64.2376 20.1407   1
   9 -14   5 125.821 53.2190  -2
  -9 -14  -5 125.821 53.2190   1
  -9  14  -6 448.768 21.4320   1
   9 -14   6 595.843 50.7236  -2
  -9 -14  -6 595.843 50.7236   1
  -9  14  -7 14.4732 36.1143   1
   9 -14   7 31.4018 41.1891  -2
  -9 -14  -7 31.4018 41.1891   1
  -9  14  -8 14.1976 35.1434   1
   8  14  10 3.01228 51.4590  -2
  -9  14  -9 3.01228 51.4590   1
   8  14  11 96.0291 51.6263  -2
  -9  14 -10 96.0291 51.6263   1
   8  14  12 16.4562 43.7489  -2
  -9  14 -11 16.4562 43.7489   1
   8  14  13 76.9711 36.9563  -2
  -9  14 -12 76.9711 36.9563   1
   9 -15 -15 6.68634 18.3300   1
   9 -15 -14 235.379 23.4999   1
   9 -15 -13 36.5864 12.4704   1
   9 -15 -12 48.0947 13.6300   1
   9 -15 -11-0.10480 15.1178   1
   9 -15 -10 98.7388 19.5762   1
   9 -15  -9 354.841 21.5395   1
   9 -15  -8 43.6275 18.5897   1
  -9  15   7 71.0966 24.5010   1
  -9  15   7 56.3418 49.6190  -2
   9  15  -7 56.3418 49.6190   1
  -9 -15   6 348.215 45.1208  -2
   9 -15  -7 348.215 45.1208   1
  -9 -15   6 1098.85 61.2412   1
  -9  15   6 1200.67 57.3415  -2
   9  15  -6 1200.67 57.3415   1
   9  15  -5 1037.73 32.1791  -2
  -9  15   6 1037.73 32.1791   1
  -9 -15   5 105.388 54.5746   1
  -9  15   5 177.898 54.1850  -2
   9  15  -5 177.898 54.1850   1
  -9 -15   4 202.139 29.9658  -2
   9 -15  -5 202.139 29.9658   1
  -9 -15   4 462.254 62.4792   1
  -9  15   4 523.972 56.1838  -2
   9  15  -4 523.972 56.1838   1
  -9 -15   3 384.378 44.4775  -2
   9 -15  -4 384.378 44.4775   1
  -9  15   3 84.2570 40.0007  -2
   9  15  -3 84.2570 40.0007   1
  -9 -15   2 62.9970 28.6784  -2
   9 -15  -3 62.9970 28.6784   1
  -9  15   2 91.8246 28.4959   1
  -9  15   2 141.377 40.9699  -2
   9  15  -2 141.377 40.9699   1
  -9 -15   1 71.6973 39.0042  -2
   9 -15  -2 71.6973 39.0042   1
  -9  15   1 48.7956 27.1419   1
  -9  15   1 89.4868 40.3277  -2
   9  15  -1 89.4868 40.3277   1
  -9 -15   0 150.000 38.0689  -2
   9 -15  -1 150.000 38.0689   1
  -9  15   0 270.738 29.9497   1
   9 -15   0 370.818 41.5045  -2
  -9 -15   0 370.818 41.5045   1
  -9  15  -1 1.29200 19.9650   1
   9 -15   1-3.40551 38.2078  -2
  -9 -15  -1-3.40551 38.2078   1
  -9  15  -2 133.302 21.0781   1
   9 -15   2 281.348 58.2843  -2
  -9 -15  -2 281.348 58.2843   1
  -9  15  -3 414.025 22.1389   1
   9 -15   3 674.117 57.6964  -2
  -9 -15  -3 674.117 57.6964   1
  -9  15  -4 23.2713 18.8381   1
   9 -15   4 86.0399 50.5491  -2
  -9 -15  -4 86.0399 50.5491   1
  -9  15  -5 28.8569 17.7270   1
   9 -15   5 31.8522 45.8523  -2
  -9 -15  -5 31.8522 45.8523   1
  -9  15  -6 104.176 16.7514   1
   9 -15   6 130.821 41.6086  -2
  -9 -15  -6 130.821 41.6086   1
  -9  15  -7 32.7794 31.4889   1
   9 -15   7 61.8533 34.7263  -2
  -9 -15  -7 61.8533 34.7263   1
  -9  15  -8 7.09429 30.4204   1
  -9  15  -9 18.9951 27.0488   1
   8  15  11 34.0597 38.8863  -2
  -9  15 -10 34.0597 38.8863   1
   9 -16 -13 3.70600 19.6335   1
   9 -16 -12 85.5300 16.3550   1
   9 -16 -11 26.4454 12.4970   1
   9 -16 -10 5.15966 13.5083   1
   9 -16  -9 117.272 17.5920   1
   9 -16  -8 16.5435 17.6741   1
  -9  16   7 0.24928 21.0632   1
  -9 -16   6 77.0832 37.8182  -2
   9 -16  -7 77.0832 37.8182   1
  -9  16   6 162.965 22.7210   1
  -9 -16   5 183.970 39.9837  -2
   9 -16  -6 183.970 39.9837   1
  -9 -16   5 20.4578 48.6304   1
  -9  16   5 17.0405 46.1047  -2
   9  16  -5 17.0405 46.1047   1
  -9 -16   4 113.238 26.9264  -2
   9 -16  -5 113.238 26.9264   1
   9 -16  -4 484.260 37.2886  -2
  -9 -16   4 484.260 37.2886   1
  -9 -16   3 390.465 28.1662  -2
   9 -16  -4 390.465 28.1662   1
  -9  16   3 35.7375 25.2082   1
   9 -16  -3 76.3682 35.4776  -2
  -9 -16   3 76.3682 35.4776   1
  -9 -16   2 51.6630 37.0190  -2
   9 -16  -3 51.6630 37.0190   1
  -9  16   2 0.01000 25.6449   1
   9 -16  -2 16.2715 35.4137  -2
  -9 -16   2 16.2715 35.4137   1
  -9 -16   1 19.7602 35.1170  -2
   9 -16  -2 19.7602 35.1170   1
   9 -16  -1 14.0635 18.0067   1
   9 -16  -1 6.63072 35.0161  -2
  -9 -16   1 6.63072 35.0161   1
  -9  16   0 99.6870 24.8092   1
  -9  16   0 168.522 35.7399  -2
   9  16   0 168.522 35.7399   1
  -9  16  -1 8.25194 23.9096   1
  -9  16  -1 49.3043 33.7918  -2
   9  16   1 49.3043 33.7918   1
  -9  16  -2 81.9219 17.5679   1
  -9  16  -2 103.020 32.8081  -2
   9  16   2 103.020 32.8081   1
  -9  16  -3 24.4135 16.9631   1
  -9  16  -3 15.2564 30.3638  -2
   9  16   3 15.2564 30.3638   1
  -9  16  -4 6.34516 16.1832   1
  -9  16  -4 18.5897 28.5368  -2
   9  16   4 18.5897 28.5368   1
  -9  16  -5 2.73524 14.9634   1
  -9  16  -5 32.7365 25.7404  -2
   9  16   5 32.7365 25.7404   1
  -9  16  -6 71.5693 26.2731   1
  -9  16  -6 82.0306 23.1670  -2
   9  16   6 82.0306 23.1670   1
  -9  16  -7 10.7870 24.6884   1
  -9  16  -7 0.89474 28.8843  -2
   9  16   7 0.89474 28.8843   1
  -9  16  -8 13.1464 22.6057   1
   9 -17 -11 77.4109 18.7746   1
   9 -17 -10 1.38112 14.2990   1
   9 -17  -9 215.638 14.4299   1
  -9  17   9 189.612 38.6329  -2
   9  17  -9 189.612 38.6329   1
   9 -17  -8 43.3869 12.7284   1
  -9  17   7 106.677 20.6099   1
  -9 -17   6 125.960 32.7900  -2
   9 -17  -7 125.960 32.7900   1
  -9 -17   6 138.048 18.7470   1
  -9 -17   5 253.174 33.9569  -2
   9 -17  -6 253.174 33.9569   1
  -9 -17   5 339.209 41.6766   1
   9  17  -4 377.647 32.0665  -2
  -9  17   5 377.647 32.0665   1
  -9 -17   4 27.1900 41.6309   1
  -9 -17   3 52.8851 22.4440  -2
   9 -17  -4 52.8851 22.4440   1
  -9  17   3 31.3484 21.2558   1
  -9  17   3 24.1207 29.4387  -2
   9  17  -3 24.1207 29.4387   1
  -9 -17   2 75.0808 30.0957  -2
   9 -17  -3 75.0808 30.0957   1
   9 -17  -2 10.8278 15.6633   1
   9 -17  -2 2.77497 28.9535  -2
  -9 -17   2 2.77497 28.9535   1
  -9  17   1 655.514 26.1667   1
   9 -17  -1 802.104 31.3627  -2
  -9 -17   1 802.104 31.3627   1
  -9  17   0 166.512 21.9732   1
  -9  17   0 235.950 29.0009  -2
   9  17   0 235.950 29.0009   1
  -9  17  -1 13.7137 19.9385   1
   9 -17   1 12.0938 28.5155  -2
  -9 -17  -1 12.0938 28.5155   1
  -9  17  -2 136.561 19.7915   1
  -9  17  -2 157.514 26.2287  -2
   9  17   2 157.514 26.2287   1
  -9  17  -3-1.37205 17.0607   1
  -9  17  -3 8.11892 23.8133  -2
   9  17   3 8.11892 23.8133   1
  -9  17  -4 18.4279 15.3272   1
  -9  17  -4 44.2168 21.2104  -2
   9  17   4 44.2168 21.2104   1
  -9  18   7 34.5183 31.1419  -2
   9  18  -7 34.5183 31.1419   1
  -9  18   6 41.0389 34.4089  -2
   9  18  -6 41.0389 34.4089   1
   9  18  -5 14.4584 21.6766  -2
  -9  18   6 14.4584 21.6766   1
  -9  18   5 24.5336 35.1297  -2
   9  18  -5 24.5336 35.1297   1
   9  18  -4 34.6907 23.1771  -2
  -9  18   5 34.6907 23.1771   1
   9 -18  -4 3.98740 23.6977  -2
  -9 -18   4 3.98740 23.6977   1
   9  18  -3 14.8517 23.0077  -2
  -9  18   4 14.8517 23.0077   1
   9 -18  -3 7.19763 32.1637  -2
  -9 -18   3 7.19763 32.1637   1
   9  18  -2-8.31407 23.7724  -2
  -9  18   3-8.31407 23.7724   1
   9 -18  -2-14.8048 32.3875  -2
  -9 -18   2-14.8048 32.3875   1
   9  18  -1 26.9945 23.3456  -2
  -9  18   2 26.9945 23.3456   1
  -9  18   1 30.6655 16.1410   1
   9 -18  -1 70.3358 32.3865  -2
  -9 -18   1 70.3358 32.3865   1
  -9  18   0 9.44647 15.1773   1
   9 -18   0 34.7502 31.0985  -2
  -9 -18   0 34.7502 31.0985   1
  -9  18  -1 12.5166 14.5034   1
   9 -18   1 30.4017 29.6034  -2
  -9 -18  -1 30.4017 29.6034   1
 -10   0  24 37.2281 33.0427   1
  10   0 -22 302.205 25.5232   1
 -10   0  20 21.4696 46.5174   1
 -10   0  18 1116.68 57.4897   1
 -10   0  16 1732.70 50.0051   1
 -10   0  14 243.528 36.4741   1
 -10   0  12 3645.97 53.1194   1
 -10   0  10 2186.48 42.4430   1
 -10   0   8 8105.81 83.2890   1
 -10   0   6 25871.3 140.250   1
 -10   0   4 486.958 48.9117   1
  10   0  -2 83.9029 43.7435   1
 -10   0   0 89.3583 32.1651   1
 -10   0  -2 823.623 61.2766   1
 -10   0  -4 1239.52 23.2224   1
 -10   0  -6 1039.62 27.0541   1
 -10   0  -8 31.1200 30.4996   1
 -10   0 -10 1084.55 41.1902   1
   9   0  11 4275.57 356.553  -2
 -10   0 -10 4275.57 356.553   1
   9   0  13 402.930 56.6253  -2
 -10   0 -12 402.930 56.6253   1
   9   0  15 1121.07 58.3280  -2
 -10   0 -14 1121.07 58.3280   1
   9   0  17 107.619 41.9797  -2
 -10   0 -16 107.619 41.9797   1
   9   0  19 318.632 33.8315  -2
 -10   0 -18 318.632 33.8315   1
 -10   1  24 15.9447 15.8529   1
 -10   1  23 24.8451 19.3431   1
 -10  -1  22-0.07423 16.3710   1
 -10   1  21 17.0897 20.7733   1
 -10   1  20 15.8046 32.9422   1
 -10   1  19 206.115 34.1529   1
 -10   1  18 132.969 34.7434   1
 -10   1  17 13.2047 33.9483   1
 -10   1  16 378.117 28.4241   1
 -10   1  15 64.5297 26.6582   1
 -10   1  14 40.3716 25.0612   1
 -10   1  13-0.25387 24.2261   1
 -10   1  12 337.220 24.9136   1
 -10   1  11 280.846 23.7234   1
 -10   1  10 351.977 21.0755   1
 -10   1   9 1673.59 42.7878   1
 -10   1   8 1192.35 31.3772   1
 -10  -1   7 91.4497 24.6652   1
 -10  -1   6 412.964 30.7868   1
  10   1  -5 610.818 62.8719  -2
 -10   1   6 610.818 62.8719   1
  10   1  -5 509.923 58.9239   1
 -10  -1   4 1224.44 40.0581  -2
  10  -1  -5 1224.44 40.0581   1
  10   1  -3 3144.83 43.8371  -2
 -10   1   4 3144.83 43.8371   1
  10   1  -2 331.975 30.5673  -2
 -10   1   3 331.975 30.5673   1
 -10  -1   2 414.854 49.1228   1
  10   1  -1 463.168 45.0838  -2
 -10   1   2 463.168 45.0838   1
 -10  -1   1 157.407 27.4429   1
  10  -1   0 38.7762 26.5262   1
 -10   1  -1 1339.33 36.2394   1
 -10   1  -2 735.024 31.3868   1
 -10   1  -3 1348.44 18.5151   1
 -10   1  -4 33.5198 13.4712   1
 -10   1  -5 113.086 14.4270   1
 -10   1  -6 1808.99 25.6985   1
 -10   1  -7 4951.07 45.3102   1
 -10   1  -8 5957.77 45.6619   1
 -10   1  -9 600.775 30.7076   1
 -10   1 -10 37.6291 28.3283   1
   9  -1  11 531.143 240.707  -2
 -10  -1 -10 531.143 240.707   1
 -10   1 -11 1479.66 45.4358   1
   9   1  12 1630.99 80.6804  -2
 -10   1 -11 1630.99 80.6804   1
 -10  -1 -12 23.3701 47.3080   1
   9   1  13 36.6570 39.5012  -2
 -10   1 -12 36.6570 39.5012   1
   9   1  14 631.464 38.8947  -2
 -10   1 -13 631.464 38.8947   1
   9   1  15 539.116 37.6106  -2
 -10   1 -14 539.116 37.6106   1
   9   1  16 1236.55 39.3067  -2
 -10   1 -15 1236.55 39.3067   1
   9   1  17 87.3300 29.2422  -2
 -10   1 -16 87.3300 29.2422   1
   9   1  18 155.821 26.8074  -2
 -10   1 -17 155.821 26.8074   1
   9   1  19 46.6058 21.9615  -2
 -10   1 -18 46.6058 21.9615   1
   9  -1  20 77.9098 24.7524  -2
 -10  -1 -19 77.9098 24.7524   1
  10  -2 -24 3.60010 15.9596   1
 -10  -2  23 209.039 20.0762   1
 -10  -2  22 275.735 23.0394   1
 -10  -2  21 746.244 22.2213   1
 -10  -2  20-2.55434 32.1837   1
 -10   2  19 31.3992 33.6820   1
 -10   2  18 226.939 34.9559   1
 -10   2  17 5.53782 33.5509   1
 -10   2  16-2.80615 26.7091   1
 -10   2  15 653.339 29.6767   1
 -10   2  14 26.6695 25.0964   1
 -10   2  13 351.396 25.7087   1
 -10   2  12 84.2585 23.3608   1
 -10   2  11 116.638 20.5438   1
 -10  -2  10 2286.96 28.2545   1
  10  -2  -9 817.331 27.8747   1
  10  -2  -8 300.844 32.7439   1
  10  -2  -7 88.1784 23.4312   1
 -10  -2   6 523.174 31.5479   1
  10   2  -5 1289.01 70.7281  -2
 -10   2   6 1289.01 70.7281   1
  10   2  -5 2921.07 86.6443   1
  10  -2  -4 3517.22 60.3366  -2
 -10  -2   5 3517.22 60.3366   1
  10  -2  -3 1195.85 40.3490  -2
 -10  -2   4 1195.85 40.3490   1
 -10   2   3-10.3908 44.1903   1
 -10  -2   2 33.4213 39.2336  -2
  10  -2  -3 33.4213 39.2336   1
 -10  -2   2 73.4351 44.7396   1
  10   2  -1 871.051 46.6183  -2
 -10   2   2 871.051 46.6183   1
 -10   2   1 3174.85 55.5168   1
 -10   2   0 2801.63 44.6971   1
 -10   2  -1 1075.17 33.9275   1
 -10  -2  -2 149.970 37.8573   1
 -10   2  -3 5373.20 37.3967   1
 -10   2  -4 239.103 14.3464   1
 -10   2  -5 27.2197 14.5983   1
 -10   2  -6 440.752 17.2623   1
 -10   2  -7 3308.85 34.6227   1
 -10   2  -8 187.213 23.6635   1
 -10   2  -9 88.1267 26.1612   1
 -10   2 -10 130.527 27.9913   1
   9  -2  11 963.090 209.392  -2
 -10  -2 -10 963.090 209.392   1
 -10  -2 -11 1097.64 39.1106   1
   9   2  12 1623.66 62.1831  -2
 -10   2 -11 1623.66 62.1831   1
 -10  -2 -12 0.53829 49.2252   1
   9   2  13-13.6998 41.6967  -2
 -10   2 -12-13.6998 41.6967   1
   9   2  14 410.718 33.4933  -2
 -10   2 -13 410.718 33.4933   1
   9   2  15 120.926 34.6461  -2
 -10   2 -14 120.926 34.6461   1
   9   2  16 377.069 34.6335  -2
 -10   2 -15 377.069 34.6335   1
   9   2  17 18.7102 28.1582  -2
 -10   2 -16 18.7102 28.1582   1
   9   2  18 127.677 25.8551  -2
 -10   2 -17 127.677 25.8551   1
   9   2  19 13.9272 20.7769  -2
 -10   2 -18 13.9272 20.7769   1
   9  -2  20 155.974 25.1394  -2
 -10  -2 -19 155.974 25.1394   1
  10  -3 -24 5.29344 15.6548   1
 -10  -3  23 50.6729 19.0444   1
 -10  -3  22 5.73931 21.2035   1
 -10  -3  21 54.9375 18.6817   1
 -10   3  20 9.26682 20.6909   1
 -10  -3  19-9.59425 33.2068   1
 -10   3  18 47.9881 33.2604   1
 -10   3  17 16.3118 33.7079   1
 -10   3  16 16.7762 29.3618   1
 -10   3  15 254.691 27.2095   1
 -10   3  14 31.2190 25.5302   1
 -10   3  13 678.806 28.1725   1
 -10  -3  12 752.652 27.5825   1
 -10   3  11 975.803 25.0803   1
 -10   3  10 290.806 21.4023   1
 -10   3   9 127.460 25.7416   1
 -10   3   8 93.3580 30.5637   1
  10  -3  -7 93.8662 29.6724   1
  10  -3  -6 263.749 27.9645   1
  10   3  -5 371.616 63.3560  -2
 -10   3   6 371.616 63.3560   1
  10  -3  -4 71.8828 31.6813  -2
 -10  -3   5 71.8828 31.6813   1
  10  -3  -3 608.338 36.3105  -2
 -10  -3   4 608.338 36.3105   1
 -10  -3   2 2286.84 45.0644  -2
  10  -3  -3 2286.84 45.0644   1
 -10   3   2 1076.37 63.8464   1
 -10  -3   1 1001.56 63.3911  -2
  10  -3  -2 1001.56 63.3911   1
 -10   3   1 243.545 27.5203   1
 -10   3   0 1544.19 43.4202   1
 -10   3  -1 90.2285 50.9023   1
 -10   3  -2 934.665 25.8746   1
 -10  -3  -3 3413.68 24.0936   1
 -10  -3  -4 5.96589 14.3014   1
 -10  -3  -5 3098.99 32.2548   1
 -10   3  -6 133.996 17.0919   1
 -10   3  -7 505.399 21.3904   1
 -10   3  -8 220.707 23.8525   1
 -10   3  -9 1058.32 30.1460   1
 -10   3 -10 2548.98 39.2805   1
   9  -3  11 2228.19 174.721  -2
 -10  -3 -10 2228.19 174.721   1
 -10  -3 -11 807.788 56.3456   1
   9   3  12 928.088 47.7890  -2
 -10   3 -11 928.088 47.7890   1
 -10  -3 -12 28.4669 47.9922   1
   9   3  13 232.969 41.9572  -2
 -10   3 -12 232.969 41.9572   1
 -10  -3 -13 21.5530 45.4521   1
   9   3  14 61.4496 38.1406  -2
 -10   3 -13 61.4496 38.1406   1
   9   3  15 428.832 31.3995  -2
 -10   3 -14 428.832 31.3995   1
   9   3  16 151.013 31.1495  -2
 -10   3 -15 151.013 31.1495   1
   9   3  17 6.99618 27.3789  -2
 -10   3 -16 6.99618 27.3789   1
   9   3  18 30.1817 23.1406  -2
 -10   3 -17 30.1817 23.1406   1
   9  -3  19 181.618 31.4174  -2
 -10  -3 -18 181.618 31.4174   1
 -10  -3 -19 4.00253 21.7766   1
 -10  -4  24 97.2178 17.9750   1
 -10  -4  23 259.953 19.5471   1
 -10  -4  22-2.64999 21.0027   1
 -10  -4  21 422.342 32.0897   1
 -10   4  20 55.8222 19.9167   1
 -10  -4  19 442.079 23.1536   1
 -10  -4  18 15.9443 21.9226   1
 -10   4  17 2037.67 43.9693   1
 -10   4  16 11.9976 32.4068   1
 -10   4  15 53.3003 28.8251   1
 -10   4  14 129.802 26.0350   1
 -10   4  13 1781.37 35.1701   1
 -10   4  12 187.930 22.5471   1
 -10   4  11-3.12567 20.6573   1
 -10   4  10 90.9666 16.9300   1
 -10   4   9 2459.57 31.1558   1
  10  -4  -8 126.655 26.1100   1
  10  -4  -7 7600.36 90.4824   1
 -10  -4   5 1725.98 56.7574  -2
  10  -4  -6 1725.98 56.7574   1
 -10  -4   4 590.200 47.5201  -2
  10  -4  -5 590.200 47.5201   1
 -10  -4   3 3813.18 68.5686  -2
  10  -4  -4 3813.18 68.5686   1
 -10   4   3 6023.18 111.912   1
 -10  -4   2 6001.50 102.064  -2
  10  -4  -3 6001.50 102.064   1
 -10  -4   1 1064.55 47.3834  -2
  10  -4  -2 1064.55 47.3834   1
 -10   4   1 292.835 52.9638   1
 -10  -4   0 381.039 50.8120  -2
  10  -4  -1 381.039 50.8120   1
 -10   4   0 51.4403 28.1678   1
  10   4   1 155.688 32.1975   1
 -10   4  -2 100.551 16.8629   1
 -10  -4  -3 351.732 15.7856   1
 -10   4  -4 310.989 14.5831   1
  10  -4   5 833.964 18.6878   1
 -10   4  -6 479.439 19.0479   1
 -10   4  -7 2523.66 32.7004   1
 -10   4  -8 1025.71 29.5063   1
 -10   4  -9 416.281 26.3856   1
 -10   4 -10 176.442 28.5473   1
   9   4  11 1351.49 389.936  -2
 -10   4 -10 1351.49 389.936   1
 -10  -4 -11 1048.08 55.9431   1
   9   4  12 1448.00 48.8708  -2
 -10   4 -11 1448.00 48.8708   1
 -10  -4 -12 29.8828 47.1578   1
   9   4  13 28.9642 39.6644  -2
 -10   4 -12 28.9642 39.6644   1
   9   4  14 303.852 31.5039  -2
 -10   4 -13 303.852 31.5039   1
   9   4  15 196.733 28.6006  -2
 -10   4 -14 196.733 28.6006   1
   9   4  16 186.524 29.6374  -2
 -10   4 -15 186.524 29.6374   1
   9   4  17 6.00441 24.7232  -2
 -10   4 -16 6.00441 24.7232   1
   9  -4  18 18.2264 34.3383  -2
 -10  -4 -17 18.2264 34.3383   1
   9  -4  19 130.158 29.7176  -2
 -10  -4 -18 130.158 29.7176   1
 -10  -5  24 4.58107 12.6461   1
 -10  -5  23-2.47730 19.9543   1
 -10  -5  22-2.10006 20.2855   1
 -10  -5  21 5.47053 28.2596   1
 -10   5  20 6.85035 18.5435   1
 -10   5  19 7.57157 20.6361   1
 -10  -5  18 7.38086 21.5739   1
 -10  -5  17 12.6981 22.3636   1
 -10  -5  16 25.9960 23.0570   1
 -10  -5  15 536.614 23.6718   1
 -10   5  14 44.9530 26.5869   1
 -10   5  13 360.352 24.6456   1
 -10   5  12 122.485 22.6213   1
 -10   5  11 36.8602 21.1209   1
 -10   5  10 14.4781 16.7780   1
 -10   5   9 49.7990 17.4607   1
 -10   5   8 26.5787 19.2767   1
  10  -5  -7 515.721 16.7014   1
  10   5  -6 569.928 47.9006  -2
 -10   5   7 569.928 47.9006   1
 -10  -5   6-0.83461 21.3389   1
  10   5  -5 233.474 27.1730  -2
 -10   5   6 233.474 27.1730   1
 -10   5   5 871.243 30.0631   1
 -10  -5   4 1104.85 38.7440  -2
  10  -5  -5 1104.85 38.7440   1
 -10  -5   3 457.831 35.0052  -2
  10  -5  -4 457.831 35.0052   1
  10  -5  -2 67.2515 31.5226  -2
 -10  -5   3 67.2515 31.5226   1
  10  -5  -1 463.526 34.2500  -2
 -10  -5   2 463.526 34.2500   1
 -10   5   1 1133.10 28.4175   1
  10   5   0 1230.47 48.8872  -2
 -10   5   1 1230.47 48.8872   1
 -10  -5   0 152.293 27.3795   1
  10   5   1 211.768 43.7429  -2
 -10   5   0 211.768 43.7429   1
 -10  -5  -1 126.054 17.7764   1
 -10  -5  -2 198.303 16.9680   1
 -10  -5  -3 578.533 17.8056   1
 -10   5  -4 422.963 16.8485   1
 -10  -5  -5 581.226 19.3410   1
 -10  -5  -6 46.9190 18.0881   1
 -10   5  -7 2.48027 19.3195   1
 -10   5  -8 376.694 25.3886   1
 -10   5  -9 262.913 25.9154   1
   9   5  10 509.881 306.885  -2
 -10   5  -9 509.881 306.885   1
 -10   5 -10 61.0233 26.3967   1
   9   5  11 1181.14 378.700  -2
 -10   5 -10 1181.14 378.700   1
 -10  -5 -11 132.172 45.1949   1
   9   5  12 220.323 40.1848  -2
 -10   5 -11 220.323 40.1848   1
 -10  -5 -12 676.496 49.7077   1
   9   5  13 689.238 42.2595  -2
 -10   5 -12 689.238 42.2595   1
 -10  -5 -13 159.283 44.3436   1
   9   5  14 139.126 35.3687  -2
 -10   5 -13 139.126 35.3687   1
   9   5  15 247.275 27.4007  -2
 -10   5 -14 247.275 27.4007   1
   9   5  16 159.660 23.8969  -2
 -10   5 -15 159.660 23.8969   1
   9  -5  17 15.0437 37.4168  -2
 -10  -5 -16 15.0437 37.4168   1
   9  -5  18 36.3965 31.7730  -2
 -10  -5 -17 36.3965 31.7730   1
   9  -5  19 1.08848 28.8503  -2
 -10  -5 -18 1.08848 28.8503   1
 -10  -6  23 9.52454 14.4359   1
 -10  -6  22 305.242 23.0647   1
 -10  -6  21 97.7587 36.1400   1
 -10  -6  20 17.0266 29.3595   1
 -10  -6  19 140.822 20.2079   1
 -10  -6  18 562.846 23.5689   1
 -10   6  17 82.9749 21.9448   1
 -10   6  16 146.848 22.7487   1
 -10  -6  15 32.5915 21.8434   1
 -10  -6  14 1464.80 26.6332   1
 -10  -6  13 1060.09 23.7729   1
 -10   6  12 117.409 18.6004   1
 -10   6  11 22.9479 15.4436   1
 -10   6  10 1191.81 19.4844   1
  10  -6  -9 1746.04 22.8075   1
 -10   6   8 78.8502 15.7451   1
 -10   6   8 73.1616 55.4814  -2
  10   6  -8 73.1616 55.4814   1
 -10  -6   7 258.863 20.3177   1
 -10   6   7 266.343 54.4040  -2
  10   6  -7 266.343 54.4040   1
  10   6  -6 499.346 40.5263  -2
 -10   6   7 499.346 40.5263   1
 -10   6   6 807.308 26.7482   1
  10   6  -5 778.597 32.7977  -2
 -10   6   6 778.597 32.7977   1
 -10  -6   4 212.314 20.9582  -2
  10  -6  -5 212.314 20.9582   1
  10  -6  -3 409.121 21.4080  -2
 -10  -6   4 409.121 21.4080   1
  10   6  -2 196.518 21.6889  -2
 -10   6   3 196.518 21.6889   1
  10   6  -2 65.6576 19.3090   1
  10  -6  -1 136.414 33.9722  -2
 -10  -6   2 136.414 33.9722   1
 -10  -6   1 104.606 19.7632   1
  10   6   0 135.163 36.8512  -2
 -10   6   1 135.163 36.8512   1
 -10  -6   0 253.322 17.3805   1
  10   6   1 852.770 47.5039  -2
 -10   6   0 852.770 47.5039   1
 -10  -6  -1 2773.49 30.3714   1
  10   6   2 1328.40 28.1537   1
 -10  -6  -3 162.608 16.4671   1
 -10  -6  -4 22.5669 16.3893   1
 -10  -6  -5 397.578 19.6762   1
 -10  -6  -6 46.8398 17.4728   1
 -10   6  -7 423.923 22.4247   1
 -10  -6  -8 12.2468 22.8025   1
 -10  -6  -9 384.458 34.5563   1
 -10  -6 -10 248.600 32.3542   1
   9   6  11 1380.00 389.912  -2
 -10   6 -10 1380.00 389.912   1
 -10  -6 -11-4.13457 41.2526   1
   9   6  12-1.03250 36.5006  -2
 -10   6 -11-1.03250 36.5006   1
 -10  -6 -12 64.3318 41.5514   1
   9   6  13 82.4706 34.4954  -2
 -10   6 -12 82.4706 34.4954   1
   9  -6  14 36.0908 36.3031  -2
 -10  -6 -13 36.0908 36.3031   1
   9  -6  15 67.3792 34.3640  -2
 -10  -6 -14 67.3792 34.3640   1
   9  -6  16 16.2513 30.8023  -2
 -10  -6 -15 16.2513 30.8023   1
   9  -6  17 57.5132 33.7547  -2
 -10  -6 -16 57.5132 33.7547   1
   9  -6  18 34.1535 28.3541  -2
 -10  -6 -17 34.1535 28.3541   1
 -10  -7  23 7.09076 16.3927   1
 -10  -7  22 59.1066 16.2640   1
 -10  -7  21 34.5569 22.7817   1
 -10  -7  20 201.983 36.2658   1
 -10  -7  19 21.4135 19.8886   1
 -10  -7  18-3.36668 19.5568   1
 -10  -7  17 17.0181 20.4920   1
 -10  -7  16 22.2845 21.1774   1
 -10  -7  15 92.4836 22.4298   1
 -10  -7  14 86.9044 22.1481   1
 -10  -7  13 99.3707 20.9330   1
 -10   7  12 6.02724 18.0565   1
 -10   7  11 1041.60 19.7993   1
 -10   7  10 0.28204 15.5107   1
 -10   7   9 106.877 15.6567   1
 -10   7   8 108.476 16.9366   1
 -10   7   8 186.538 59.9683  -2
  10   7  -8 186.538 59.9683   1
  10  -7  -7 178.244 23.7335   1
 -10   7   7 271.833 57.8169  -2
  10   7  -7 271.833 57.8169   1
  10   7  -6 205.203 41.4797  -2
 -10   7   7 205.203 41.4797   1
 -10  -7   6 92.3167 24.7741   1
  10   7  -5 119.929 32.5349  -2
 -10   7   6 119.929 32.5349   1
 -10  -7   5 25.9134 55.6977   1
 -10  -7   4 79.5970 22.9927  -2
  10  -7  -5 79.5970 22.9927   1
  10   7  -3 374.423 22.3887  -2
 -10   7   4 374.423 22.3887   1
  10   7  -3 243.345 24.2837   1
  10   7  -2 322.557 33.0406  -2
 -10   7   3 322.557 33.0406   1
  10   7  -2 109.823 22.9197   1
  10  -7  -1 134.873 31.1858  -2
 -10  -7   2 134.873 31.1858   1
 -10  -7   1 25.0387 20.2380   1
  10   7   0 24.4940 31.7938  -2
 -10   7   1 24.4940 31.7938   1
  10   7   0 81.8830 17.9073   1
  10   7   1 102.758 37.1831  -2
 -10   7   0 102.758 37.1831   1
 -10  -7  -1 15.5315 14.4951   1
 -10  -7  -2 980.145 25.1896   1
 -10  -7  -3 297.536 19.4436   1
 -10   7  -4 124.757 19.5358   1
  10  -7   5 520.969 21.2056   1
 -10  -7  -6 585.198 23.5692   1
 -10  -7  -7 20.7924 24.4061   1
 -10  -7  -8 40.3529 28.8506   1
 -10  -7  -9 50.2773 30.5788   1
   9   7  10 865.204 346.037  -2
 -10   7  -9 865.204 346.037   1
 -10  -7 -10 38.2045 31.7833   1
   9   7  11 239.157 368.678  -2
 -10   7 -10 239.157 368.678   1
 -10  -7 -11 671.821 44.4884   1
   9   7  12 751.078 72.5446  -2
 -10   7 -11 751.078 72.5446   1
 -10  -7 -12-4.83520 39.0116   1
   9   7  13 61.9508 65.4285  -2
 -10   7 -12 61.9508 65.4285   1
   9  -7  14 478.652 37.8171  -2
 -10  -7 -13 478.652 37.8171   1
   9  -7  15 92.5383 32.2752  -2
 -10  -7 -14 92.5383 32.2752   1
   9  -7  16 271.172 30.0489  -2
 -10  -7 -15 271.172 30.0489   1
   9  -7  17 5.12302 29.2907  -2
 -10  -7 -16 5.12302 29.2907   1
 -10  -8  22 1053.43 22.2603   1
 -10  -8  21 542.125 21.0502   1
 -10  -8  20 38.0030 21.8453   1
 -10  -8  19 22.5119 34.8107   1
 -10  -8  18 305.559 21.7221   1
  10  -8 -17 235.478 17.7093   1
 -10  -8  16 11.5719 22.1598   1
 -10  -8  15 483.151 25.2389   1
 -10  -8  14 60.4955 21.7479   1
 -10  -8  13 23.3734 21.0649   1
 -10  -8  12 204.722 19.9466   1
  10   8 -11 828.052 21.2078   1
 -10   8  10 2488.73 29.6026   1
 -10   8  10 3227.74 78.1670  -2
  10   8 -10 3227.74 78.1670   1
 -10  -8   9 77.1750 16.6214   1
  10  -8  -8 319.618 23.8551   1
 -10   8   8 458.718 63.8775  -2
  10   8  -8 458.718 63.8775   1
  10   8  -7 1161.08 54.3863  -2
 -10   8   8 1161.08 54.3863   1
 -10  -8   7 3257.61 41.2061   1
 -10   8   7 4183.67 75.7683  -2
  10   8  -7 4183.67 75.7683   1
  10   8  -6 3069.03 54.7024  -2
 -10   8   7 3069.03 54.7024   1
 -10  -8   6 267.541 22.2359   1
  10   8  -5 528.109 40.1693  -2
 -10   8   6 528.109 40.1693   1
 -10  -8   5 1211.41 66.0440   1
  10   8  -4 1082.98 28.0366  -2
 -10   8   5 1082.98 28.0366   1
 -10  -8   4 557.995 63.2794   1
 -10   8   4 421.760 88.6539  -2
  10   8  -4 421.760 88.6539   1
  10   8  -3 487.777 28.4691  -2
 -10   8   4 487.777 28.4691   1
 -10  -8   3 82.0847 58.6531   1
 -10   8   3 17.1798 81.7564  -2
  10   8  -3 17.1798 81.7564   1
  10   8  -2 308.367 26.8348  -2
 -10   8   3 308.367 26.8348   1
  10   8  -2 864.304 30.0146   1
  10  -8  -1 1266.19 45.3580  -2
 -10  -8   2 1266.19 45.3580   1
  10   8  -1 1253.88 31.6877   1
  10   8   0 1451.81 54.8157  -2
 -10   8   1 1451.81 54.8157   1
 -10  -8   0 574.322 21.5653   1
  10   8   1 708.359 48.4452  -2
 -10   8   0 708.359 48.4452   1
 -10   8  -1 474.524 18.2304   1
 -10  -8  -2 89.7284 15.4632   1
 -10  -8  -3 63.7973 19.7921   1
 -10  -8  -4 21.1276 19.8273   1
 -10  -8  -5 542.984 24.6660   1
  10   8   6 147.587 30.2381   1
 -10   8  -7 479.810 45.4215   1
 -10  -8  -8 800.176 33.7444   1
 -10  -8  -9 394.673 31.7817   1
   9   8  10 845.907 343.519  -2
 -10   8  -9 845.907 343.519   1
 -10  -8 -10 76.8229 29.6458   1
   9   8  11 1091.49 354.635  -2
 -10   8 -10 1091.49 354.635   1
 -10  -8 -11 215.385 37.7935   1
   9   8  12 251.822 69.9744  -2
 -10   8 -11 251.822 69.9744   1
 -10  -8 -12 2.83889 35.7008   1
   9   8  13 32.3449 63.0707  -2
 -10   8 -12 32.3449 63.0707   1
 -10  -8 -13 175.234 33.5858   1
   9   8  14 327.389 65.2891  -2
 -10   8 -13 327.389 65.2891   1
   9  -8  15 101.670 28.8944  -2
 -10  -8 -14 101.670 28.8944   1
   9  -8  16 68.4914 25.8400  -2
 -10  -8 -15 68.4914 25.8400   1
 -10  -9  22 23.1092 21.6057   1
 -10  -9  21 68.8109 18.6688   1
 -10  -9  20 11.4205 20.8587   1
 -10   9  19 23.0359 20.6260   1
 -10   9  18 49.1335 15.7652   1
 -10   9  17 31.1456 13.8936   1
  10  -9 -16 0.41916 15.0123   1
 -10  -9  15 48.0554 18.5694   1
 -10  -9  14 143.157 19.7745   1
 -10  -9  13 305.680 20.8434   1
 -10   9  12 9.67662 18.9857   1
  10   9 -11 34.2114 17.2176   1
 -10  -9  10 16.5516 17.5690   1
 -10  -9   9 123.379 20.3641   1
 -10   9   9 185.572 64.7890  -2
  10   9  -9 185.572 64.7890   1
 -10  -9   8 17.0944 22.6852   1
 -10   9   8 60.5047 62.8824  -2
  10   9  -8 60.5047 62.8824   1
  10   9  -7 168.405 47.1083  -2
 -10   9   8 168.405 47.1083   1
 -10   9   7 500.893 29.8297   1
 -10   9   7 647.092 64.4350  -2
  10   9  -7 647.092 64.4350   1
  10   9  -6 577.862 42.0708  -2
 -10   9   7 577.862 42.0708   1
 -10   9   6 92.6693 27.2404   1
 -10   9   6 148.980 61.0345  -2
  10   9  -6 148.980 61.0345   1
  10   9  -5 106.509 34.7083  -2
 -10   9   6 106.509 34.7083   1
 -10  -9   5 176.849 61.0288   1
  10   9  -4 375.851 28.6485  -2
 -10   9   5 375.851 28.6485   1
 -10  -9   4 1065.58 71.4383   1
 -10   9   4 910.174 102.631  -2
  10   9  -4 910.174 102.631   1
  10   9  -3 1008.13 39.9048  -2
 -10   9   4 1008.13 39.9048   1
 -10  -9   3 697.766 66.1412   1
 -10   9   3 655.154 97.4309  -2
  10   9  -3 655.154 97.4309   1
  10   9  -2 829.234 38.3375  -2
 -10   9   3 829.234 38.3375   1
 -10   9   2 1108.39 33.0506   1
  10   9  -1 1027.58 89.6604  -2
 -10   9   2 1027.58 89.6604   1
  10   9  -1 104.481 24.3885   1
  10   9   0 482.097 52.0502  -2
 -10   9   1 482.097 52.0502   1
 -10  -9   0 1607.27 44.5747   1
  10   9   1 1969.05 48.5007  -2
 -10   9   0 1969.05 48.5007   1
 -10  -9  -1 72.5529 16.0359   1
 -10  -9  -2 168.263 16.4580   1
 -10  -9  -3 1257.01 22.2344   1
  10   9   4 4.05181 21.7556   1
 -10   9  -5 668.885 34.7486   1
 -10   9  -6 5.52777 41.3799   1
 -10   9  -7 194.741 48.3827   1
 -10   9  -8 371.672 48.0602   1
 -10   9  -9 6.46864 47.9727   1
   9   9  10 278.557 320.828  -2
 -10   9  -9 278.557 320.828   1
   9   9  11-12.5457 74.8509  -2
 -10   9 -10-12.5457 74.8509   1
   9   9  12 226.414 70.7731  -2
 -10   9 -11 226.414 70.7731   1
   9   9  13 127.883 67.2524  -2
 -10   9 -12 127.883 67.2524   1
   9   9  14 102.092 58.7886  -2
 -10   9 -13 102.092 58.7886   1
   9   9  15 83.3439 52.0825  -2
 -10   9 -14 83.3439 52.0825   1
   9   9  16 21.4286 42.4040  -2
 -10   9 -15 21.4286 42.4040   1
 -10 -10  21 50.8898 21.8875   1
 -10 -10  20 58.2459 18.0777   1
 -10 -10  19 169.270 21.1021   1
 -10 -10  18 245.504 32.1045   1
  10 -10 -17 504.592 21.8687   1
  10 -10 -16-9.50777 15.7917   1
  10 -10 -15 5.92909 16.9159   1
  10 -10 -14 3.46791 17.4188   1
 -10 -10  13 131.402 22.4807   1
 -10 -10  12 191.387 23.0538   1
 -10  10  11 1448.28 42.0787   1
  10  10 -10 432.745 24.3203   1
  10  10  -9 6.39333 22.3524   1
  10 -10  -8 22.2238 21.3466   1
 -10  10   7 407.357 30.3990   1
 -10  10   7 543.527 66.5904  -2
  10  10  -7 543.527 66.5904   1
 -10 -10   6 259.037 83.7090  -2
  10 -10  -7 259.037 83.7090   1
 -10 -10   6 115.605 65.9823   1
 -10  10   6 287.648 64.1712  -2
  10  10  -6 287.648 64.1712   1
  10  10  -5 349.902 42.0923  -2
 -10  10   6 349.902 42.0923   1
 -10 -10   5 1086.45 74.5757   1
 -10  10   5 1243.75 65.4493  -2
  10  10  -5 1243.75 65.4493   1
  10  10  -4 1048.79 45.8178  -2
 -10  10   5 1048.79 45.8178   1
 -10 -10   4 90.9606 64.3123   1
 -10  10   4-6.79603 109.047  -2
  10  10  -4-6.79603 109.047   1
  10  10  -3 94.0816 35.8873  -2
 -10  10   4 94.0816 35.8873   1
 -10 -10   3 265.285 68.9367   1
 -10  10   3 219.111 107.710  -2
  10  10  -3 219.111 107.710   1
  10  10  -2 308.727 37.6360  -2
 -10  10   3 308.727 37.6360   1
 -10 -10   2 315.873 30.1316   1
 -10  10   2 379.944 109.283  -2
  10  10  -2 379.944 109.283   1
 -10 -10   1 6409.98 54.8690   1
  10  10   0 6274.78 91.6168  -2
 -10  10   1 6274.78 91.6168   1
 -10 -10   0 590.796 23.9762   1
 -10  10   0 655.535 109.789  -2
  10  10   0 655.535 109.789   1
 -10 -10  -1 74.7514 20.2415   1
 -10 -10  -2 26.4101 19.5496   1
 -10 -10  -3 2119.94 33.3984   1
 -10 -10  -4 112.712 21.3661   1
 -10 -10  -5 823.774 39.6799   1
 -10 -10  -6 45.0712 33.1725   1
 -10  10  -7 282.603 47.8421   1
 -10  10  -8 553.911 47.5219   1
 -10  10  -9 311.217 45.7363   1
   9  10  11 181.665 71.6720  -2
 -10  10 -10 181.665 71.6720   1
   9  10  12 120.504 66.7630  -2
 -10  10 -11 120.504 66.7630   1
   9  10  13 66.2980 61.1527  -2
 -10  10 -12 66.2980 61.1527   1
   9  10  14 203.889 57.1077  -2
 -10  10 -13 203.889 57.1077   1
   9  10  15 79.0326 47.2765  -2
 -10  10 -14 79.0326 47.2765   1
   9  10  16 162.898 38.5525  -2
 -10  10 -15 162.898 38.5525   1
 -10 -11  20 24.1336 20.7116   1
 -10 -11  19 61.2405 16.3910   1
 -10 -11  18 40.5615 18.3419   1
  10 -11 -17 87.5169 13.6719   1
  10 -11 -16 48.2779 15.0782   1
  10 -11 -15-2.80252 15.6721   1
  10 -11 -14 2.24357 16.2617   1
  10 -11 -13 7.41727 16.7690   1
  10 -11 -12 140.599 17.8817   1
 -10  11  11 740.888 35.7906   1
 -10  11  10 421.407 29.7629   1
 -10  11  10 540.897 63.0266  -2
  10  11 -10 540.897 63.0266   1
 -10 -11   9 199.101 27.2100   1
 -10  11   9 321.020 64.1523  -2
  10  11  -9 321.020 64.1523   1
 -10  11   8 66.4744 28.1142   1
 -10  11   8 161.511 63.1809  -2
  10  11  -8 161.511 63.1809   1
 -10 -11   7 453.095 30.9183   1
 -10  11   7 629.095 66.1703  -2
  10  11  -7 629.095 66.1703   1
 -10 -11   6 64.7635 27.6259   1
 -10  11   6 38.6182 63.4302  -2
  10  11  -6 38.6182 63.4302   1
 -10 -11   5 167.054 67.5198   1
 -10  11   5 214.833 62.3832  -2
  10  11  -5 214.833 62.3832   1
  10  11  -4 144.671 42.1644  -2
 -10  11   5 144.671 42.1644   1
 -10 -11   4 50.0724 62.6907   1
  10  11  -3 55.3175 41.7736  -2
 -10  11   4 55.3175 41.7736   1
 -10 -11   3 0.02804 65.7136   1
  10  11  -2 106.726 43.0115  -2
 -10  11   3 106.726 43.0115   1
 -10 -11   2 258.036 30.5316   1
 -10 -11   1 133.793 29.2450   1
 -10 -11   0 296.229 44.5110  -2
  10 -11  -1 296.229 44.5110   1
 -10  11   0 537.569 30.7959   1
  10  11   1 536.116 71.0448  -2
 -10  11   0 536.116 71.0448   1
 -10 -11  -1 357.230 23.6196   1
 -10 -11  -2 27.2097 21.3555   1
 -10 -11  -3 64.1799 21.2494   1
 -10 -11  -4 353.432 22.1250   1
 -10  11  -5 792.141 23.2987   1
 -10  11  -6 286.514 33.0200   1
 -10  11  -7 10.5214 43.5624   1
 -10  11  -8-8.69055 43.1998   1
 -10  11  -9 339.771 44.9411   1
 -10  11 -10 177.111 39.8003   1
   9  11  12 158.797 58.6688  -2
 -10  11 -11 158.797 58.6688   1
   9  11  13 4.38167 55.9558  -2
 -10  11 -12 4.38167 55.9558   1
   9  11  14 301.867 50.1583  -2
 -10  11 -13 301.867 50.1583   1
   9  11  15 109.319 39.6837  -2
 -10  11 -14 109.319 39.6837   1
 -10 -12  18 284.682 23.7925   1
  10 -12 -17 85.9953 16.2629   1
  10 -12 -16 9.76597 13.1731   1
  10 -12 -15 1.33060 14.4573   1
  10 -12 -14-0.69933 15.1232   1
  10 -12 -13 52.4675 19.9389   1
  10 -12 -12 28.1175 20.9830   1
  10 -12 -11 144.653 23.1428   1
  10 -12 -10 137.411 23.7241   1
 -10 -12   9 320.057 24.9520   1
 -10  12   9 309.601 61.4531  -2
  10  12  -9 309.601 61.4531   1
 -10 -12   8 296.426 23.0208   1
 -10  12   8 377.838 62.9345  -2
  10  12  -8 377.838 62.9345   1
 -10 -12   7 962.192 33.1458   1
 -10  12   7 1127.73 67.2318  -2
  10  12  -7 1127.73 67.2318   1
 -10 -12   6 1164.71 54.3572  -2
  10 -12  -7 1164.71 54.3572   1
 -10 -12   6 555.290 67.4342   1
 -10  12   6 626.897 64.1293  -2
  10  12  -6 626.897 64.1293   1
 -10 -12   5 757.880 34.7085  -2
  10 -12  -6 757.880 34.7085   1
 -10 -12   5 1262.70 74.4186   1
 -10  12   5 1358.40 69.2534  -2
  10  12  -5 1358.40 69.2534   1
 -10 -12   4 1099.42 35.8618  -2
  10 -12  -5 1099.42 35.8618   1
 -10 -12   4 169.896 69.1674   1
 -10  12   4 212.280 63.6436  -2
  10  12  -4 212.280 63.6436   1
 -10 -12   3 174.186 31.0542  -2
  10 -12  -4 174.186 31.0542   1
 -10 -12   3 31.7183 71.0138   1
  10  12  -2 966.670 48.4676  -2
 -10  12   3 966.670 48.4676   1
 -10 -12   2 3359.78 45.9521   1
 -10 -12   1 3391.24 62.7858  -2
  10 -12  -2 3391.24 62.7858   1
 -10 -12   1 12.4251 27.9312   1
 -10 -12   0 85.4487 42.5277  -2
  10 -12  -1 85.4487 42.5277   1
 -10 -12   0 154.566 27.0207   1
  10  12   1 180.439 63.8170  -2
 -10  12   0 180.439 63.8170   1
 -10  12  -1 489.839 25.4583   1
  10 -12   1 764.774 72.1435  -2
 -10 -12  -1 764.774 72.1435   1
 -10 -12  -2 59.2917 21.6595   1
 -10 -12  -3 816.466 26.9161   1
 -10  12  -4 167.980 21.1779   1
 -10  12  -5 322.862 20.8707   1
 -10 -12  -6 428.327 31.8675   1
 -10  12  -7 19.5785 41.8432   1
 -10  12  -8 22.9273 40.2868   1
 -10  12  -9 65.9153 39.5508   1
 -10  12 -10 215.214 37.7531   1
   9  12  12 61.4740 54.3936  -2
 -10  12 -11 61.4740 54.3936   1
   9  12  13 1.61172 46.7671  -2
 -10  12 -12 1.61172 46.7671   1
   9  12  14-0.93041 39.3080  -2
 -10  12 -13-0.93041 39.3080   1
  10 -13 -16 75.8718 22.0801   1
  10 -13 -15-6.04006 15.2928   1
  10 -13 -14 5.49479 17.0691   1
  10 -13 -13 3.13525 18.2151   1
  10 -13 -12-2.82507 19.9301   1
  10 -13 -11 25.4595 20.9299   1
  10 -13 -10 9.44156 21.7105   1
 -10 -13   9 18.7628 20.4390   1
 -10  13   9 44.0813 57.9439  -2
  10  13  -9 44.0813 57.9439   1
  10 -13  -8 9.26127 20.7957   1
 -10  13   8 16.5099 58.0279  -2
  10  13  -8 16.5099 58.0279   1
 -10  13   7 293.830 28.7786   1
 -10  13   7 345.856 61.3386  -2
  10  13  -7 345.856 61.3386   1
 -10 -13   6 401.386 46.9728  -2
  10 -13  -7 401.386 46.9728   1
 -10 -13   6 181.582 61.7993   1
 -10  13   6 203.046 59.4587  -2
  10  13  -6 203.046 59.4587   1
 -10 -13   5 216.400 31.1962  -2
  10 -13  -6 216.400 31.1962   1
 -10 -13   5 136.794 65.3616   1
 -10  13   5 158.579 60.6389  -2
  10  13  -5 158.579 60.6389   1
 -10 -13   4 106.770 31.2589  -2
  10 -13  -5 106.770 31.2589   1
 -10 -13   4 22.3736 67.0644   1
 -10  13   4 59.3345 60.3731  -2
  10  13  -4 59.3345 60.3731   1
 -10 -13   3 102.414 31.4505  -2
  10 -13  -4 102.414 31.4505   1
 -10 -13   3 265.220 69.5937   1
 -10  13   3 296.893 62.6227  -2
  10  13  -3 296.893 62.6227   1
 -10 -13   2 244.883 30.8726  -2
  10 -13  -3 244.883 30.8726   1
 -10 -13   2 58.3641 27.5671   1
 -10 -13   1 322.366 43.7112  -2
  10 -13  -2 322.366 43.7112   1
 -10  13   1 955.058 33.3656   1
 -10 -13   0 984.428 45.4245  -2
  10 -13  -1 984.428 45.4245   1
 -10 -13   0 299.114 22.5598   1
 -10 -13  -1 144.688 23.3835   1
 -10  13  -2 13.6627 21.7825   1
  10 -13   2 5.81378 64.4851  -2
 -10 -13  -2 5.81378 64.4851   1
 -10 -13  -3 199.050 20.9533   1
 -10  13  -4 121.340 21.2144   1
  10 -13   4 196.700 56.7938  -2
 -10 -13  -4 196.700 56.7938   1
 -10 -13  -5-5.50206 17.4204   1
 -10  13  -6 7.73182 27.8693   1
 -10  13  -7 28.3069 36.0296   1
 -10  13  -8-13.6751 34.2808   1
 -10  13  -9 35.5468 34.4302   1
 -10  13 -10 20.0179 30.2758   1
   9  13  12 168.558 48.2724  -2
 -10  13 -11 168.558 48.2724   1
   9  13  13 4.19415 33.0351  -2
 -10  13 -12 4.19415 33.0351   1
  10 -14 -15 55.5975 21.8358   1
  10 -14 -14 373.324 16.2950   1
  10 -14 -13 20.7084 16.8534   1
  10 -14 -12 36.9136 15.1610   1
  10 -14 -11 124.987 19.7331   1
  10 -14 -10 70.6494 20.7469   1
  10 -14  -9 943.651 25.2581   1
 -10 -14   8 59.4205 19.6007   1
 -10  14   8 87.9880 52.4030  -2
  10  14  -8 87.9880 52.4030   1
 -10 -14   7 376.820 55.5537   1
 -10  14   7 409.946 55.9898  -2
  10  14  -7 409.946 55.9898   1
 -10 -14   6 402.266 30.2189  -2
  10 -14  -7 402.266 30.2189   1
 -10 -14   6 205.752 55.4230   1
 -10  14   6 324.043 57.7913  -2
  10  14  -6 324.043 57.7913   1
 -10 -14   5 263.600 29.8602  -2
  10 -14  -6 263.600 29.8602   1
 -10 -14   5 93.0192 57.5515   1
 -10  14   5 147.823 57.6808  -2
  10  14  -5 147.823 57.6808   1
 -10 -14   4 111.698 29.6775  -2
  10 -14  -5 111.698 29.6775   1
 -10 -14   4 8.11858 59.6667   1
 -10  14   4 45.2747 57.6288  -2
  10  14  -4 45.2747 57.6288   1
 -10 -14   3 13.5907 28.5685  -2
  10 -14  -4 13.5907 28.5685   1
 -10 -14   3 30.8219 60.4992   1
 -10  14   3-5.67488 56.9288  -2
  10  14  -3-5.67488 56.9288   1
 -10 -14   2 275.748 29.9018  -2
  10 -14  -3 275.748 29.9018   1
 -10 -14   2 975.297 31.4950   1
 -10  14   2 1182.31 62.9892  -2
  10  14  -2 1182.31 62.9892   1
 -10 -14   1 1058.33 45.0921  -2
  10 -14  -2 1058.33 45.0921   1
 -10  14   1 262.847 27.2414   1
 -10  14   1 413.022 59.4900  -2
  10  14  -1 413.022 59.4900   1
 -10 -14   0 268.970 39.5734  -2
  10 -14  -1 268.970 39.5734   1
 -10 -14   0 9.59324 25.0595   1
 -10  14  -1 182.752 21.3273   1
  10 -14   1 333.694 62.4330  -2
 -10 -14  -1 333.694 62.4330   1
 -10 -14  -2 1156.84 26.0616   1
 -10 -14  -3 95.0691 18.8761   1
 -10  14  -4 42.7241 19.0081   1
  10 -14   4 127.436 50.3158  -2
 -10 -14  -4 127.436 50.3158   1
 -10  14  -5 27.6584 18.1923   1
  10 -14   5-1.76359 44.9022  -2
 -10 -14  -5-1.76359 44.9022   1
 -10 -14  -6 101.643 25.5558   1
 -10  14  -7 171.497 34.7907   1
 -10  14  -8 100.740 32.4862   1
 -10  14  -9 16.7812 28.2130   1
 -10  14 -10 43.5205 24.8167   1
 -10  14 -11 2.77126 20.4628   1
  10 -15 -14 0.82329 19.7213   1
  10 -15 -13 80.6367 13.9368   1
  10 -15 -12 1.23970 12.5603   1
  10 -15 -11 34.7679 14.3521   1
  10 -15 -10 6.94579 17.4657   1
  10 -15  -9 13.0888 18.8422   1
  10 -15  -8 60.3167 18.0307   1
 -10 -15   7 48.4745 23.1029   1
 -10  15   7 79.0895 47.7438  -2
  10  15  -7 79.0895 47.7438   1
 -10 -15   6 84.8951 42.0874  -2
  10 -15  -7 84.8951 42.0874   1
 -10 -15   6 37.8521 51.5834   1
 -10  15   6 50.8401 51.0284  -2
  10  15  -6 50.8401 51.0284   1
 -10 -15   5 63.1050 27.0339  -2
  10 -15  -6 63.1050 27.0339   1
 -10 -15   5 12.1093 53.5150   1
 -10  15   5 20.0469 50.9071  -2
  10  15  -5 20.0469 50.9071   1
 -10 -15   4 9.86133 26.9343  -2
  10 -15  -5 9.86133 26.9343   1
 -10 -15   4 12.8178 52.6351   1
 -10  15   4 36.5075 52.0359  -2
  10  15  -4 36.5075 52.0359   1
 -10 -15   3 25.9233 27.0674  -2
  10 -15  -4 25.9233 27.0674   1
 -10 -15   3 35.4541 55.5749   1
 -10  15   3 6.15297 43.1297  -2
  10  15  -3 6.15297 43.1297   1
 -10 -15   2 17.2014 26.3993  -2
  10 -15  -3 17.2014 26.3993   1
 -10  15   2 25.0035 39.1945  -2
  10  15  -2 25.0035 39.1945   1
 -10 -15   1 35.1173 25.5237  -2
  10 -15  -2 35.1173 25.5237   1
 -10 -15   1-2.65054 22.9984   1
 -10  15   1 9.96557 51.2926  -2
  10  15  -1 9.96557 51.2926   1
 -10  15   0 12.4034 24.6026   1
  10 -15   0 25.9752 37.0155  -2
 -10 -15   0 25.9752 37.0155   1
 -10  15  -1 108.441 24.7204   1
  10 -15   1 152.452 35.9588  -2
 -10 -15  -1 152.452 35.9588   1
 -10  15  -2-3.76537 17.9163   1
 -10  15  -2-8.42776 34.1791  -2
  10  15   2-8.42776 34.1791   1
 -10  15  -3 45.9452 17.8717   1
  10 -15   3 61.4664 46.6034  -2
 -10 -15  -3 61.4664 46.6034   1
 -10  15  -4 4.47725 16.6982   1
  10 -15   4 0.35823 43.1110  -2
 -10 -15  -4 0.35823 43.1110   1
 -10  15  -5 22.3659 15.3734   1
  10 -15   5 48.1822 38.4265  -2
 -10 -15  -5 48.1822 38.4265   1
 -10 -15  -6 76.5308 21.2800   1
 -10  15  -7 7.89948 27.4947   1
 -10  15  -8 45.4562 25.0367   1
 -10  15  -9 12.6332 21.6212   1
  10 -16 -12 290.759 21.6786   1
  10 -16 -11 237.979 16.1020   1
  10 -16 -10-0.56721 12.3933   1
  10 -16  -9 12.3550 15.4934   1
 -10  16   9 15.8946 43.2857  -2
  10  16  -9 15.8946 43.2857   1
  10 -16  -8 41.7655 16.7730   1
 -10  16   7 216.791 23.0060   1
 -10 -16   6 251.025 38.3143  -2
  10 -16  -7 251.025 38.3143   1
 -10 -16   6 29.4150 43.4173   1
 -10 -16   5 74.3723 24.2337  -2
  10 -16  -6 74.3723 24.2337   1
 -10 -16   5 142.224 46.9812   1
 -10  16   5 128.728 43.9114  -2
  10  16  -5 128.728 43.9114   1
 -10 -16   4 212.782 24.7012  -2
  10 -16  -5 212.782 24.7012   1
 -10 -16   4 286.508 47.8959   1
 -10  16   4 307.769 45.2570  -2
  10  16  -4 307.769 45.2570   1
 -10 -16   3 314.003 25.5001  -2
  10 -16  -4 314.003 25.5001   1
 -10 -16   3 5.25878 47.6261   1
 -10  16   3 78.9948 44.8049  -2
  10  16  -3 78.9948 44.8049   1
 -10 -16   2 49.3183 23.0978  -2
  10 -16  -3 49.3183 23.0978   1
 -10 -16   2 116.365 48.2472   1
 -10  16   2 113.031 44.3030  -2
  10  16  -2 113.031 44.3030   1
  10  16  -1 185.000 33.8774  -2
 -10  16   2 185.000 33.8774   1
 -10  16   1 269.867 21.4217   1
 -10  16   1 318.070 45.6965  -2
  10  16  -1 318.070 45.6965   1
 -10  16   0 143.070 23.4453   1
 -10  16   0 203.244 32.1229  -2
  10  16   0 203.244 32.1229   1
 -10  16  -1 1.50782 21.1370   1
  10 -16   1-5.78609 30.3921  -2
 -10 -16  -1-5.78609 30.3921   1
 -10  16  -2 6.50918 19.4778   1
  10 -16   2 76.3713 28.3996  -2
 -10 -16  -2 76.3713 28.3996   1
 -10  16  -3 46.4689 18.3302   1
  10 -16   3 66.0330 26.6012  -2
 -10 -16  -3 66.0330 26.6012   1
 -10  16  -4 27.2627 13.6195   1
  10 -16   4 12.9628 24.0706  -2
 -10 -16  -4 12.9628 24.0706   1
 -10 -16  -5 1.22550 17.7678   1
 -10  16  -5 34.2173 30.6034  -2
  10  16   5 34.2173 30.6034   1
 -10  16  -6 50.5243 27.8590  -2
  10  16   6 50.5243 27.8590   1
  10 -17 -10 1.25913 17.7222   1
  10 -17  -9 71.4250 20.1509   1
  10 -17  -8-0.64905 10.9335   1
 -10  17   7 62.9613 17.7313   1
 -10  17   7 44.8860 39.4641  -2
  10  17  -7 44.8860 39.4641   1
 -10 -17   6 70.7584 29.8013  -2
  10 -17  -7 70.7584 29.8013   1
 -10 -17   5 68.3612 19.6409  -2
  10 -17  -6 68.3612 19.6409   1
 -10 -17   4-5.57431 19.3998  -2
  10 -17  -5-5.57431 19.3998   1
 -10 -17   4 29.3160 35.3751   1
 -10 -17   3 47.9538 19.5020  -2
  10 -17  -4 47.9538 19.5020   1
 -10 -17   3 28.7549 36.5266   1
 -10  17   3 47.0653 33.9403  -2
  10  17  -3 47.0653 33.9403   1
  10  17  -2 69.6045 28.1195  -2
 -10  17   3 69.6045 28.1195   1
 -10 -17   2 56.5681 36.7453   1
 -10  17   2 25.8408 35.0624  -2
  10  17  -2 25.8408 35.0624   1
  10  17  -1 64.4553 27.5618  -2
 -10  17   2 64.4553 27.5618   1
 -10  17   1 20.0921 16.1382   1
 -10  17   1 46.8084 33.9189  -2
  10  17  -1 46.8084 33.9189   1
 -10  17   0 9.55763 17.4779   1
  10 -17   0 9.03284 23.7899  -2
 -10 -17   0 9.03284 23.7899   1
 -10  17  -1 30.4853 16.6163   1
  10 -17   1 26.9415 22.7531  -2
 -10 -17  -1 26.9415 22.7531   1
 -10  17  -2 125.913 15.8061   1
 -10  17  -2 169.945 21.7999  -2
  10  17   2 169.945 21.7999   1
 -10 -17  -3 8.19686 25.6696   1
  11   0 -23-1.93299 19.6770   1
 -11   0  21 19.8516 44.0587   1
 -11   0  19 11.7911 48.0149   1
 -11   0  17 370.659 53.8588   1
 -11   0  15 662.877 44.2124   1
 -11   0  13 166.288 37.7999   1
 -11   0  11 7.02332 33.1659   1
 -11   0   9 1325.97 33.6588   1
 -11   0   7 2038.51 53.5997   1
 -11   0   5 169.882 47.5686   1
  11   0  -3 272.720 46.8964   1
 -11   0   1 1246.58 51.0826   1
 -11   0  -1 5543.89 44.1615   1
 -11   0  -3 150.019 20.1420   1
 -11   0  -5 359.320 24.9824   1
 -11   0  -7 6949.98 67.4294   1
 -11   0  -9 150.183 51.2696   1
 -11   0 -11 505.493 55.2317   1
  10   0  12 652.695 339.832  -2
 -11   0 -11 652.695 339.832   1
  10   0  14 1583.12 61.3453  -2
 -11   0 -13 1583.12 61.3453   1
  10   0  16 974.378 48.8020  -2
 -11   0 -15 974.378 48.8020   1
  10   0  18 954.024 39.0119  -2
 -11   0 -17 954.024 39.0119   1
 -11  -1  24 182.255 21.8117   1
 -11   1  23 153.591 18.1330   1
 -11   1  22 411.337 18.7879   1
 -11   1  21 151.413 21.7714   1
 -11   1  20 104.866 33.0247   1
 -11   1  19 18.3907 33.7415   1
 -11   1  18 113.055 34.8517   1
 -11   1  17 186.471 34.8506   1
 -11   1  16 39.3660 34.3672   1
 -11   1  15 128.990 28.7335   1
 -11   1  14 2640.57 38.7693   1
 -11   1  13 297.256 27.7705   1
 -11   1  12 3365.72 40.8267   1
 -11   1  11-4.13267 24.2894   1
 -11   1  10 2550.79 30.3861   1
 -11   1   9 71.8017 20.7451   1
 -11   1   8 213.913 21.6565   1
 -11   1   7 100.006 20.5240   1
  11   1  -6 336.550 43.7664  -2
 -11   1   7 336.550 43.7664   1
  11   1  -5 1049.28 37.0207  -2
 -11   1   6 1049.28 37.0207   1
  11   1  -4 222.881 32.2785  -2
 -11   1   5 222.881 32.2785   1
  11   1  -3 743.006 35.6490  -2
 -11   1   4 743.006 35.6490   1
  11  -1  -2 761.913 35.8828  -2
 -11  -1   3 761.913 35.8828   1
  11  -1  -1 1226.46 37.8829  -2
 -11  -1   2 1226.46 37.8829   1
 -11  -1   0 241.226 25.6024  -2
  11  -1  -1 241.226 25.6024   1
 -11   1   0 822.467 28.3143   1
  11   1   1 1090.20 47.3908  -2
 -11   1   0 1090.20 47.3908   1
 -11   1  -1 1721.90 24.9284   1
 -11  -1  -2 1100.30 18.1630   1
 -11   1  -3 274.393 15.8772   1
 -11   1  -4 939.544 20.0700   1
 -11   1  -5 1281.35 21.6704   1
 -11   1  -6 992.386 23.0048   1
 -11   1  -7 385.340 26.2599   1
 -11   1  -8 457.737 29.3777   1
 -11   1  -9 268.932 29.1043   1
 -11   1 -10 220.290 29.0541   1
 -11   1 -11 203.787 35.8395   1
  10  -1  12-26.2563 223.039  -2
 -11  -1 -11-26.2563 223.039   1
 -11   1 -12 78.3984 35.0612   1
  10   1  14 594.711 38.9756  -2
 -11   1 -13 594.711 38.9756   1
  10   1  15 472.815 35.5864  -2
 -11   1 -14 472.815 35.5864   1
  10   1  16 3.07474 29.3965  -2
 -11   1 -15 3.07474 29.3965   1
  10   1  17 37.2670 26.2374  -2
 -11   1 -16 37.2670 26.2374   1
  10   1  18 37.8022 22.2348  -2
 -11   1 -17 37.8022 22.2348   1
  10  -1  19 55.2835 25.8039  -2
 -11  -1 -18 55.2835 25.8039   1
 -11  -2  24 6.89035 14.4441   1
 -11   2  23-3.20580 17.9590   1
 -11  -2  22 8.09329 14.4470   1
 -11   2  21 6.22130 18.4680   1
 -11   2  20 52.4680 32.7802   1
 -11   2  19 36.0965 33.3925   1
 -11   2  18 18.5758 34.2186   1
 -11   2  17 30.8534 34.8229   1
 -11   2  16 353.059 36.3979   1
 -11   2  15-11.7498 27.4055   1
 -11   2  14 509.061 29.5868   1
 -11  -2  13 486.714 28.5725   1
 -11   2  12 196.749 26.0460   1
 -11   2  11 36.9033 21.4460   1
 -11   2  10 55.5545 20.6427   1
 -11   2   9 152.092 20.6996   1
 -11  -2   8 264.751 20.5763   1
  11  -2  -7 842.570 49.8155   1
  11   2  -6 1647.56 43.5065  -2
 -11   2   7 1647.56 43.5065   1
  11  -2  -5 3413.21 46.0920  -2
 -11  -2   6 3413.21 46.0920   1
  11   2  -4 34.6108 25.0155  -2
 -11   2   5 34.6108 25.0155   1
  11   2  -3 729.345 28.5085  -2
 -11   2   4 729.345 28.5085   1
  11   2  -2 3372.47 45.6823  -2
 -11   2   3 3372.47 45.6823   1
  11  -2  -1 2385.96 35.9372  -2
 -11  -2   2 2385.96 35.9372   1
 -11   2   1 61.9129 35.9960   1
 -11  -2   0 163.169 34.2064  -2
  11  -2  -1 163.169 34.2064   1
 -11   2   0 442.375 21.2637   1
  11   2   1 449.082 45.9036  -2
 -11   2   0 449.082 45.9036   1
 -11  -2  -1 71.2730 14.0943   1
 -11   2  -2 2172.87 23.6419   1
 -11   2  -3 1555.87 22.0932   1
 -11   2  -4 659.524 18.7468   1
 -11   2  -5 190.637 17.5060   1
 -11   2  -6 905.387 23.7679   1
 -11   2  -7 1020.03 28.4481   1
 -11  -2  -8 45.5513 26.0393   1
 -11   2  -9 1804.85 36.5567   1
 -11   2 -10 2.22609 28.0722   1
 -11   2 -11 744.836 31.0044   1
  10   2  12 1647.24 422.257  -2
 -11   2 -11 1647.24 422.257   1
 -11  -2 -12 148.861 47.7506   1
  10   2  13 261.909 42.0571  -2
 -11   2 -12 261.909 42.0571   1
  10   2  14 222.386 36.0428  -2
 -11   2 -13 222.386 36.0428   1
  10   2  15 1833.70 41.4298  -2
 -11   2 -14 1833.70 41.4298   1
  10   2  16 70.4109 29.0489  -2
 -11   2 -15 70.4109 29.0489   1
  10   2  17 53.3232 25.4616  -2
 -11   2 -16 53.3232 25.4616   1
  10   2  18 32.0540 21.0486  -2
 -11   2 -17 32.0540 21.0486   1
  10  -2  19 47.1913 25.0092  -2
 -11  -2 -18 47.1913 25.0092   1
 -11  -3  24 4.14798 16.2117   1
  11  -3 -23 355.497 19.2978   1
 -11   3  22 32.8038 20.4913   1
 -11   3  21 10.4215 18.2699   1
 -11   3  20 167.369 21.5935   1
 -11   3  19 293.386 23.0165   1
 -11   3  18 89.2585 34.0200   1
 -11   3  17 107.937 34.6034   1
 -11   3  16 5.02813 34.0243   1
 -11   3  15 114.664 27.6144   1
 -11   3  14 24.0297 26.3795   1
 -11  -3  13 122.022 26.6127   1
 -11   3  12 1048.01 29.8143   1
 -11   3  11 907.762 25.6815   1
 -11   3  10 43.6482 21.7791   1
 -11   3   9 13.6360 21.4487   1
 -11   3   8 313.633 21.3253   1
  11  -3  -7 3501.47 39.0988   1
  11   3  -6 4338.03 55.5293  -2
 -11   3   7 4338.03 55.5293   1
  11   3  -6 1976.86 84.7142   1
 -11  -3   5 2120.41 42.3527  -2
  11  -3  -6 2120.41 42.3527   1
 -11  -3   4 650.332 30.0743  -2
  11  -3  -5 650.332 30.0743   1
  11   3  -3 1421.02 38.9359  -2
 -11   3   4 1421.02 38.9359   1
  11   3  -2 777.684 34.7156  -2
 -11   3   3 777.684 34.7156   1
  11   3  -1 306.136 28.7464  -2
 -11   3   2 306.136 28.7464   1
 -11   3   1 116.582 37.9776   1
 -11  -3   0 166.143 33.8814  -2
  11  -3  -1 166.143 33.8814   1
  11  -3   0 293.146 21.8424   1
  11   3   1 477.910 47.6819  -2
 -11   3   0 477.910 47.6819   1
 -11   3  -1 715.938 18.5137   1
 -11   3  -2 704.185 17.6230   1
 -11   3  -3 66.3313 15.7967   1
 -11  -3  -4 2953.44 28.1446   1
 -11  -3  -5 720.026 20.0568   1
 -11   3  -6 138.206 20.4076   1
 -11   3  -7 227.761 26.1059   1
 -11   3  -8 111.066 27.5124   1
 -11   3  -9 939.456 32.5005   1
 -11   3 -10 411.951 29.5126   1
 -11   3 -11 88.9011 27.2997   1
  10   3  12 1065.70 426.433  -2
 -11   3 -11 1065.70 426.433   1
 -11  -3 -12 28.9416 45.4164   1
  10   3  13 45.5761 40.0664  -2
 -11   3 -12 45.5761 40.0664   1
  10   3  14 405.826 31.0728  -2
 -11   3 -13 405.826 31.0728   1
  10   3  15 142.293 31.1302  -2
 -11   3 -14 142.293 31.1302   1
  10   3  16 61.3386 27.3515  -2
 -11   3 -15 61.3386 27.3515   1
  10   3  17 3.35661 23.8872  -2
 -11   3 -16 3.35661 23.8872   1
  10  -3  18 84.2422 31.3908  -2
 -11  -3 -17 84.2422 31.3908   1
  10  -3  19 21.4962 23.1428  -2
 -11  -3 -18 21.4962 23.1428   1
 -11  -4  24 6.36552 15.9820   1
  11  -4 -23-3.27742 17.1395   1
 -11  -4  22 5.71556 20.3002   1
 -11   4  21 39.4668 17.0734   1
 -11  -4  20 31.5800 19.6690   1
 -11   4  19 17.1207 21.0383   1
 -11  -4  18 456.333 24.2048   1
 -11   4  17 79.3018 23.2449   1
 -11  -4  16 56.5937 34.1175   1
 -11   4  15 38.0703 33.4602   1
 -11   4  14 255.277 27.6603   1
 -11   4  13 67.7001 26.0933   1
 -11   4  12 136.899 23.1982   1
 -11   4  11 882.347 25.7843   1
 -11   4  10 137.153 21.7271   1
  11  -4  -9 50.7705 27.1278   1
 -11   4   8 832.178 25.7298   1
  11  -4  -7 339.873 31.7692   1
  11   4  -6 396.284 41.3319  -2
 -11   4   7 396.284 41.3319   1
  11   4  -6 81.2781 57.6812   1
  11   4  -5 202.398 28.1703  -2
 -11   4   6 202.398 28.1703   1
  11   4  -4 742.996 25.4657  -2
 -11   4   5 742.996 25.4657   1
  11   4  -3 624.023 24.7452  -2
 -11   4   4 624.023 24.7452   1
  11   4  -2 56.7053 20.4159  -2
 -11   4   3 56.7053 20.4159   1
 -11   4   2 12.1363 52.2347   1
 -11  -4   1 112.835 29.2267  -2
  11  -4  -2 112.835 29.2267   1
  11  -4  -1 338.716 45.9626   1
  11   4   0 453.481 28.4582  -2
 -11   4   1 453.481 28.4582   1
 -11   4   0 353.457 26.6239   1
  11  -4   1 425.012 32.6784  -2
 -11  -4   0 425.012 32.6784   1
 -11  -4  -1 301.087 18.8701   1
 -11   4  -2 139.750 17.2718   1
 -11   4  -3 64.0029 17.2083   1
 -11   4  -4 75.5336 17.1194   1
 -11   4  -5 7.01102 18.7997   1
 -11  -4  -6 775.890 23.6895   1
 -11   4  -7-9.95991 24.5967   1
 -11   4  -8 404.337 27.5144   1
 -11   4  -9 902.509 31.2479   1
 -11   4 -10 2298.86 46.3243   1
 -11   4 -11 1497.59 34.3788   1
  10   4  12 2984.60 423.888  -2
 -11   4 -11 2984.60 423.888   1
 -11  -4 -12 47.3564 31.0620   1
  10   4  13 103.369 46.1523  -2
 -11   4 -12 103.369 46.1523   1
 -11  -4 -13 9.46665 41.8200   1
  10   4  14 71.4953 36.2868  -2
 -11   4 -13 71.4953 36.2868   1
  10   4  15 109.790 29.3644  -2
 -11   4 -14 109.790 29.3644   1
  10  -4  16 41.3777 26.0841  -2
 -11  -4 -15 41.3777 26.0841   1
  10  -4  17 36.3252 34.3561  -2
 -11  -4 -16 36.3252 34.3561   1
  10  -4  18 70.2126 29.1416  -2
 -11  -4 -17 70.2126 29.1416   1
 -11  -5  23 23.6720 14.8019   1
 -11  -5  22 261.656 23.2474   1
 -11  -5  21-3.83567 27.4011   1
 -11  -5  20 35.7918 18.3957   1
 -11  -5  19 584.943 23.1484   1
 -11  -5  18 713.874 24.9869   1
 -11   5  17 112.591 22.8584   1
 -11   5  16 118.875 23.2929   1
 -11  -5  15 27.3870 22.6103   1
 -11  -5  14 453.680 23.5545   1
 -11  -5  13 1229.69 32.5379   1
 -11  -5  12 404.509 24.5470   1
 -11   5  11 339.644 24.0100   1
 -11   5  10 405.342 22.7174   1
 -11   5   9 71.1646 15.2198   1
 -11   5   8 667.992 19.2885   1
  11   5  -7 867.611 54.1406  -2
 -11   5   8 867.611 54.1406   1
  11  -5  -7 600.855 18.8055   1
  11   5  -6 900.361 44.6428  -2
 -11   5   7 900.361 44.6428   1
  11   5  -6 839.300 36.5065   1
  11   5  -5 928.489 24.4580  -2
 -11   5   6 928.489 24.4580   1
 -11  -5   4 177.257 21.3651  -2
  11  -5  -5 177.257 21.3651   1
  11   5  -3 922.058 24.2072  -2
 -11   5   4 922.058 24.2072   1
  11  -5  -2 1342.51 24.9059  -2
 -11  -5   3 1342.51 24.9059   1
 -11   5   2 3449.95 41.9021   1
  11  -5  -1 3600.13 61.8917  -2
 -11  -5   2 3600.13 61.8917   1
 -11   5   1 116.231 25.8756   1
  11   5   0 235.141 28.9415  -2
 -11   5   1 235.141 28.9415   1
 -11  -5   0 538.367 22.5241   1
 -11  -5  -1 960.578 30.0302   1
 -11  -5  -2 1886.35 25.3256   1
 -11  -5  -3 201.773 18.5198   1
 -11  -5  -4 148.438 20.2581   1
 -11   5  -5 26.7049 20.1021   1
 -11   5  -6 86.1388 21.4383   1
 -11   5  -7 48.1848 24.4158   1
 -11   5  -8 143.748 27.1699   1
 -11   5  -9 226.809 27.7101   1
 -11   5 -10 3.89734 26.6528   1
 -11   5 -11 104.881 25.8424   1
  10   5  12 459.495 411.787  -2
 -11   5 -11 459.495 411.787   1
 -11  -5 -12 40.3905 41.9982   1
  10   5  13 82.8893 36.0542  -2
 -11   5 -12 82.8893 36.0542   1
 -11  -5 -13 64.3314 40.7543   1
  10   5  14 140.596 33.0938  -2
 -11   5 -13 140.596 33.0938   1
  10  -5  15 49.8598 32.9189  -2
 -11  -5 -14 49.8598 32.9189   1
  10  -5  16 11.2243 37.0243  -2
 -11  -5 -15 11.2243 37.0243   1
  10  -5  17-4.62009 31.2445  -2
 -11  -5 -16-4.62009 31.2445   1
  10  -5  18-8.96934 24.9727  -2
 -11  -5 -17-8.96934 24.9727   1
 -11   6  23-3.08654 13.2116   1
 -11   6  22 8.79850 16.5341   1
 -11  -6  21-7.07486 33.8873   1
 -11  -6  20 94.3361 18.0402   1
 -11  -6  19 49.6846 20.0984   1
 -11  -6  18 52.1491 20.8080   1
 -11  -6  17 137.625 22.3566   1
 -11  -6  16 1.78291 22.1785   1
 -11   6  15 9.69328 22.1738   1
 -11  -6  14 524.218 24.6564   1
 -11  -6  13 645.635 23.2820   1
 -11  -6  12 33.7480 19.3371   1
 -11  -6  11 896.944 23.1247   1
 -11   6  10 161.879 16.8741   1
 -11   6   9 37.2673 15.9535   1
  11  -6  -8 17.7016 17.2005   1
  11   6  -7 22.0162 51.5082  -2
 -11   6   8 22.0162 51.5082   1
 -11  -6   7 114.847 19.5310   1
  11   6  -6 103.469 35.0138  -2
 -11   6   7 103.469 35.0138   1
  11   6  -6 23.8501 31.3106   1
  11  -6  -5 222.574 23.3008  -2
 -11  -6   6 222.574 23.3008   1
 -11  -6   4 771.475 24.3432  -2
  11  -6  -5 771.475 24.3432   1
  11  -6  -3 638.100 24.5642  -2
 -11  -6   4 638.100 24.5642   1
  11  -6  -2 2431.91 43.0131  -2
 -11  -6   3 2431.91 43.0131   1
  11   6  -1 200.987 23.7833  -2
 -11   6   2 200.987 23.7833   1
 -11  -6   1 55.8889 20.3687   1
  11   6   0 40.0869 37.4986  -2
 -11   6   1 40.0869 37.4986   1
 -11   6   0 6.34716 17.8527   1
  11   6   1 256.733 49.5731  -2
 -11   6   0 256.733 49.5731   1
 -11   6  -1 1158.88 34.1871   1
 -11  -6  -2 75.7457 18.3450   1
 -11  -6  -3 384.838 20.1932   1
 -11  -6  -4 18.7829 20.0064   1
 -11  -6  -5 325.212 25.7055   1
 -11  -6  -6 1567.81 42.0989   1
 -11  -6  -7 236.474 30.3952   1
 -11  -6  -8 21.1659 32.6070   1
 -11  -6  -9 121.586 33.2555   1
 -11  -6 -10 537.386 34.6481   1
  10   6  11 1400.60 395.598  -2
 -11   6 -10 1400.60 395.598   1
 -11  -6 -11 171.356 31.6235   1
  10   6  12 663.252 391.535  -2
 -11   6 -11 663.252 391.535   1
 -11  -6 -12 14.2879 38.2660   1
  10   6  13 74.9196 65.2700  -2
 -11   6 -12 74.9196 65.2700   1
  10  -6  14 532.004 37.4566  -2
 -11  -6 -13 532.004 37.4566   1
  10  -6  15 120.147 31.4194  -2
 -11  -6 -14 120.147 31.4194   1
  10  -6  16 16.0310 33.5252  -2
 -11  -6 -15 16.0310 33.5252   1
  10  -6  17 4.56973 27.5970  -2
 -11  -6 -16 4.56973 27.5970   1
 -11  -7  22 1027.55 21.1845   1
 -11   7  21 238.182 21.5889   1
 -11   7  20 5.38551 14.7716   1
 -11  -7  19-1.14205 19.8255   1
 -11  -7  18 199.568 20.7637   1
 -11  -7  17 8.16201 20.3652   1
 -11  -7  16 14.9293 21.3312   1
 -11  -7  15 410.371 23.9708   1
 -11  -7  14 23.7045 21.8596   1
 -11  -7  13 68.9721 23.0683   1
 -11   7  12 2714.04 36.4338   1
  11   7 -11-2.64082 15.5590   1
  11   7 -10 1266.77 22.2039   1
  11   7  -9 45.6307 17.1733   1
  11   7  -8 1679.24 25.9522   1
  11   7  -7 1923.09 62.0248  -2
 -11   7   8 1923.09 62.0248   1
 -11  -7   7 491.496 23.3085   1
 -11  -7   6 1667.29 43.9274  -2
  11  -7  -7 1667.29 43.9274   1
 -11  -7   5 4475.12 52.6894  -2
  11  -7  -6 4475.12 52.6894   1
  11  -7  -4 700.903 25.5237  -2
 -11  -7   5 700.903 25.5237   1
  11  -7  -3 2073.40 37.6337  -2
 -11  -7   4 2073.40 37.6337   1
  11  -7  -2 762.528 27.5355  -2
 -11  -7   3 762.528 27.5355   1
  11   7  -1 2699.38 49.0806  -2
 -11   7   2 2699.38 49.0806   1
 -11  -7   1 202.472 24.7633   1
  11   7   0 236.821 35.0462  -2
 -11   7   1 236.821 35.0462   1
 -11  -7   0 35.3730 21.6301   1
  11   7   1 196.247 40.8084  -2
 -11   7   0 196.247 40.8084   1
 -11   7  -1 476.028 21.6440   1
 -11   7  -2 43.1207 21.3621   1
 -11   7  -3 25.3797 21.1728   1
 -11  -7  -4 1853.93 34.4867   1
 -11  -7  -5 131.016 22.7182   1
 -11  -7  -6 4.45817 27.2391   1
 -11  -7  -7 483.296 35.1289   1
 -11  -7  -8-9.65127 29.2335   1
 -11  -7  -9 53.5916 30.5668   1
 -11  -7 -10 33.2717 30.4237   1
 -11  -7 -11-0.30741 27.2461   1
 -11  -7 -12 170.615 38.1551   1
  10   7  13 296.814 63.9322  -2
 -11   7 -12 296.814 63.9322   1
 -11  -7 -13 87.4844 34.4982   1
  10   7  14 34.3124 59.4797  -2
 -11   7 -13 34.3124 59.4797   1
 -11  -7 -14 8.10880 30.9494   1
  10   7  15 93.8700 53.5024  -2
 -11   7 -14 93.8700 53.5024   1
  10  -7  16 0.98977 29.9827  -2
 -11  -7 -15 0.98977 29.9827   1
 -11  -8  22 3.00667 15.8373   1
 -11   8  21 42.5786 14.7353   1
 -11   8  20 132.229 20.4046   1
 -11   8  19 41.1128 15.3389   1
 -11   8  18 45.2714 13.9101   1
 -11   8  17 122.184 15.3462   1
 -11   8  16 86.2388 19.5547   1
 -11   8  15 2.18180 18.9425   1
 -11  -8  14 5.24002 19.5145   1
 -11  -8  13 12.6778 19.4429   1
 -11  -8  12 97.1222 20.8265   1
  11   8 -11 72.4641 21.2419   1
 -11   8  10 7.67864 18.8891   1
  11   8  -9 23.6945 18.3149   1
 -11  -8   8 265.451 19.8343   1
  11   8  -7 274.879 51.7429  -2
 -11   8   8 274.879 51.7429   1
 -11  -8   7 176.877 22.7032   1
  11   8  -6 168.247 37.7250  -2
 -11   8   7 168.247 37.7250   1
  11   8  -5 122.415 24.3853  -2
 -11   8   6 122.415 24.3853   1
  11  -8  -4 391.641 27.2107  -2
 -11  -8   5 391.641 27.2107   1
  11   8  -3 288.826 26.3153  -2
 -11   8   4 288.826 26.3153   1
  11   8  -2 300.768 26.4403  -2
 -11   8   3 300.768 26.4403   1
  11   8  -1 470.952 31.1056  -2
 -11   8   2 470.952 31.1056   1
 -11   8   1 70.7334 27.2724   1
  11  -8   0 68.4850 31.2225  -2
 -11  -8   1 68.4850 31.2225   1
 -11  -8   0 2.40586 21.0330   1
  11   8   1-17.7451 41.4393  -2
 -11   8   0-17.7451 41.4393   1
 -11  -8  -1 23.1913 16.1898   1
 -11  -8  -2-4.64279 16.0156   1
 -11  -8  -3 572.658 24.9067   1
 -11   8  -4 62.9298 22.2408   1
 -11   8  -5 25.4846 33.5637   1
 -11   8  -6 271.729 42.3226   1
 -11   8  -7 59.4039 46.5943   1
 -11  -8  -8-1.19816 27.1898   1
 -11  -8  -9 337.416 30.2368   1
 -11  -8 -10 42.6128 28.8514   1
 -11  -8 -11 378.561 28.2468   1
 -11  -8 -12 158.333 34.5281   1
  10   8  13 217.758 59.2601  -2
 -11   8 -12 217.758 59.2601   1
 -11  -8 -13 14.7392 30.0917   1
  10   8  14 4.17446 49.3922  -2
 -11   8 -13 4.17446 49.3922   1
  10  -8  15 196.185 25.8787  -2
 -11  -8 -14 196.185 25.8787   1
 -11  -9  21 40.2226 16.0312   1
 -11  -9  20 141.771 20.0444   1
 -11   9  19 73.2785 18.8624   1
 -11  -9  18 284.733 16.1902   1
  11  -9 -17 240.926 14.7213   1
 -11   9  16 3.84703 14.6993   1
 -11  -9  15 801.128 25.7957   1
 -11   9  14 26.9898 18.2871   1
 -11  -9  13-3.21341 18.6753   1
 -11  -9  12 373.480 20.4428   1
  11   9 -11 1364.20 31.7434   1
 -11   9  10 84.4916 20.8133   1
 -11   9   9 89.2864 24.1593   1
 -11   9   9 93.8411 65.0154  -2
  11   9  -9 93.8411 65.0154   1
 -11  -9   8 19.7115 24.2434   1
 -11   9   8 45.3896 63.5580  -2
  11   9  -8 45.3896 63.5580   1
  11   9  -7 142.601 48.9156  -2
 -11   9   8 142.601 48.9156   1
 -11   9   7 149.829 23.4722   1
  11   9  -6 289.453 43.2148  -2
 -11   9   7 289.453 43.2148   1
  11   9  -6 394.435 42.0563   1
  11  -9  -5 528.055 36.1037  -2
 -11  -9   6 528.055 36.1037   1
  11  -9  -4 336.163 29.5395  -2
 -11  -9   5 336.163 29.5395   1
  11  -9  -3 182.790 26.6568  -2
 -11  -9   4 182.790 26.6568   1
  11   9  -2 806.603 29.4296  -2
 -11   9   3 806.603 29.4296   1
  11   9  -1 1744.06 46.6808  -2
 -11   9   2 1744.06 46.6808   1
 -11  -9   1 1831.96 36.2777   1
  11   9   0 1984.76 45.5781  -2
 -11   9   1 1984.76 45.5781   1
 -11  -9   0 246.685 27.1121   1
  11   9   1 276.115 40.8864  -2
 -11   9   0 276.115 40.8864   1
 -11  -9  -1 39.4398 17.1678   1
 -11   9  -2 100.125 17.0273   1
 -11  -9  -3 1266.81 29.2812   1
 -11  -9  -4 455.795 28.6598   1
 -11   9  -5 22.3035 29.4313   1
 -11   9  -6 385.079 47.2454   1
 -11   9  -7 9.97331 43.2445   1
 -11   9  -8 164.922 47.2603   1
 -11   9  -9 164.713 46.6532   1
 -11   9 -10 76.9519 40.3473   1
 -11   9 -11 25.2022 38.3740   1
 -11   9 -12 33.1089 35.6027   1
  10   9  14 108.346 51.1830  -2
 -11   9 -13 108.346 51.1830   1
  10   9  15 59.1474 44.2551  -2
 -11   9 -14 59.1474 44.2551   1
 -11 -10  20 33.7048 15.8876   1
 -11 -10  19 5.50804 18.6087   1
  11 -10 -18 7.73868 12.7097   1
  11 -10 -17 51.7852 14.5941   1
  11 -10 -16-2.16984 15.3873   1
  11 -10 -15 66.8342 16.5563   1
 -11 -10  14 16.7815 20.2235   1
 -11 -10  13 208.030 21.4970   1
 -11  10  12 18.4870 29.8748   1
 -11  10  11 11.7152 30.4078   1
 -11  10  10 11.5781 24.5785   1
 -11 -10   9 162.033 29.2437   1
 -11  10   9 231.285 65.1599  -2
  11  10  -9 231.285 65.1599   1
 -11 -10   8 40.0096 23.1294   1
 -11 -10   7 134.297 63.5141   1
 -11  10   7 165.261 65.8119  -2
  11  10  -7 165.261 65.8119   1
  11  10  -6 269.300 43.4669  -2
 -11  10   7 269.300 43.4669   1
 -11 -10   6 287.540 65.4974   1
 -11  10   6 405.926 64.8061  -2
  11  10  -6 405.926 64.8061   1
  11  10  -5 349.247 43.2323  -2
 -11  10   6 349.247 43.2323   1
  11 -10  -4 76.3327 35.5434  -2
 -11 -10   5 76.3327 35.5434   1
  11  10  -3 317.474 37.1271  -2
 -11  10   4 317.474 37.1271   1
  11 -10  -2 1458.90 41.7957  -2
 -11 -10   3 1458.90 41.7957   1
  11 -10  -1 2159.25 44.3941  -2
 -11 -10   2 2159.25 44.3941   1
 -11  10   1 698.349 35.3252   1
  11 -10   0 948.725 79.0957  -2
 -11 -10   1 948.725 79.0957   1
 -11  10   0 54.8185 21.6815   1
 -11  10  -1 86.8479 21.8086   1
 -11 -10  -2 1645.91 33.3377   1
 -11  10  -3 14.6420 20.6724   1
 -11  10  -4 52.1853 33.4469   1
 -11  10  -5 226.801 33.0189   1
 -11  10  -6 16.1873 42.8216   1
 -11  10  -7-15.4077 43.0036   1
 -11  10  -8 244.766 47.3017   1
 -11  10  -9 42.1956 42.3261   1
 -11  10 -10 221.999 40.3902   1
 -11  10 -11 89.8302 36.1809   1
  10  10  13 122.622 53.6763  -2
 -11  10 -12 122.622 53.6763   1
  10  10  14 23.2031 47.3308  -2
 -11  10 -13 23.2031 47.3308   1
 -11 -11  19 5.16815 21.4941   1
 -11 -11  18 83.8428 17.1582   1
  11 -11 -17 34.2269 12.7673   1
  11 -11 -16-3.51144 14.0755   1
  11 -11 -15 48.9725 15.3572   1
  11 -11 -14 12.9907 15.7790   1
  11 -11 -13 112.519 21.8504   1
  11 -11 -12 270.594 23.5113   1
 -11  11  11 361.039 33.4486   1
 -11  11  10 379.759 34.1706   1
 -11  11  10 377.660 63.1724  -2
  11  11 -10 377.660 63.1724   1
 -11  11   9 16.0478 26.7519   1
 -11  11   9 59.8176 61.3788  -2
  11  11  -9 59.8176 61.3788   1
 -11 -11   8 33.4521 28.0442   1
 -11  11   8 79.9077 61.8593  -2
  11  11  -8 79.9077 61.8593   1
 -11 -11   7 787.043 68.4461   1
 -11  11   7 990.946 67.9315  -2
  11  11  -7 990.946 67.9315   1
  11  11  -6 957.339 47.2634  -2
 -11  11   7 957.339 47.2634   1
 -11 -11   6 796.242 71.3514   1
 -11  11   6 1000.08 67.9999  -2
  11  11  -6 1000.08 67.9999   1
  11  11  -5 790.934 46.2671  -2
 -11  11   6 790.934 46.2671   1
 -11 -11   5 71.8043 62.3482   1
 -11  11   5 48.5200 63.5703  -2
  11  11  -5 48.5200 63.5703   1
  11  11  -4 174.945 42.3657  -2
 -11  11   5 174.945 42.3657   1
  11  11  -4 686.267 37.7863   1
  11  11  -3 982.105 47.3792  -2
 -11  11   4 982.105 47.3792   1
  11 -11  -2 2133.93 45.7123  -2
 -11 -11   3 2133.93 45.7123   1
  11 -11  -1 3191.73 47.5592  -2
 -11 -11   2 3191.73 47.5592   1
 -11 -11   1 229.861 28.7051   1
 -11 -11   0 213.215 41.8728  -2
  11 -11  -1 213.215 41.8728   1
 -11 -11   0-16.5448 25.8378   1
  11  11   1 25.5405 62.5951  -2
 -11  11   0 25.5405 62.5951   1
 -11 -11  -1 4.77257 21.0583   1
 -11 -11  -2 1015.65 25.9383   1
 -11 -11  -3 49.8335 19.8177   1
 -11 -11  -4 626.525 36.5891   1
 -11 -11  -5 133.674 31.6622   1
 -11  11  -6 0.05741 42.4677   1
 -11  11  -7-8.22518 39.3894   1
 -11  11  -8 396.313 42.7560   1
 -11  11  -9 115.316 39.1569   1
 -11  11 -10-14.1216 34.5257   1
 -11  11 -11 115.795 31.8536   1
  10  11  13 40.4061 48.0002  -2
 -11  11 -12 40.4061 48.0002   1
  10  11  14 85.2720 38.4037  -2
 -11  11 -13 85.2720 38.4037   1
  11 -12 -17 20.4357 20.1409   1
  11 -12 -16 16.4373 14.9864   1
  11 -12 -15-2.43547 16.4320   1
  11 -12 -14 6.80510 18.1283   1
  11 -12 -13-3.13676 19.3530   1
  11 -12 -12 9.34789 20.1237   1
  11 -12 -11 256.241 22.4351   1
  11 -12 -10 70.7932 21.8206   1
  11 -12  -9 222.768 23.4805   1
 -11  12   9 304.350 60.4448  -2
  11  12  -9 304.350 60.4448   1
 -11 -12   8 22.1323 21.4422   1
 -11 -12   7 54.1511 49.3912  -2
  11 -12  -8 54.1511 49.3912   1
 -11 -12   7 123.843 60.8599   1
 -11  12   7 126.595 61.2674  -2
  11  12  -7 126.595 61.2674   1
 -11 -12   6 162.932 31.5451  -2
  11 -12  -7 162.932 31.5451   1
 -11 -12   6 106.666 63.0965   1
 -11  12   6 118.877 63.7512  -2
  11  12  -6 118.877 63.7512   1
 -11 -12   5 452.816 33.3168  -2
  11 -12  -6 452.816 33.3168   1
 -11 -12   5 1240.44 40.5213   1
 -11 -12   4 1237.58 36.7684  -2
  11 -12  -5 1237.58 36.7684   1
 -11 -12   4 12.1065 62.5255   1
 -11 -12   3 47.7833 30.9002  -2
  11 -12  -4 47.7833 30.9002   1
 -11 -12   3 74.5025 64.0157   1
 -11  12   3 52.4526 61.6225  -2
  11  12  -3 52.4526 61.6225   1
 -11 -12   2 48.5906 30.4477  -2
  11 -12  -3 48.5906 30.4477   1
  11 -12  -1 211.824 27.2908  -2
 -11 -12   2 211.824 27.2908   1
 -11  12   1 769.525 31.0998   1
 -11 -12   0 796.489 43.6089  -2
  11 -12  -1 796.489 43.6089   1
 -11 -12   0 32.1156 20.6818   1
 -11 -12  -1 80.1126 20.9368   1
 -11 -12  -2 47.1804 20.1416   1
 -11 -12  -3 48.2513 19.3886   1
 -11 -12  -4 32.6037 18.1003   1
 -11 -12  -5 6.45182 28.8841   1
 -11 -12  -6 220.208 28.9858   1
 -11  12  -7 76.0416 38.2913   1
 -11  12  -8 1.40919 35.6718   1
 -11  12  -9 44.3110 35.9225   1
 -11  12 -10 127.131 32.7139   1
 -11  12 -11 68.4340 28.9583   1
 -11  12 -12 16.9377 23.2440   1
  11 -13 -16 79.5417 20.7739   1
  11 -13 -15 278.779 15.5263   1
  11 -13 -14 501.717 18.3757   1
  11 -13 -13 3.30432 17.6103   1
  11 -13 -12 254.857 19.9381   1
  11 -13 -11 10.2692 19.7134   1
  11 -13 -10 244.743 21.6744   1
  11 -13  -9 19.2738 21.2625   1
 -11  13   8 6.40559 25.4904   1
 -11  13   8 5.22283 56.1570  -2
  11  13  -8 5.22283 56.1570   1
 -11 -13   7 2.32980 42.7693  -2
  11 -13  -8 2.32980 42.7693   1
 -11 -13   7-10.3339 56.8016   1
 -11  13   7-14.7127 57.4929  -2
  11  13  -7-14.7127 57.4929   1
 -11 -13   6 110.266 29.4320  -2
  11 -13  -7 110.266 29.4320   1
 -11 -13   6 457.090 61.7728   1
 -11  13   6 522.580 61.7659  -2
  11  13  -6 522.580 61.7659   1
 -11 -13   5 546.932 31.9084  -2
  11 -13  -6 546.932 31.9084   1
 -11 -13   5 229.846 31.6615   1
 -11 -13   4 363.660 31.1641  -2
  11 -13  -5 363.660 31.1641   1
 -11 -13   4 469.369 63.7503   1
 -11  13   4 715.091 62.8126  -2
  11  13  -4 715.091 62.8126   1
  11  13  -3 489.689 41.8905  -2
 -11  13   4 489.689 41.8905   1
 -11 -13   3 26.6250 60.1884   1
 -11  13   3 297.747 61.3869  -2
  11  13  -3 297.747 61.3869   1
 -11 -13   2 6.74213 28.0395  -2
  11 -13  -3 6.74213 28.0395   1
 -11 -13   2 16.1859 61.0307   1
 -11  13   2 77.0767 58.8273  -2
  11  13  -2 77.0767 58.8273   1
 -11 -13   1 41.9631 27.9757  -2
  11 -13  -2 41.9631 27.9757   1
 -11 -13   1 101.834 25.2981   1
 -11 -13   0 91.4296 37.2859  -2
  11 -13  -1 91.4296 37.2859   1
 -11 -13   0 49.5536 24.0186   1
 -11  13  -1 143.022 20.2989   1
 -11 -13  -2 1391.58 25.1568   1
 -11  13  -3 344.154 19.8281   1
 -11 -13  -4 19.6140 17.0197   1
 -11  13  -5 170.731 27.2606   1
 -11 -13  -6 219.454 25.8570   1
 -11  13  -7 26.4703 33.4273   1
 -11  13  -8 87.1394 32.0528   1
 -11  13  -9 18.1629 29.2947   1
 -11  13 -10 86.3469 25.6345   1
 -11  13 -11 23.7693 21.1650   1
  11 -14 -15 16.4294 18.8012   1
  11 -14 -14 10.2229 13.3019   1
  11 -14 -13 113.715 15.7958   1
  11 -14 -12 20.8278 13.8203   1
  11 -14 -11 14.6032 18.2459   1
  11 -14 -10 57.8497 19.0859   1
  11 -14  -9 29.4090 19.7843   1
  11 -14  -8 17.1931 16.4726   1
 -11 -14   7-4.48849 50.5272   1
 -11  14   7-14.9377 52.3029  -2
  11  14  -7-14.9377 52.3029   1
 -11 -14   6 26.3972 26.9072  -2
  11 -14  -7 26.3972 26.9072   1
 -11 -14   6 101.396 51.1946   1
 -11  14   6 80.6998 52.9785  -2
  11  14  -6 80.6998 52.9785   1
 -11 -14   5 146.409 28.6276  -2
  11 -14  -6 146.409 28.6276   1
 -11 -14   5 73.8888 53.9323   1
 -11  14   5 71.8523 53.7994  -2
  11  14  -5 71.8523 53.7994   1
 -11 -14   4 46.8530 27.8006  -2
  11 -14  -5 46.8530 27.8006   1
 -11 -14   4 13.1067 54.1399   1
 -11  14   4 62.8706 54.5826  -2
  11  14  -4 62.8706 54.5826   1
 -11 -14   3 19.5813 27.4171  -2
  11 -14  -4 19.5813 27.4171   1
 -11 -14   3 4.78791 54.1040   1
 -11  14   3 46.8314 54.8575  -2
  11  14  -3 46.8314 54.8575   1
 -11 -14   2 66.2322 27.1823  -2
  11 -14  -3 66.2322 27.1823   1
 -11 -14   2 266.180 57.2052   1
 -11  14   2 326.313 57.0355  -2
  11  14  -2 326.313 57.0355   1
 -11 -14   1 386.141 28.0242  -2
  11 -14  -2 386.141 28.0242   1
 -11 -14   1 409.694 25.2514   1
 -11  14   1 545.869 58.0182  -2
  11  14  -1 545.869 58.0182   1
 -11 -14   0 28.5253 22.7455   1
 -11  14   0 140.325 54.1183  -2
  11  14   0 140.325 54.1183   1
 -11  14  -1 26.2936 21.1656   1
 -11 -14  -2 4.88714 16.9689   1
 -11 -14  -3 49.5409 16.4821   1
 -11 -14  -4 111.930 15.7891   1
 -11  14  -5 182.794 24.3784   1
 -11  14  -6 20.2001 30.8033   1
 -11  14  -7 33.1476 28.5636   1
 -11  14  -8 2.88900 25.4645   1
 -11  14  -9 56.1435 23.2782   1
  11 -15 -13-1.29515 20.6151   1
  11 -15 -12 37.7592 13.6045   1
  11 -15 -11 275.937 16.5582   1
  11 -15 -10 22.7337 16.2946   1
  11 -15  -9-4.38354 17.0381   1
  11 -15  -8 96.5871 18.7989   1
 -11 -15   6 788.938 28.1269  -2
  11 -15  -7 788.938 28.1269   1
 -11 -15   6 328.733 49.0474   1
 -11  15   6 435.273 49.6332  -2
  11  15  -6 435.273 49.6332   1
  11  15  -5 497.791 37.1750  -2
 -11  15   6 497.791 37.1750   1
 -11 -15   5 184.670 48.1672   1
 -11  15   5 322.943 50.1313  -2
  11  15  -5 322.943 50.1313   1
 -11 -15   4 256.667 26.0687  -2
  11 -15  -5 256.667 26.0687   1
 -11 -15   4 40.4833 50.4479   1
 -11  15   4 147.136 49.5370  -2
  11  15  -4 147.136 49.5370   1
 -11 -15   3 37.5062 25.1778  -2
  11 -15  -4 37.5062 25.1778   1
 -11 -15   3 3.72353 49.7247   1
 -11  15   3 76.3755 48.7509  -2
  11  15  -3 76.3755 48.7509   1
 -11 -15   2 35.9626 24.1163  -2
  11 -15  -3 35.9626 24.1163   1
 -11 -15   2 119.577 48.4898   1
 -11  15   2 120.603 49.5873  -2
  11  15  -2 120.603 49.5873   1
  11  15  -1 135.733 33.7852  -2
 -11  15   2 135.733 33.7852   1
 -11  15   1 5.92215 20.9634   1
 -11  15   1-2.26557 47.2651  -2
  11  15  -1-2.26557 47.2651   1
 -11  15   0 86.4192 20.5670   1
 -11  15   0 89.7342 46.4645  -2
  11  15   0 89.7342 46.4645   1
 -11 -15  -1 9.04144 18.4060   1
 -11  15  -1 61.5676 44.8849  -2
  11  15   1 61.5676 44.8849   1
 -11  15  -2 232.170 19.1510   1
 -11  15  -2 206.491 43.3808  -2
  11  15   2 206.491 43.3808   1
  11  15   3 2.08918 11.6590   1
 -11  15  -4 0.60445 11.1200   1
 -11  15  -5 127.896 16.6499   1
  11  15   6 6.18175 14.3687   1
  11  15   7 2.53798 16.3834   1
  11 -16 -11 0.29163 19.2902   1
  11 -16 -10 151.551 13.3910   1
  11 -16  -9 28.8546 13.9091   1
 -11  16   9 42.3705 35.7683  -2
  11  16  -9 42.3705 35.7683   1
  11 -16  -8 6.78778 14.9784   1
 -11 -16   6 24.3737 21.4294  -2
  11 -16  -7 24.3737 21.4294   1
 -11 -16   5 48.5326 21.3514  -2
  11 -16  -6 48.5326 21.3514   1
 -11 -16   4 11.6033 21.5773  -2
  11 -16  -5 11.6033 21.5773   1
 -11 -16   4 39.8616 39.8823   1
 -11  16   4 26.8182 39.9622  -2
  11  16  -4 26.8182 39.9622   1
 -11 -16   3 26.0731 20.8299  -2
  11 -16  -4 26.0731 20.8299   1
 -11 -16   3 15.8850 40.4711   1
 -11  16   3 14.0392 39.5591  -2
  11  16  -3 14.0392 39.5591   1
  11  16  -2 32.1577 29.5341  -2
 -11  16   3 32.1577 29.5341   1
 -11 -16   2-11.8602 39.0431   1
 -11  16   2 51.3097 40.1986  -2
  11  16  -2 51.3097 40.1986   1
  11  16  -1 22.7081 28.0391  -2
 -11  16   2 22.7081 28.0391   1
 -11  16   1 118.782 18.2533   1
 -11  16   1 146.263 39.8562  -2
  11  16  -1 146.263 39.8562   1
 -11 -16   0 8.36773 16.5580   1
 -11  16   0 23.2130 37.8697  -2
  11  16   0 23.2130 37.8697   1
 -11 -16  -1 23.8087 16.0254   1
 -11  16  -1 60.4403 36.1180  -2
  11  16   1 60.4403 36.1180   1
 -11 -16  -2 11.6363 14.1410   1
 -11  16  -2 1.64431 33.8425  -2
  11  16   2 1.64431 33.8425   1
 -11  16  -3-4.72379 31.1659  -2
  11  16   3-4.72379 31.1659   1
  11  16   4 76.0345 17.2924   1
  11  17  -6 44.5275 21.4026  -2
 -11  17   7 44.5275 21.4026   1
  11  17  -5 14.5354 21.9153  -2
 -11  17   6 14.5354 21.9153   1
  11  17  -4 16.3382 22.6623  -2
 -11  17   5 16.3382 22.6623   1
  11  17  -3 40.8125 22.6652  -2
 -11  17   4 40.8125 22.6652   1
  11  17  -2 70.3909 22.8471  -2
 -11  17   3 70.3909 22.8471   1
 -11  17   1-0.85790 15.0433   1
 -11  17   1-29.8329 27.8845  -2
  11  17  -1-29.8329 27.8845   1
 -12   0  24 598.177 18.7943   1
  12   0 -22 202.345 19.4312   1
 -12   0  20 192.336 47.0520   1
 -12   0  18 1.74731 49.2156   1
 -12   0  16 605.829 55.6333   1
 -12   0  14-17.0631 41.3337   1
 -12   0  12 1245.06 46.7963   1
 -12   0  10 1024.16 41.4869   1
 -12   0   8 1174.16 38.3745   1
 -12   0   6 2236.54 67.2852   1
 -12   0   4 3533.08 51.1105   1
 -12   0   2 1600.36 38.9907   1
  12   0   0 1408.31 51.0158   1
 -12   0  -2 4805.72 48.7594   1
 -12   0  -4 189.948 25.1818   1
 -12   0  -6 3827.47 51.9521   1
 -12   0  -8 1218.29 59.5884   1
 -12   0 -10 464.308 53.6094   1
 -12   0 -12 1014.46 57.0642   1
  11   0  15 254.163 43.5004  -2
 -12   0 -14 254.163 43.5004   1
  11   0  17 272.149 33.1860  -2
 -12   0 -16 272.149 33.1860   1
 -12  -1  24 1.93807 14.0408   1
 -12   1  23-2.29818 10.8908   1
 -12   1  22 102.699 14.4183   1
 -12   1  21 10.6318 18.6395   1
 -12   1  20 5.11338 32.2871   1
 -12   1  19 10.6532 33.2937   1
 -12   1  18 37.8948 35.3622   1
 -12   1  17 15.7297 35.6759   1
 -12   1  16 91.5119 35.3809   1
 -12   1  15 26.0564 35.3880   1
 -12   1  14 320.390 30.4791   1
 -12   1  13 47.5214 28.2135   1
 -12   1  12-10.1591 26.4542   1
 -12   1  11 2.86472 25.4049   1
 -12   1  10 316.812 26.2077   1
 -12  -1   9 301.494 17.5835   1
 -12   1   8 630.433 23.8675   1
  12   1  -7 1194.41 52.1940  -2
 -12   1   8 1194.41 52.1940   1
  12   1  -7 2351.97 96.0069   1
  12   1  -6 2436.40 32.2505  -2
 -12   1   7 2436.40 32.2505   1
  12  -1  -5 319.495 24.0573  -2
 -12  -1   6 319.495 24.0573   1
  12  -1  -4 159.184 23.6124  -2
 -12  -1   5 159.184 23.6124   1
  12  -1  -3 398.938 24.9443  -2
 -12  -1   4 398.938 24.9443   1
 -12  -1   2 1400.29 28.2584  -2
  12  -1  -3 1400.29 28.2584   1
 -12  -1   1 21.1327 22.3344  -2
  12  -1  -2 21.1327 22.3344   1
 -12  -1   1-27.3576 50.8568   1
  12   1   0 16.0439 24.1768  -2
 -12   1   1 16.0439 24.1768   1
  12  -1   0 15.1161 17.7793   1
  12   1   1 191.859 48.0396  -2
 -12   1   0 191.859 48.0396   1
 -12  -1  -1 972.807 19.0920   1
 -12  -1  -2 990.298 19.9947   1
 -12   1  -3 468.902 18.8417   1
 -12   1  -4 441.133 19.5030   1
 -12   1  -5 342.485 20.9490   1
 -12   1  -6 4263.92 37.6109   1
 -12   1  -7 1935.93 43.3412   1
 -12   1  -8 105.843 29.2959   1
 -12   1  -9 125.029 36.6138   1
 -12   1 -10 7.43254 34.7556   1
 -12   1 -11 235.115 36.2341   1
 -12   1 -12 1129.96 40.6974   1
 -12   1 -13 625.405 34.7025   1
  11   1  15 27.6759 29.5173  -2
 -12   1 -14 27.6759 29.5173   1
  11   1  16 179.174 26.8565  -2
 -12   1 -15 179.174 26.8565   1
  11   1  17 153.946 22.4973  -2
 -12   1 -16 153.946 22.4973   1
 -12  -2  24 89.6742 16.0902   1
 -12  -2  23 508.432 15.2648   1
 -12   2  22 25.0703 13.7667   1
 -12  -2  21 97.0486 18.9850   1
 -12   2  20 477.437 22.9084   1
 -12  -2  19 320.233 34.5534   1
 -12   2  18 764.482 38.7493   1
 -12   2  17 48.5330 34.7751   1
 -12   2  16 240.448 36.5191   1
 -12  -2  15 1549.96 43.3569   1
 -12   2  14 304.135 29.0601   1
 -12   2  13 586.923 30.1445   1
 -12   2  12 149.970 27.0751   1
 -12   2  11 285.641 27.0553   1
 -12   2  10 67.4500 18.9599   1
 -12  -2   9 913.096 20.2526   1
 -12   2   8 1428.80 44.9960   1
  12  -2  -7 1601.29 38.9978  -2
 -12  -2   8 1601.29 38.9978   1
  12   2  -7 1103.28 79.9193   1
  12  -2  -6 1004.06 33.0030  -2
 -12  -2   7 1004.06 33.0030   1
  12   2  -5 461.662 25.1053  -2
 -12   2   6 461.662 25.1053   1
  12  -2  -4 139.620 23.8454  -2
 -12  -2   5 139.620 23.8454   1
  12   2  -3 482.174 25.0726  -2
 -12   2   4 482.174 25.0726   1
  12  -2  -2 612.607 25.3716  -2
 -12  -2   3 612.607 25.3716   1
  12  -2  -1 1457.06 25.5254  -2
 -12  -2   2 1457.06 25.5254   1
 -12   2   1 501.054 43.6023   1
 -12  -2   0 760.952 30.4840  -2
  12  -2  -1 760.952 30.4840   1
 -12   2   0 945.992 25.0349   1
  12   2   1 1121.48 54.1366  -2
 -12   2   0 1121.48 54.1366   1
 -12   2  -1 414.788 18.9800   1
 -12   2  -2 1199.69 20.5297   1
 -12   2  -3 13.9007 17.0664   1
 -12   2  -4 127.634 18.2307   1
 -12   2  -5 706.482 20.9549   1
 -12   2  -6 606.764 24.8274   1
 -12   2  -7 793.095 28.9329   1
 -12   2  -8 997.388 34.1722   1
 -12   2  -9 394.476 29.8120   1
 -12   2 -10 107.062 27.4778   1
 -12   2 -11 19.4719 34.5261   1
 -12   2 -12 91.1901 33.5847   1
 -12   2 -13 247.416 32.6532   1
  11   2  15 28.2839 28.5587  -2
 -12   2 -14 28.2839 28.5587   1
  11   2  16-4.47940 26.9545  -2
 -12   2 -15-4.47940 26.9545   1
  11  -2  17 76.6096 31.3241  -2
 -12  -2 -16 76.6096 31.3241   1
  11  -2  18 146.707 24.8880  -2
 -12  -2 -17 146.707 24.8880   1
 -12   3  23 7.74897 13.7496   1
 -12  -3  22 60.7942 13.0876   1
 -12   3  21 2.72782 17.5838   1
 -12  -3  20 86.7403 20.3778   1
 -12   3  19-0.99263 20.9952   1
 -12  -3  18 104.357 34.1457   1
 -12   3  17 20.8880 33.7029   1
 -12   3  16 22.5497 34.7779   1
 -12   3  15 34.9791 35.0983   1
 -12  -3  14 568.642 32.9639   1
 -12   3  13 2.55673 26.2467   1
 -12   3  12 137.966 26.4508   1
 -12   3  11 25.5770 19.1583   1
 -12   3  10 127.915 17.5343   1
 -12  -3   9 103.461 19.1127   1
 -12   3   8 699.716 25.4663   1
  12   3  -7 823.658 54.3473  -2
 -12   3   8 823.658 54.3473   1
  12   3  -7 101.014 65.9632   1
  12   3  -6 193.323 24.6009  -2
 -12   3   7 193.323 24.6009   1
  12  -3  -5 481.451 24.3446  -2
 -12  -3   6 481.451 24.3446   1
  12  -3  -4 1433.62 30.9593  -2
 -12  -3   5 1433.62 30.9593   1
  12   3  -3 1189.65 26.0181  -2
 -12   3   4 1189.65 26.0181   1
  12   3  -2 1071.37 24.0958  -2
 -12   3   3 1071.37 24.0958   1
 -12  -3   1 4448.89 47.9412  -2
  12  -3  -2 4448.89 47.9412   1
 -12   3   1 262.783 58.5154   1
  12   3   0 241.247 28.9883  -2
 -12   3   1 241.247 28.9883   1
 -12   3   0 63.9313 32.6583   1
  12  -3   1 110.162 33.5203  -2
 -12  -3   0 110.162 33.5203   1
 -12  -3  -1 284.717 17.8658   1
 -12  -3  -2 1802.54 26.3416   1
 -12  -3  -3 282.240 19.5202   1
 -12   3  -4 39.5497 17.8577   1
 -12   3  -5 1826.73 29.5869   1
 -12   3  -6 198.960 24.4041   1
 -12   3  -7 729.964 31.9226   1
 -12   3  -8 2786.12 42.1807   1
 -12   3  -9 643.344 31.1432   1
 -12   3 -10 1290.84 33.5962   1
 -12   3 -11 846.519 31.6580   1
 -12   3 -12 258.034 33.3760   1
 -12   3 -13 282.035 30.8700   1
 -12  -3 -14 45.6049 37.5323   1
  11   3  15 33.6877 37.6649  -2
 -12   3 -14 33.6877 37.6649   1
  11  -3  16 92.6587 36.6388  -2
 -12  -3 -15 92.6587 36.6388   1
  11  -3  17 146.911 31.2470  -2
 -12  -3 -16 146.911 31.2470   1
 -12   4  23 509.856 19.0817   1
 -12  -4  22-5.12567 15.6903   1
 -12  -4  21 52.4731 13.7673   1
 -12   4  20 3.14478 18.8946   1
 -12  -4  19 527.815 23.2035   1
 -12   4  18-6.42608 21.8187   1
 -12   4  17-12.1664 22.4398   1
 -12   4  16 1.44071 23.3071   1
 -12  -4  15 390.228 35.9045   1
 -12   4  14 3.36652 33.2698   1
 -12   4  13 29.6185 26.2046   1
 -12  -4  12 291.611 21.7116   1
 -12  -4  11 513.043 28.1036   1
 -12   4  10 257.113 17.5151   1
 -12   4   9 102.996 18.8193   1
 -12   4   8 105.847 29.0941   1
  12   4  -7 915.310 57.2711  -2
 -12   4   8 915.310 57.2711   1
  12   4  -7 3130.78 104.703   1
  12   4  -6 2743.45 36.7853  -2
 -12   4   7 2743.45 36.7853   1
  12   4  -5 93.9783 21.2593  -2
 -12   4   6 93.9783 21.2593   1
  12   4  -4 114.686 23.4305  -2
 -12   4   5 114.686 23.4305   1
  12   4  -3 1300.11 29.7198  -2
 -12   4   4 1300.11 29.7198   1
  12   4  -2 5690.07 69.9534  -2
 -12   4   3 5690.07 69.9534   1
  12   4  -1 3454.08 58.1397  -2
 -12   4   2 3454.08 58.1397   1
  12   4   0 641.472 49.6995  -2
 -12   4   1 641.472 49.6995   1
 -12   4   0 173.988 33.3736   1
  12   4   1 554.430 56.3352  -2
 -12   4   0 554.430 56.3352   1
 -12  -4  -1 1299.50 27.0401   1
 -12  -4  -2 195.440 18.3745   1
 -12  -4  -3 37.8048 18.1260   1
 -12  -4  -4 17.8571 20.6309   1
 -12   4  -5 607.148 25.2959   1
 -12   4  -6 154.356 23.7174   1
 -12   4  -7 35.6767 27.0903   1
 -12  -4  -8 219.789 28.5299   1
 -12   4  -9 227.633 29.7074   1
 -12   4 -10 299.512 29.0476   1
 -12   4 -11 25.6153 25.3650   1
 -12   4 -12 1.42746 23.7489   1
 -12  -4 -13 153.295 42.3458   1
 -12  -4 -14 128.455 36.7416   1
  11  -4  16-8.05259 33.7143  -2
 -12  -4 -15-8.05259 33.7143   1
  11  -4  17 103.539 28.8856  -2
 -12  -4 -16 103.539 28.8856   1
 -12   5  23 20.9952 12.9579   1
 -12  -5  22 27.2282 16.3565   1
 -12   5  21 27.1382 14.2648   1
 -12  -5  20 31.6550 17.8974   1
 -12  -5  19 7.77760 19.7306   1
 -12  -5  18 122.617 21.8031   1
 -12  -5  17 529.280 24.7575   1
 -12   5  16 102.930 22.5078   1
 -12   5  15 11.5568 23.0174   1
 -12   5  14 286.863 24.6275   1
 -12   5  13 38.8150 22.2365   1
 -12  -5  12 663.541 22.6529   1
 -12   5  11 198.452 17.7380   1
 -12   5  10 167.339 17.0306   1
  12  -5  -9 401.461 17.3143   1
  12  -5  -8 20.7425 16.8111   1
  12   5  -7 147.767 55.3232  -2
 -12   5   8 147.767 55.3232   1
  12   5  -7 348.677 30.7654   1
 -12  -5   6 440.164 24.7776  -2
  12  -5  -7 440.164 24.7776   1
  12   5  -5 234.074 22.3313  -2
 -12   5   6 234.074 22.3313   1
  12   5  -4 516.067 29.7337  -2
 -12   5   5 516.067 29.7337   1
  12   5  -3 158.387 25.1450  -2
 -12   5   4 158.387 25.1450   1
  12   5  -2 490.400 28.0511  -2
 -12   5   3 490.400 28.0511   1
  12   5  -1 1066.66 30.0225  -2
 -12   5   2 1066.66 30.0225   1
  12   5   0 909.365 38.8868  -2
 -12   5   1 909.365 38.8868   1
 -12   5   0 2338.43 49.4256   1
  12   5   1 2774.79 66.6479  -2
 -12   5   0 2774.79 66.6479   1
 -12   5  -1 379.031 27.5187   1
 -12  -5  -2 7.48196 20.4422   1
 -12  -5  -3 232.010 23.9199   1
 -12  -5  -4 4.66330 24.0629   1
 -12  -5  -5 196.833 25.7708   1
 -12  -5  -6 381.332 29.9700   1
 -12  -5  -7 338.490 32.2666   1
 -12  -5  -8 25.3572 33.5000   1
 -12  -5  -9 137.527 33.2944   1
 -12  -5 -10 163.661 33.4970   1
 -12  -5 -11 71.4761 29.4184   1
 -12  -5 -12 221.231 29.4356   1
 -12  -5 -13 637.272 42.8025   1
 -12  -5 -14 23.6215 32.5396   1
  11  -5  16-1.85839 30.4215  -2
 -12  -5 -15-1.85839 30.4215   1
  11  -5  17 98.6191 24.6287  -2
 -12  -5 -16 98.6191 24.6287   1
 -12  -6  22 440.053 19.6773   1
 -12   6  21 183.107 22.2712   1
 -12   6  20 271.367 25.1841   1
 -12  -6  19 222.131 17.9113   1
 -12  -6  18 405.259 22.1316   1
 -12  -6  17 96.9283 21.7177   1
 -12  -6  16 252.132 22.8059   1
 -12  -6  15 59.5935 22.5608   1
 -12  -6  14 513.760 24.9332   1
 -12   6  13 4.79546 20.1120   1
 -12   6  12 868.306 23.3057   1
 -12   6  11 157.075 21.2366   1
  12  -6 -10 81.2702 17.5245   1
  12   6  -9 41.9738 16.6799   1
  12   6  -8 184.532 20.6761   1
  12   6  -7 317.244 45.4652  -2
 -12   6   8 317.244 45.4652   1
  12   6  -7 410.439 32.9659   1
 -12  -6   6 471.560 28.6696  -2
  12  -6  -7 471.560 28.6696   1
  12   6  -5 469.966 25.3018  -2
 -12   6   6 469.966 25.3018   1
  12   6  -4 2113.93 44.7279  -2
 -12   6   5 2113.93 44.7279   1
  12   6  -3 1823.91 38.0792  -2
 -12   6   4 1823.91 38.0792   1
  12  -6  -2 227.639 27.1409  -2
 -12  -6   3 227.639 27.1409   1
  12  -6  -1 326.704 25.4290  -2
 -12  -6   2 326.704 25.4290   1
 -12   6   1 34.7429 25.9084   1
  12  -6   0 453.909 32.2704  -2
 -12  -6   1 453.909 32.2704   1
 -12  -6   0 1691.14 37.8479   1
  12   6   1 1928.76 64.2451  -2
 -12   6   0 1928.76 64.2451   1
 -12  -6  -1 261.524 24.2998   1
 -12   6  -2 132.088 19.4118   1
 -12  -6  -3 743.012 27.2578   1
 -12  -6  -4 771.126 32.9739   1
 -12  -6  -5 1283.01 30.4655   1
 -12  -6  -6 76.6843 29.1283   1
 -12  -6  -7 38.6365 30.4209   1
 -12  -6  -8 76.0238 32.0342   1
 -12  -6  -9 357.539 33.5737   1
 -12  -6 -10 13.9808 29.2916   1
 -12  -6 -11 5.30354 29.6399   1
 -12  -6 -12 333.486 29.8144   1
 -12  -6 -13 14.9268 23.8231   1
 -12  -6 -14-9.38209 29.7139   1
  11  -6  16-3.47903 27.4976  -2
 -12  -6 -15-3.47903 27.4976   1
 -12  -7  22 2.88463 16.1387   1
 -12   7  21-7.09628 18.3714   1
 -12   7  20 38.7664 14.6199   1
 -12  -7  19 28.4092 18.8963   1
  13   7 -18 68.3952 42.5999  -2
 -12   7  19 68.3952 42.5999   1
 -12  -7  18 493.401 23.6308   1
 -12   7  17 141.779 19.6402   1
 -12   7  16 301.223 20.9623   1
 -12  -7  15 146.382 19.5245   1
 -12   7  14 12.4680 19.2515   1
 -12   7  13 31.3822 19.3933   1
 -12  -7  12 665.977 23.3422   1
 -12   7  11 346.354 27.2841   1
 -12   7  10 3.31656 18.5061   1
 -12   7   9 147.993 19.4502   1
  12  -7  -8 153.537 21.5871   1
  12   7  -7 146.802 54.1015  -2
 -12   7   8 146.802 54.1015   1
  12   7  -7 170.652 33.7598   1
  12   7  -6 232.359 28.3107  -2
 -12   7   7 232.359 28.3107   1
  12   7  -5 170.147 23.6162  -2
 -12   7   6 170.147 23.6162   1
  12  -7  -4 368.838 27.6617  -2
 -12  -7   5 368.838 27.6617   1
  12  -7  -3 458.066 28.1349  -2
 -12  -7   4 458.066 28.1349   1
  12   7  -2 1655.47 36.9534  -2
 -12   7   3 1655.47 36.9534   1
  12   7  -1 215.714 25.9282  -2
 -12   7   2 215.714 25.9282   1
 -12   7   1 18.4221 26.5920   1
  12  -7   0 105.352 31.7408  -2
 -12  -7   1 105.352 31.7408   1
 -12  -7   0 333.239 20.8346   1
 -12  -7  -1 1332.00 36.4603   1
 -12  -7  -2 2.40168 22.3734   1
 -12   7  -3 3.82798 22.8014   1
 -12   7  -4 6.74611 28.7237   1
 -12  -7  -5 737.272 29.7641   1
 -12  -7  -6 8.35897 30.1128   1
 -12  -7  -7 97.0196 31.1271   1
 -12  -7  -8 193.662 31.7574   1
 -12  -7  -9 411.840 32.3494   1
 -12  -7 -10 729.033 33.7727   1
 -12  -7 -11 28.7061 26.7598   1
 -12  -7 -12 98.8972 25.8468   1
 -12  -7 -13 273.713 23.2910   1
 -12  -7 -14 19.4735 26.8477   1
 -12  -8  21 31.0869 17.0148   1
 -12   8  20 27.6866 17.7937   1
 -12   8  19 132.437 15.0403   1
 -12   8  18 157.283 13.8404   1
 -12   8  17-7.21957 17.7227   1
 -12   8  16 85.2739 18.9155   1
 -12   8  15 14.4413 18.5843   1
 -12   8  14 8.19803 19.2496   1
 -12  -8  13 348.587 21.1559   1
 -12   8  12 39.7023 24.4637   1
 -12   8  11 764.547 29.1030   1
  12   8 -10 235.763 21.4635   1
 -12   8   9 124.908 20.8663   1
  12   8  -8 169.099 22.3519   1
  12   8  -7 259.919 53.1864  -2
 -12   8   8 259.919 53.1864   1
  12   8  -7 464.395 74.3458   1
  12   8  -6 627.032 28.9700  -2
 -12   8   7 627.032 28.9700   1
  12  -8  -5 798.996 28.4970  -2
 -12  -8   6 798.996 28.4970   1
  12  -8  -4 341.218 29.5773  -2
 -12  -8   5 341.218 29.5773   1
  12  -8  -3 1501.65 41.0725  -2
 -12  -8   4 1501.65 41.0725   1
  12  -8  -2 933.690 31.3070  -2
 -12  -8   3 933.690 31.3070   1
  12   8  -1 676.932 29.9523  -2
 -12   8   2 676.932 29.9523   1
 -12   8   1 8.02257 27.0163   1
  12  -8   0 40.4000 33.6948  -2
 -12  -8   1 40.4000 33.6948   1
 -12  -8   0 217.061 21.4524   1
  12   8   1 252.401 53.6139  -2
 -12   8   0 252.401 53.6139   1
 -12   8  -1 37.6653 16.4501   1
 -12  -8  -2 211.607 24.9439   1
 -12  -8  -3 15.0504 23.9058   1
 -12   8  -4 1878.59 39.5270   1
 -12   8  -5-4.22929 39.8476   1
 -12   8  -6 15.7163 44.7683   1
 -12   8  -7 18.4602 42.7349   1
 -12   8  -8 562.191 31.4435   1
 -12  -8  -9 10.6239 26.1032   1
 -12  -8 -10 47.2606 25.6143   1
 -12  -8 -11 58.7633 24.6062   1
 -12  -8 -12 76.8768 21.9860   1
 -12   8 -13 187.574 30.2533   1
 -12  -9  20 65.0754 16.9379   1
 -12   9  19 22.3790 12.8014   1
 -12   9  18 19.1661 11.8315   1
 -12   9  17 8.73576 12.8527   1
 -12   9  16 33.6937 14.3133   1
 -12   9  15-3.63873 17.6147   1
 -12   9  14-1.46418 17.6549   1
 -12   9  13 12.7359 22.8285   1
 -12   9  12 333.853 24.9612   1
 -12   9  11 206.675 24.0366   1
 -12   9  10 17.2069 19.9145   1
 -12   9   9 43.4026 19.8949   1
 -12   9   8 289.261 25.6655   1
  12   9  -7 231.081 50.6289  -2
 -12   9   8 231.081 50.6289   1
 -12   9   6 59.6293 25.6064  -2
  12   9  -7 59.6293 25.6064   1
 -12   9   5 2.71662 24.8881  -2
  12   9  -6 2.71662 24.8881   1
  12  -9  -4 71.1354 28.0961  -2
 -12  -9   5 71.1354 28.0961   1
  12  -9  -3 399.694 32.9772  -2
 -12  -9   4 399.694 32.9772   1
  12  -9  -2 595.416 30.4339  -2
 -12  -9   3 595.416 30.4339   1
  12  -9  -1 166.675 28.9934  -2
 -12  -9   2 166.675 28.9934   1
 -12   9   1 10.9857 27.0325   1
  12  -9   0 79.2637 40.2269  -2
 -12  -9   1 79.2637 40.2269   1
 -12  -9   0 183.200 25.4973   1
  12   9   1 194.699 40.9296  -2
 -12   9   0 194.699 40.9296   1
 -12  -9  -1 12.9144 17.2708   1
 -12  -9  -2 32.5209 23.6627   1
 -12  -9  -3 17.7397 24.1319   1
 -12  -9  -4 591.330 35.2020   1
 -12   9  -5 97.8652 41.2842   1
 -12   9  -6 12.5255 41.3260   1
 -12   9  -7 16.1359 42.8654   1
 -12   9  -8 1482.88 51.2150   1
 -12   9  -9 88.5455 40.4642   1
 -12   9 -10 135.373 41.0092   1
 -12   9 -11 38.9328 36.6100   1
 -12   9 -12 139.734 31.7179   1
 -12   9 -13 20.8207 25.9454   1
 -12 -10  19 489.223 18.1820   1
 -12 -10  18 35.4906 12.1369   1
 -12 -10  17 45.5536 13.6814   1
 -12 -10  16 7.74512 14.7314   1
 -12 -10  15 313.353 16.7333   1
 -12  10  14 6.23278 19.8790   1
 -12  10  13 84.4620 20.8600   1
 -12  10  12 57.9266 21.4398   1
 -12  10  11 704.433 25.9327   1
  12  10 -10 146.670 19.8747   1
  12  10  -9-4.26127 19.1561   1
 -12  10   8 71.3027 24.9364   1
  12  10  -7 352.246 47.9170  -2
 -12  10   8 352.246 47.9170   1
  12  10  -7 914.954 46.0790   1
  12 -10  -6 1119.07 31.2738  -2
 -12 -10   7 1119.07 31.2738   1
 -12  10   5 722.640 27.6481  -2
  12  10  -6 722.640 27.6481   1
 -12  10   4 1003.06 34.6843  -2
  12  10  -5 1003.06 34.6843   1
  12 -10  -3 400.908 37.2680  -2
 -12 -10   4 400.908 37.2680   1
  12 -10  -2 1043.37 39.0003  -2
 -12 -10   3 1043.37 39.0003   1
  12  10  -1 182.695 28.1283  -2
 -12  10   2 182.695 28.1283   1
 -12  10   1 122.703 28.7775   1
  12 -10   0 156.546 38.7040  -2
 -12 -10   1 156.546 38.7040   1
 -12 -10   0 196.587 25.8718   1
  12  10   1 351.013 38.6831  -2
 -12  10   0 351.013 38.6831   1
 -12  10  -1 794.706 20.1815   1
 -12 -10  -2 98.2869 17.6319   1
 -12 -10  -3 302.510 29.3428   1
 -12 -10  -4 58.2743 29.3845   1
 -12  10  -5-12.7741 40.3452   1
 -12  10  -6 224.196 42.5070   1
 -12  10  -7 10.0644 42.2608   1
 -12  10  -8 162.029 40.9236   1
 -12  10  -9 107.190 39.8748   1
 -12  10 -10-12.7531 34.1590   1
 -12  10 -11 21.5223 30.6439   1
 -12  10 -12 9.37478 26.6744   1
  12 -11 -17 2.65511 14.0434   1
  12 -11 -16 9.20760 15.6022   1
  12 -11 -15 63.7339 17.6158   1
  12 -11 -14 5.78761 18.7738   1
  12 -11 -13 32.0376 19.6789   1
  12 -11 -12 8.50629 21.1440   1
 -12  11  11 8.63755 28.5223   1
 -12  11  10 15.9212 22.7472   1
  12  11  -9-6.98737 23.4261   1
  12  11  -8 13.5407 23.8486   1
  12  11  -7-9.40745 39.6828   1
  12 -11  -6 182.496 34.8088  -2
 -12 -11   7 182.496 34.8088   1
 -12  11   5 825.183 38.4743  -2
  12  11  -6 825.183 38.4743   1
 -12  11   4 43.1289 30.2891  -2
  12  11  -5 43.1289 30.2891   1
  12 -11  -3 82.2834 30.6539  -2
 -12 -11   4 82.2834 30.6539   1
  12 -11  -2 285.097 36.0417  -2
 -12 -11   3 285.097 36.0417   1
  12 -11  -1 106.035 26.0226  -2
 -12 -11   2 106.035 26.0226   1
 -12  11   1 245.643 28.9357   1
  12 -11   0 354.540 34.3388  -2
 -12 -11   1 354.540 34.3388   1
 -12 -11   0 307.068 21.9673   1
 -12 -11  -1 48.7946 20.1131   1
 -12 -11  -2 267.933 20.7113   1
 -12 -11  -3 333.103 32.3346   1
 -12 -11  -4 2.48253 29.2455   1
 -12  11  -5 69.4402 40.9909   1
 -12  11  -6 270.920 41.8682   1
 -12  11  -7 18.1271 37.5788   1
 -12  11  -8 22.1355 35.1388   1
 -12  11  -9 62.4820 34.9848   1
 -12  11 -10 120.401 30.7089   1
 -12  11 -11 133.407 28.4980   1
 -12  11 -12 116.015 22.7898   1
  12 -12 -16 36.0537 13.6442   1
  12 -12 -15 2.85308 15.4037   1
  12 -12 -14 6.37646 16.8052   1
  12 -12 -13 185.804 19.2088   1
  12 -12 -12 169.350 20.1919   1
  12 -12 -11 166.913 21.6399   1
  12 -12 -10 180.655 21.8463   1
  12  12  -9 15.7438 18.5436   1
  12  12  -8 206.203 38.9097   1
 -12 -12   7 506.342 31.0719  -2
  12 -12  -8 506.342 31.0719   1
 -12  12   6 1159.79 30.9275  -2
  12  12  -7 1159.79 30.9275   1
  12 -12  -5 1109.85 28.3940  -2
 -12 -12   6 1109.85 28.3940   1
 -12  12   4 916.870 30.4038  -2
  12  12  -5 916.870 30.4038   1
  12 -12  -3 151.982 24.5636  -2
 -12 -12   4 151.982 24.5636   1
  12 -12  -2 380.139 24.6129  -2
 -12 -12   3 380.139 24.6129   1
  12 -12  -1 294.801 25.3941  -2
 -12 -12   2 294.801 25.3941   1
 -12  12   1 21.6514 26.8013   1
  12 -12   0 93.9149 63.8320  -2
 -12 -12   1 93.9149 63.8320   1
 -12 -12   0 191.687 24.9873   1
 -12 -12  -1 419.794 21.0883   1
 -12 -12  -2 855.005 22.5743   1
 -12  12  -3 48.6783 16.9810   1
 -12  12  -4 39.9171 27.2425   1
 -12  12  -5 65.5033 36.8499   1
 -12  12  -6 117.955 35.8312   1
 -12  12  -7 116.689 35.5445   1
 -12  12  -8 75.1833 32.8580   1
 -12  12  -9 12.3216 28.6456   1
 -12  12 -10 49.3252 25.4507   1
 -12  12 -11-3.48445 20.3332   1
  12 -13 -15 6.43186 13.1483   1
  12 -13 -14 18.6429 15.0379   1
  12 -13 -13 144.278 17.0103   1
  12 -13 -12-8.65009 17.6224   1
  12 -13 -11 106.808 19.0611   1
  12 -13 -10 20.2236 18.5065   1
  12 -13  -9 27.9390 19.6766   1
 -12  13   8 95.5512 53.3598  -2
  12  13  -8 95.5512 53.3598   1
 -12 -13   7 75.3374 27.0524  -2
  12 -13  -8 75.3374 27.0524   1
  12  13  -7 119.731 34.2304   1
 -12 -13   6 180.454 28.6121  -2
  12 -13  -7 180.454 28.6121   1
  12 -13  -5 49.9264 22.7761  -2
 -12 -13   6 49.9264 22.7761   1
 -12  13   4 16.3392 22.6846  -2
  12  13  -5 16.3392 22.6846   1
  12 -13  -3 21.8584 21.9065  -2
 -12 -13   4 21.8584 21.9065   1
  12 -13  -2 246.690 22.9293  -2
 -12 -13   3 246.690 22.9293   1
  12 -13  -1 689.069 29.5516  -2
 -12 -13   2 689.069 29.5516   1
 -12  13   1 363.905 28.5361   1
 -12  13   0 455.379 41.0168  -2
  12  13  -1 455.379 41.0168   1
 -12 -13   0 284.963 23.6214   1
 -12 -13  -1 74.6587 21.1905   1
 -12 -13  -2 49.8873 16.3586   1
 -12 -13  -3 8.41208 15.2842   1
 -12  13  -4 9.52151 32.6181   1
 -12  13  -5 159.755 32.9287   1
 -12  13  -6 12.1864 30.8047   1
 -12  13  -7 51.1087 29.4327   1
 -12  13  -8-11.8143 26.6459   1
 -12  13  -9 65.6734 23.9471   1
  12 -14 -14 5.83118 19.1299   1
  12 -14 -13 18.0885 13.7179   1
  12 -14 -12 0.89626 14.9991   1
  12 -14 -11-2.47628 15.8985   1
  12 -14 -10 69.6268 17.2478   1
  12 -14  -9 220.151 19.3849   1
  12  14  -7 699.463 37.4972  -2
 -12  14   8 699.463 37.4972   1
 -12  14   7 58.6303 50.2723  -2
  12  14  -7 58.6303 50.2723   1
 -12 -14   6 35.1488 25.3733  -2
  12 -14  -7 35.1488 25.3733   1
 -12  14   6 134.234 50.7635  -2
  12  14  -6 134.234 50.7635   1
 -12 -14   5 165.654 26.5633  -2
  12 -14  -6 165.654 26.5633   1
 -12 -14   5 50.5034 26.3797   1
 -12 -14   4 165.126 26.4566  -2
  12 -14  -5 165.126 26.4566   1
 -12  14   3 459.027 22.3695  -2
  12  14  -4 459.027 22.3695   1
  12 -14  -2 330.395 30.3613  -2
 -12 -14   3 330.395 30.3613   1
  12 -14  -1 942.467 31.0592  -2
 -12 -14   2 942.467 31.0592   1
  12  14  -1 2.72881 17.2728   1
 -12 -14   0 88.4511 16.5096   1
  12  14   1 13.3049 15.4033   1
 -12 -14  -2 242.052 15.4425   1
 -12  14  -3-14.2271 27.7542   1
 -12  14  -4 12.8032 27.5474   1
 -12  14  -5 16.4011 26.4870   1
 -12  14  -6 11.1502 24.7980   1
 -12  14  -7 7.53389 22.4440   1
  12 -15 -12-11.6458 19.6517   1
  12 -15 -11 6.95820 13.3724   1
  12 -15 -10 25.3519 14.3847   1
 -12  15  10-19.7386 35.5537  -2
  12  15 -10-19.7386 35.5537   1
  12 -15  -9 64.5380 15.4521   1
 -12 -15   7 89.4459 22.5982  -2
  12 -15  -8 89.4459 22.5982   1
 -12 -15   6 189.765 23.2665  -2
  12 -15  -7 189.765 23.2665   1
 -12 -15   5 17.7542 23.1530  -2
  12 -15  -6 17.7542 23.1530   1
 -12  15   5-18.0968 43.6003  -2
  12  15  -5-18.0968 43.6003   1
 -12 -15   4 139.191 23.1290  -2
  12 -15  -5 139.191 23.1290   1
  12  15  -4 436.396 29.6255   1
 -12 -15   3 509.018 24.3823  -2
  12 -15  -4 509.018 24.3823   1
 -12  15   2 218.810 22.5750  -2
  12  15  -3 218.810 22.5750   1
  12 -15  -1 282.079 22.3814  -2
 -12 -15   2 282.079 22.3814   1
 -12 -15   1 9.24619 14.6694   1
  12  15   0 98.8319 14.1881   1
  12  15   1-7.77748 14.0240   1
  12  15   2 3.33577 12.9840   1
  12  15   3-10.6039 20.5180   1
  12  15   4 28.8326 18.2567   1
  12  15   5 14.2014 16.8185   1
  12 -16  -9 10.6515 11.3627   1
  12 -16  -8 200.214 13.4463   1
  12  16  -6 347.641 25.5477  -2
 -12  16   7 347.641 25.5477   1
 -12 -16   5 83.3055 18.7034  -2
  12 -16  -6 83.3055 18.7034   1
  12  16  -4 112.626 26.1474  -2
 -12  16   5 112.626 26.1474   1
  12  16  -3 332.463 26.9468  -2
 -12  16   4 332.463 26.9468   1
 -12  16   3 200.142 35.7296  -2
  12  16  -3 200.142 35.7296   1
  12  16  -2 194.699 25.2952  -2
 -12  16   3 194.699 25.2952   1
  12  16  -2 3.40745 20.4274   1
  12  16  -1 35.5696 23.2604  -2
 -12  16   2 35.5696 23.2604   1
  12  16  -1 31.7249 12.3736   1
  12  16   0 48.6543 11.6987   1
  12  16   1 31.9100 17.7283   1
  12  16   2 15.2543 16.2568   1
 -13   0  23 60.6546 18.2357   1
 -13   0  21 77.6274 25.3457   1
 -13   0  19-4.81288 46.6433   1
 -13   0  17 616.606 54.3417   1
 -13   0  15 117.699 52.1002   1
 -13   0  13 16.9086 41.0972   1
 -13   0  11 926.673 33.1266   1
  13   0  -9 1308.33 42.3468   1
 -13   0   7 128.290 39.0588   1
 -13   0   5 82.4477 34.3190   1
  13   0  -3 300.679 35.6014   1
 -13   0   1 24.2949 36.6315   1
 -13   0  -1 302.076 32.1185   1
 -13   0  -3 2009.20 40.8679   1
 -13   0  -5 3777.98 49.7396   1
 -13   0  -7 1511.93 61.5447   1
 -13   0  -9 25.6262 49.3609   1
 -13   0 -11 1636.73 61.3933   1
 -13   0 -13-0.17486 38.4429   1
 -13  -1  23 65.8289 12.4997   1
 -13   1  22 6.94926 9.77508   1
  14   1 -21-24.3474 37.7245  -2
 -13   1  22-24.3474 37.7245   1
 -13   1  21 125.044 15.6443   1
  14   1 -20 168.142 44.8399  -2
 -13   1  21 168.142 44.8399   1
 -13   1  20 506.756 33.3778   1
 -13   1  19 121.529 33.1781   1
 -13   1  18 165.912 34.3446   1
 -13   1  17 106.293 35.7062   1
 -13   1  16 514.194 37.8603   1
 -13   1  15 270.108 37.0959   1
 -13  -1  14 1021.23 41.0953   1
 -13   1  13 446.809 37.0952   1
 -13   1  12 80.2901 20.4423   1
 -13  -1  11 833.128 22.6945   1
 -13  -1  10 5.38082 19.0058   1
 -13  -1   9 154.618 19.1187   1
  13  -1  -8 105.500 45.6027   1
  13   1  -7 93.5230 31.2530  -2
 -13   1   8 93.5230 31.2530   1
  13  -1  -6 128.729 26.9643  -2
 -13  -1   7 128.729 26.9643   1
  13  -1  -5 323.616 26.3408  -2
 -13  -1   6 323.616 26.3408   1
  13  -1  -4 178.000 25.3984  -2
 -13  -1   5 178.000 25.3984   1
 -13  -1   3 663.482 27.7071  -2
  13  -1  -4 663.482 27.7071   1
  13   1  -2 131.105 25.1451  -2
 -13   1   3 131.105 25.1451   1
  13   1  -1 76.4259 24.3594  -2
 -13   1   2 76.4259 24.3594   1
 -13  -1   1 120.986 42.3383   1
 -13  -1   0 88.4417 28.0562  -2
  13  -1  -1 88.4417 28.0562   1
 -13   1   0 46.6963 33.0373   1
  13  -1   1 182.224 35.8679  -2
 -13  -1   0 182.224 35.8679   1
  13   1   1 739.047 22.9851   1
 -13  -1  -2 928.697 26.0634   1
 -13   1  -3 42.7586 18.8385   1
 -13   1  -4 323.555 21.2861   1
 -13   1  -5 1080.16 25.0070   1
 -13   1  -6 1198.13 34.6844   1
 -13   1  -7-12.0543 34.8389   1
 -13   1  -8 454.637 38.7213   1
 -13   1  -9 16.6986 35.7635   1
 -13   1 -10 55.6158 34.0677   1
 -13   1 -11 8.83203 33.2103   1
 -13   1 -12 88.6202 30.9995   1
 -13   1 -13 7.05114 27.4037   1
 -13  -1 -14 16.2463 33.9560   1
 -13  -2  23 32.2936 15.0903   1
 -13  -2  22 9.55458 10.3590   1
 -13   2  21-0.08765 13.3549   1
 -13   2  20 63.3687 16.8180   1
 -13  -2  19 39.8429 32.1174   1
 -13   2  18-9.27613 33.7777   1
 -13   2  17 117.254 35.4872   1
 -13   2  16 25.1439 35.1209   1
 -13   2  15 171.016 35.8237   1
 -13   2  14 955.216 40.4346   1
 -13   2  13 538.668 31.5297   1
 -13   2  12 6.31971 19.6212   1
 -13   2  11 920.419 26.4861   1
 -13   2  10-4.65462 18.6785   1
 -13  -2   9 5.04337 19.6703   1
  13  -2  -8 459.024 36.3281   1
  13  -2  -7 580.219 33.8657  -2
 -13  -2   8 580.219 33.8657   1
  13  -2  -6 497.247 29.5512  -2
 -13  -2   7 497.247 29.5512   1
  13  -2  -5 47.2172 26.8297  -2
 -13  -2   6 47.2172 26.8297   1
  13   2  -4 32.8748 24.6288  -2
 -13   2   5 32.8748 24.6288   1
 -13  -2   3 557.913 21.5437  -2
  13  -2  -4 557.913 21.5437   1
  13  -2  -2 2235.16 35.8818  -2
 -13  -2   3 2235.16 35.8818   1
  13  -2  -1 955.432 28.4456  -2
 -13  -2   2 955.432 28.4456   1
 -13  -2   1-5.03335 55.6984   1
  13   2   0 80.4847 29.1762  -2
 -13   2   1 80.4847 29.1762   1
  13   2   0 254.984 30.5382   1
  13  -2   1 262.701 36.7305  -2
 -13  -2   0 262.701 36.7305   1
 -13   2  -1 52.9297 18.4278   1
 -13  -2  -2 1721.13 25.2883   1
 -13  -2  -3 1156.65 23.7226   1
 -13   2  -4 63.0005 19.7168   1
 -13   2  -5 36.8771 22.5252   1
 -13   2  -6 1986.03 32.5923   1
 -13   2  -7 1688.20 41.4061   1
 -13   2  -8 105.048 29.8776   1
 -13   2  -9 620.266 38.6099   1
 -13   2 -10-0.71451 34.5128   1
 -13   2 -11-17.1122 32.3033   1
 -13   2 -12 269.996 31.2522   1
 -13  -2 -13-6.78181 37.6968   1
 -13  -2 -14 98.0887 35.2040   1
 -13  -2 -15 0.01149 28.7456   1
 -13   3  23 136.490 17.1120   1
 -13  -3  22 9.82134 10.2046   1
 -13  -3  21 189.903 13.2883   1
 -13   3  20 15.0594 15.4835   1
  14   3 -19 10.0336 47.5436  -2
 -13   3  20 10.0336 47.5436   1
 -13  -3  19 396.466 22.1633   1
 -13  -3  18 449.691 24.2029   1
 -13   3  17-3.65435 23.4154   1
 -13  -3  16 83.1300 24.7785   1
 -13  -3  15 951.978 38.9155   1
 -13  -3  14 817.148 38.2926   1
 -13   3  13 52.0470 21.7902   1
 -13   3  12 82.9313 19.0267   1
 -13   3  11 51.0842 18.8811   1
 -13   3  10 23.2026 20.0717   1
 -13   3   9-5.41484 19.4586   1
  13  -3  -8 1470.02 65.1846   1
  13  -3  -7 1649.75 47.7248  -2
 -13  -3   8 1649.75 47.7248   1
  13  -3  -6 2060.69 49.5456  -2
 -13  -3   7 2060.69 49.5456   1
  13  -3  -5 686.127 23.9847  -2
 -13  -3   6 686.127 23.9847   1
  13   3  -4 2075.50 32.5125  -2
 -13   3   5 2075.50 32.5125   1
  13   3  -3 699.072 23.7458  -2
 -13   3   4 699.072 23.7458   1
 -13   3   3 2457.59 39.8169   1
 -13  -3   2 3229.54 50.5255  -2
  13  -3  -3 3229.54 50.5255   1
  13   3  -1 1582.97 33.1908  -2
 -13   3   2 1582.97 33.1908   1
 -13   3   0 774.025 28.8954  -2
  13   3  -1 774.025 28.8954   1
 -13   3   0 71.2985 21.3766   1
  13   3   1 225.679 56.0476  -2
 -13   3   0 225.679 56.0476   1
 -13   3  -1 748.726 23.1774   1
 -13  -3  -2 54.4672 18.6545   1
 -13  -3  -3 770.053 26.7269   1
 -13  -3  -4 425.917 23.1292   1
 -13  -3  -5 198.356 26.5344   1
 -13   3  -6 764.558 28.6092   1
 -13   3  -7 548.017 30.7282   1
 -13   3  -8-9.11235 27.4173   1
 -13   3  -9 471.388 29.6603   1
 -13   3 -10 95.9294 33.4304   1
 -13  -3 -11 47.2165 44.4522   1
 -13  -3 -12 81.3119 42.2559   1
 -13  -3 -13 12.2975 37.2342   1
 -13  -3 -14 27.1058 32.0516   1
 -13  -4  23 14.1841 15.0759   1
 -13   4  22 19.1380 15.0925   1
 -13  -4  21 7.99497 15.6338   1
  14   4 -20-4.89262 40.1184  -2
 -13   4  21-4.89262 40.1184   1
 -13  -4  20 25.8942 18.1961   1
  14   4 -19 55.1308 44.5256  -2
 -13   4  20 55.1308 44.5256   1
 -13  -4  19 4.54361 15.9410   1
  14   4 -18 76.9596 49.9005  -2
 -13   4  19 76.9596 49.9005   1
 -13   4  18 111.043 16.4251   1
 -13   4  17 110.166 17.9826   1
 -13   4  16 27.0850 18.3491   1
 -13   4  15 205.066 19.7472   1
 -13   4  14 44.1082 17.5004   1
 -13   4  13 12.6648 20.6432   1
 -13   4  12 6.81815 19.7779   1
 -13   4  11 108.614 18.2280   1
 -13  -4  10-3.01876 20.0679   1
 -13  -4   9 72.8256 17.6398   1
  13  -4  -8 2064.94 70.1811   1
  13   4  -7 1855.73 55.5414  -2
 -13   4   8 1855.73 55.5414   1
  13   4  -6 83.3923 25.5572  -2
 -13   4   7 83.3923 25.5572   1
  13   4  -5 77.9022 25.2289  -2
 -13   4   6 77.9022 25.2289   1
  13   4  -4 138.521 25.1094  -2
 -13   4   5 138.521 25.1094   1
  13   4  -3 1022.97 32.6398  -2
 -13   4   4 1022.97 32.6398   1
  13   4  -2 2242.26 41.2214  -2
 -13   4   3 2242.26 41.2214   1
  13   4  -1 516.028 39.0534  -2
 -13   4   2 516.028 39.0534   1
 -13   4   1 60.0191 63.3020   1
  13   4   0 470.179 44.7041  -2
 -13   4   1 470.179 44.7041   1
 -13   4   0 1615.50 46.5477   1
  13  -4   1 1748.10 41.7081  -2
 -13  -4   0 1748.10 41.7081   1
 -13   4  -1 228.053 20.3875   1
 -13   4  -2 101.636 21.8784   1
 -13  -4  -3 1092.18 30.4697   1
 -13  -4  -4 47.2529 23.9179   1
 -13  -4  -5 23.6935 25.4360   1
 -13  -4  -6 654.269 32.0080   1
 -13  -4  -7-8.79653 31.2753   1
 -13  -4  -8 10.5979 31.9873   1
 -13  -4  -9 61.0670 32.7747   1
 -13  -4 -10-7.77341 31.1911   1
 -13  -4 -11 8.24434 40.4542   1
 -13  -4 -12 112.779 41.3146   1
 -13  -4 -13 116.762 35.5197   1
 -13  -4 -14 3.13440 30.8582   1
 -13   5  22 38.9073 14.0911   1
 -13   5  21 98.0166 14.1868   1
 -13  -5  20 61.9721 17.2365   1
  14   5 -19 72.8425 43.2186  -2
 -13   5  20 72.8425 43.2186   1
 -13  -5  19 322.406 17.9882   1
 -13   5  18 2.61032 18.1634   1
 -13  -5  17 9.42738 19.2161   1
 -13   5  16 446.445 21.4775   1
 -13   5  15 52.1574 20.1303   1
 -13   5  14 4.83910 19.9299   1
 -13   5  13 293.910 21.8124   1
 -13  -5  12 779.701 23.1542   1
 -13   5  11 1302.64 29.3780   1
 -13   5  10 122.215 21.1388   1
 -13   5   9 0.12400 20.5221   1
  13  -5  -8 648.423 55.9954   1
  13   5  -7 670.894 37.8802  -2
 -13   5   8 670.894 37.8802   1
  13   5  -6 227.787 28.8261  -2
 -13   5   7 227.787 28.8261   1
  13   5  -5 380.670 26.9604  -2
 -13   5   6 380.670 26.9604   1
  13   5  -4 1521.69 39.3871  -2
 -13   5   5 1521.69 39.3871   1
  13   5  -3 143.208 29.6750  -2
 -13   5   4 143.208 29.6750   1
  13   5  -2 149.172 27.6054  -2
 -13   5   3 149.172 27.6054   1
  13   5  -1 254.589 25.3528  -2
 -13   5   2 254.589 25.3528   1
  13   5   0 1196.41 42.4170  -2
 -13   5   1 1196.41 42.4170   1
 -13   5   0 241.187 36.7474   1
  13   5   1 225.544 58.7112  -2
 -13   5   0 225.544 58.7112   1
 -13   5  -1 36.1316 28.9253   1
 -13   5  -2 138.081 28.9744   1
 -13  -5  -3 13.6132 24.1355   1
 -13  -5  -4 64.9080 25.3774   1
 -13  -5  -5 520.099 28.9136   1
 -13  -5  -6 40.9480 30.1806   1
 -13  -5  -7 252.743 33.6609   1
 -13  -5  -8-14.7201 32.4465   1
 -13  -5  -9 3.49001 30.6215   1
 -13  -5 -10 174.391 30.1566   1
 -13  -5 -11 25.7080 26.8773   1
 -13  -5 -12 45.2149 35.9044   1
 -13  -5 -13 19.5310 31.3515   1
 -13  -6  22 0.34056 15.4457   1
 -13  -6  21 94.4049 28.7568   1
  14   6 -20 200.392 34.2616  -2
 -13   6  21 200.392 34.2616   1
 -13  -6  20 91.1492 17.5699   1
  14   6 -19 103.246 39.7691  -2
 -13   6  20 103.246 39.7691   1
 -13   6  19 18.4261 17.0808   1
 -13   6  18 20.7512 18.1891   1
 -13   6  17 96.1072 18.6713   1
 -13   6  16 2.56886 18.4200   1
 -13   6  15 46.2046 19.4808   1
 -13  -6  14 548.101 21.9775   1
 -13   6  13 12.7867 19.7623   1
 -13   6  12 81.4259 23.4229   1
 -13   6  11 43.2189 25.0684   1
  13   6 -10 191.692 21.2818   1
  13   6  -9 93.0539 18.6227   1
  13   6  -8 156.472 29.1851   1
  13   6  -7 277.835 34.2217  -2
 -13   6   8 277.835 34.2217   1
  13   6  -7 304.786 70.8567   1
  13   6  -6 399.677 27.5435  -2
 -13   6   7 399.677 27.5435   1
  13   6  -5 117.212 25.2268  -2
 -13   6   6 117.212 25.2268   1
 -13   6   4 91.4872 29.0049  -2
  13   6  -5 91.4872 29.0049   1
  13   6  -3 55.5824 28.6603  -2
 -13   6   4 55.5824 28.6603   1
  13   6  -2 212.089 30.8656  -2
 -13   6   3 212.089 30.8656   1
  13   6  -1 137.380 29.0853  -2
 -13   6   2 137.380 29.0853   1
  13   6   0 18.3176 39.2977  -2
 -13   6   1 18.3176 39.2977   1
 -13   6   0-2.43261 41.1819   1
  13   6   1 384.905 58.3757  -2
 -13   6   0 384.905 58.3757   1
 -13   6  -1 1583.89 37.0116   1
 -13   6  -2 62.1629 28.3749   1
 -13   6  -3 126.465 29.1137   1
 -13  -6  -4 440.063 27.0897   1
 -13  -6  -5 695.749 29.7816   1
 -13  -6  -6 89.4272 29.9799   1
 -13  -6  -7 9.79899 31.5591   1
 -13  -6  -8 14.4584 28.9427   1
 -13  -6  -9 12.5661 28.6886   1
 -13  -6 -10 10.7532 26.9464   1
 -13  -6 -11 54.4359 25.3474   1
 -13  -6 -12 15.9068 33.4779   1
 -13   7  21 17.4702 12.7721   1
 -13  -7  20 303.494 16.3498   1
  14   7 -19 245.489 35.7250  -2
 -13   7  20 245.489 35.7250   1
 -13  -7  19 5.78811 17.8406   1
  14   7 -18 11.6773 39.6433  -2
 -13   7  19 11.6773 39.6433   1
 -13   7  18 100.211 17.3333   1
 -13  -7  17 6.63226 18.2126   1
 -13  -7  16 423.003 24.2097   1
 -13   7  15 32.5313 19.8032   1
 -13   7  14 8.10508 19.7938   1
 -13   7  13 137.209 25.3418   1
 -13   7  12 756.519 29.6202   1
 -13   7  11 10.9369 24.5303   1
 -13   7  10 66.1916 20.5618   1
 -13   7   9 162.424 21.2451   1
  13   7  -8 1250.75 43.6743   1
  13   7  -7 1265.97 37.7972  -2
 -13   7   8 1265.97 37.7972   1
  13   7  -7 98.3021 70.6177   1
  13   7  -6 400.712 29.6162  -2
 -13   7   7 400.712 29.6162   1
 -13   7   5 1337.91 41.5965  -2
  13   7  -6 1337.91 41.5965   1
 -13   7   4 233.758 28.4802  -2
  13   7  -5 233.758 28.4802   1
  13   7  -3 1104.70 36.7985  -2
 -13   7   4 1104.70 36.7985   1
  13   7  -2 1040.16 35.3981  -2
 -13   7   3 1040.16 35.3981   1
  13   7  -1 356.201 30.0682  -2
 -13   7   2 356.201 30.0682   1
 -13   7   1 44.9641 25.7490   1
  13   7   0 84.1558 41.2798  -2
 -13   7   1 84.1558 41.2798   1
 -13   7   0 235.015 42.3697   1
  13   7   1 303.181 58.3329  -2
 -13   7   0 303.181 58.3329   1
 -13   7  -1 37.1255 27.7428   1
 -13   7  -2 2.69355 27.6919   1
 -13   7  -3 69.5437 28.3317   1
 -13   7  -4 1002.07 34.6194   1
 -13   7  -5 10.8705 37.1985   1
 -13  -7  -6 36.1218 29.0112   1
 -13  -7  -7 92.1910 28.4111   1
 -13  -7  -8 187.410 29.3536   1
 -13  -7  -9 164.092 28.5055   1
 -13  -7 -10 54.2954 25.1448   1
 -13   7 -11 10.6924 34.4915   1
 -13   8  20 26.5719 15.5912   1
 -13   8  19 9.36416 13.1684   1
 -13   8  18 235.589 15.9357   1
 -13  -8  17 358.663 17.9755   1
 -13   8  16 56.3221 17.7435   1
 -13   8  15 30.9127 18.0380   1
 -13   8  14 8.31690 22.9316   1
 -13   8  13 21.3767 23.1694   1
 -13   8  12 310.178 25.8264   1
 -13   8  11 65.7462 24.1545   1
 -13   8  10 247.414 21.4234   1
 -13   8   9 78.9588 20.4123   1
  13   8  -8 578.291 42.9386   1
  13   8  -7 710.777 34.3945  -2
 -13   8   8 710.777 34.3945   1
 -13   8   6 195.868 29.0554  -2
  13   8  -7 195.868 29.0554   1
 -13   8   5 215.391 28.9384  -2
  13   8  -6 215.391 28.9384   1
 -13   8   4 268.633 29.1136  -2
  13   8  -5 268.633 29.1136   1
  13   8  -3 751.169 35.0333  -2
 -13   8   4 751.169 35.0333   1
  13  -8  -2 998.956 37.2846  -2
 -13  -8   3 998.956 37.2846   1
  13  -8  -1 87.3590 26.8751  -2
 -13  -8   2 87.3590 26.8751   1
 -13   8   1 65.4748 26.9927   1
  13  -8   0 145.317 34.3171  -2
 -13  -8   1 145.317 34.3171   1
 -13   8   0 308.066 23.5358   1
 -13   8  -1 846.558 32.0431   1
 -13   8  -2 52.8178 26.6515   1
 -13   8  -3 194.351 28.3878   1
 -13   8  -4 442.349 35.8329   1
 -13   8  -5 0.06287 38.6629   1
 -13   8  -6-0.49250 39.9911   1
 -13   8  -7 215.189 44.8916   1
 -13   8  -8 5.38651 38.3918   1
 -13   8  -9 222.362 39.8632   1
 -13   8 -10 28.7468 37.3964   1
 -13   8 -11-7.81544 33.9506   1
 -13  -9  19 618.461 16.4716   1
 -13   9  18 16.4778 10.8243   1
 -13   9  17 115.482 12.5837   1
 -13   9  16 14.8277 15.0950   1
 -13   9  15 146.732 20.7762   1
 -13   9  14 5.96290 20.2482   1
 -13   9  13 27.7324 21.5913   1
 -13   9  12 8.47849 21.9792   1
 -13   9  11 491.842 25.2763   1
 -13   9  10 9.17912 19.2409   1
  13   9  -9 246.967 20.4383   1
  13   9  -8 9.61608 38.7668   1
  13   9  -7 17.7344 30.4754  -2
 -13   9   8 17.7344 30.4754   1
 -13   9   6 16.3763 27.5782  -2
  13   9  -7 16.3763 27.5782   1
  13   9  -5 250.786 28.5680  -2
 -13   9   6 250.786 28.5680   1
  13   9  -4 1158.87 32.4902  -2
 -13   9   5 1158.87 32.4902   1
  13  -9  -3 603.745 30.7246  -2
 -13  -9   4 603.745 30.7246   1
  13  -9  -2 1349.66 38.9519  -2
 -13  -9   3 1349.66 38.9519   1
  13  -9  -1 92.5423 27.4894  -2
 -13  -9   2 92.5423 27.4894   1
 -13   9   1 149.793 28.0258   1
  13  -9   0 303.913 40.9915  -2
 -13  -9   1 303.913 40.9915   1
 -13  -9   0 408.211 21.7325   1
  13   9   1 447.939 52.9588  -2
 -13   9   0 447.939 52.9588   1
 -13  -9  -1 65.3725 23.6908   1
 -13   9  -2 806.220 31.2267   1
 -13   9  -3 130.032 32.4517   1
 -13   9  -4 1.47495 37.4007   1
 -13   9  -5 338.355 42.7675   1
 -13   9  -6 44.7889 40.0450   1
 -13   9  -7 97.3178 38.3792   1
 -13   9  -8 16.7769 37.2827   1
 -13   9  -9 38.5629 35.1011   1
 -13   9 -10 43.0175 33.3916   1
 -13   9 -11 22.4634 28.0362   1
 -13  10  18 9.36818 16.8499   1
  13 -10 -17 0.97593 14.5044   1
  13 -10 -16-0.84490 16.2592   1
  13 -10 -15 147.682 18.6140   1
 -13  10  14 28.4577 18.7602   1
 -13  10  13 5.45816 18.3364   1
 -13  10  12 0.86337 19.2338   1
 -13  10  11 5.95522 19.2927   1
 -13  10  10-0.17860 20.9053   1
  13  10  -9-2.12903 18.7612   1
  13  10  -8 97.6642 39.1146   1
  13  10  -7 124.087 29.9556  -2
 -13  10   8 124.087 29.9556   1
 -13  10   6 12.0011 26.5222  -2
  13  10  -7 12.0011 26.5222   1
 -13  10   5 81.1208 26.5149  -2
  13  10  -6 81.1208 26.5149   1
 -13  10   4 281.470 27.7049  -2
  13  10  -5 281.470 27.7049   1
 -13  10   3 181.902 25.7546  -2
  13  10  -4 181.902 25.7546   1
  13 -10  -2 735.696 36.6565  -2
 -13 -10   3 735.696 36.6565   1
  13 -10  -1 225.405 27.3767  -2
 -13 -10   2 225.405 27.3767   1
 -13  10   1 130.414 27.3916   1
  13 -10   0 157.788 36.9341  -2
 -13 -10   1 157.788 36.9341   1
 -13 -10   0 45.7507 19.5077   1
  13  10   1 99.8694 48.7216  -2
 -13  10   0 99.8694 48.7216   1
 -13 -10  -1 14.4814 16.5916   1
 -13  10  -2 1347.81 36.7639   1
 -13  10  -3-1.14389 35.9319   1
 -13  10  -4 50.8972 37.7029   1
 -13  10  -5 856.081 43.8091   1
 -13  10  -6 50.2729 37.6671   1
 -13  10  -7 68.1728 38.6559   1
 -13  10  -8 442.982 39.8607   1
 -13  10  -9 68.7562 32.4717   1
 -13  10 -10 220.318 31.6300   1
 -13  10 -11 4.61577 24.1729   1
  13 -11 -17 195.611 13.1674   1
  13 -11 -16 170.699 15.2099   1
  13 -11 -15 118.464 16.5926   1
  13 -11 -14-8.61904 17.1949   1
  13 -11 -13 126.870 19.2388   1
  13 -11 -12 3.08789 19.6987   1
 -13  11  11 106.035 28.4496   1
 -13  11  10-11.8448 28.1567   1
 -13  11   9 169.118 22.8781   1
  13  11  -8 19.1501 38.2534   1
  13  11  -7 556.661 41.0562  -2
 -13  11   8 556.661 41.0562   1
 -13  11   6 2258.32 42.2985  -2
  13  11  -7 2258.32 42.2985   1
 -13  11   5 228.739 33.9338  -2
  13  11  -6 228.739 33.9338   1
 -13  11   4 334.720 34.0441  -2
  13  11  -5 334.720 34.0441   1
  13 -11  -3 161.261 29.1966  -2
 -13 -11   4 161.261 29.1966   1
 -13  11   2 202.423 23.4122  -2
  13  11  -3 202.423 23.4122   1
  13 -11  -1 186.650 24.3466  -2
 -13 -11   2 186.650 24.3466   1
 -13  11   1 299.192 28.6747   1
  13 -11   0 326.356 62.2505  -2
 -13 -11   1 326.356 62.2505   1
 -13 -11   0 217.759 24.0380   1
 -13 -11  -1 525.815 20.6714   1
 -13  11  -2 30.2477 35.8564   1
 -13  11  -3 675.029 42.6840   1
 -13  11  -4 411.211 40.4079   1
 -13  11  -5 200.884 37.2566   1
 -13  11  -6 14.2453 34.7945   1
 -13  11  -7 32.7373 33.7472   1
 -13  11  -8-5.12018 31.5539   1
 -13  11  -9 31.1634 27.2258   1
 -13  11 -10 15.6033 24.1617   1
  13 -12 -16-7.23468 11.8453   1
  13 -12 -15 71.4751 14.2463   1
  13 -12 -14 4.29998 15.4965   1
  13 -12 -13 28.2032 17.1596   1
  13 -12 -12 0.64071 18.6092   1
  13 -12 -11 58.1808 18.7395   1
  13 -12 -10-0.85618 18.5790   1
  13 -12  -9 15.1841 20.2608   1
  13  12  -8 7.45292 34.5056   1
 -13 -12   7 119.479 27.3475  -2
  13 -12  -8 119.479 27.3475   1
 -13  12   6 160.673 25.3247  -2
  13  12  -7 160.673 25.3247   1
 -13  12   5 12.7010 24.9870  -2
  13  12  -6 12.7010 24.9870   1
 -13  12   4 122.228 24.9718  -2
  13  12  -5 122.228 24.9718   1
 -13  12   3 338.271 25.5628  -2
  13  12  -4 338.271 25.5628   1
 -13  12   2 76.9148 21.9111  -2
  13  12  -3 76.9148 21.9111   1
 -13  12   1 44.0479 20.6086  -2
  13  12  -2 44.0479 20.6086   1
 -13  12   1 66.2313 25.1131   1
  13 -12   0 110.472 54.6122  -2
 -13 -12   1 110.472 54.6122   1
 -13 -12   0 10.1867 21.1956   1
 -13  12  -1 586.977 25.5563   1
 -13  12  -2 1.10299 32.7752   1
 -13  12  -3-4.02767 32.8476   1
 -13  12  -4 32.0960 32.3184   1
 -13  12  -5 129.914 32.7591   1
 -13  12  -6 159.488 31.3684   1
 -13  12  -7 11.5316 28.5831   1
 -13  12  -8 104.051 26.2443   1
 -13  12  -9-17.2143 21.8635   1
  13 -13 -15 100.657 18.4051   1
  13 -13 -14 11.7646 12.8952   1
  13 -13 -13 101.443 14.9670   1
  13 -13 -12 113.881 16.4537   1
  13 -13 -11 130.845 16.9780   1
  13 -13 -10 34.5090 17.8414   1
  13 -13  -9 211.003 19.2088   1
  13  13  -8-14.3767 30.7884   1
 -13 -13   7-18.3836 24.9033  -2
  13 -13  -8-18.3836 24.9033   1
 -13 -13   6 34.0192 22.7602  -2
  13 -13  -7 34.0192 22.7602   1
 -13 -13   5 166.437 23.4165  -2
  13 -13  -6 166.437 23.4165   1
 -13  13   4 136.407 23.0780  -2
  13  13  -5 136.407 23.0780   1
 -13  13   3 228.567 23.6476  -2
  13  13  -4 228.567 23.6476   1
 -13  13   2 425.262 30.1881  -2
  13  13  -3 425.262 30.1881   1
 -13  13   1 87.3015 28.0143  -2
  13  13  -2 87.3015 28.0143   1
  13  13  -1 49.0158 17.9034   1
  13  13   0 126.481 17.5814   1
  13  13   1 7.56783 15.5121   1
 -13  13  -3 23.4115 28.0448   1
 -13  13  -4 5.72349 26.5266   1
 -13  13  -5 68.4683 26.1832   1
 -13  13  -6 1.55512 24.9808   1
 -13  13  -7-0.98470 21.9810   1
  13 -14 -13 5.08098 19.0987   1
  13 -14 -12 46.8809 13.1852   1
  13 -14 -11 17.5433 14.2749   1
  13 -14 -10 69.3958 16.0032   1
  13 -14  -9 23.3417 16.2107   1
 -13 -14   7 10.4870 22.7873  -2
  13 -14  -8 10.4870 22.7873   1
 -13  14   6 115.139 20.6966  -2
  13  14  -7 115.139 20.6966   1
 -13  14   5 469.371 27.4746  -2
  13  14  -6 469.371 27.4746   1
 -13  14   4 27.8178 20.2734  -2
  13  14  -5 27.8178 20.2734   1
 -13  14   3 42.0808 19.8721  -2
  13  14  -4 42.0808 19.8721   1
  13  14  -2 21.8212 25.3209  -2
 -13  14   3 21.8212 25.3209   1
 -13  14   1 62.9839 24.1659  -2
  13  14  -2 62.9839 24.1659   1
  13  14  -1 41.7908 15.9494   1
  13  14   0 27.4729 14.9199   1
  13  14   1 10.8707 13.7494   1
  13  14   2 167.246 23.4787   1
  13  14   3 111.166 21.3415   1
  13  14   4 21.9979 19.5149   1
  13  14   5 31.9196 17.9292   1
  13 -15 -10 40.9792 12.1174   1
  13 -15  -9 12.4473 13.0877   1
 -13 -15   7 106.932 19.0106  -2
  13 -15  -8 106.932 19.0106   1
  13  15  -6 436.968 27.8073  -2
 -13  15   7 436.968 27.8073   1
 -13 -15   5 89.6522 19.3979  -2
  13 -15  -6 89.6522 19.3979   1
 -13  15   4 23.2392 16.8239  -2
  13  15  -5 23.2392 16.8239   1
 -13  15   3 51.5108 21.4190  -2
  13  15  -4 51.5108 21.4190   1
 -13  15   2 138.524 21.3343  -2
  13  15  -3 138.524 21.3343   1
  13  15  -2 20.4527 21.6200   1
  13  15  -1 46.9468 24.0366  -2
 -13  15   2 46.9468 24.0366   1
 -13  15   1 7.69170 12.8309   1
  13  15   0 26.7209 12.1028   1
  13  15   1 37.4428 19.3319   1
  13  15   2 3.92027 17.3905   1
  13  15   3 49.2680 16.1887   1
 -14   0  22 3.31485 12.5382   1
 -14   0  20 193.468 26.0642   1
 -14   0  18 350.632 30.3632   1
 -14   0  16 66.4630 31.3283   1
 -14   0  14 1041.56 37.4712   1
 -14   0  12 1919.77 41.0765   1
  14   0 -10 1040.99 32.5143   1
 -14   0   8 59.1482 48.0756   1
 -14   0   6 876.241 48.4497   1
  14   0  -4 506.108 36.7191   1
 -14   0   2 535.951 40.1737   1
 -14   0   0 133.419 40.7211   1
 -14   0  -2 201.608 38.3906   1
 -14   0  -4 779.061 46.1687   1
 -14   0  -6-37.7374 46.9860   1
 -14   0  -8 164.559 51.9880   1
 -14   0 -10 21.9954 45.9250   1
 -14  -1  22 2.51695 9.25191   1
  15   1 -21 36.1612 31.6667  -2
 -14   1  22 36.1612 31.6667   1
 -14   1  21 14.4009 13.6707   1
  15   1 -20 53.7096 38.1120  -2
 -14   1  21 53.7096 38.1120   1
 -14   1  20 9.01448 13.9371   1
 -14   1  19 9.67999 18.9216   1
 -14   1  18-3.54676 19.8539   1
 -14   1  17-3.90641 21.0040   1
 -14  -1  16 18.3460 21.9016   1
 -14  -1  15 23.6936 22.0600   1
 -14  -1  14 70.9211 22.7963   1
 -14   1  13 402.626 23.9211   1
 -14  -1  12 651.511 24.3720   1
 -14   1  11-13.7340 21.1014   1
 -14   1  10 64.2592 19.3226   1
  14  -1  -9 133.197 22.0534   1
  14   1  -8 1956.11 103.231   1
  14  -1  -7 2095.31 42.3307  -2
 -14  -1   8 2095.31 42.3307   1
  14  -1  -6 179.068 30.2922  -2
 -14  -1   7 179.068 30.2922   1
  14  -1  -5 362.613 30.5166  -2
 -14  -1   6 362.613 30.5166   1
  14   1  -4 691.726 29.9233  -2
 -14   1   5 691.726 29.9233   1
  14   1  -3 560.964 29.4677  -2
 -14   1   4 560.964 29.4677   1
 -14  -1   2 65.3939 28.0855  -2
  14  -1  -3 65.3939 28.0855   1
  14  -1  -1 123.564 26.6914  -2
 -14  -1   2 123.564 26.6914   1
 -14   1   1 321.770 69.0435   1
 -14   1   0 418.989 32.5331  -2
  14   1  -1 418.989 32.5331   1
 -14  -1   0 64.3863 63.2819   1
  14  -1   1 215.101 39.2587  -2
 -14  -1   0 215.101 39.2587   1
 -14  -1  -1 555.544 29.1735   1
 -14  -1  -2 194.640 27.1518   1
 -14  -1  -3 383.504 29.1479   1
 -14  -1  -4 2834.57 40.7561   1
 -14  -1  -5 697.924 33.9656   1
 -14  -1  -6 247.071 43.7286   1
 -14  -1  -7 257.029 37.7997   1
 -14   1  -8 119.588 37.4602   1
 -14   1  -9 124.670 34.1424   1
 -14  -1 -10-17.2043 43.4724   1
 -14  -1 -11 85.3285 43.4165   1
 -14  -2  22-1.63333 9.16371   1
  15   2 -21-11.3138 31.7203  -2
 -14   2  22-11.3138 31.7203   1
 -14  -2  21 154.047 13.5546   1
  15   2 -20 234.090 39.6415  -2
 -14   2  21 234.090 39.6415   1
 -14   2  20 14.3692 13.5047   1
 -14   2  19 236.807 15.8859   1
 -14   2  18 144.182 20.3037   1
 -14   2  17 45.2202 20.5134   1
 -14   2  16 148.429 21.6081   1
 -14   2  15 268.376 22.8120   1
 -14   2  14 359.947 23.3607   1
 -14   2  13 190.442 22.4414   1
 -14   2  12 294.892 22.8166   1
 -14   2  11 20.8879 20.5763   1
  14  -2 -10 422.758 23.2711   1
 -14  -2   9 89.4412 21.1833   1
  14  -2  -8 943.477 87.5742   1
  14  -2  -7 1126.61 38.7675  -2
 -14  -2   8 1126.61 38.7675   1
  14  -2  -6 1253.42 36.2782  -2
 -14  -2   7 1253.42 36.2782   1
  14   2  -5 2473.28 41.4362  -2
 -14   2   6 2473.28 41.4362   1
 -14  -2   4 345.373 23.6105  -2
  14  -2  -5 345.373 23.6105   1
  14   2  -3 80.1424 29.5845  -2
 -14   2   4 80.1424 29.5845   1
  14   2  -2 196.075 29.4610  -2
 -14   2   3 196.075 29.4610   1
  14   2  -1 342.314 34.5503  -2
 -14   2   2 342.314 34.5503   1
 -14   2   1 75.4191 65.2924   1
 -14   2   0 69.7536 33.7984  -2
  14   2  -1 69.7536 33.7984   1
  14   2   0 53.2418 65.2036   1
  14  -2   1 266.113 38.7787  -2
 -14  -2   0 266.113 38.7787   1
 -14  -2  -1 737.884 29.4472   1
 -14  -2  -2 21.9328 25.1329   1
 -14  -2  -3 16.6342 26.5014   1
 -14  -2  -4 14.6216 29.3274   1
 -14  -2  -5-15.3183 32.7499   1
 -14  -2  -6 148.689 46.4859   1
 -14  -2  -7 27.5931 46.4250   1
 -14  -2  -8-2.16442 47.3778   1
 -14  -2  -9 36.1342 43.7543   1
 -14  -2 -10 50.1383 44.0271   1
 -14  -2 -11-2.87955 40.2978   1
 -14  -2 -12 49.3922 37.3132   1
 -14   3  22 21.4850 13.5183   1
 -14  -3  21 48.7770 12.8776   1
  15   3 -20 66.3780 37.6896  -2
 -14   3  21 66.3780 37.6896   1
 -14  -3  20 36.7451 12.9825   1
 -14  -3  19 26.5310 14.1367   1
 -14  -3  18 13.4015 15.4579   1
 -14   3  17 269.837 17.5252   1
 -14   3  16 59.1668 16.9533   1
 -14   3  15 0.11423 20.6966   1
 -14   3  14 7.02449 20.9182   1
 -14   3  13 3.11651 20.7515   1
 -14   3  12 1.26898 20.3089   1
 -14  -3  11 66.8501 23.2583   1
 -14  -3  10 4.61316 23.3169   1
  14   3  -9 448.933 22.5465   1
  14   3  -8 586.532 83.2037   1
  14  -3  -7 853.621 27.5885  -2
 -14  -3   8 853.621 27.5885   1
  14   3  -6 1561.64 35.8066  -2
 -14   3   7 1561.64 35.8066   1
  14   3  -5 2003.33 33.9957  -2
 -14   3   6 2003.33 33.9957   1
 -14  -3   4 534.098 24.4664  -2
  14  -3  -5 534.098 24.4664   1
 -14  -3   3 2243.22 34.0145  -2
  14  -3  -4 2243.22 34.0145   1
  14  -3  -2 2078.16 45.0089  -2
 -14  -3   3 2078.16 45.0089   1
 -14   3   1 212.166 33.1844  -2
  14   3  -2 212.166 33.1844   1
 -14   3   0 579.214 34.5293  -2
  14   3  -1 579.214 34.5293   1
  14   3   0 32.1552 35.6467   1
  14  -3   1 76.3993 36.9911  -2
 -14  -3   0 76.3993 36.9911   1
 -14   3  -1 279.370 23.0802   1
 -14   3  -2 2.15911 21.3557   1
 -14   3  -3 91.9688 22.7701   1
 -14   3  -4 632.231 34.1147   1
 -14  -3  -5 941.684 38.8540   1
 -14  -3  -6 284.461 35.6293   1
 -14  -3  -7 152.893 45.6343   1
 -14  -3  -8 402.422 47.1869   1
 -14  -3  -9 82.2961 45.5338   1
 -14  -3 -10 129.619 42.9463   1
 -14  -3 -11 29.7912 40.8025   1
 -14   4  22 7.30485 12.4958   1
 -14  -4  21 139.073 15.8899   1
  15   4 -20 118.646 35.5587  -2
 -14   4  21 118.646 35.5587   1
 -14  -4  20 36.1729 16.7753   1
  15   4 -19 6.88162 44.6654  -2
 -14   4  20 6.88162 44.6654   1
 -14   4  19 27.0118 16.2843   1
 -14   4  18 125.891 18.4351   1
 -14  -4  17 324.135 16.6910   1
 -14  -4  16 175.961 17.0012   1
 -14  -4  15 48.3494 16.5652   1
 -14  -4  14 78.5427 17.0134   1
 -14  -4  13 169.124 17.6716   1
 -14  -4  12 211.320 19.3743   1
 -14  -4  11 141.176 18.4971   1
 -14  -4  10 17.4945 18.1320   1
 -14  -4   9 128.945 20.3509   1
  14   4  -8 314.794 74.0998   1
  14   4  -7 298.709 33.5259  -2
 -14   4   8 298.709 33.5259   1
  14   4  -6 104.440 28.1003  -2
 -14   4   7 104.440 28.1003   1
  14   4  -5 143.653 27.8149  -2
 -14   4   6 143.653 27.8149   1
 -14  -4   4 384.830 29.0070  -2
  14  -4  -5 384.830 29.0070   1
 -14   4   3 554.682 30.4715  -2
  14   4  -4 554.682 30.4715   1
 -14   4   2 26.1911 46.4545  -2
  14   4  -3 26.1911 46.4545   1
 -14   4   1 325.502 47.5960  -2
  14   4  -2 325.502 47.5960   1
  14   4   0 780.252 40.1822  -2
 -14   4   1 780.252 40.1822   1
 -14   4   0 5.77976 42.0970   1
  14  -4   1 173.475 36.9572  -2
 -14  -4   0 173.475 36.9572   1
 -14   4  -1 734.976 24.4804   1
 -14   4  -2-0.94363 21.7327   1
 -14   4  -3 320.885 27.2511   1
 -14   4  -4 104.188 32.1547   1
 -14  -4  -5 562.957 29.4567   1
 -14  -4  -6 99.3014 30.4849   1
 -14  -4  -7 102.089 30.2584   1
 -14  -4  -8 201.031 32.6460   1
 -14  -4  -9 24.9194 42.7693   1
 -14  -4 -10 2.31501 40.8357   1
 -14  -4 -11 28.1684 36.8184   1
 -14  -5  21-1.82407 13.7170   1
  15   5 -20 32.8233 32.2487  -2
 -14   5  21 32.8233 32.2487   1
 -14   5  20 0.50963 14.4832   1
 -14   5  19 50.1927 16.7833   1
 -14   5  18 57.7232 16.8487   1
 -14   5  17 117.771 19.9805   1
 -14   5  16 12.2606 18.8834   1
 -14   5  15 170.777 20.2001   1
 -14   5  14 11.7504 19.5525   1
 -14   5  13 179.051 24.0525   1
 -14   5  12 341.605 24.8343   1
 -14   5  11 2.67292 25.2006   1
 -14   5  10-16.0785 24.8025   1
 -14   5   9 138.016 43.4682   1
  14   5  -8 592.091 43.9974  -2
 -14   5   9 592.091 43.9974   1
  14   5  -7 1817.22 39.2883  -2
 -14   5   8 1817.22 39.2883   1
  14   5  -6 96.9460 30.0408  -2
 -14   5   7 96.9460 30.0408   1
 -14   5   5 3.78638 27.9956  -2
  14   5  -6 3.78638 27.9956   1
 -14   5   4 45.1593 28.1282  -2
  14   5  -5 45.1593 28.1282   1
 -14   5   3 84.5711 28.0850  -2
  14   5  -4 84.5711 28.0850   1
 -14   5   2 38.5008 26.7481  -2
  14   5  -3 38.5008 26.7481   1
  14   5  -1 258.633 59.5286  -2
 -14   5   2 258.633 59.5286   1
  14   5   0 887.486 46.1099  -2
 -14   5   1 887.486 46.1099   1
 -14   5   0 1204.89 50.8207   1
  14   5   1 1743.73 68.0824  -2
 -14   5   0 1743.73 68.0824   1
 -14   5  -1 890.033 34.2268   1
 -14   5  -2 349.451 31.6190   1
 -14   5  -3 55.3434 29.7842   1
 -14   5  -4 233.106 32.0324   1
 -14   5  -5 250.128 36.8984   1
 -14   5  -6 863.888 46.6140   1
 -14  -5  -7 205.208 31.1099   1
 -14  -5  -8 544.244 32.7568   1
 -14  -5  -9 25.9947 27.6601   1
 -14   6  21 22.1815 20.6952   1
 -14  -6  20 386.070 20.7482   1
 -14   6  19 24.3288 15.6317   1
 -14   6  18 176.373 17.7252   1
 -14   6  17 25.9942 18.0873   1
 -14  -6  16 399.109 20.5430   1
 -14   6  15 0.13999 18.9294   1
 -14   6  14 51.5932 24.7552   1
 -14   6  13 14.5370 25.3357   1
 -14   6  12 313.351 27.5159   1
 -14   6  11 44.9172 25.0412   1
 -14   6  10 287.053 26.9735   1
 -14   6   9 1495.23 33.4101   1
  14   6  -7 1286.83 38.1146  -2
 -14   6   8 1286.83 38.1146   1
  14   6  -6 530.815 35.1454  -2
 -14   6   7 530.815 35.1454   1
  14   6  -5 1026.85 37.4727  -2
 -14   6   6 1026.85 37.4727   1
 -14   6   4 1294.80 38.1261  -2
  14   6  -5 1294.80 38.1261   1
 -14   6   3 717.237 33.3953  -2
  14   6  -4 717.237 33.3953   1
  14   6  -2 15.2008 29.0378  -2
 -14   6   3 15.2008 29.0378   1
  14   6  -1 36.9230 56.5088  -2
 -14   6   2 36.9230 56.5088   1
  14   6   0 239.491 43.0756  -2
 -14   6   1 239.491 43.0756   1
 -14   6   0 578.818 46.4690   1
  14   6   1 723.608 61.0820  -2
 -14   6   0 723.608 61.0820   1
 -14   6  -1 25.7376 28.0014   1
 -14   6  -2 71.8041 28.8808   1
 -14   6  -3 27.8685 28.7965   1
 -14   6  -4 357.331 31.5083   1
 -14   6  -5-8.28961 38.9633   1
 -14   6  -6 58.1667 42.2654   1
 -14   6  -7 69.6249 40.9149   1
 -14   6  -8 101.194 42.6814   1
 -14   6  -9 21.4404 39.4735   1
 -14   7  20 113.127 22.1010   1
 -14   7  19 2.02477 13.7273   1
 -14   7  18 22.0231 12.5885   1
 -14   7  17 73.3363 16.8654   1
 -14   7  16 3.99744 17.2067   1
 -14   7  15 6.14775 22.0680   1
 -14   7  14 57.6269 23.3431   1
 -14   7  13 55.9582 24.7191   1
 -14   7  12 197.693 25.6600   1
 -14   7  11 14.5371 24.8014   1
 -14   7  10 10.2949 24.3042   1
 -14   7   9 139.180 20.0730   1
  14   7  -8 212.554 34.8795   1
  14   7  -7 213.926 32.5341  -2
 -14   7   8 213.926 32.5341   1
 -14   7   6 14.0308 27.1893  -2
  14   7  -7 14.0308 27.1893   1
 -14   7   5 243.881 28.2257  -2
  14   7  -6 243.881 28.2257   1
 -14   7   4 1000.08 37.1449  -2
  14   7  -5 1000.08 37.1449   1
 -14   7   3 8.48066 26.4780  -2
  14   7  -4 8.48066 26.4780   1
  14   7  -2 97.8387 29.5139  -2
 -14   7   3 97.8387 29.5139   1
  14   7  -1 246.564 29.1381  -2
 -14   7   2 246.564 29.1381   1
  14   7   0 150.321 41.2454  -2
 -14   7   1 150.321 41.2454   1
 -14   7   0 8.53618 39.7369   1
  14   7   1 60.4536 56.8525  -2
 -14   7   0 60.4536 56.8525   1
 -14   7  -1 211.592 28.6443   1
 -14   7  -2 689.453 31.6620   1
 -14   7  -3-8.12459 28.1498   1
 -14   7  -4 70.4793 32.4821   1
 -14   7  -5 30.6775 39.9234   1
 -14   7  -6 10.9245 41.2822   1
 -14   7  -7 51.8605 38.4728   1
 -14   7  -8 1.75652 40.0890   1
 -14   7  -9 185.720 38.6632   1
 -14   8  19 64.5318 13.6245   1
 -14   8  18 136.045 12.9515   1
 -14   8  17 195.756 18.7568   1
 -14   8  16 176.651 20.3703   1
 -14   8  15 3.93152 20.2113   1
 -14   8  14 99.8111 21.2446   1
 -14   8  13 465.023 25.0241   1
 -14   8  12 9.43279 22.3341   1
 -14   8  11 572.543 26.5895   1
 -14   8  10 315.838 25.1970   1
  14   8  -9 45.1520 25.3402   1
  14   8  -8 17.5979 40.5205  -2
 -14   8   9 17.5979 40.5205   1
  14   8  -8-6.22297 35.8037   1
  14   8  -7 24.0145 31.2333  -2
 -14   8   8 24.0145 31.2333   1
 -14   8   6 23.8886 27.5214  -2
  14   8  -7 23.8886 27.5214   1
 -14   8   5 206.666 27.9853  -2
  14   8  -6 206.666 27.9853   1
 -14   8   4 619.384 35.5750  -2
  14   8  -5 619.384 35.5750   1
 -14   8   3 946.747 35.3871  -2
  14   8  -4 946.747 35.3871   1
  14   8  -2 569.311 31.7466  -2
 -14   8   3 569.311 31.7466   1
  14   8  -1 119.789 28.8046  -2
 -14   8   2 119.789 28.8046   1
 -14   8   1 113.302 25.1513   1
  14   8   0 324.776 55.2519  -2
 -14   8   1 324.776 55.2519   1
 -14   8   0 623.304 43.3237   1
  14   8   1 766.115 58.1722  -2
 -14   8   0 766.115 58.1722   1
 -14   8  -1-5.39693 25.5918   1
 -14   8  -2 14.1374 26.0925   1
 -14   8  -3 7.06971 28.9922   1
 -14   8  -4 52.7687 35.8887   1
 -14   8  -5 9.66657 37.3646   1
 -14   8  -6 34.9109 37.2956   1
 -14   8  -7 90.9919 39.0335   1
 -14   8  -8 91.6651 36.2423   1
 -14   8  -9 14.9417 33.7011   1
  14  -9 -18 22.6066 12.8120   1
  14  -9 -17-16.7798 12.0122   1
  14  -9 -16 72.3124 13.7197   1
 -14   9  15 52.6243 18.6216   1
 -14   9  14 0.35105 18.9962   1
 -14   9  13 95.6360 21.0195   1
 -14   9  12 63.4618 20.6494   1
 -14   9  11 27.8513 21.2774   1
 -14   9  10 9.63042 21.8620   1
 -14   9   9 132.893 19.1188   1
 -14   9   7 115.663 27.3551  -2
  14   9  -8 115.663 27.3551   1
 -14   9   6 211.439 26.8520  -2
  14   9  -7 211.439 26.8520   1
 -14   9   5 25.1995 26.1746  -2
  14   9  -6 25.1995 26.1746   1
 -14   9   4 20.4987 24.8484  -2
  14   9  -5 20.4987 24.8484   1
 -14   9   3 42.3781 26.0031  -2
  14   9  -4 42.3781 26.0031   1
 -14   9   2 179.880 26.2565  -2
  14   9  -3 179.880 26.2565   1
  14   9  -1 165.317 28.5647  -2
 -14   9   2 165.317 28.5647   1
 -14   9   1 1.64264 24.3773   1
  14   9   0 140.788 53.5299  -2
 -14   9   1 140.788 53.5299   1
 -14   9   0 537.082 40.9532   1
 -14   9  -1 16.9994 24.3896   1
 -14   9  -2-4.48130 27.3531   1
 -14   9  -3 33.9377 34.5801   1
 -14   9  -4 43.8779 35.8965   1
 -14   9  -5 56.4152 35.7953   1
 -14   9  -6 24.7768 36.0029   1
 -14   9  -7 16.9120 35.5830   1
 -14   9  -8 71.1799 33.9809   1
 -14   9  -9 18.6979 29.9785   1
  14 -10 -17 86.1604 13.0369   1
  14 -10 -16 25.6982 14.4131   1
  14 -10 -15-2.05203 16.3227   1
  14 -10 -14 214.615 15.1473   1
 -14  10  13 148.451 18.0092   1
 -14  10  12 33.6833 18.8955   1
 -14  10  11 16.9844 18.8366   1
 -14  10  10 27.8429 19.7361   1
  14  10  -9 106.857 17.6439   1
 -14  10   7 390.840 26.4924  -2
  14  10  -8 390.840 26.4924   1
 -14  10   6 1314.54 39.6887  -2
  14  10  -7 1314.54 39.6887   1
 -14  10   5-2.04849 25.3568  -2
  14  10  -6-2.04849 25.3568   1
 -14  10   4 41.6846 25.0788  -2
  14  10  -5 41.6846 25.0788   1
 -14  10   3 157.114 25.4538  -2
  14  10  -4 157.114 25.4538   1
 -14  10   2 288.197 25.9293  -2
  14  10  -3 288.197 25.9293   1
  14  10  -1 292.839 27.5136  -2
 -14  10   2 292.839 27.5136   1
 -14  10   1 797.057 29.5316   1
  14  10   0 857.148 50.4189  -2
 -14  10   1 857.148 50.4189   1
 -14  10   0 9.16457 22.7855   1
  14  10   1-19.2227 44.5789  -2
 -14  10   0-19.2227 44.5789   1
 -14  10  -1 61.9868 26.7280   1
 -14  10  -2 301.395 34.1213   1
 -14  10  -3 151.431 35.4023   1
 -14  10  -4 305.465 37.3432   1
 -14  10  -5-4.12087 34.0323   1
 -14  10  -6 12.2672 33.9158   1
 -14  10  -7 71.4828 31.7474   1
 -14  10  -8 37.1450 28.7725   1
 -14  10  -9 69.5430 26.0985   1
  14 -11 -16-0.62903 12.5535   1
  14 -11 -15 62.6173 14.8639   1
  14 -11 -14 10.6595 16.0905   1
  14 -11 -13-13.9734 17.1769   1
  14 -11 -12 22.7342 17.7419   1
  14 -11 -11-2.56825 19.1007   1
 -14  11  10-3.77416 24.9242   1
  14  11  -8 102.860 36.0825  -2
 -14  11   9 102.860 36.0825   1
 -14  11   7 115.973 30.6476  -2
  14  11  -8 115.973 30.6476   1
 -14  11   6 118.999 30.3749  -2
  14  11  -7 118.999 30.3749   1
 -14  11   5 101.048 30.9294  -2
  14  11  -6 101.048 30.9294   1
 -14  11   4 34.2752 29.7523  -2
  14  11  -5 34.2752 29.7523   1
 -14  11   3 94.1541 23.6415  -2
  14  11  -4 94.1541 23.6415   1
 -14  11   2 429.654 23.5212  -2
  14  11  -3 429.654 23.5212   1
 -14  11   1 159.639 28.7409  -2
  14  11  -2 159.639 28.7409   1
  14  11  -1 235.617 20.2063   1
 -14  11   0 502.214 24.5073   1
 -14  11  -2 8.63162 31.5920   1
 -14  11  -3 285.365 34.2776   1
 -14  11  -4 32.2669 32.0469   1
 -14  11  -5 11.9893 31.0262   1
 -14  11  -6 51.0056 29.8136   1
 -14  11  -7 82.3919 27.3630   1
 -14  11  -8 4.75311 23.3316   1
  14 -12 -15 54.9638 11.9712   1
  14 -12 -14 24.9201 13.6999   1
  14 -12 -13 11.9688 14.8542   1
  14 -12 -12 290.178 17.4415   1
  14 -12 -11-1.66977 17.3749   1
  14 -12 -10 10.1894 18.1776   1
  14 -12  -9 59.7085 18.0351   1
 -14  12   7 239.741 23.5333  -2
  14  12  -8 239.741 23.5333   1
 -14  12   6 32.0057 24.4586  -2
  14  12  -7 32.0057 24.4586   1
 -14  12   5 92.5560 23.1603  -2
  14  12  -6 92.5560 23.1603   1
 -14  12   4 54.8194 22.1689  -2
  14  12  -5 54.8194 22.1689   1
 -14  12   3 98.1269 22.0201  -2
  14  12  -4 98.1269 22.0201   1
 -14  12   2 298.796 21.0922  -2
  14  12  -3 298.796 21.0922   1
 -14  12   1 41.0376 26.0340  -2
  14  12  -2 41.0376 26.0340   1
  14  12  -1 69.3641 17.6615   1
  14  12   0 221.404 17.2401   1
  14  12   1 4.94485 27.0498   1
 -14  12  -3-0.90883 27.1794   1
 -14  12  -4-6.28755 26.2241   1
 -14  12  -5 13.0606 24.8553   1
 -14  12  -6 54.6045 23.9525   1
  14 -13 -13 22.1990 12.2877   1
  14 -13 -12-2.55129 13.8787   1
  14 -13 -11 56.0635 14.6121   1
  14 -13 -10 8.24708 15.3105   1
  14 -13  -9 145.256 16.7926   1
 -14 -13   7 52.7855 22.4589  -2
  14 -13  -8 52.7855 22.4589   1
 -14  13   6 103.059 20.6677  -2
  14  13  -7 103.059 20.6677   1
 -14  13   5 13.9499 20.1423  -2
  14  13  -6 13.9499 20.1423   1
 -14  13   4 96.9644 20.4202  -2
  14  13  -5 96.9644 20.4202   1
 -14  13   3 199.052 19.9200  -2
  14  13  -4 199.052 19.9200   1
 -14  13   2 178.834 25.4359  -2
  14  13  -3 178.834 25.4359   1
  14  13  -2 34.4874 26.6758   1
  14  13  -1 44.2048 27.6697  -2
 -14  13   2 44.2048 27.6697   1
  14  13  -1 31.8290 15.1568   1
  14  13   0 2.98171 13.9446   1
  14  13   1 16.9107 23.6987   1
  14  13   2 44.6316 22.7103   1
  14  13   3 48.6879 21.7849   1
  14  13   4 25.7976 19.9443   1
  14  13   5 172.947 19.3587   1
  14 -14 -11 17.1633 11.8381   1
  14 -14 -10 74.7187 12.9752   1
  14 -14  -9 6.34181 13.8597   1
 -14 -14   7 203.796 19.6833  -2
  14 -14  -8 203.796 19.6833   1
 -14 -14   6 4.95932 19.3471  -2
  14 -14  -7 4.95932 19.3471   1
 -14 -14   5 32.2794 19.4143  -2
  14 -14  -6 32.2794 19.4143   1
 -14 -14   4 206.757 20.2721  -2
  14 -14  -5 206.757 20.2721   1
 -14  14   3 332.084 22.8753  -2
  14  14  -4 332.084 22.8753   1
 -14  14   2 166.027 21.1049  -2
  14  14  -3 166.027 21.1049   1
  14  14  -2-2.53369 13.0307   1
  14  14  -1 17.6231 12.8450   1
  14  14   0 7.67495 20.5183   1
  14  14   1 14.8271 19.7575   1
  14  14   2 199.597 19.2252   1
  14  14   3-2.20453 16.7921   1
  14  15  -6 34.7759 20.1033  -2
 -14  15   7 34.7759 20.1033   1
  14  15  -5 22.4895 20.3135  -2
 -14  15   6 22.4895 20.3135   1
  14  15  -4 63.6148 20.4338  -2
 -14  15   5 63.6148 20.4338   1
  14  15  -3 19.7864 17.3674   1
  14  15  -2 3.96294 16.3713   1
 -15   0  21 11.0856 12.9973   1
 -15   0  19 117.649 24.6911   1
 -15   0  17 2.82880 27.6801   1
 -15   0  15 5.34468 29.4994   1
 -15   0  13 63.3264 30.6167   1
 -15   0  11 681.394 33.2735   1
 -15   0   9 194.116 58.7055   1
 -15   0   7 9.85342 52.1889   1
  15   0  -5 1454.09 49.4024   1
  15   0  -3 1088.10 48.5617   1
 -15   0   1 1219.33 59.6135   1
 -15   0  -1 324.624 38.3589   1
 -15   0  -3 533.827 42.1624   1
 -15   0  -5 223.512 82.5107   1
 -15   0  -7 670.968 191.313   1
 -15   0  -9 1002.98 183.120   1
 -15  -1  21 30.1277 8.99930   1
 -15  -1  20 198.353 13.0527   1
 -15  -1  19 2.94170 13.7546   1
 -15   1  18 1.50636 14.7798   1
 -15   1  17 20.7279 19.1662   1
 -15   1  16 62.3511 20.2990   1
 -15   1  15 1.25074 20.5712   1
 -15   1  14 10.8426 20.7273   1
 -15   1  13 43.2810 20.9335   1
 -15   1  12 128.658 21.1238   1
 -15  -1  11 336.857 25.1830   1
 -15  -1  10 659.717 26.2965   1
  15  -1  -8 275.471 39.2665  -2
 -15  -1   9 275.471 39.2665   1
  15  -1  -7 45.2118 38.0761  -2
 -15  -1   8 45.2118 38.0761   1
  15  -1  -6 423.406 38.5932  -2
 -15  -1   7 423.406 38.5932   1
 -15  -1   5 955.751 27.9272  -2
  15  -1  -6 955.751 27.9272   1
 -15  -1   4 359.847 33.4523  -2
  15  -1  -5 359.847 33.4523   1
 -15  -1   3 30.4727 32.1979  -2
  15  -1  -4 30.4727 32.1979   1
  15  -1  -2 371.147 39.2278  -2
 -15  -1   3 371.147 39.2278   1
  15  -1  -1 1261.66 42.9196  -2
 -15  -1   2 1261.66 42.9196   1
  15  -1   0 273.736 39.0097  -2
 -15  -1   1 273.736 39.0097   1
  15  -1   1 846.952 41.6803  -2
 -15  -1   0 846.952 41.6803   1
 -15  -1  -1 233.817 26.9468   1
 -15  -1  -2 729.782 29.9100   1
 -15  -1  -3 178.527 26.9691   1
 -15  -1  -4 754.364 35.3716   1
 -15  -1  -5 16.1473 59.2277   1
 -15  -1  -6 247.114 101.157   1
 -15  -1  -7 167.484 131.214   1
 -15  -1  -8 273.131 136.761   1
 -15   1  -9-43.0557 194.676   1
 -15  -2  21 16.9561 9.67491   1
 -15  -2  20 141.365 12.0797   1
 -15  -2  19 26.2780 13.3928   1
 -15  -2  18 4.79530 14.4756   1
 -15  -2  17 8.24187 15.7202   1
 -15   2  16 7.24728 16.5143   1
 -15   2  15 40.0672 20.0925   1
 -15   2  14-6.49875 20.4780   1
 -15  -2  13 26.3666 20.6681   1
 -15  -2  12 185.080 20.8395   1
 -15  -2  11 37.9751 23.8517   1
 -15  -2  10 57.8878 23.1443   1
  15  -2  -8 414.454 36.7994  -2
 -15  -2   9 414.454 36.7994   1
  15   2  -7 111.671 26.0228  -2
 -15   2   8 111.671 26.0228   1
  15   2  -6 383.139 26.8820  -2
 -15   2   7 383.139 26.8820   1
  15   2  -5 1063.19 41.7325  -2
 -15   2   6 1063.19 41.7325   1
  15   2  -4 320.046 26.0783  -2
 -15   2   5 320.046 26.0783   1
  15  -2  -3 594.460 39.3568  -2
 -15  -2   4 594.460 39.3568   1
  15  -2  -2 144.709 37.4555  -2
 -15  -2   3 144.709 37.4555   1
  15  -2  -1 251.314 38.2174  -2
 -15  -2   2 251.314 38.2174   1
  15  -2   0 4.29337 36.7511  -2
 -15  -2   1 4.29337 36.7511   1
  15  -2   1 41.1693 38.4469  -2
 -15  -2   0 41.1693 38.4469   1
 -15  -2  -1 169.598 26.4442   1
 -15  -2  -2-13.1455 25.7720   1
 -15  -2  -3 1635.84 35.8803   1
 -15   2  -4 295.697 38.8070   1
 -15  -2  -5 522.897 63.6135   1
 -15  -2  -6 98.9202 102.284   1
 -15  -2  -7-63.8526 123.487   1
 -15  -2  -8 22.9365 116.124   1
 -15   2  -9-12.8405 214.639   1
 -15   3  21 318.458 18.7843   1
 -15   3  20-1.27355 14.2247   1
 -15  -3  19-1.15716 12.4470   1
 -15  -3  18 4.78537 13.9265   1
 -15  -3  17 691.745 20.8253   1
 -15  -3  16 13.2159 15.5715   1
 -15  -3  15 14.0608 15.8913   1
 -15  -3  14 3.83730 16.5920   1
 -15  -3  13 304.935 17.7860   1
 -15  -3  12 0.45007 18.4399   1
 -15  -3  11 167.013 19.2037   1
 -15  -3  10 191.174 20.3268   1
 -15   3   9 16.8862 39.6705   1
  15   3  -8 29.9004 28.5769  -2
 -15   3   9 29.9004 28.5769   1
  15   3  -7 181.461 26.8145  -2
 -15   3   8 181.461 26.8145   1
  15   3  -6 662.312 34.3116  -2
 -15   3   7 662.312 34.3116   1
  15   3  -5 258.219 26.5301  -2
 -15   3   6 258.219 26.5301   1
  15   3  -4 267.759 25.6419  -2
 -15   3   5 267.759 25.6419   1
  15  -3  -3 58.7073 36.3580  -2
 -15  -3   4 58.7073 36.3580   1
  15  -3  -2 127.511 37.1296  -2
 -15  -3   3 127.511 37.1296   1
  15  -3  -1 405.385 37.8537  -2
 -15  -3   2 405.385 37.8537   1
  15  -3   0 1167.04 41.3448  -2
 -15  -3   1 1167.04 41.3448   1
  15  -3   1 773.717 39.9400  -2
 -15  -3   0 773.717 39.9400   1
 -15  -3  -1 467.207 27.0851   1
 -15  -3  -2 169.209 26.7737   1
 -15  -3  -3 1709.36 40.6744   1
 -15  -3  -4-20.1115 40.6460   1
 -15  -3  -5-27.6374 64.2383   1
 -15  -3  -6 124.268 98.7813   1
 -15  -3  -7 396.383 104.232   1
 -15   3  -8 250.915 220.025   1
 -15   3  -9 168.484 216.462   1
 -15   4  21 39.7815 21.0851   1
 -15   4  20-10.5692 13.3937   1
 -15   4  19 86.0073 15.7483   1
 -15   4  18 1.20816 17.3209   1
 -15   4  17 7.08165 17.4484   1
 -15   4  16 71.0614 18.3482   1
 -15   4  15 1.56939 18.3424   1
 -15  -4  14 9.56008 15.4097   1
 -15  -4  13 14.5315 17.3489   1
 -15  -4  12 54.9766 19.0090   1
 -15  -4  11 142.027 19.2653   1
 -15   4  10 99.8070 18.8032   1
 -15   4   9 342.422 43.4654   1
  15   4  -8 421.489 40.6198  -2
 -15   4   9 421.489 40.6198   1
  15   4  -7 510.370 34.0717  -2
 -15   4   8 510.370 34.0717   1
  15   4  -6 13.0710 31.2072  -2
 -15   4   7 13.0710 31.2072   1
  15   4  -5 54.8462 29.8339  -2
 -15   4   6 54.8462 29.8339   1
  15   4  -4 89.8400 29.4878  -2
 -15   4   5 89.8400 29.4878   1
  15   4  -3 236.446 29.8660  -2
 -15   4   4 236.446 29.8660   1
  15   4  -2 153.174 59.8864  -2
 -15   4   3 153.174 59.8864   1
  15   4  -1 367.935 59.6724  -2
 -15   4   2 367.935 59.6724   1
  15   4   0 680.961 63.1383  -2
 -15   4   1 680.961 63.1383   1
  15  -4   1 2992.83 46.2873  -2
 -15  -4   0 2992.83 46.2873   1
 -15  -4  -1 772.753 28.9152   1
 -15  -4  -2 481.870 33.3861   1
 -15  -4  -3 764.960 40.9157   1
 -15  -4  -4 219.196 43.0259   1
 -15  -4  -5 590.579 68.4987   1
 -15  -4  -6 55.8122 86.9769   1
 -15   4  -7 381.046 198.998   1
 -15   4  -8 203.824 220.507   1
 -15   4  -9 21.4260 207.772   1
 -15   5  20 53.7577 12.3937   1
 -15   5  19 12.7212 14.3287   1
 -15   5  18 84.7767 16.3605   1
 -15   5  17 148.629 18.2335   1
 -15   5  16 183.317 19.5759   1
 -15   5  15-11.0511 23.2864   1
 -15   5  14 39.7873 24.5430   1
 -15   5  13 454.851 27.7018   1
 -15   5  12 954.321 30.6674   1
 -15   5  11 6.77571 24.7261   1
 -15   5  10-6.67809 25.0272   1
  15   5  -8 647.304 34.6839  -2
 -15   5   9 647.304 34.6839   1
  15   5  -7 1210.96 37.2321  -2
 -15   5   8 1210.96 37.2321   1
  15   5  -6 61.7482 31.1683  -2
 -15   5   7 61.7482 31.1683   1
  15   5  -5 111.851 30.7531  -2
 -15   5   6 111.851 30.7531   1
  15   5  -4 443.951 31.8615  -2
 -15   5   5 443.951 31.8615   1
  15   5  -3 29.3069 28.9326  -2
 -15   5   4 29.3069 28.9326   1
  15   5  -2 68.1759 55.9961  -2
 -15   5   3 68.1759 55.9961   1
  15   5  -1 227.597 58.3922  -2
 -15   5   2 227.597 58.3922   1
  15   5   0 852.652 63.9565  -2
 -15   5   1 852.652 63.9565   1
  15   5   1 257.635 60.3565  -2
 -15   5   0 257.635 60.3565   1
 -15   5  -1 549.442 30.9649   1
 -15   5  -2 331.189 30.5837   1
 -15   5  -3 838.236 33.8260   1
 -15   5  -4 71.6616 32.2765   1
 -15   5  -5 0.96382 39.6752   1
 -15   5  -6 63.7142 157.896   1
 -15   5  -7 703.886 201.748   1
 -15   5  -8 201.785 210.543   1
 -15   5  -9 370.939 198.697   1
 -15   6  20 14.1552 20.2882   1
 -15   6  19 82.8155 15.3476   1
 -15   6  18 13.3282 14.9862   1
 -15   6  17 162.254 20.8082   1
 -15   6  16 6.46809 21.0593   1
 -15   6  15 74.3683 22.2366   1
 -15   6  14 223.441 23.7046   1
 -15   6  13 606.004 27.3186   1
 -15   6  12-3.32692 23.9922   1
 -15   6  11 80.1205 24.4229   1
 -15   6  10 137.942 24.9030   1
  15   6  -8 66.4688 32.0673  -2
 -15   6   9 66.4688 32.0673   1
  15   6  -7 50.5844 31.1032  -2
 -15   6   8 50.5844 31.1032   1
  15   6  -6 92.2077 30.9941  -2
 -15   6   7 92.2077 30.9941   1
  15   6  -5 54.1557 30.6488  -2
 -15   6   6 54.1557 30.6488   1
  15   6  -4 242.220 30.5241  -2
 -15   6   5 242.220 30.5241   1
  15   6  -3 15.2234 28.7372  -2
 -15   6   4 15.2234 28.7372   1
  15   6  -2 66.5973 27.6129  -2
 -15   6   3 66.5973 27.6129   1
  15   6  -1 23.7721 56.9759  -2
 -15   6   2 23.7721 56.9759   1
  15   6   0 179.304 58.7924  -2
 -15   6   1 179.304 58.7924   1
 -15   6   0 468.611 42.3930   1
  15   6   1 722.491 61.1171  -2
 -15   6   0 722.491 61.1171   1
 -15   6  -1 197.443 28.8645   1
 -15   6  -2 910.383 33.0549   1
 -15   6  -3 202.410 29.4576   1
 -15   6  -4 86.0403 35.1438   1
 -15   6  -5 9.62926 38.2276   1
 -15   6  -6 24.5332 38.2379   1
 -15   6  -7 616.518 202.860   1
 -15   6  -8 263.662 202.525   1
 -15   7  19 15.1895 13.1117   1
 -15   7  18 148.803 16.3172   1
 -15   7  17 35.7468 18.3407   1
 -15   7  16 584.611 22.1093   1
 -15   7  15 243.260 22.3529   1
 -15   7  14 124.649 21.9200   1
 -15   7  13 3.39368 22.7165   1
 -15   7  12 418.837 25.6666   1
 -15   7  11-5.34579 23.3917   1
 -15   7  10 29.2830 22.9679   1
  15   7  -8 42.7907 30.8233  -2
 -15   7   9 42.7907 30.8233   1
  15   7  -7 77.7744 31.2243  -2
 -15   7   8 77.7744 31.2243   1
  15   7  -6 32.6350 30.0829  -2
 -15   7   7 32.6350 30.0829   1
  15   7  -5 79.5736 30.7339  -2
 -15   7   6 79.5736 30.7339   1
 -15   7   4 57.9930 25.2124  -2
  15   7  -5 57.9930 25.2124   1
 -15   7   3 182.985 25.7166  -2
  15   7  -4 182.985 25.7166   1
 -15   7   2 99.2891 24.3049  -2
  15   7  -3 99.2891 24.3049   1
  15   7  -1 257.112 56.3348  -2
 -15   7   2 257.112 56.3348   1
  15   7   0 148.738 56.3724  -2
 -15   7   1 148.738 56.3724   1
 -15   7   0 525.093 41.1293   1
  15   7   1 693.836 59.7126  -2
 -15   7   0 693.836 59.7126   1
 -15   7  -1 61.5491 26.2647   1
 -15   7  -2 2.26860 26.8067   1
 -15   7  -3-21.9868 29.7615   1
 -15   7  -4 20.4276 34.2745   1
 -15   7  -5 8.95116 37.7563   1
 -15   7  -6 252.012 39.0738   1
 -15   7  -7 150.880 194.598   1
 -15   7  -8 221.791 186.593   1
 -15   8  18 11.0020 17.7096   1
  15  -8 -17 3.48765 12.1684   1
 -15   8  16 62.0174 17.1070   1
 -15   8  15-7.37624 18.5066   1
 -15   8  14-15.5905 19.5170   1
 -15   8  13 17.1778 20.0029   1
 -15   8  12 88.1098 21.8172   1
 -15   8  11 72.9988 22.0641   1
 -15   8  10 8.77887 22.1574   1
  15   8  -8 135.625 30.5494  -2
 -15   8   9 135.625 30.5494   1
 -15   8   7 28.6191 25.5366  -2
  15   8  -8 28.6191 25.5366   1
 -15   8   6 125.697 26.0778  -2
  15   8  -7 125.697 26.0778   1
 -15   8   5 77.3066 24.8802  -2
  15   8  -6 77.3066 24.8802   1
 -15   8   4 28.3784 23.5177  -2
  15   8  -5 28.3784 23.5177   1
 -15   8   3 176.097 28.9523  -2
  15   8  -4 176.097 28.9523   1
 -15   8   2 126.897 24.2796  -2
  15   8  -3 126.897 24.2796   1
 -15   8   1 189.572 37.0606  -2
  15   8  -2 189.572 37.0606   1
  15   8   0 552.264 56.6638  -2
 -15   8   1 552.264 56.6638   1
 -15   8   0 443.019 26.7932   1
 -15   8  -1 61.7007 25.1735   1
 -15   8  -2-27.5241 25.7684   1
 -15   8  -3 99.1292 33.1699   1
 -15   8  -4 24.3936 35.1243   1
 -15   8  -5 60.6857 35.2424   1
 -15   8  -6 319.335 36.8214   1
 -15   8  -7 175.270 176.671   1
  15  -9 -17 348.488 13.9848   1
  15  -9 -16 8.59118 11.8460   1
 -15   9  15-5.41688 15.8918   1
 -15   9  14 30.6685 17.4896   1
 -15   9  13 496.051 21.0544   1
 -15   9  12 120.153 19.7343   1
 -15   9  11 2.99306 20.0128   1
 -15   9  10 145.722 20.9529   1
 -15   9   9 450.809 35.2697   1
  15   9  -8 524.293 39.9298  -2
 -15   9   9 524.293 39.9298   1
 -15   9   7 219.516 25.4671  -2
  15   9  -8 219.516 25.4671   1
 -15   9   6 135.935 24.9791  -2
  15   9  -7 135.935 24.9791   1
 -15   9   5 6.42869 24.4370  -2
  15   9  -6 6.42869 24.4370   1
 -15   9   4 104.183 24.1738  -2
  15   9  -5 104.183 24.1738   1
 -15   9   3 72.4768 24.2118  -2
  15   9  -4 72.4768 24.2118   1
 -15   9   2 37.1682 23.4992  -2
  15   9  -3 37.1682 23.4992   1
 -15   9   1 102.862 23.0421  -2
  15   9  -2 102.862 23.0421   1
  15   9   0 93.9350 49.1915  -2
 -15   9   1 93.9350 49.1915   1
 -15   9   0 9.44820 30.9484   1
 -15   9  -1 89.9278 25.9530   1
 -15   9  -2 3.64410 29.6097   1
 -15   9  -3 106.181 33.3572   1
 -15   9  -4 171.329 33.9534   1
 -15   9  -5 99.6761 32.9947   1
 -15   9  -6 71.0232 30.6638   1
  15 -10 -16 93.3497 12.9247   1
  15 -10 -15 2.54740 14.2719   1
  15 -10 -14 1.45669 16.1439   1
 -15  10  13 75.2267 16.1315   1
 -15  10  12 22.3006 16.5499   1
 -15  10  11 10.6367 17.1841   1
 -15  10  10 18.4130 18.2380   1
 -15  10   9 7.26595 24.1851   1
  15  10  -8 45.3601 34.3187  -2
 -15  10   9 45.3601 34.3187   1
 -15  10   8 215.616 28.3888   1
 -15  10   7 312.287 30.0525  -2
  15  10  -8 312.287 30.0525   1
 -15  10   6 80.2011 23.2626  -2
  15  10  -7 80.2011 23.2626   1
 -15  10   5 37.1792 23.1965  -2
  15  10  -6 37.1792 23.1965   1
 -15  10   4 91.3619 23.2817  -2
  15  10  -5 91.3619 23.2817   1
 -15  10   3 158.540 23.3890  -2
  15  10  -4 158.540 23.3890   1
 -15  10   2 64.2743 22.6985  -2
  15  10  -3 64.2743 22.6985   1
 -15  10   1 111.857 22.0608  -2
  15  10  -2 111.857 22.0608   1
  15  10  -1-10.5675 28.4918   1
  15  10   0 1.97289 44.5133  -2
 -15  10   1 1.97289 44.5133   1
  15  10   0 50.4950 27.3988   1
  15  10   1 21.4607 58.3489  -2
 -15  10   0 21.4607 58.3489   1
 -15  10  -1 195.056 67.8683   1
 -15  10  -2 106.455 29.5295   1
 -15  10  -3 261.953 31.2399   1
 -15  10  -4 20.3201 31.2925   1
 -15  10  -5 16.0130 28.9154   1
  15 -11 -15 7.41367 11.9547   1
  15 -11 -14 16.8477 13.8617   1
  15 -11 -13 87.8870 15.6706   1
  15 -11 -12-9.94202 15.7181   1
  15 -11 -11 7.24653 17.0915   1
  15 -11 -10 109.818 18.3828   1
  15  11  -8 72.2948 31.9635  -2
 -15  11   9 72.2948 31.9635   1
  15  11  -7 197.585 33.2904  -2
 -15  11   8 197.585 33.2904   1
 -15  11   6 206.130 27.3905  -2
  15  11  -7 206.130 27.3905   1
 -15  11   5 54.6319 21.5341  -2
  15  11  -6 54.6319 21.5341   1
 -15  11   4 73.1071 21.1477  -2
  15  11  -5 73.1071 21.1477   1
 -15  11   3 66.2210 20.2287  -2
  15  11  -4 66.2210 20.2287   1
 -15  11   2 214.551 26.0906  -2
  15  11  -3 214.551 26.0906   1
  15  11  -2 633.316 31.7520   1
  15  11  -1 770.385 31.5287  -2
 -15  11   2 770.385 31.5287   1
  15  11  -1 166.139 27.9426   1
  15  11   0-2.92548 25.8035   1
  15  11   1 10.5989 26.7376   1
  15  11   2 120.369 26.5823   1
  15 -12 -14-5.80537 17.2408   1
  15 -12 -13 8.60415 12.6144   1
  15 -12 -12 1.50675 13.8334   1
  15 -12 -11 5.69520 14.5420   1
  15 -12 -10 17.0987 15.2663   1
 -15 -12   8 1.93497 21.7276  -2
  15 -12  -9 1.93497 21.7276   1
 -15 -12   7 27.5150 21.8091  -2
  15 -12  -8 27.5150 21.8091   1
 -15 -12   6 16.9883 22.3664  -2
  15 -12  -7 16.9883 22.3664   1
 -15  12   5 27.4124 19.5910  -2
  15  12  -6 27.4124 19.5910   1
 -15  12   4 50.0301 19.2658  -2
  15  12  -5 50.0301 19.2658   1
 -15  12   3 229.700 19.0358  -2
  15  12  -4 229.700 19.0358   1
 -15  12   2 46.7997 23.1748  -2
  15  12  -3 46.7997 23.1748   1
  15  12  -2 179.324 27.0710   1
  15  12  -1 280.127 25.9984  -2
 -15  12   2 280.127 25.9984   1
  15  12  -1 207.457 26.6068   1
  15  12   0 14.4353 24.9165   1
  15  12   1-1.73797 22.7505   1
  15  12   2 2.81731 21.8930   1
  15  12   3 21.0649 21.5857   1
  15  12   4 99.6069 20.2833   1
  15 -13 -11 59.7791 12.2305   1
  15 -13 -10 11.6912 13.2161   1
  15 -13  -9 145.287 23.1102   1
  15  13  -8 199.250 24.9495  -2
 -15  13   9 199.250 24.9495   1
 -15 -13   7 54.0658 19.2156  -2
  15 -13  -8 54.0658 19.2156   1
 -15 -13   6 101.622 19.2634  -2
  15 -13  -7 101.622 19.2634   1
  15  13  -5 377.816 28.4226  -2
 -15  13   6 377.816 28.4226   1
 -15  13   4 156.834 17.3387  -2
  15  13  -5 156.834 17.3387   1
 -15  13   3 111.305 20.5900  -2
  15  13  -4 111.305 20.5900   1
 -15  13   2-1.97908 19.1546  -2
  15  13  -3-1.97908 19.1546   1
  15  13  -2 1.37678 13.7593   1
  15  13  -1 10.8665 21.6981   1
  15  13   0-2.47445 21.2280   1
  15  13   1 18.3821 19.9097   1
  15  13   2 127.295 19.0752   1
  15  14  -6 14.7210 19.7117  -2
 -15  14   7 14.7210 19.7117   1
  15  14  -5 42.4850 19.8061  -2
 -15  14   6 42.4850 19.8061   1
  15  14  -3-13.7291 17.7769   1
 -16   0  20 10.1701 12.6735   1
 -16   0  18 244.957 17.4121   1
 -16   0  16 656.847 29.3553   1
 -16   0  14 414.977 29.4308   1
 -16   0  12 166.667 28.3265   1
 -16   0  10 98.8664 37.7738   1
 -16   0   8 39.6746 51.2896   1
 -16   0   6 40.9649 48.5673   1
 -16   0   4 778.668 50.9363   1
 -16   0   2 278.768 50.8562   1
 -16   0   0 373.012 38.2347   1
 -16   0  -2 199.341 37.6324   1
 -16   0  -4 592.825 76.2176   1
 -16   0  -6 161.910 165.251   1
 -16   0  -8 118.183 163.654   1
 -16   1  20 0.51141 8.99161   1
 -16  -1  19-0.05472 10.1434   1
 -16  -1  18 71.6560 13.4302   1
 -16  -1  17 9.68928 14.3518   1
 -16  -1  16 0.23684 15.0453   1
 -16  -1  15 2.15498 18.4663   1
 -16  -1  14-2.64566 18.9129   1
 -16  -1  13 349.836 20.4443   1
 -16  -1  12 82.6358 22.4539   1
 -16  -1  11 174.277 22.7857   1
 -16   1  10 109.483 19.6645   1
  16   1  -8 23.2372 25.0059  -2
 -16   1   9 23.2372 25.0059   1
  16   1  -7 44.3075 24.5062  -2
 -16   1   8 44.3075 24.5062   1
  16   1  -6 189.680 24.8931  -2
 -16   1   7 189.680 24.8931   1
  16  -1  -5 612.002 39.7179  -2
 -16  -1   6 612.002 39.7179   1
  16  -1  -4 7.84699 36.1886  -2
 -16  -1   5 7.84699 36.1886   1
  16  -1  -3 27.8050 36.4794  -2
 -16  -1   4 27.8050 36.4794   1
  16  -1  -2 69.4455 36.8181  -2
 -16  -1   3 69.4455 36.8181   1
  16  -1  -1 100.924 37.7308  -2
 -16  -1   2 100.924 37.7308   1
  16  -1   0 551.339 39.8204  -2
 -16  -1   1 551.339 39.8204   1
 -16  -1   0 137.076 35.4082   1
  16   1   1 180.043 57.5643  -2
 -16   1   0 180.043 57.5643   1
 -16  -1  -1 222.899 26.2615   1
 -16  -1  -2 409.719 27.5543   1
 -16  -1  -3 35.5548 31.3250   1
 -16  -1  -4-51.5293 54.2248   1
 -16  -1  -5 77.4361 90.5023   1
 -16  -1  -6 473.133 120.374   1
 -16  -1  -7 397.026 124.592   1
 -16  -1  -8 411.956 110.357   1
 -16   2  20-1.88341 10.0048   1
 -16   2  19 11.2296 11.8584   1
 -16   2  18 70.0391 12.8553   1
 -16  -2  17 15.1161 13.7847   1
 -16  -2  16 8.12063 14.5193   1
 -16  -2  15 78.9048 15.5160   1
 -16  -2  14 42.1407 16.0699   1
 -16   2  13 385.594 22.9925   1
 -16  -2  12 175.406 18.3693   1
 -16   2  11 41.3980 19.4494   1
 -16   2  10 59.9568 18.9941   1
  16   2  -8 19.5923 25.7375  -2
 -16   2   9 19.5923 25.7375   1
  16   2  -7 138.284 25.5519  -2
 -16   2   8 138.284 25.5519   1
  16   2  -6 237.361 25.0061  -2
 -16   2   7 237.361 25.0061   1
  16   2  -5 72.8265 23.5755  -2
 -16   2   6 72.8265 23.5755   1
  16  -2  -4 67.0764 36.6839  -2
 -16  -2   5 67.0764 36.6839   1
  16  -2  -3 135.816 36.8297  -2
 -16  -2   4 135.816 36.8297   1
  16  -2  -2 28.1943 36.1385  -2
 -16  -2   3 28.1943 36.1385   1
  16  -2  -1 106.040 37.0336  -2
 -16  -2   2 106.040 37.0336   1
  16  -2   0 60.5009 38.4652  -2
 -16  -2   1 60.5009 38.4652   1
 -16  -2   0 86.3726 32.1072   1
  16   2   1 98.5327 57.9359  -2
 -16   2   0 98.5327 57.9359   1
 -16  -2  -1-0.54333 24.6481   1
 -16  -2  -2 225.779 27.9076   1
 -16  -2  -3 2.36826 34.1301   1
 -16  -2  -4-11.6406 55.1411   1
 -16  -2  -5 26.9729 89.5879   1
 -16  -2  -6 554.223 114.199   1
 -16  -2  -7 64.6136 107.562   1
 -16   2  -8 244.686 186.384   1
 -16   3  20-3.02898 13.2134   1
 -16   3  19 13.0525 13.6954   1
 -16   3  18 7.70779 15.6172   1
 -16  -3  17 15.0253 13.7931   1
 -16  -3  16 21.8511 14.6203   1
 -16  -3  15 45.9438 17.2162   1
 -16  -3  14 159.859 18.6530   1
 -16  -3  13 30.6912 17.8664   1
 -16   3  12 106.362 18.7006   1
 -16   3  11 42.5249 18.7456   1
 -16   3  10 43.9306 18.6547   1
 -16   3   9 162.685 40.0177   1
  16   3  -8 136.487 28.9088  -2
 -16   3   9 136.487 28.9088   1
  16   3  -7 191.303 25.2254  -2
 -16   3   8 191.303 25.2254   1
  16   3  -6 39.8174 24.2876  -2
 -16   3   7 39.8174 24.2876   1
  16   3  -5 232.721 24.8080  -2
 -16   3   6 232.721 24.8080   1
  16  -3  -4 778.040 38.5711  -2
 -16  -3   5 778.040 38.5711   1
  16  -3  -3 140.082 36.1589  -2
 -16  -3   4 140.082 36.1589   1
  16  -3  -2 386.091 36.8724  -2
 -16  -3   3 386.091 36.8724   1
  16  -3  -1 538.357 38.2577  -2
 -16  -3   2 538.357 38.2577   1
  16  -3   0 115.322 38.1053  -2
 -16  -3   1 115.322 38.1053   1
 -16  -3   0 33.5705 29.5488   1
  16   3   1-6.04879 57.9541  -2
 -16   3   0-6.04879 57.9541   1
 -16  -3  -1 5.17666 24.0435   1
 -16  -3  -2 2981.24 43.0149   1
 -16  -3  -3-16.4748 36.9236   1
 -16  -3  -4 1463.48 62.3074   1
 -16  -3  -5 207.199 89.2523   1
 -16   3  -6 472.370 97.8074   1
 -16   3  -7 565.760 195.430   1
 -16   3  -8 110.166 193.643   1
 -16   4  20-0.77992 12.0011   1
 -16   4  19 34.6499 14.8631   1
 -16   4  18 40.3896 15.0127   1
 -16   4  17 378.126 21.4785   1
 -16   4  16 6.39201 20.4772   1
 -16   4  15 16.1533 21.8347   1
 -16   4  14-5.98911 22.9774   1
 -16   4  13 540.828 26.1676   1
 -16   4  12 196.217 24.3560   1
 -16   4  11 252.636 25.5726   1
 -16   4  10 27.4455 23.7290   1
 -16   4   9 57.6400 38.3017   1
  16   4  -8 122.304 37.3072  -2
 -16   4   9 122.304 37.3072   1
  16   4  -7 348.666 31.4968  -2
 -16   4   8 348.666 31.4968   1
  16   4  -6 58.7465 29.8860  -2
 -16   4   7 58.7465 29.8860   1
  16   4  -5 276.772 29.5069  -2
 -16   4   6 276.772 29.5069   1
  16   4  -4 119.496 28.1916  -2
 -16   4   5 119.496 28.1916   1
  16   4  -3 209.937 57.0025  -2
 -16   4   4 209.937 57.0025   1
  16   4  -2 258.279 58.3493  -2
 -16   4   3 258.279 58.3493   1
  16   4  -1 171.065 57.7584  -2
 -16   4   2 171.065 57.7584   1
  16   4   0 131.801 57.6250  -2
 -16   4   1 131.801 57.6250   1
 -16   4   0 8.01233 37.5826   1
 -16   4  -1-16.2429 38.3416   1
 -16   4  -2 11.7536 37.8532   1
 -16   4  -3-34.8216 40.0684   1
 -16   4  -4-62.4677 67.0815   1
 -16   4  -5-4.00013 120.674   1
 -16   4  -6 210.518 174.339   1
 -16   4  -7 318.960 198.213   1
 -16   4  -8 201.213 184.759   1
 -16   5  19 8.97341 13.4848   1
 -16   5  18 36.5360 16.4310   1
 -16   5  17 3.20592 18.4001   1
 -16   5  16 11.7968 19.4832   1
 -16   5  15 75.9515 21.3284   1
 -16   5  14 45.6691 22.6075   1
 -16   5  13 379.971 24.8306   1
 -16   5  12 221.732 24.1375   1
 -16   5  11-5.92970 23.2904   1
 -16   5  10 22.1686 23.0121   1
  16   5  -8 88.2018 30.6767  -2
 -16   5   9 88.2018 30.6767   1
  16   5  -7 227.352 30.6070  -2
 -16   5   8 227.352 30.6070   1
  16   5  -6 374.722 31.2063  -2
 -16   5   7 374.722 31.2063   1
  16   5  -5 263.597 30.1800  -2
 -16   5   6 263.597 30.1800   1
  16   5  -4 525.997 30.5501  -2
 -16   5   5 525.997 30.5501   1
  16   5  -3 118.029 57.6051  -2
 -16   5   4 118.029 57.6051   1
  16   5  -2 84.7211 55.8687  -2
 -16   5   3 84.7211 55.8687   1
  16   5  -1 30.1776 56.3468  -2
 -16   5   2 30.1776 56.3468   1
  16   5   0 102.408 57.0821  -2
 -16   5   1 102.408 57.0821   1
  16   5   1 180.265 58.3260  -2
 -16   5   0 180.265 58.3260   1
 -16   5  -1 98.7874 38.2372   1
 -16   5  -2 67.5561 37.7889   1
 -16   5  -3 54.7322 46.5491   1
 -16   5  -4-76.7405 85.5129   1
 -16   5  -5 150.889 139.326   1
 -16   5  -6 796.467 177.307   1
 -16   5  -7 470.899 191.376   1
 -16   5  -8 354.370 175.123   1
 -16   6  19 29.4337 12.1435   1
 -16   6  18 2.01605 14.5612   1
 -16   6  17 20.6111 17.0108   1
 -16   6  16 21.5111 19.1563   1
 -16   6  15-13.9130 20.3118   1
 -16   6  14 79.7959 21.5374   1
 -16   6  13 9.00672 21.8124   1
 -16   6  12 111.614 22.9729   1
 -16   6  11-2.80445 22.1786   1
 -16   6  10 247.118 23.9329   1
  16   6  -8 302.467 31.4715  -2
 -16   6   9 302.467 31.4715   1
  16   6  -7 218.433 29.8787  -2
 -16   6   8 218.433 29.8787   1
  16   6  -6 233.075 30.0837  -2
 -16   6   7 233.075 30.0837   1
  16   6  -5 422.218 30.7566  -2
 -16   6   6 422.218 30.7566   1
  16   6  -4 4.60132 23.5678  -2
 -16   6   5 4.60132 23.5678   1
  16   6  -3 30.5381 54.5201  -2
 -16   6   4 30.5381 54.5201   1
  16   6  -2 48.9517 54.9687  -2
 -16   6   3 48.9517 54.9687   1
  16   6  -1 190.383 55.8921  -2
 -16   6   2 190.383 55.8921   1
  16   6   0 53.9303 55.8271  -2
 -16   6   1 53.9303 55.8271   1
 -16   6   0 2.36917 35.5344   1
 -16   6  -1 25.9180 36.5423   1
 -16   6  -2 160.869 38.1909   1
 -16   6  -3 105.993 57.8134   1
 -16   6  -4 93.8794 100.461   1
 -16   6  -5 239.102 149.427   1
 -16   6  -6 260.735 178.333   1
 -16   6  -7-79.9561 177.849   1
 -16   7  18 157.636 13.5108   1
 -16   7  17 213.990 16.4600   1
 -16   7  16-1.65229 17.2583   1
 -16   7  15 44.1054 18.4129   1
 -16   7  14 5.60741 19.1841   1
 -16   7  13 84.7896 20.3645   1
 -16   7  12 0.44347 20.4544   1
 -16   7  11 84.5526 21.8531   1
 -16   7  10 138.788 22.0155   1
 -16   7   9 382.678 37.9649   1
  16   7  -8 397.312 37.3692  -2
 -16   7   9 397.312 37.3692   1
  16   7  -7 44.1778 28.5191  -2
 -16   7   8 44.1778 28.5191   1
  16   7  -6 42.5000 28.1183  -2
 -16   7   7 42.5000 28.1183   1
  16   7  -5 85.3587 27.5188  -2
 -16   7   6 85.3587 27.5188   1
  16   7  -4 124.272 27.0834  -2
 -16   7   5 124.272 27.0834   1
  16   7  -3 181.873 27.2534  -2
 -16   7   4 181.873 27.2534   1
  16   7  -2 588.163 56.1327  -2
 -16   7   3 588.163 56.1327   1
  16   7  -1 306.838 53.9819  -2
 -16   7   2 306.838 53.9819   1
  16   7   0 847.651 58.2637  -2
 -16   7   1 847.651 58.2637   1
 -16   7   0 7.57564 33.7352   1
 -16   7  -1 139.916 35.4101   1
 -16   7  -2 12.5024 43.5620   1
 -16   7  -3 221.587 80.7170   1
 -16   7  -4 155.971 124.822   1
 -16   7  -5 390.057 157.469   1
 -16   7  -6 278.657 169.654   1
 -16   7  -7 233.400 161.668   1
  16  -8 -17 349.117 13.3506   1
  16  -8 -16 20.8407 11.9032   1
 -16   8  15-1.69181 15.7400   1
 -16   8  14 148.861 18.1728   1
 -16   8  13 281.891 20.3095   1
 -16   8  12 85.3006 20.0338   1
 -16   8  11 108.750 20.0474   1
 -16   8  10 101.383 20.8609   1
 -16   8   9 234.650 33.2122   1
  16   8  -8 271.796 35.7165  -2
 -16   8   9 271.796 35.7165   1
  16   8  -7 36.2828 26.9175  -2
 -16   8   8 36.2828 26.9175   1
  16   8  -6 82.7831 27.2364  -2
 -16   8   7 82.7831 27.2364   1
  16   8  -5 170.268 26.8747  -2
 -16   8   6 170.268 26.8747   1
  16   8  -4 15.9637 25.2886  -2
 -16   8   5 15.9637 25.2886   1
  16   8  -3 87.2159 25.9242  -2
 -16   8   4 87.2159 25.9242   1
  16   8  -2 242.312 49.0921  -2
 -16   8   3 242.312 49.0921   1
 -16   8   1 145.034 32.4346  -2
  16   8  -2 145.034 32.4346   1
  16   8  -1 61.9607 26.5419   1
  16   8   0 14.2950 49.8551  -2
 -16   8   1 14.2950 49.8551   1
  16   8   0 55.6991 20.5667   1
 -16   8  -1 3.54386 40.0992   1
 -16   8  -2-73.1508 66.5343   1
 -16   8  -3-62.3286 105.370   1
 -16   8  -4 103.497 142.903   1
 -16   8  -5 183.851 158.199   1
 -16   8  -6 104.477 149.519   1
  16  -9 -16 103.916 12.3050   1
  16  -9 -15 20.0130 13.7693   1
 -16   9  14 51.2274 15.2693   1
 -16   9  13 125.333 16.5842   1
 -16   9  12 37.2931 17.1957   1
 -16   9  11 21.0168 17.4083   1
 -16   9  10 132.284 19.0271   1
 -16   9   9 14.9254 28.5505   1
  16   9  -8 16.9265 31.3905  -2
 -16   9   9 16.9265 31.3905   1
  16   9  -7 65.8343 25.8568  -2
 -16   9   8 65.8343 25.8568   1
 -16   9   6 44.0495 22.1577  -2
  16   9  -7 44.0495 22.1577   1
 -16   9   5 8.51762 21.4492  -2
  16   9  -6 8.51762 21.4492   1
 -16   9   4 8.30699 21.5909  -2
  16   9  -5 8.30699 21.5909   1
 -16   9   3 16.5895 20.8254  -2
  16   9  -4 16.5895 20.8254   1
 -16   9   2 83.4400 32.0439  -2
  16   9  -3 83.4400 32.0439   1
  16   9  -2 425.173 30.1093   1
  16   9  -1 563.269 47.1025  -2
 -16   9   2 563.269 47.1025   1
  16   9  -1 85.4222 26.7302   1
  16   9   0 104.712 47.5264  -2
 -16   9   1 104.712 47.5264   1
  16   9   0 217.300 21.9635   1
  16   9   1-12.1066 22.7203   1
  16   9   2 72.8773 23.3617   1
 -16   9  -3 288.642 121.610   1
 -16   9  -4 295.090 136.822   1
 -16   9  -5 130.438 129.268   1
  16 -10 -15 32.4941 11.7830   1
  16 -10 -14 9.50394 13.2990   1
  16 -10 -13 128.260 15.6335   1
  16 -10 -12 72.5724 15.9856   1
 -16  10  11 16.5606 15.1185   1
 -16  10  10 45.1905 16.0581   1
 -16  10   9 314.174 25.2209   1
  16  10  -8 447.299 32.5945  -2
 -16  10   9 447.299 32.5945   1
  16  10  -7 28.6568 23.1640  -2
 -16  10   8 28.6568 23.1640   1
  16  10  -6 42.0575 23.0585  -2
 -16  10   7 42.0575 23.0585   1
 -16  10   5 10.9057 20.0214  -2
  16  10  -6 10.9057 20.0214   1
 -16  10   4 16.7361 19.4719  -2
  16  10  -5 16.7361 19.4719   1
 -16  10   3 22.0766 16.4477  -2
  16  10  -4 22.0766 16.4477   1
 -16  10   2 8.04854 28.5919  -2
  16  10  -3 8.04854 28.5919   1
  16  10  -2-1.10970 25.5131   1
  16  10  -1-55.1144 42.2050  -2
 -16  10   2-55.1144 42.2050   1
  16  10  -1 29.3681 24.2349   1
  16  10   0-23.9772 64.3814  -2
 -16  10   1-23.9772 64.3814   1
  16  10   0 0.05614 21.9119   1
  16  10   1 93.4134 22.8244   1
  16  10   2 18.2267 23.1271   1
  16  10   3 86.4900 22.2909   1
  16 -11 -13 31.4393 12.3051   1
  16 -11 -12 26.8148 13.5375   1
  16 -11 -11 8.44814 14.3377   1
  16 -11 -10 22.8510 15.2294   1
  16 -11  -9 82.0850 24.6754   1
  16  11  -8 85.2497 27.0461  -2
 -16  11   9 85.2497 27.0461   1
 -16 -11   7 12.0750 21.0022  -2
  16 -11  -8 12.0750 21.0022   1
 -16 -11   6 98.7523 21.6905  -2
  16 -11  -7 98.7523 21.6905   1
 -16 -11   5 129.418 20.7292  -2
  16 -11  -6 129.418 20.7292   1
 -16  11   4 4.68267 19.4118  -2
  16  11  -5 4.68267 19.4118   1
 -16  11   3 85.9639 21.0630  -2
  16  11  -4 85.9639 21.0630   1
 -16  11   2 45.7362 39.1308  -2
  16  11  -3 45.7362 39.1308   1
  16  11  -2 2.70917 22.1852   1
  16  11  -1 36.2670 23.0300   1
  16  11   0 48.0796 21.7895   1
  16  11   1 8.87944 22.5291   1
  16  11   2 17.0961 20.9285   1
  16 -12 -11 9.41475 11.8982   1
  16 -12 -10 6.14666 12.5630   1
  16 -12  -9 30.0558 20.6512   1
  16  12  -8 4.15891 22.3807  -2
 -16  12   9 4.15891 22.3807   1
 -16 -12   7 78.2322 18.0470  -2
  16 -12  -8 78.2322 18.0470   1
 -16 -12   6 152.148 18.4119  -2
  16 -12  -7 152.148 18.4119   1
 -16 -12   5 181.058 17.9948  -2
  16 -12  -6 181.058 17.9948   1
  16  12  -4 362.941 25.3571  -2
 -16  12   5 362.941 25.3571   1
 -16  12   3 10.7455 18.6436  -2
  16  12  -4 10.7455 18.6436   1
  16  12  -3 17.5519 20.0502   1
  16  12  -2 4.98335 19.8016   1
  16  12  -1 19.4441 19.2729   1
 -17   0  19 19.4148 12.8037   1
 -17   0  17 50.2091 17.2628   1
 -17   0  15 53.1706 20.0342   1
 -17   0  13 59.2932 21.0129   1
 -17   0  11 68.5958 21.2204   1
 -17   0   9 255.551 27.0874   1
 -17   0   7 1002.67 53.9292   1
 -17   0   5 16.6231 44.5569   1
 -17   0   3 10.0816 46.6507   1
 -17   0   1 1412.06 57.5831   1
 -17   0  -1 100.117 33.5835   1
 -17   0  -3-49.1368 73.2625   1
 -17   0  -5 1003.72 156.814   1
 -17   0  -7 255.919 139.319   1
 -17   1  19 79.7207 10.6181   1
 -17   1  18 14.7690 10.5391   1
 -17   1  17 73.3198 11.2960   1
 -17   1  16 83.2960 14.3932   1
 -17   1  15 37.4092 16.4275   1
 -17   1  14 127.969 17.4941   1
 -17   1  13 13.8585 17.4278   1
 -17   1  12 128.081 18.0340   1
 -17   1  11 0.84107 17.6544   1
 -17   1  10 65.6962 17.6007   1
  17   1  -8-3.76290 18.4006  -2
 -17   1   9-3.76290 18.4006   1
  17   1  -7 12.0487 22.3696  -2
 -17   1   8 12.0487 22.3696   1
  17  -1  -6 73.7122 35.6101  -2
 -17  -1   7 73.7122 35.6101   1
  17  -1  -5 44.2997 35.3551  -2
 -17  -1   6 44.2997 35.3551   1
  17  -1  -4 83.5949 35.2124  -2
 -17  -1   5 83.5949 35.2124   1
  17  -1  -3 5.38871 35.4440  -2
 -17  -1   4 5.38871 35.4440   1
  17  -1  -2 54.2180 35.0701  -2
 -17  -1   3 54.2180 35.0701   1
  17  -1  -1 149.989 36.0915  -2
 -17  -1   2 149.989 36.0915   1
  17  -1   0-3.91697 35.4728  -2
 -17  -1   1-3.91697 35.4728   1
 -17  -1   0 11.2726 23.0283   1
 -17  -1  -1 32.0521 24.1206   1
 -17  -1  -2-37.3055 29.1379   1
 -17  -1  -3 56.1909 50.3120   1
 -17  -1  -4 224.126 81.9457   1
 -17  -1  -5 115.331 105.780   1
 -17  -1  -6 165.179 105.041   1
 -17   1  -7 95.5330 152.188   1
 -17   2  19 33.4188 10.0394   1
 -17   2  18 13.4449 10.4164   1
 -17   2  17 90.1414 13.7541   1
 -17   2  16 10.3725 14.4445   1
 -17   2  15 98.8401 15.9648   1
 -17   2  14 60.2586 16.9948   1
 -17   2  13 74.8428 17.0193   1
 -17   2  12 18.9798 17.0257   1
 -17   2  11 66.7996 17.7171   1
 -17   2  10 96.6776 17.6979   1
  17   2  -8 301.449 24.1721  -2
 -17   2   9 301.449 24.1721   1
  17   2  -7 274.719 23.8005  -2
 -17   2   8 274.719 23.8005   1
  17   2  -6 106.325 22.6775  -2
 -17   2   7 106.325 22.6775   1
  17  -2  -5 170.698 35.7102  -2
 -17  -2   6 170.698 35.7102   1
  17  -2  -4 5.03554 33.3146  -2
 -17  -2   5 5.03554 33.3146   1
  17  -2  -3 114.293 35.0615  -2
 -17  -2   4 114.293 35.0615   1
  17  -2  -2 438.117 36.9511  -2
 -17  -2   3 438.117 36.9511   1
  17  -2  -1 540.230 37.5212  -2
 -17  -2   2 540.230 37.5212   1
  17  -2   0 415.522 37.0312  -2
 -17  -2   1 415.522 37.0312   1
 -17  -2   0 18.4715 22.9758   1
 -17  -2  -1 776.908 29.6202   1
 -17  -2  -2 189.986 33.9982   1
 -17   2  -3 780.433 56.4334   1
 -17  -2  -4 73.8362 85.1045   1
 -17  -2  -5 217.623 96.7499   1
 -17  -2  -6 663.450 95.2729   1
 -17   2  -7 77.2683 157.615   1
 -17   3  19 65.9958 9.78587   1
 -17   3  18 0.73296 14.6932   1
 -17   3  17 74.1090 17.1311   1
 -17   3  16 35.4604 18.9531   1
 -17   3  15 157.499 15.4057   1
 -17   3  14 14.3148 15.7858   1
 -17   3  13 266.457 20.9657   1
 -17   3  12 8.69366 16.3632   1
 -17   3  11 302.726 18.1694   1
 -17   3  10 30.7219 16.8400   1
  17   3  -8 304.853 30.0931  -2
 -17   3   9 304.853 30.0931   1
  17   3  -7 243.822 23.9474  -2
 -17   3   8 243.822 23.9474   1
  17   3  -6 458.942 24.4699  -2
 -17   3   7 458.942 24.4699   1
  17  -3  -5 136.337 34.1318  -2
 -17  -3   6 136.337 34.1318   1
  17  -3  -4 98.9159 33.9124  -2
 -17  -3   5 98.9159 33.9124   1
  17  -3  -3 233.432 34.1536  -2
 -17  -3   4 233.432 34.1536   1
  17  -3  -2 584.426 36.5795  -2
 -17  -3   3 584.426 36.5795   1
  17  -3  -1 37.4860 33.4365  -2
 -17  -3   2 37.4860 33.4365   1
  17  -3   0 146.407 35.4799  -2
 -17  -3   1 146.407 35.4799   1
 -17  -3   0 219.918 24.8726   1
 -17  -3  -1 170.692 29.8678   1
 -17  -3  -2-29.8634 33.8252   1
 -17  -3  -3 193.290 55.8216   1
 -17  -3  -4 8.11613 80.1212   1
 -17  -3  -5 129.903 81.5730   1
 -17   3  -6 191.846 170.713   1
 -17   3  -7 300.385 163.996   1
 -17   4  19 5.42493 11.1228   1
 -17   4  18 35.3758 13.8603   1
 -17   4  17 12.5574 16.0503   1
 -17   4  16 6.31577 18.1430   1
 -17   4  15 74.1704 19.6557   1
 -17   4  14 187.345 21.7101   1
 -17   4  13 142.601 22.2929   1
 -17   4  12 10.1492 21.6283   1
 -17   4  11 2.02007 21.1320   1
 -17   4  10 10.8883 21.2202   1
  17   4  -8 124.955 28.2922  -2
 -17   4   9 124.955 28.2922   1
  17   4  -7 587.702 30.2434  -2
 -17   4   8 587.702 30.2434   1
  17   4  -6 163.965 27.4446  -2
 -17   4   7 163.965 27.4446   1
  17   4  -5 1036.02 60.0642  -2
 -17   4   6 1036.02 60.0642   1
  17   4  -4-27.0361 53.8042  -2
 -17   4   5-27.0361 53.8042   1
  17   4  -3 15.5415 48.0219  -2
 -17   4   4 15.5415 48.0219   1
  17   4  -2 163.560 54.3431  -2
 -17   4   3 163.560 54.3431   1
  17   4  -1 35.3574 53.7871  -2
 -17   4   2 35.3574 53.7871   1
  17   4   0 7.23378 52.3202  -2
 -17   4   1 7.23378 52.3202   1
 -17   4   0 44.9820 34.7306   1
 -17   4  -1 50.0627 35.1847   1
 -17   4  -2 26.8139 40.6847   1
 -17   4  -3-74.9718 68.6576   1
 -17   4  -4-132.103 113.962   1
 -17   4  -5 244.562 151.968   1
 -17   4  -6 420.903 168.606   1
 -17   4  -7-78.0893 160.177   1
 -17   5  18 40.8461 13.0622   1
 -17   5  17 177.662 15.7372   1
 -17   5  16 6.37380 17.0050   1
 -17   5  15 16.8367 18.5551   1
 -17   5  14 75.3908 20.2940   1
 -17   5  13 0.58344 20.5901   1
 -17   5  12 9.54460 20.9688   1
 -17   5  11 595.574 24.1640   1
 -17   5  10-3.78665 21.0183   1
  17   5  -8 18.2081 27.3397  -2
 -17   5   9 18.2081 27.3397   1
  17   5  -7 37.7722 26.3640  -2
 -17   5   8 37.7722 26.3640   1
  17   5  -6 127.411 26.8390  -2
 -17   5   7 127.411 26.8390   1
  17   5  -5 20.5789 25.2005  -2
 -17   5   6 20.5789 25.2005   1
  17   5  -4 0.40223 48.6938  -2
 -17   5   5 0.40223 48.6938   1
  17   5  -3 87.7958 52.2852  -2
 -17   5   4 87.7958 52.2852   1
  17   5  -2 191.320 53.2607  -2
 -17   5   3 191.320 53.2607   1
  17   5  -1 58.6815 52.5528  -2
 -17   5   2 58.6815 52.5528   1
  17   5   0 110.437 52.8825  -2
 -17   5   1 110.437 52.8825   1
 -17   5   0 144.136 36.1884   1
 -17   5  -1 113.025 34.2048   1
 -17   5  -2-27.2101 44.2389   1
 -17   5  -3-12.4467 79.6569   1
 -17   5  -4 269.371 127.509   1
 -17   5  -5 373.809 156.354   1
 -17   5  -6 242.818 163.032   1
 -17   5  -7 141.203 149.599   1
 -17   6  17 12.8703 13.5357   1
 -17   6  16 4.79216 15.3069   1
 -17   6  15 15.1721 17.3612   1
 -17   6  14 21.8081 18.4411   1
 -17   6  13 250.537 20.3744   1
 -17   6  12 178.024 20.6857   1
 -17   6  11 20.8683 20.2479   1
 -17   6  10 172.892 21.0111   1
  17   6  -8 953.070 30.3651  -2
 -17   6   9 953.070 30.3651   1
  17   6  -7 58.0014 26.0875  -2
 -17   6   8 58.0014 26.0875   1
  17   6  -6 109.356 26.4631  -2
 -17   6   7 109.356 26.4631   1
  17   6  -5 134.641 25.6548  -2
 -17   6   6 134.641 25.6548   1
  17   6  -4 194.731 51.7870  -2
 -17   6   5 194.731 51.7870   1
  17   6  -3 237.860 51.3994  -2
 -17   6   4 237.860 51.3994   1
  17   6  -2 396.398 52.9866  -2
 -17   6   3 396.398 52.9866   1
  17   6  -1 12.8115 50.9714  -2
 -17   6   2 12.8115 50.9714   1
  17   6   0 2.53416 50.5268  -2
 -17   6   1 2.53416 50.5268   1
 -17   6   0 12.6923 33.1004   1
 -17   6  -1 153.382 36.7318   1
 -17   6  -2 5.07616 56.8934   1
 -17   6  -3 0.02118 97.9870   1
 -17   6  -4 129.470 133.736   1
 -17   6  -5 974.598 152.228   1
 -17   6  -6 197.676 149.545   1
 -17   7  17 81.7600 15.5524   1
 -17   7  16 15.5242 13.4753   1
 -17   7  15 33.1780 15.4848   1
 -17   7  14 243.733 18.0242   1
 -17   7  13 132.471 18.3385   1
 -17   7  12 6.62557 18.0996   1
 -17   7  11 85.5533 19.1369   1
 -17   7  10 82.5725 19.4022   1
  17   7  -8 4.56306 26.0499  -2
 -17   7   9 4.56306 26.0499   1
  17   7  -7 43.4726 25.3399  -2
 -17   7   8 43.4726 25.3399   1
  17   7  -6 115.346 25.3242  -2
 -17   7   7 115.346 25.3242   1
  17   7  -5 152.309 25.3048  -2
 -17   7   6 152.309 25.3048   1
  17   7  -4 60.9669 23.1384  -2
 -17   7   5 60.9669 23.1384   1
  17   7  -3 195.249 49.5659  -2
 -17   7   4 195.249 49.5659   1
  17   7  -2 117.711 50.3105  -2
 -17   7   3 117.711 50.3105   1
  17   7  -1 204.572 49.9192  -2
 -17   7   2 204.572 49.9192   1
  17   7   0 12.3949 47.6559  -2
 -17   7   1 12.3949 47.6559   1
 -17   7   0 38.4662 31.9707   1
 -17   7  -1-63.3214 45.6295   1
 -17   7  -2 84.9827 79.7378   1
 -17   7  -3 6.51794 115.845   1
 -17   7  -4 301.539 136.187   1
 -17   7  -5-48.1348 142.025   1
 -17   8  16 5.96907 14.4775   1
 -17   8  15 88.8615 13.1761   1
 -17   8  14 17.1059 14.3872   1
 -17   8  13 10.3821 15.5186   1
 -17   8  12 11.7245 16.4707   1
 -17   8  11 40.2351 17.2687   1
 -17   8  10-5.92305 17.6238   1
 -17   8   9 58.6822 28.0585   1
  17   8  -8 70.9485 29.2651  -2
 -17   8   9 70.9485 29.2651   1
  17   8  -7 22.8875 23.6723  -2
 -17   8   8 22.8875 23.6723   1
  17   8  -6 64.3613 23.7165  -2
 -17   8   7 64.3613 23.7165   1
  17   8  -5 39.1804 22.8227  -2
 -17   8   6 39.1804 22.8227   1
  17   8  -4 1.19919 19.5247  -2
 -17   8   5 1.19919 19.5247   1
  17   8  -3 101.324 44.9752  -2
 -17   8   4 101.324 44.9752   1
  17   8  -2 156.084 46.0336  -2
 -17   8   3 156.084 46.0336   1
  17   8  -1 23.1062 43.9511  -2
 -17   8   2 23.1062 43.9511   1
  17   8   0 43.2879 46.4021  -2
 -17   8   1 43.2879 46.4021   1
 -17   8   0-42.3329 39.9189   1
 -17   8  -1 216.332 69.6090   1
 -17   8  -2 19.6210 100.917   1
 -17   8  -3 316.160 128.745   1
 -17   8  -4 305.660 121.612   1
  17  -9 -14-2.03814 12.4316   1
 -17   9  13 69.2070 18.7149   1
 -17   9  12-3.13929 14.0773   1
 -17   9  11 4.68861 14.7919   1
 -17   9  10 17.4750 15.7341   1
 -17   9   9 521.255 27.5944   1
  17   9  -8 541.094 30.3752  -2
 -17   9   9 541.094 30.3752   1
  17   9  -7 10.8953 22.3425  -2
 -17   9   8 10.8953 22.3425   1
  17   9  -6-1.05173 22.0119  -2
 -17   9   7-1.05173 22.0119   1
  17   9  -5 21.8506 21.4313  -2
 -17   9   6 21.8506 21.4313   1
  17   9  -4 5.08974 18.1970  -2
 -17   9   5 5.08974 18.1970   1
  17   9  -3 30.6787 39.0760  -2
 -17   9   4 30.6787 39.0760   1
  17   9  -2 161.348 39.9674  -2
 -17   9   3 161.348 39.9674   1
  17   9  -1-6.05796 43.8591  -2
 -17   9   2-6.05796 43.8591   1
  17   9   0-1.54800 61.0665  -2
 -17   9   1-1.54800 61.0665   1
 -17   9   0 90.2533 67.4335   1
 -17   9  -1 389.583 95.1915   1
 -17   9  -2 96.6703 107.568   1
  17 -10 -13 7.35103 11.2458   1
  17 -10 -12 25.2332 12.5439   1
  17 -10 -11 1.46909 13.3655   1
  17 -10 -10 94.7968 14.6091   1
 -17 -10   8 272.092 20.1324  -2
  17 -10  -9 272.092 20.1324   1
 -17 -10   7 79.6492 19.7056  -2
  17 -10  -8 79.6492 19.7056   1
  17  10  -6 388.936 26.0828  -2
 -17  10   7 388.936 26.0828   1
 -17 -10   5 27.9726 15.6244  -2
  17 -10  -6 27.9726 15.6244   1
 -17 -10   4 158.939 15.5341  -2
  17 -10  -5 158.939 15.5341   1
  17  10  -3 49.3576 35.9028  -2
 -17  10   4 49.3576 35.9028   1
  17  10  -2 136.353 49.2866  -2
 -17  10   3 136.353 49.2866   1
  17 -11 -10 25.9983 11.3626   1
  17 -11  -9-7.54181 18.7768   1
  17  11  -8 19.8568 20.0641  -2
 -17  11   9 19.8568 20.0641   1
 -17 -11   7-3.51947 16.2472  -2
  17 -11  -8-3.51947 16.2472   1
 -17 -11   6 63.9427 16.1897  -2
  17 -11  -7 63.9427 16.1897   1
 -18   0  18 190.338 16.5677   1
 -18   0  16 4.06269 15.0688   1
 -18   0  14 18.7153 17.0894   1
 -18   0  12 157.756 18.7773   1
 -18   0  10 64.7449 17.6308   1
 -18   0   8 212.303 46.0297   1
 -18   0   6 121.787 42.8243   1
 -18   0   4 1.58021 41.5638   1
 -18   0   2-0.80707 43.9188   1
 -18   0   0 90.2995 31.2262   1
 -18   0  -2 48.8839 78.8912   1
 -18   0  -4 342.667 136.371   1
 -18   0  -6 305.373 112.957   1
 -18   1  18 19.2578 10.5863   1
 -18   1  17 6.79502 9.13393   1
 -18   1  16 44.3495 10.5822   1
 -18   1  15 52.1309 11.4659   1
 -18   1  14 5.05172 11.9634   1
 -18   1  13 42.1090 12.5333   1
 -18   1  12 77.1368 12.9261   1
 -18   1  11 38.7471 12.7346   1
 -18   1  10 14.5404 12.1573   1
  18   1  -8 135.869 21.4873  -2
 -18   1   9 135.869 21.4873   1
  18  -1  -7 530.451 34.5699  -2
 -18  -1   8 530.451 34.5699   1
  18  -1  -6 320.891 33.7150  -2
 -18  -1   7 320.891 33.7150   1
  18  -1  -5 39.0731 32.4060  -2
 -18  -1   6 39.0731 32.4060   1
  18  -1  -4 39.2824 32.2501  -2
 -18  -1   5 39.2824 32.2501   1
  18  -1  -3 43.5696 32.4074  -2
 -18  -1   4 43.5696 32.4074   1
  18  -1  -2 181.880 33.8130  -2
 -18  -1   3 181.880 33.8130   1
  18  -1  -1 261.757 33.5367  -2
 -18  -1   2 261.757 33.5367   1
 -18  -1   1 3.20372 29.3252   1
  18   1   0 29.7212 47.4201  -2
 -18   1   1 29.7212 47.4201   1
 -18  -1   0 169.289 23.0825   1
 -18  -1  -1 41.4215 31.9868   1
 -18  -1  -2-34.7732 53.6776   1
 -18  -1  -3-14.3250 79.7320   1
 -18  -1  -4 209.999 91.8655   1
 -18  -1  -5 467.950 87.6700   1
 -18   1  -6 122.136 125.948   1
 -18   2  18 25.1438 11.3653   1
 -18   2  17 41.5235 10.4734   1
 -18   2  16 26.1032 10.4137   1
 -18   2  15 91.0748 11.1490   1
 -18   2  14 73.9347 11.7752   1
 -18   2  13 56.3433 12.1383   1
 -18   2  12 91.2193 12.3289   1
 -18   2  11 5.67216 12.3001   1
 -18   2  10 36.3041 15.0818   1
  18   2  -8 199.365 21.5566  -2
 -18   2   9 199.365 21.5566   1
  18  -2  -7 150.775 31.8073  -2
 -18  -2   8 150.775 31.8073   1
  18  -2  -6 231.799 32.5303  -2
 -18  -2   7 231.799 32.5303   1
  18  -2  -5 42.9311 31.6945  -2
 -18  -2   6 42.9311 31.6945   1
  18  -2  -4 225.283 33.0054  -2
 -18  -2   5 225.283 33.0054   1
  18  -2  -3 219.019 33.3379  -2
 -18  -2   4 219.019 33.3379   1
  18  -2  -2 44.0840 32.1927  -2
 -18  -2   3 44.0840 32.1927   1
  18  -2  -1 5.68871 32.4233  -2
 -18  -2   2 5.68871 32.4233   1
 -18  -2   1 6.73619 27.2813   1
  18   2   0 29.0133 48.4206  -2
 -18   2   1 29.0133 48.4206   1
 -18  -2   0 84.8798 26.0323   1
 -18  -2  -1 55.9885 32.4238   1
 -18  -2  -2 23.7851 54.1668   1
 -18  -2  -3 108.086 77.9162   1
 -18  -2  -4 29.2747 81.5576   1
 -18   2  -5 195.035 144.586   1
 -18   2  -6-77.9017 132.112   1
 -18   3  17 0.28446 9.81344   1
 -18   3  16 87.0952 11.6406   1
 -18   3  15-2.82028 12.1853   1
 -18   3  14 189.908 13.8488   1
 -18   3  13 24.0651 13.6586   1
 -18   3  12 1.16599 13.5253   1
 -18   3  11 5.76693 11.3892   1
 -18   3  10 351.775 19.9429   1
  18   3  -8-4.46455 20.1050  -2
 -18   3   9-4.46455 20.1050   1
  18   3  -7 14.1178 20.8998  -2
 -18   3   8 14.1178 20.8998   1
  18  -3  -6 65.8661 29.1712  -2
 -18  -3   7 65.8661 29.1712   1
  18  -3  -5-4.53235 29.6951  -2
 -18  -3   6-4.53235 29.6951   1
  18  -3  -4 23.1038 30.4213  -2
 -18  -3   5 23.1038 30.4213   1
  18  -3  -3 151.053 30.8643  -2
 -18  -3   4 151.053 30.8643   1
  18  -3  -2 113.770 31.5177  -2
 -18  -3   3 113.770 31.5177   1
  18  -3  -1 112.546 31.7801  -2
 -18  -3   2 112.546 31.7801   1
 -18  -3   1 10.0746 39.2003   1
  18   3   0 91.3251 48.6205  -2
 -18   3   1 91.3251 48.6205   1
 -18  -3   0-17.7599 29.0498   1
 -18  -3  -1-4.00830 34.3108   1
 -18   3  -2 119.570 64.5730   1
 -18   3  -3 3.30178 104.253   1
 -18   3  -4 126.842 135.727   1
 -18   3  -5 207.776 142.938   1
 -18   3  -6 273.119 131.805   1
 -18   4  17-5.26935 11.9878   1
 -18   4  16 12.8872 10.4973   1
 -18   4  15 196.000 16.6899   1
 -18   4  14 48.0767 17.0748   1
 -18   4  13 5.11265 17.7125   1
 -18   4  12 5.92632 18.2872   1
 -18   4  11 280.701 19.5825   1
 -18   4  10-2.37129 17.9787   1
  18   4  -8-1.45095 23.7864  -2
 -18   4   9-1.45095 23.7864   1
  18   4  -7 12.9196 23.5484  -2
 -18   4   8 12.9196 23.5484   1
  18   4  -6 116.076 49.0490  -2
 -18   4   7 116.076 49.0490   1
  18   4  -5 73.8751 49.1329  -2
 -18   4   6 73.8751 49.1329   1
  18   4  -4 201.854 50.3280  -2
 -18   4   5 201.854 50.3280   1
  18   4  -3 14.3393 48.1709  -2
 -18   4   4 14.3393 48.1709   1
  18   4  -2 53.2405 49.1042  -2
 -18   4   3 53.2405 49.1042   1
  18   4  -1-1.01414 49.1400  -2
 -18   4   2-1.01414 49.1400   1
  18   4   0 33.7690 48.7471  -2
 -18   4   1 33.7690 48.7471   1
 -18   4   0 6.30038 31.7706   1
 -18   4  -1-82.8500 39.3524   1
 -18   4  -2-32.9634 71.2964   1
 -18   4  -3 33.6099 105.432   1
 -18   4  -4 226.456 135.516   1
 -18   4  -5 456.752 138.582   1
 -18   4  -6 51.9950 125.276   1
 -18   5  16 13.3023 12.9280   1
 -18   5  15 90.9889 13.5512   1
 -18   5  14 187.477 17.0257   1
 -18   5  13 213.127 18.1151   1
 -18   5  12 23.8570 17.5575   1
 -18   5  11 34.9318 18.1991   1
 -18   5  10 192.937 18.7617   1
  18   5  -8 132.394 24.0700  -2
 -18   5   9 132.394 24.0700   1
  18   5  -7 439.515 25.0089  -2
 -18   5   8 439.515 25.0089   1
  18   5  -6 103.246 48.6356  -2
 -18   5   7 103.246 48.6356   1
  18   5  -5 255.229 49.0617  -2
 -18   5   6 255.229 49.0617   1
  18   5  -4 287.287 49.4320  -2
 -18   5   5 287.287 49.4320   1
  18   5  -3 27.1592 47.4943  -2
 -18   5   4 27.1592 47.4943   1
  18   5  -2 44.8619 47.3392  -2
 -18   5   3 44.8619 47.3392   1
  18   5  -1 100.168 47.4443  -2
 -18   5   2 100.168 47.4443   1
  18   5   0 30.0580 47.7513  -2
 -18   5   1 30.0580 47.7513   1
 -18   5   0 41.9742 32.9239   1
 -18   5  -1 200.177 47.7223   1
 -18   5  -2 325.022 77.0508   1
 -18   5  -3 18.4370 111.084   1
 -18   5  -4 342.360 135.745   1
 -18   5  -5 405.007 131.981   1
 -18   6  16 324.325 16.4821   1
 -18   6  15 3.64812 13.1555   1
 -18   6  14 95.4416 15.3066   1
 -18   6  13 2.44962 15.5908   1
 -18   6  12 123.169 16.8819   1
 -18   6  11 158.515 17.5730   1
 -18   6  10 285.984 18.5288   1
  18   6  -8 26.8882 22.7548  -2
 -18   6   9 26.8882 22.7548   1
  18   6  -7 21.9271 22.1453  -2
 -18   6   8 21.9271 22.1453   1
  18   6  -6 56.5209 21.5311  -2
 -18   6   7 56.5209 21.5311   1
  18   6  -5 66.3727 46.2795  -2
 -18   6   6 66.3727 46.2795   1
  18   6  -4 60.2211 45.7716  -2
 -18   6   5 60.2211 45.7716   1
  18   6  -3 45.6652 43.2109  -2
 -18   6   4 45.6652 43.2109   1
  18   6  -2 29.7536 45.7905  -2
 -18   6   3 29.7536 45.7905   1
  18   6  -1 107.519 46.1724  -2
 -18   6   2 107.519 46.1724   1
  18   6   0 4.78916 46.2951  -2
 -18   6   1 4.78916 46.2951   1
 -18   6   0-58.9296 36.3610   1
 -18   6  -1-24.2862 61.5870   1
 -18   6  -2 45.7858 92.2450   1
 -18   6  -3 124.786 120.231   1
 -18   6  -4 322.908 127.651   1
 -18   6  -5-137.518 116.379   1
 -18   7  15-5.00676 14.2702   1
 -18   7  14 97.4195 13.3474   1
 -18   7  13 21.2748 13.8269   1
 -18   7  12 81.1329 15.2515   1
 -18   7  11 101.121 16.1263   1
 -18   7  10 0.02864 15.9631   1
 -18   7   9 504.865 30.5157   1
  18   7  -8 595.081 28.3881  -2
 -18   7   9 595.081 28.3881   1
  18   7  -7 42.4820 21.6009  -2
 -18   7   8 42.4820 21.6009   1
  18   7  -6 16.0717 20.2358  -2
 -18   7   7 16.0717 20.2358   1
  18   7  -5 24.3795 41.7392  -2
 -18   7   6 24.3795 41.7392   1
  18   7  -4 41.3996 42.2527  -2
 -18   7   5 41.3996 42.2527   1
  18   7  -3 9.07574 43.1901  -2
 -18   7   4 9.07574 43.1901   1
  18   7  -2 115.176 43.2531  -2
 -18   7   3 115.176 43.2531   1
  18   7  -1 122.753 42.5184  -2
 -18   7   2 122.753 42.5184   1
  18   7   0 76.7282 50.4482  -2
 -18   7   1 76.7282 50.4482   1
 -18   7   0-26.1961 50.6605   1
 -18   7  -1 135.039 78.6271   1
 -18   7  -2 175.147 108.719   1
 -18   7  -3 299.301 117.077   1
  18  -8 -14 311.396 18.6546   1
 -18   8  13 5.51024 15.2858   1
 -18   8  12 155.943 13.6064   1
 -18   8  11 14.8970 13.6871   1
 -18   8  10 433.247 15.8834   1
 -18   8   9 11.8271 23.5126   1
  18   8  -8 19.0411 23.5417  -2
 -18   8   9 19.0411 23.5417   1
 -18   8   8 14.9673 24.5067   1
  18   8  -7 26.8671 22.3898  -2
 -18   8   8 26.8671 22.3898   1
  18   8  -6 15.1319 18.5316  -2
 -18   8   7 15.1319 18.5316   1
  18   8  -5 86.5394 37.6053  -2
 -18   8   6 86.5394 37.6053   1
  18   8  -4 6.19977 36.5583  -2
 -18   8   5 6.19977 36.5583   1
  18   8  -3 2.70270 39.1179  -2
 -18   8   4 2.70270 39.1179   1
  18   8  -2 47.1220 39.6509  -2
 -18   8   3 47.1220 39.6509   1
  18   8  -1 41.1562 45.9910  -2
 -18   8   2 41.1562 45.9910   1
 -18   8   1 75.6745 47.8749   1
 -18   8   0 210.865 70.8110   1
 -18   8  -1 52.7828 93.0128   1
  18  -9 -12 0.75112 17.4161   1
  18  -9 -11 7.97161 11.7831   1
  18  -9 -10 205.642 13.0780   1
  18   9  -8 13.3693 20.6273  -2
 -18   9   9 13.3693 20.6273   1
  18   9  -7 15.3406 17.4794  -2
 -18   9   8 15.3406 17.4794   1
  18   9  -6 17.4336 31.1661  -2
 -18   9   7 17.4336 31.1661   1
 -18  -9   5 37.2353 19.8555  -2
  18  -9  -6 37.2353 19.8555   1
  18   9  -4 83.1247 34.2088  -2
 -18   9   5 83.1247 34.2088   1
  18   9  -3-46.2334 36.0613  -2
 -18   9   4-46.2334 36.0613   1
  18   9  -2-49.2650 50.6373  -2
 -18   9   3-49.2650 50.6373   1
 -19   0  15-4.60106 11.8279   1
 -19   0  13 138.330 14.6290   1
 -19   0  11 706.086 29.6489   1
 -19   0   9 284.561 39.8164   1
 -19   0   7 89.8341 37.6635   1
 -19   0   5 56.3588 37.6441   1
 -19   0   3 179.916 39.6192   1
 -19   0   1-4.15667 32.4001   1
 -19   0  -1-147.068 80.9942   1
 -19   0  -3 61.6947 109.356   1
 -19   1  15 3.84792 9.43542   1
 -19   1  14 61.4731 9.28739   1
 -19   1  13-7.03435 9.77388   1
 -19   1  12 310.226 13.0696   1
 -19   1  11 100.229 12.9410   1
 -19  -1  10-0.85526 17.8480   1
  19  -1  -8 69.2529 28.7069  -2
 -19  -1   9 69.2529 28.7069   1
  19  -1  -7 285.430 29.9437  -2
 -19  -1   8 285.430 29.9437   1
  19  -1  -6 59.6541 28.6847  -2
 -19  -1   7 59.6541 28.6847   1
  19  -1  -5 123.799 29.6943  -2
 -19  -1   6 123.799 29.6943   1
  19  -1  -4 8.08164 27.8898  -2
 -19  -1   5 8.08164 27.8898   1
  19  -1  -3-10.3750 28.6701  -2
 -19  -1   4-10.3750 28.6701   1
  19  -1  -2 45.1277 29.2786  -2
 -19  -1   3 45.1277 29.2786   1
  19  -1  -1 146.125 30.5392  -2
 -19  -1   2 146.125 30.5392   1
 -19  -1   1 1.81765 23.6631   1
 -19  -1   0-29.5010 36.8310   1
 -19  -1  -1-17.2477 56.8433   1
 -19  -1  -2 92.2026 72.3562   1
 -19  -1  -3 81.2324 72.7883   1
 -19   1  -4 305.330 108.257   1
 -19   2  15 46.8643 12.5881   1
 -19   2  14 5.38200 10.3560   1
 -19   2  13 15.7857 9.76180   1
 -19   2  12 34.2840 11.8613   1
 -19   2  11 11.0203 12.0209   1
 -19  -2  10 29.3919 17.0360   1
  19  -2  -8-21.6834 26.2293  -2
 -19  -2   9-21.6834 26.2293   1
  19  -2  -7-2.34810 26.9135  -2
 -19  -2   8-2.34810 26.9135   1
  19  -2  -6 8.59021 27.3765  -2
 -19  -2   7 8.59021 27.3765   1
  19  -2  -5 13.3824 26.2090  -2
 -19  -2   6 13.3824 26.2090   1
  19  -2  -4 53.2659 28.1404  -2
 -19  -2   5 53.2659 28.1404   1
  19  -2  -3 58.9318 28.5531  -2
 -19  -2   4 58.9318 28.5531   1
  19  -2  -2 29.5478 29.3036  -2
 -19  -2   3 29.5478 29.3036   1
 -19  -2   2-49.2187 33.6133   1
  19   2  -1 59.9066 43.0495  -2
 -19   2   2 59.9066 43.0495   1
 -19  -2   1 108.441 26.6341   1
 -19  -2   0-0.22773 36.7558   1
 -19  -2  -1 153.180 55.5156   1
 -19  -2  -2 123.254 63.8720   1
 -19   2  -3 199.526 116.993   1
 -19   2  -4-0.66434 110.044   1
 -19   3  15 124.985 12.4621   1
 -19   3  14 17.7169 13.1136   1
 -19   3  13 38.4807 14.1605   1
 -19   3  12 6.84979 14.6580   1
 -19   3  11 139.356 15.4522   1
 -19   3  10 31.2762 14.7887   1
 -19   3   9 21.0801 27.2747   1
  19   3  -7-18.0306 43.1705  -2
 -19   3   8-18.0306 43.1705   1
  19   3  -6 48.6121 43.5370  -2
 -19   3   7 48.6121 43.5370   1
  19   3  -5 16.3944 43.1735  -2
 -19   3   6 16.3944 43.1735   1
  19   3  -4 67.3971 43.5391  -2
 -19   3   5 67.3971 43.5391   1
  19   3  -3 65.7399 44.2206  -2
 -19   3   4 65.7399 44.2206   1
  19   3  -2 48.1912 43.2431  -2
 -19   3   3 48.1912 43.2431   1
  19   3  -1 12.3126 43.3780  -2
 -19   3   2 12.3126 43.3780   1
 -19   3   1-46.9806 29.0862   1
 -19   3   0-53.2459 43.5574   1
 -19   3  -1-41.9107 67.6257   1
 -19   3  -2 96.5775 98.2137   1
 -19   3  -3 99.8792 116.151   1
 -19   3  -4 23.7699 108.025   1
 -19   4  15-3.91971 18.8079   1
 -19   4  14 36.2561 12.6708   1
 -19   4  13 1.86661 13.3445   1
 -19   4  12 63.9956 14.1633   1
 -19   4  11 8.54421 14.2541   1
 -19   4  10 123.614 15.2533   1
 -19   4   9 111.066 28.4381   1
  19   4  -7 213.764 43.4986  -2
 -19   4   8 213.764 43.4986   1
  19   4  -6 145.560 43.8820  -2
 -19   4   7 145.560 43.8820   1
  19   4  -5 523.592 45.6987  -2
 -19   4   6 523.592 45.6987   1
  19   4  -4-20.3514 43.3527  -2
 -19   4   5-20.3514 43.3527   1
  19   4  -3 46.3418 43.2016  -2
 -19   4   4 46.3418 43.2016   1
  19   4  -2 48.3792 43.0445  -2
 -19   4   3 48.3792 43.0445   1
  19   4  -1 81.2898 42.1720  -2
 -19   4   2 81.2898 42.1720   1
 -19   4   1 68.6902 31.5619   1
 -19   4   0 101.568 47.0226   1
 -19   4  -1-54.6393 75.1759   1
 -19   4  -2 170.134 104.150   1
 -19   4  -3 413.581 109.564   1
 -19   4  -4 605.005 101.799   1
 -19   5  14 10.5374 19.4664   1
 -19   5  13 16.4357 12.4187   1
 -19   5  12-1.23288 13.1578   1
 -19   5  11 209.744 14.6360   1
 -19   5  10 106.309 14.4550   1
  19   5  -8 108.095 40.5563  -2
 -19   5   9 108.095 40.5563   1
  19   5  -7 359.631 43.2559  -2
 -19   5   8 359.631 43.2559   1
  19   5  -6 324.989 43.7837  -2
 -19   5   7 324.989 43.7837   1
  19   5  -5 34.2306 41.0991  -2
 -19   5   6 34.2306 41.0991   1
  19   5  -4 6.49760 40.9794  -2
 -19   5   5 6.49760 40.9794   1
  19   5  -3 95.4151 41.9653  -2
 -19   5   4 95.4151 41.9653   1
  19   5  -2 301.441 42.7947  -2
 -19   5   3 301.441 42.7947   1
  19   5  -1 6.37040 40.6667  -2
 -19   5   2 6.37040 40.6667   1
 -19   5   1-15.9891 34.5808   1
 -19   5   0-9.25458 55.6362   1
 -19   5  -1-27.1611 82.1781   1
 -19   5  -2 118.268 102.126   1
 -19   5  -3 102.121 103.685   1
 -19   6  13 15.2405 19.4804   1
 -19   6  12 18.3209 20.7613   1
 -19   6  11-2.90123 12.5298   1
 -19   6  10 25.4137 13.9671   1
 -19   6   9 8.91221 24.7553   1
  19   6  -7 48.0608 37.9680  -2
 -19   6   8 48.0608 37.9680   1
  19   6  -6 54.8698 38.0964  -2
 -19   6   7 54.8698 38.0964   1
  19   6  -5 24.5006 39.2858  -2
 -19   6   6 24.5006 39.2858   1
  19   6  -4-3.55127 37.7935  -2
 -19   6   5-3.55127 37.7935   1
  19   6  -3 42.4872 39.1653  -2
 -19   6   4 42.4872 39.1653   1
  19   6  -2 188.018 39.0561  -2
 -19   6   3 188.018 39.0561   1
  19   6  -1-31.4312 44.7408  -2
 -19   6   2-31.4312 44.7408   1
 -19   6   1-3.78335 44.3492   1
 -19   6   0-68.3672 68.9436   1
 -19   6  -1 205.766 86.2815   1
 -19   6  -2 191.437 97.8866   1
 -19   7  11 4.74094 18.8161   1
 -19   7  10 82.1763 20.4994   1
 -19   7   9 33.8175 21.4187   1
  19   7  -7 19.4552 33.5615  -2
 -19   7   8 19.4552 33.5615   1
  19   7  -6-10.1531 34.9746  -2
 -19   7   7-10.1531 34.9746   1
  19   7  -5 18.2893 35.7227  -2
 -19   7   6 18.2893 35.7227   1
  19   7  -4 22.2542 35.3158  -2
 -19   7   5 22.2542 35.3158   1
  19   7  -3-6.60088 35.0277  -2
 -19   7   4-6.60088 35.0277   1
  19   7  -2-41.1798 40.5730  -2
 -19   7   3-41.1798 40.5730   1
  19   7  -1-76.9553 62.6601  -2
 -19   7   2-76.9553 62.6601   1
 -19   7   1 54.3811 58.0106   1
 -19   7   0 115.897 77.4607   1
  19   8  -5 78.1569 30.1666  -2
 -19   8   6 78.1569 30.1666   1
  19   8  -4 17.6649 30.5814  -2
 -19   8   5 17.6649 30.5814   1
 -20   0  12 259.176 18.8699   1
 -20   0  10 116.077 20.3433   1
 -20   0   8 24.1255 29.1860   1
 -20   0   6 4.60585 29.4141   1
 -20   0   4 12.8970 32.4846   1
 -20   0   2 17.4534 43.7470   1
 -20   0   0 59.1868 78.6726   1
 -20   1  12 27.7471 18.5087   1
 -20   1  11 84.6293 20.3956   1
 -20  -1  10 0.35480 13.8476   1
  20  -1  -8 20.6951 23.2841  -2
 -20  -1   9 20.6951 23.2841   1
  20  -1  -7 85.7567 23.9529  -2
 -20  -1   8 85.7567 23.9529   1
  20  -1  -6-3.05417 22.7864  -2
 -20  -1   7-3.05417 22.7864   1
  20  -1  -5 47.7138 24.1458  -2
 -20  -1   6 47.7138 24.1458   1
  20  -1  -4 26.5306 23.8006  -2
 -20  -1   5 26.5306 23.8006   1
  20  -1  -3 16.9715 26.0839  -2
 -20  -1   4 16.9715 26.0839   1
  20  -1  -2-56.9070 32.9880  -2
 -20  -1   3-56.9070 32.9880   1
 -20  -1   2-26.3393 30.0822   1
 -20  -1   1-11.1698 44.7129   1
 -20   1   0 141.072 76.7920   1
 -20   1  -1 186.819 84.8767   1
 -20   2  13 44.2568 17.2892   1
 -20   2  12 7.18394 18.9573   1
 -20   2  11 21.5125 20.2600   1
 -20   2  10 12.5492 21.2118   1
  20   2  -8 26.3685 34.6425  -2
 -20   2   9 26.3685 34.6425   1
  20   2  -7 40.9435 35.2142  -2
 -20   2   8 40.9435 35.2142   1
  20   2  -6 53.0950 36.3742  -2
 -20   2   7 53.0950 36.3742   1
  20   2  -5 71.0885 35.9637  -2
 -20   2   6 71.0885 35.9637   1
  20   2  -4 37.1019 36.4273  -2
 -20   2   5 37.1019 36.4273   1
  20   2  -3 63.7959 36.6915  -2
 -20   2   4 63.7959 36.6915   1
  20   2  -2 2.12622 38.7469  -2
 -20   2   3 2.12622 38.7469   1
 -20   2   2-42.7081 35.2718   1
 -20   2   1 28.1654 53.5030   1
 -20   2   0 186.521 74.9244   1
 -20   2  -1 88.7728 87.2486   1
 -20   3  12 90.9792 19.5183   1
 -20   3  11-1.78399 20.1040   1
 -20   3  10 1.92155 21.2667   1
  20   3  -8 145.210 35.7529  -2
 -20   3   9 145.210 35.7529   1
  20   3  -7 150.714 36.7196  -2
 -20   3   8 150.714 36.7196   1
  20   3  -6 179.289 36.8503  -2
 -20   3   7 179.289 36.8503   1
  20   3  -5 91.0639 36.6736  -2
 -20   3   6 91.0639 36.6736   1
  20   3  -4 18.2330 36.8399  -2
 -20   3   5 18.2330 36.8399   1
  20   3  -3 261.547 37.7254  -2
 -20   3   4 261.547 37.7254   1
  20   3  -2-13.2165 39.3903  -2
 -20   3   3-13.2165 39.3903   1
 -20   3   2 96.5583 35.4938   1
 -20   3   1-32.3894 51.7322   1
 -20   3   0 135.835 74.4300   1
 -20   3  -1 195.242 85.7293   1
 -20   4  12 12.6818 17.6909   1
 -20   4  11 18.3537 19.3714   1
 -20   4  10 30.4099 20.4568   1
 -20   4   9 175.681 22.3641   1
  20   4  -7-4.98377 34.8170  -2
 -20   4   8-4.98377 34.8170   1
  20   4  -6 1.39036 33.1730  -2
 -20   4   7 1.39036 33.1730   1
  20   4  -5 61.6839 35.1001  -2
 -20   4   6 61.6839 35.1001   1
  20   4  -4 18.4857 35.5252  -2
 -20   4   5 18.4857 35.5252   1
  20   4  -3-9.76223 35.3066  -2
 -20   4   4-9.76223 35.3066   1
  20   4  -2-44.4769 40.0266  -2
 -20   4   3-44.4769 40.0266   1
 -20   4   2 17.2365 38.6257   1
 -20   4   1 70.9344 55.6609   1
 -20   4   0 151.971 75.0081   1
 -20   5  10 159.989 19.8371   1
 -20   5   9 20.7388 19.2001   1
  20   5  -7 8.61227 32.1658  -2
 -20   5   8 8.61227 32.1658   1
  20   5  -6 2.26313 32.1483  -2
 -20   5   7 2.26313 32.1483   1
  20   5  -5 65.4604 33.5021  -2
 -20   5   6 65.4604 33.5021   1
  20   5  -4 246.487 33.9214  -2
 -20   5   5 246.487 33.9214   1
  20   5  -3 3.54794 34.3159  -2
 -20   5   4 3.54794 34.3159   1
  20   5  -2-60.7089 45.7663  -2
 -20   5   3-60.7089 45.7663   1
 -20   5   2-45.8141 44.5903   1
 -20   5   1 11.5331 60.9738   1
  20   6  -7 74.9084 29.5779  -2
 -20   6   8 74.9084 29.5779   1
  20   6  -6 124.296 30.6272  -2
 -20   6   7 124.296 30.6272   1
  20   6  -5 76.8347 30.5740  -2
 -20   6   6 76.8347 30.5740   1
  20   6  -4 11.4442 31.0689  -2
 -20   6   5 11.4442 31.0689   1
;
_shelx_hkl_checksum              73040
_olex2_submission_special_instructions 'No special instructions were received'
_oxdiff_exptl_absorpt_empirical_details
;
Empirical correction (ABSPACK) includes:
- Absorption correction using spherical harmonics
- Frame scaling
;
_oxdiff_exptl_absorpt_empirical_full_max 2.070
_oxdiff_exptl_absorpt_empirical_full_min 0.659
_oxdiff_twin_integration_method  simultaneous
_oxdiff_twin_items               2
_twin_special_details
;
Component 2 rotated by -176.9790\% 
 around [-0.01 1.00 0.01] (reciprocal) or [-0.00 1.00 0.00] (direct)
;
loop_
_space_group_symop_operation_xyz
'x, y, z'
'-x+1/2, y+1/2, -z+1/2'
'-x, -y, -z'
'x-1/2, -y-1/2, z-1/2'
loop_
_atom_site_label
_atom_site_type_symbol
_atom_site_fract_x
_atom_site_fract_y
_atom_site_fract_z
_atom_site_U_iso_or_equiv
_atom_site_adp_type
_atom_site_occupancy
_atom_site_site_symmetry_order
_atom_site_calc_flag
_atom_site_refinement_flags_posn
_atom_site_refinement_flags_adp
_atom_site_refinement_flags_occupancy
_atom_site_disorder_assembly
_atom_site_disorder_group
S1 S 0.08156(4) 0.92475(3) 0.37872(3) 0.04526(16) Uani 1 1 d . . . . .
S2 S 0.43522(4) 0.57626(4) 0.62924(3) 0.05290(18) Uani 1 1 d . . . . .
O5 O 0.12240(11) 0.96575(10) 0.43892(8) 0.0590(5) Uani 1 1 d . . . . .
O9 O 0.34482(10) 0.75525(10) 0.70104(9) 0.0541(4) Uani 1 1 d . . . . .
N7 N 0.12535(10) 0.85350(10) 0.61530(8) 0.0388(4) Uani 1 1 d D U . . .
O4 O 0.06179(11) 0.84003(9) 0.38839(8) 0.0579(5) Uani 1 1 d . . . . .
N8 N 0.40963(11) 0.67876(11) 0.39934(9) 0.0437(4) Uani 1 1 d . U . . .
O6 O 0.01184(10) 0.96877(9) 0.33944(8) 0.0537(4) Uani 1 1 d . . . . .
N6 N 0.40705(12) 0.63657(11) 0.74080(10) 0.0470(5) Uani 1 1 d . . . . .
H6A H 0.4379 0.6121 0.7739 0.056 Uiso 1 1 calc R . . . .
O10 O 0.50572(13) 0.53463(12) 0.66960(9) 0.0755(6) Uani 1 1 d . . . . .
O12 O 0.45565(13) 0.65774(11) 0.61167(9) 0.0683(5) Uani 1 1 d . . . . .
N5 N 0.44206(12) 0.75448(11) 0.79907(10) 0.0469(5) Uani 1 1 d . . . . .
H5A H 0.4704 0.7222 0.8281 0.056 Uiso 1 1 calc R . . . .
O11 O 0.39079(14) 0.52775(12) 0.57500(10) 0.0799(6) Uani 1 1 d . . . . .
N3 N 0.12298(14) 0.87974(15) 0.26777(11) 0.0662(6) Uani 1 1 d . . . . .
H3 H 0.0961 0.9052 0.2335 0.079 Uiso 1 1 calc R . . . .
N2 N 0.08826(14) 0.76135(15) 0.20961(12) 0.0679(6) Uani 1 1 d . . . . .
H2 H 0.0632 0.7931 0.1786 0.081 Uiso 1 1 calc R . . . .
O3 O 0.18637(13) 0.76172(15) 0.30722(12) 0.0947(8) Uani 1 1 d . . . . .
C12 C 0.44895(14) 0.83774(13) 0.81300(12) 0.0472(6) Uani 1 1 d . . . . .
C63 C 0.39767(15) 0.59041(13) 0.41620(12) 0.0491(6) Uani 1 1 d . U . . .
H63A H 0.4351 0.5571 0.3987 0.059 Uiso 1 1 calc R . . . .
H63B H 0.4124 0.5847 0.4638 0.059 Uiso 1 1 calc R . . . .
C10 C 0.42088(16) 0.97974(14) 0.78837(15) 0.0583(7) Uani 1 1 d . . . . .
H10 H 0.3935 1.0201 0.7604 0.070 Uiso 1 1 calc R . . . .
C7 C 0.13681(18) 0.7987(2) 0.26528(16) 0.0723(9) Uani 1 1 d . . . . .
C15 C 0.39438(14) 0.71844(13) 0.74343(12) 0.0435(5) Uani 1 1 d . . . . .
C58 C 0.37622(15) 0.69570(14) 0.32618(12) 0.0491(6) Uani 1 1 d . U . . .
H58A H 0.3176 0.6892 0.3162 0.059 Uiso 1 1 calc R . . . .
H58B H 0.3873 0.7523 0.3178 0.059 Uiso 1 1 calc R . . . .
C11 C 0.40796(15) 0.89864(14) 0.77132(13) 0.0542(6) Uani 1 1 d . . . . .
H11 H 0.3719 0.8845 0.7320 0.065 Uiso 1 1 calc R . . . .
C16 C 0.36922(16) 0.59072(14) 0.68309(13) 0.0536(6) Uani 1 1 d . . . . .
H16A H 0.3207 0.6192 0.6597 0.064 Uiso 1 1 calc R . . . .
H16B H 0.3527 0.5378 0.6964 0.064 Uiso 1 1 calc R . . . .
C1 C 0.0401(2) 0.51565(19) 0.17753(16) 0.0749(9) Uani 1 1 d . . . . .
O8 O 0.45332(15) 1.13810(12) 0.82204(13) 0.0888(7) Uani 1 1 d . . . . .
C55 C 0.37708(16) 0.82405(14) 0.43199(14) 0.0553(6) Uani 1 1 d . U . . .
H55A H 0.3579 0.8409 0.3864 0.066 Uiso 1 1 calc R . . . .
H55B H 0.4348 0.8360 0.4455 0.066 Uiso 1 1 calc R . . . .
C6 C -0.0060(2) 0.57260(19) 0.13658(15) 0.0715(8) Uani 1 1 d . . . . .
H6 H -0.0487 0.5563 0.1022 0.086 Uiso 1 1 calc R . . . .
C64 C 0.31324(17) 0.55664(15) 0.39112(15) 0.0641(7) Uani 1 1 d . U . . .
H64A H 0.2987 0.5587 0.3433 0.077 Uiso 1 1 calc R . . . .
H64B H 0.2747 0.5900 0.4073 0.077 Uiso 1 1 calc R . . . .
C8 C 0.15381(16) 0.92309(18) 0.32854(14) 0.0623(7) Uani 1 1 d . . . . .
H8A H 0.1669 0.9787 0.3188 0.075 Uiso 1 1 calc R . . . .
H8B H 0.2035 0.8971 0.3527 0.075 Uiso 1 1 calc R . . . .
C49 C 0.50043(14) 0.69793(15) 0.41672(13) 0.0523(6) Uani 1 1 d . U . . .
H49A H 0.5276 0.6593 0.3939 0.063 Uiso 1 1 calc R . . . .
H49B H 0.5082 0.7520 0.4003 0.063 Uiso 1 1 calc R . . . .
C9 C 0.47308(17) 1.00107(15) 0.84546(16) 0.0629(7) Uani 1 1 d . . . . .
C47 C 0.2535(8) 1.0520(3) 0.6284(6) 0.0543(15) Uani 0.75 1 d D U P A 1
H47A H 0.3031 1.0213 0.6452 0.065 Uiso 0.75 1 calc R . P A 1
H47B H 0.2498 1.0636 0.5822 0.065 Uiso 0.75 1 calc R . P A 1
O2 O 0.0576(2) 0.38003(16) 0.20696(14) 0.1274(11) Uani 1 1 d . . . . .
C57 C 0.34458(19) 0.96383(15) 0.46846(15) 0.0680(8) Uani 1 1 d . U . . .
H57A H 0.3157 0.9925 0.4959 0.102 Uiso 1 1 calc R . . . .
H57B H 0.3242 0.9802 0.4234 0.102 Uiso 1 1 calc R . . . .
H57C H 0.4015 0.9765 0.4821 0.102 Uiso 1 1 calc R . . . .
C4 C 0.07649(17) 0.67860(19) 0.19956(14) 0.0660(8) Uani 1 1 d . . . . .
C33 C 0.04759(19) 0.87495(19) 0.56558(18) 0.0473(7) Uani 0.75 1 d D U P B 1
H33A H 0.0283 0.9272 0.5776 0.057 Uiso 0.75 1 calc R . P B 1
H33B H 0.0597 0.8814 0.5227 0.057 Uiso 0.75 1 calc R . P B 1
C14 C 0.5136(2) 0.94223(17) 0.88818(17) 0.0827(10) Uani 1 1 d . . . . .
H14 H 0.5488 0.9572 0.9277 0.099 Uiso 1 1 calc R . . . .
C59 C 0.40925(19) 0.64269(17) 0.27928(14) 0.0679(8) Uani 1 1 d . U . . .
H59A H 0.4673 0.6521 0.2864 0.081 Uiso 1 1 calc R . . . .
H59B H 0.4013 0.5857 0.2889 0.081 Uiso 1 1 calc R . . . .
C56 C 0.33255(16) 0.87246(14) 0.47464(13) 0.0538(6) Uani 1 1 d . U . . .
H56A H 0.2750 0.8599 0.4616 0.065 Uiso 1 1 calc R . . . .
H56B H 0.3523 0.8563 0.5203 0.065 Uiso 1 1 calc R . . . .
C5 C 0.01216(18) 0.65342(18) 0.14739(13) 0.0655(8) Uani 1 1 d . . . . .
H5 H -0.0184 0.6924 0.1199 0.079 Uiso 1 1 calc R . . . .
C45 C 0.1901(2) 0.91647(19) 0.61024(17) 0.0491(8) Uani 0.75 1 d D U P A 1
H45A H 0.2423 0.8954 0.6343 0.059 Uiso 0.75 1 calc R . P A 1
H45B H 0.1921 0.9203 0.5643 0.059 Uiso 0.75 1 calc R . P A 1
C13 C 0.50136(19) 0.86151(16) 0.87157(15) 0.0712(9) Uani 1 1 d . . . . .
H13 H 0.5288 0.8218 0.9002 0.085 Uiso 1 1 calc R . . . .
C35 C -0.0904(3) 0.8335(4) 0.5028(5) 0.0600(16) Uani 0.75 1 d D U P B 1
H35A H -0.1148 0.8846 0.5115 0.072 Uiso 0.75 1 calc R . P B 1
H35B H -0.0711 0.8403 0.4629 0.072 Uiso 0.75 1 calc R . P B 1
N1 N 0.0182(2) 0.42982(19) 0.16903(17) 0.0958(10) Uani 1 1 d . . . . .
C2 C 0.1037(2) 0.5376(2) 0.22791(17) 0.0953(12) Uani 1 1 d . . . . .
H2A H 0.1345 0.4977 0.2542 0.114 Uiso 1 1 calc R . . . .
O1 O -0.03947(19) 0.41087(15) 0.12387(18) 0.1120(9) Uani 1 1 d . . . . .
C29 C 0.1093(2) 0.8552(2) 0.68437(15) 0.0478(7) Uani 0.75 1 d D U P B 1
H29A H 0.0811 0.9057 0.6888 0.057 Uiso 0.75 1 calc R . P B 1
H29B H 0.0725 0.8107 0.6874 0.057 Uiso 0.75 1 calc R . P B 1
C30 C 0.1807(2) 0.8488(2) 0.74145(16) 0.0543(8) Uani 0.75 1 d D U P B 1
H30A H 0.2186 0.8925 0.7390 0.065 Uiso 0.75 1 calc R . P B 1
H30B H 0.2082 0.7973 0.7390 0.065 Uiso 0.75 1 calc R . P B 1
C17 C 0.1560(2) 0.76894(19) 0.60362(18) 0.0491(8) Uani 0.75 1 d D U P B 1
H17A H 0.2099 0.7619 0.6321 0.059 Uiso 0.75 1 calc R . P B 1
H17B H 0.1207 0.7287 0.6165 0.059 Uiso 0.75 1 calc R . P B 1
C65 C 0.30869(18) 0.46920(15) 0.41377(15) 0.0665(8) Uani 1 1 d . U . . .
H65A H 0.3562 0.4398 0.4079 0.080 Uiso 0.50(4) 1 calc R . P C 2
H65B H 0.3099 0.4691 0.4604 0.080 Uiso 0.50(4) 1 calc R . P C 2
H66A H 0.3334 0.4659 0.4606 0.080 Uiso 0.50(4) 1 calc R . P C 1
H66B H 0.3397 0.4345 0.3910 0.080 Uiso 0.50(4) 1 calc R . P C 1
C50 C 0.54088(18) 0.6951(2) 0.48906(16) 0.0775(9) Uani 1 1 d . U . . .
H50A H 0.5408 0.6392 0.5046 0.093 Uiso 1 1 calc R . . . .
H50B H 0.5101 0.7281 0.5131 0.093 Uiso 1 1 calc R . . . .
C54 C 0.36411(15) 0.73306(13) 0.43724(13) 0.0479(6) Uani 1 1 d . U . . .
H54A H 0.3064 0.7219 0.4219 0.057 Uiso 1 1 calc R . . . .
H54B H 0.3799 0.7179 0.4834 0.057 Uiso 1 1 calc R . . . .
C19 C 0.2024(4) 0.6712(3) 0.5285(3) 0.0632(14) Uani 0.75 1 d D U P B 1
H19A H 0.2005 0.6630 0.4822 0.076 Uiso 0.75 1 calc R . P B 1
H19B H 0.2592 0.6775 0.5509 0.076 Uiso 0.75 1 calc R . P B 1
C31 C 0.1571(4) 0.8537(10) 0.8069(3) 0.0528(7) Uani 0.75 1 d D U P B 1
H31A H 0.1187 0.8981 0.8055 0.063 Uiso 0.75 1 calc R . P B 1
H31B H 0.1305 0.8033 0.8144 0.063 Uiso 0.75 1 calc R . P B 1
N4 N 0.48732(17) 1.08693(15) 0.86217(17) 0.0806(8) Uani 1 1 d . . . . .
C46 C 0.1812(2) 1.00076(19) 0.63449(19) 0.0580(9) Uani 0.75 1 d D U P A 1
H46A H 0.1779 0.9988 0.6802 0.070 Uiso 0.75 1 calc R . P A 1
H46B H 0.1315 1.0252 0.6088 0.070 Uiso 0.75 1 calc R . P A 1
C3 C 0.1218(2) 0.6178(2) 0.23960(17) 0.0934(12) Uani 1 1 d . . . . .
H3A H 0.1646 0.6326 0.2745 0.112 Uiso 1 1 calc R . . . .
O7 O 0.53045(17) 1.10483(14) 0.91586(17) 0.1228(11) Uani 1 1 d . . . . .
C60 C 0.3697(3) 0.6592(2) 0.20949(15) 0.0898(11) Uani 1 1 d . U . . .
H61A H 0.4043 0.6352 0.1836 0.108 Uiso 0.548(14) 1 calc R . P D 1
H61B H 0.3194 0.6282 0.1996 0.108 Uiso 0.548(14) 1 calc R . P D 1
H60A H 0.4030 0.7016 0.1968 0.108 Uiso 0.452(14) 1 calc R . P D 2
H60B H 0.3802 0.6104 0.1865 0.108 Uiso 0.452(14) 1 calc R . P D 2
C20 C 0.1731(3) 0.5948(3) 0.5532(3) 0.0763(13) Uani 0.75 1 d D U P B 1
H20A H 0.1160 0.5887 0.5344 0.114 Uiso 0.75 1 calc GR . P B 1
H20B H 0.1827 0.5972 0.6003 0.114 Uiso 0.75 1 calc GR . P B 1
H20C H 0.2018 0.5490 0.5409 0.114 Uiso 0.75 1 calc GR . P B 1
C34 C -0.0190(2) 0.8139(2) 0.55972(19) 0.0597(9) Uani 0.75 1 d D U P B 1
H34A H -0.0373 0.8129 0.6004 0.072 Uiso 0.75 1 calc R . P B 1
H34B H 0.0016 0.7600 0.5533 0.072 Uiso 0.75 1 calc R . P B 1
C51 C 0.62809(18) 0.72623(19) 0.5031(2) 0.0814(10) Uani 1 1 d . U . . .
H51A H 0.6583 0.7035 0.5445 0.098 Uiso 0.680(11) 1 calc R . P E 1
H51B H 0.6533 0.7070 0.4687 0.098 Uiso 0.680(11) 1 calc R . P E 1
H51C H 0.6624 0.6788 0.5030 0.098 Uiso 0.320(11) 1 calc R . P E 2
H51D H 0.6323 0.7592 0.4654 0.098 Uiso 0.320(11) 1 calc R . P E 2
C36 C -0.1533(3) 0.7677(3) 0.4922(3) 0.0807(16) Uani 0.75 1 d D U P B 1
H36A H -0.1964 0.7811 0.4547 0.121 Uiso 0.75 1 calc GR . P B 1
H36B H -0.1749 0.7631 0.5306 0.121 Uiso 0.75 1 calc GR . P B 1
H36C H -0.1291 0.7168 0.4845 0.121 Uiso 0.75 1 calc GR . P B 1
C48 C 0.2576(3) 1.1317(2) 0.6657(2) 0.0702(12) Uani 0.75 1 d D U P A 1
H48A H 0.2094 1.1630 0.6483 0.105 Uiso 0.75 1 calc GR . P A 1
H48B H 0.3044 1.1621 0.6610 0.105 Uiso 0.75 1 calc GR . P A 1
H48C H 0.2618 1.1205 0.7115 0.105 Uiso 0.75 1 calc GR . P A 1
C32 C 0.2301(3) 0.8677(3) 0.8630(2) 0.0697(12) Uani 0.75 1 d D U P B 1
H32A H 0.2559 0.9181 0.8562 0.105 Uiso 0.75 1 calc GR . P B 1
H32B H 0.2678 0.8234 0.8649 0.105 Uiso 0.75 1 calc GR . P B 1
H32C H 0.2132 0.8703 0.9037 0.105 Uiso 0.75 1 calc GR . P B 1
C18 C 0.1603(2) 0.7519(2) 0.53456(19) 0.0638(9) Uani 0.75 1 d D U P B 1
H18A H 0.1897 0.7957 0.5192 0.077 Uiso 0.75 1 calc R . P B 1
H18B H 0.1057 0.7505 0.5066 0.077 Uiso 0.75 1 calc R . P B 1
C66 C 0.2338(13) 0.4254(14) 0.3772(15) 0.098(6) Uani 0.50(4) 1 d . U P C 2
H66C H 0.2342 0.3705 0.3936 0.147 Uiso 0.50(4) 1 calc R . P C 2
H66D H 0.2329 0.4241 0.3311 0.147 Uiso 0.50(4) 1 calc R . P C 2
H66E H 0.1865 0.4535 0.3836 0.147 Uiso 0.50(4) 1 calc R . P C 2
C52 C 0.6337(3) 0.8152(3) 0.5065(3) 0.0808(19) Uani 0.680(11) 1 d . U P E 1
H52A H 0.6898 0.8313 0.5154 0.121 Uiso 0.680(11) 1 calc R . P E 1
H52B H 0.6100 0.8346 0.5411 0.121 Uiso 0.680(11) 1 calc R . P E 1
H52C H 0.6050 0.8382 0.4652 0.121 Uiso 0.680(11) 1 calc R . P E 1
C38 C -0.0058(5) 0.8626(6) 0.5203(4) 0.051(2) Uani 0.25 1 d D U P B 2
H38A H 0.0055 0.9187 0.5107 0.061 Uiso 0.25 1 calc R . P B 2
H38B H 0.0175 0.8271 0.4925 0.061 Uiso 0.25 1 calc R . P B 2
C37 C 0.0325(4) 0.8436(6) 0.5940(4) 0.0329(17) Uani 0.25 1 d D U P B 2
H37A H 0.0080 0.8794 0.6209 0.040 Uiso 0.25 1 calc R . P B 2
H37B H 0.0188 0.7879 0.6030 0.040 Uiso 0.25 1 calc R . P B 2
C41 C 0.1463(5) 0.9417(4) 0.6024(4) 0.0309(17) Uani 0.25 1 d D U P B 2
H41A H 0.1159 0.9782 0.6241 0.037 Uiso 0.25 1 calc R . P B 2
H41B H 0.1301 0.9524 0.5554 0.037 Uiso 0.25 1 calc R . P B 2
C42 C 0.2395(4) 0.9598(5) 0.6277(4) 0.0344(17) Uani 0.25 1 d D U P B 2
H42A H 0.2566 0.9451 0.6739 0.041 Uiso 0.25 1 calc R . P B 2
H42B H 0.2696 0.9261 0.6036 0.041 Uiso 0.25 1 calc R . P B 2
C25 C 0.1533(5) 0.8252(5) 0.6858(3) 0.0276(16) Uani 0.25 1 d D U P B 2
H25A H 0.2121 0.8208 0.6976 0.033 Uiso 0.25 1 calc R . P B 2
H25B H 0.1308 0.7716 0.6904 0.033 Uiso 0.25 1 calc R . P B 2
C26 C 0.1248(5) 0.8873(5) 0.7333(4) 0.0352(17) Uani 0.25 1 d D U P B 2
H26A H 0.1508 0.9399 0.7318 0.042 Uiso 0.25 1 calc R . P B 2
H26B H 0.0664 0.8949 0.7199 0.042 Uiso 0.25 1 calc R . P B 2
C22 C 0.1452(5) 0.7056(4) 0.5750(4) 0.0379(17) Uani 0.25 1 d D U P B 2
H22A H 0.1607 0.6885 0.6207 0.045 Uiso 0.25 1 calc R . P B 2
H22B H 0.0865 0.7004 0.5608 0.045 Uiso 0.25 1 calc R . P B 2
C21 C 0.1665(5) 0.7984(5) 0.5724(4) 0.0364(18) Uani 0.25 1 d D U P B 2
H21A H 0.2250 0.8048 0.5869 0.044 Uiso 0.25 1 calc R . P B 2
H21B H 0.1503 0.8169 0.5270 0.044 Uiso 0.25 1 calc R . P B 2
C40 C -0.1122(9) 0.7583(10) 0.4954(12) 0.089(5) Uani 0.25 1 d D U P B 2
H40A H -0.0799 0.7384 0.4666 0.133 Uiso 0.25 1 calc GR . P B 2
H40B H -0.1687 0.7486 0.4758 0.133 Uiso 0.25 1 calc GR . P B 2
H40C H -0.0971 0.7304 0.5369 0.133 Uiso 0.25 1 calc GR . P B 2
C39 C -0.0981(8) 0.8491(11) 0.5062(18) 0.061(4) Uani 0.25 1 d D U P B 2
H39A H -0.1190 0.8674 0.5432 0.073 Uiso 0.25 1 calc R . P B 2
H39B H -0.1254 0.8793 0.4673 0.073 Uiso 0.25 1 calc R . P B 2
C61 C 0.3503(10) 0.7372(6) 0.1846(3) 0.119(5) Uani 0.548(14) 1 d . . P D 1
H62A H 0.3252 0.7339 0.1383 0.178 Uiso 0.548(14) 1 calc R . P D 1
H62B H 0.3990 0.7694 0.1910 0.178 Uiso 0.548(14) 1 calc R . P D 1
H62C H 0.3134 0.7624 0.2071 0.178 Uiso 0.548(14) 1 calc R . P D 1
C62 C 0.2950(7) 0.6797(11) 0.1795(4) 0.108(5) Uani 0.452(14) 1 d . U P D 2
H62D H 0.2913 0.6858 0.1332 0.162 Uiso 0.452(14) 1 calc R . P D 2
H62E H 0.2812 0.7305 0.1971 0.162 Uiso 0.452(14) 1 calc R . P D 2
H62F H 0.2581 0.6379 0.1864 0.162 Uiso 0.452(14) 1 calc R . P D 2
C24 C 0.1775(10) 0.5520(8) 0.5416(9) 0.084(5) Uani 0.25 1 d D U P B 2
H24A H 0.1981 0.5261 0.5077 0.127 Uiso 0.25 1 calc GR . P B 2
H24B H 0.1218 0.5362 0.5374 0.127 Uiso 0.25 1 calc GR . P B 2
H24C H 0.2093 0.5355 0.5840 0.127 Uiso 0.25 1 calc GR . P B 2
C23 C 0.1825(11) 0.6454(8) 0.5348(10) 0.062(4) Uani 0.25 1 d D U P B 2
H23A H 0.2398 0.6588 0.5431 0.075 Uiso 0.25 1 calc R . P B 2
H23B H 0.1592 0.6579 0.4889 0.075 Uiso 0.25 1 calc R . P B 2
C53 C 0.6627(8) 0.7701(14) 0.5576(11) 0.147(10) Uani 0.320(11) 1 d . U P E 2
H53A H 0.7177 0.7833 0.5568 0.220 Uiso 0.320(11) 1 calc R . P E 2
H53B H 0.6624 0.7385 0.5962 0.220 Uiso 0.320(11) 1 calc R . P E 2
H53C H 0.6325 0.8196 0.5583 0.220 Uiso 0.320(11) 1 calc R . P E 2
C28 C 0.2407(8) 0.8578(9) 0.8304(6) 0.063(3) Uani 0.25 1 d D U P B 2
H28A H 0.2673 0.8219 0.8059 0.095 Uiso 0.25 1 calc GR . P B 2
H28B H 0.2544 0.8422 0.8760 0.095 Uiso 0.25 1 calc GR . P B 2
H28C H 0.2582 0.9130 0.8262 0.095 Uiso 0.25 1 calc GR . P B 2
C27 C 0.1488(11) 0.852(3) 0.8036(11) 0.0528(7) Uani 0.25 1 d D U P B 2
H27A H 0.1216 0.8825 0.8320 0.063 Uiso 0.25 1 calc R . P B 2
H27B H 0.1318 0.7956 0.8031 0.063 Uiso 0.25 1 calc R . P B 2
C67 C 0.2204(10) 0.4369(11) 0.4007(13) 0.082(4) Uani 0.50(4) 1 d . U P C 1
H68A H 0.2208 0.3815 0.4159 0.123 Uiso 0.50(4) 1 calc R . P C 1
H68B H 0.1960 0.4390 0.3543 0.123 Uiso 0.50(4) 1 calc R . P C 1
H68C H 0.1897 0.4703 0.4239 0.123 Uiso 0.50(4) 1 calc R . P C 1
C44 C 0.2242(8) 1.1003(7) 0.6677(7) 0.060(3) Uani 0.25 1 d D U P B 2
H44A H 0.2387 1.1567 0.6652 0.090 Uiso 0.25 1 calc GR . P B 2
H44B H 0.2454 1.0806 0.7117 0.090 Uiso 0.25 1 calc GR . P B 2
H44C H 0.1660 1.0951 0.6566 0.090 Uiso 0.25 1 calc GR . P B 2
C43 C 0.260(2) 1.0502(9) 0.6194(18) 0.053(4) Uani 0.25 1 d D U P B 2
H43A H 0.3183 1.0577 0.6287 0.063 Uiso 0.25 1 calc R . P B 2
H43B H 0.2365 1.0678 0.5746 0.063 Uiso 0.25 1 calc R . P B 2
loop_
_atom_site_aniso_label
_atom_site_aniso_U_11
_atom_site_aniso_U_22
_atom_site_aniso_U_33
_atom_site_aniso_U_23
_atom_site_aniso_U_13
_atom_site_aniso_U_12
S1 0.0491(4) 0.0441(3) 0.0393(3) -0.0024(2) 0.0038(3) -0.0019(2)
S2 0.0647(4) 0.0512(3) 0.0395(3) -0.0049(2) 0.0057(3) 0.0110(3)
O5 0.0734(13) 0.0562(10) 0.0417(10) -0.0089(7) 0.0019(9) -0.0093(8)
O9 0.0409(10) 0.0576(9) 0.0544(11) -0.0089(8) -0.0074(8) 0.0120(8)
N7 0.0321(10) 0.0432(9) 0.0395(10) 0.0077(7) 0.0050(8) 0.0020(7)
O4 0.0664(12) 0.0454(9) 0.0522(10) 0.0017(7) -0.0052(9) -0.0073(7)
N8 0.0404(11) 0.0456(9) 0.0466(11) 0.0032(8) 0.0130(9) 0.0070(8)
O6 0.0570(11) 0.0524(9) 0.0490(10) -0.0027(7) 0.0074(8) 0.0113(7)
N6 0.0489(12) 0.0465(10) 0.0428(11) -0.0057(8) 0.0053(9) 0.0033(8)
O10 0.0803(14) 0.0880(13) 0.0528(11) -0.0117(10) 0.0050(10) 0.0434(11)
O12 0.0849(15) 0.0660(11) 0.0565(12) 0.0040(9) 0.0218(11) 0.0028(9)
N5 0.0452(12) 0.0427(10) 0.0456(11) -0.0033(8) -0.0034(9) 0.0071(8)
O11 0.1073(18) 0.0756(13) 0.0498(11) -0.0247(9) 0.0044(11) -0.0024(11)
N3 0.0523(14) 0.0940(17) 0.0508(13) -0.0177(12) 0.0094(11) 0.0065(12)
N2 0.0550(15) 0.0902(17) 0.0527(14) -0.0160(12) 0.0012(11) 0.0214(12)
O3 0.0606(14) 0.1228(18) 0.0818(16) -0.0388(14) -0.0210(12) 0.0486(13)
C12 0.0425(14) 0.0440(12) 0.0513(14) -0.0053(10) 0.0035(11) 0.0069(10)
C63 0.0519(15) 0.0449(12) 0.0514(14) 0.0056(10) 0.0141(12) 0.0070(10)
C10 0.0527(16) 0.0455(13) 0.0744(19) 0.0041(12) 0.0103(14) 0.0121(11)
C7 0.0443(17) 0.105(2) 0.0639(19) -0.0263(17) 0.0061(15) 0.0206(16)
C15 0.0345(13) 0.0471(12) 0.0473(14) -0.0074(10) 0.0063(11) 0.0028(10)
C58 0.0521(15) 0.0483(12) 0.0476(14) 0.0041(10) 0.0132(12) 0.0061(10)
C11 0.0457(15) 0.0512(13) 0.0588(16) -0.0009(11) -0.0014(12) 0.0063(11)
C16 0.0547(16) 0.0478(12) 0.0541(15) -0.0089(11) 0.0043(12) -0.0034(11)
C1 0.090(2) 0.0750(19) 0.0629(19) -0.0018(15) 0.0254(18) 0.0383(17)
O8 0.1039(18) 0.0468(10) 0.123(2) -0.0041(12) 0.0414(16) 0.0102(11)
C55 0.0496(15) 0.0516(13) 0.0692(17) -0.0048(12) 0.0234(13) 0.0009(11)
C6 0.076(2) 0.079(2) 0.0554(17) -0.0045(15) 0.0067(15) 0.0219(16)
C64 0.0589(17) 0.0511(13) 0.0763(19) 0.0057(13) 0.0037(15) -0.0017(12)
C8 0.0454(16) 0.0810(18) 0.0570(16) -0.0119(14) 0.0052(13) -0.0035(13)
C49 0.0385(14) 0.0553(13) 0.0655(17) 0.0056(12) 0.0169(12) 0.0059(10)
C9 0.0560(17) 0.0454(13) 0.083(2) -0.0128(13) 0.0087(15) 0.0068(12)
C47 0.045(3) 0.055(3) 0.064(4) 0.007(2) 0.015(2) -0.002(2)
O2 0.199(3) 0.0881(17) 0.099(2) 0.0150(15) 0.043(2) 0.072(2)
C57 0.076(2) 0.0573(15) 0.0712(19) -0.0138(13) 0.0192(16) 0.0022(13)
C4 0.0556(17) 0.088(2) 0.0512(16) -0.0119(14) 0.0067(14) 0.0286(14)
C33 0.0410(19) 0.0482(17) 0.0481(19) 0.0037(15) 0.0016(16) 0.0059(13)
C14 0.087(2) 0.0592(16) 0.080(2) -0.0183(15) -0.0243(18) 0.0058(15)
C59 0.082(2) 0.0664(16) 0.0579(17) 0.0006(13) 0.0217(15) 0.0220(14)
C56 0.0527(16) 0.0543(13) 0.0545(15) -0.0083(11) 0.0132(13) 0.0044(11)
C5 0.0673(19) 0.0786(19) 0.0461(15) -0.0010(13) 0.0043(14) 0.0235(14)
C45 0.052(2) 0.0521(18) 0.0441(19) 0.0054(15) 0.0128(18) -0.0055(17)
C13 0.081(2) 0.0525(14) 0.0621(18) -0.0091(13) -0.0187(16) 0.0151(13)
C35 0.048(3) 0.059(3) 0.063(3) 0.008(3) -0.005(2) 0.003(2)
N1 0.120(3) 0.086(2) 0.091(2) 0.0043(18) 0.044(2) 0.045(2)
C2 0.100(3) 0.106(3) 0.069(2) -0.0015(19) -0.002(2) 0.063(2)
O1 0.109(2) 0.0765(16) 0.149(3) -0.0125(16) 0.026(2) 0.0227(14)
C29 0.049(2) 0.0457(17) 0.0483(19) 0.0062(14) 0.0116(16) -0.0064(15)
C30 0.052(2) 0.0616(19) 0.0479(19) 0.0054(15) 0.0084(16) -0.0024(16)
C17 0.0405(19) 0.0429(16) 0.059(2) 0.0031(16) 0.0021(16) 0.0044(13)
C65 0.0691(19) 0.0533(14) 0.0694(19) 0.0069(13) 0.0008(15) -0.0081(12)
C50 0.0529(18) 0.098(2) 0.076(2) 0.0038(17) 0.0036(16) -0.0042(16)
C54 0.0415(14) 0.0500(12) 0.0543(15) -0.0040(11) 0.0159(11) 0.0019(10)
C19 0.071(3) 0.064(3) 0.058(3) -0.005(2) 0.021(2) 0.011(2)
C31 0.055(2) 0.0596(14) 0.0449(16) 0.0085(14) 0.0136(13) -0.001(2)
N4 0.0720(18) 0.0528(14) 0.115(2) -0.0210(15) 0.0178(17) 0.0047(12)
C46 0.057(2) 0.0524(17) 0.065(2) 0.0086(16) 0.0150(18) -0.0046(16)
C3 0.076(2) 0.111(3) 0.077(2) -0.021(2) -0.0149(18) 0.050(2)
O7 0.108(2) 0.0695(14) 0.162(3) -0.0509(17) -0.027(2) 0.0073(13)
C60 0.122(3) 0.094(2) 0.0530(18) -0.0071(16) 0.0193(19) 0.037(2)
C20 0.079(3) 0.067(3) 0.078(3) 0.009(3) 0.011(2) 0.003(3)
C34 0.046(2) 0.069(2) 0.061(2) 0.0093(18) 0.0062(18) -0.0064(16)
C51 0.0492(18) 0.0766(19) 0.109(3) 0.0045(18) 0.0004(17) -0.0013(14)
C36 0.069(4) 0.090(3) 0.072(3) 0.007(2) -0.005(3) -0.015(3)
C48 0.071(3) 0.053(2) 0.085(3) 0.000(2) 0.015(3) -0.005(2)
C32 0.077(3) 0.076(3) 0.051(3) 0.008(2) 0.006(2) 0.002(2)
C18 0.063(2) 0.063(2) 0.063(2) 0.0006(19) 0.0108(19) 0.0001(17)
C66 0.075(8) 0.073(7) 0.127(13) 0.028(7) -0.015(7) -0.006(6)
C52 0.064(3) 0.074(3) 0.092(4) 0.013(2) -0.007(3) -0.007(2)
C38 0.032(4) 0.072(5) 0.037(4) 0.020(4) -0.013(4) -0.016(4)
C37 0.019(4) 0.050(4) 0.028(4) 0.011(3) 0.001(3) -0.007(3)
C41 0.023(4) 0.034(3) 0.035(4) 0.007(3) 0.006(3) 0.011(3)
C42 0.020(4) 0.037(3) 0.046(4) 0.006(3) 0.007(3) 0.001(3)
C25 0.014(4) 0.038(4) 0.030(3) 0.005(3) 0.004(3) 0.016(3)
C26 0.029(4) 0.045(4) 0.032(4) 0.005(3) 0.008(3) 0.013(3)
C22 0.035(4) 0.044(4) 0.035(4) 0.001(3) 0.009(3) 0.001(3)
C21 0.040(5) 0.042(4) 0.030(4) 0.003(3) 0.015(4) 0.002(3)
C40 0.056(9) 0.075(7) 0.122(13) -0.016(7) -0.006(10) -0.001(7)
C39 0.034(6) 0.062(7) 0.073(8) -0.012(6) -0.015(5) 0.000(5)
C61 0.225(14) 0.076(5) 0.054(4) 0.004(3) 0.031(5) 0.047(7)
C62 0.103(7) 0.146(13) 0.072(5) 0.003(5) 0.016(5) 0.057(7)
C24 0.085(10) 0.064(7) 0.104(11) -0.018(7) 0.020(8) 0.012(7)
C23 0.067(8) 0.058(7) 0.061(7) -0.005(6) 0.014(6) -0.010(6)
C53 0.060(8) 0.21(2) 0.159(15) -0.093(16) 0.007(8) 0.005(9)
C28 0.067(6) 0.085(8) 0.038(6) 0.013(6) 0.013(5) 0.011(5)
C27 0.055(2) 0.0596(14) 0.0449(16) 0.0085(14) 0.0136(13) -0.001(2)
C67 0.064(5) 0.058(5) 0.114(12) 0.003(5) 0.000(5) -0.015(4)
C44 0.068(8) 0.048(6) 0.069(7) 0.008(5) 0.027(6) -0.010(5)
C43 0.049(8) 0.048(6) 0.064(8) 0.006(5) 0.018(6) -0.011(5)
loop_
_atom_type_symbol
_atom_type_description
_atom_type_scat_dispersion_real
_atom_type_scat_dispersion_imag
_atom_type_scat_source
C C 0.0181 0.0091 'International Tables Vol C Tables 4.2.6.8 and 6.1.1.4'
H H 0.0000 0.0000 'International Tables Vol C Tables 4.2.6.8 and 6.1.1.4'
N N 0.0311 0.0180 'International Tables Vol C Tables 4.2.6.8 and 6.1.1.4'
O O 0.0492 0.0322 'International Tables Vol C Tables 4.2.6.8 and 6.1.1.4'
S S 0.3331 0.5567 'International Tables Vol C Tables 4.2.6.8 and 6.1.1.4'
loop_
_exptl_crystal_face_index_h
_exptl_crystal_face_index_k
_exptl_crystal_face_index_l
_exptl_crystal_face_perp_dist
-2 -2 -1 0.0571
0 -1 0 0.0383
0 1 0 0.0297
-2 0 1 0.0525
0 0 1 0.0917
1 0 0 0.0732
1 0 -1 0.0685
0 0 -1 0.0655
1 -2 1 0.0261
1 0 2 0.0695
loop_
_geom_angle_atom_site_label_1
_geom_angle_atom_site_label_2
_geom_angle_atom_site_label_3
_geom_angle
O5 S1 O4 113.58(10)
O5 S1 O6 114.58(10)
O5 S1 C8 105.29(12)
O4 S1 O6 111.57(11)
O4 S1 C8 106.20(12)
O6 S1 C8 104.62(12)
O10 S2 C16 104.32(12)
O12 S2 O10 111.43(14)
O12 S2 C16 105.15(11)
O11 S2 O10 113.64(12)
O11 S2 O12 114.85(12)
O11 S2 C16 106.35(13)
C33 N7 C45 108.6(2)
C33 N7 C29 108.9(2)
C33 N7 C17 112.1(2)
C45 N7 C29 110.1(2)
C17 N7 C45 109.0(2)
C17 N7 C29 108.2(2)
C37 N7 C21 109.9(5)
C41 N7 C37 108.2(5)
C41 N7 C21 107.0(5)
C25 N7 C37 108.2(4)
C25 N7 C41 115.6(5)
C25 N7 C21 107.8(5)
C63 N8 C58 111.64(18)
C63 N8 C49 108.89(17)
C63 N8 C54 109.02(17)
C58 N8 C49 108.36(18)
C54 N8 C58 107.65(17)
C54 N8 C49 111.29(18)
C15 N6 H6A 119.8
C15 N6 C16 120.4(2)
C16 N6 H6A 119.8
C12 N5 H5A 116.7
C15 N5 H5A 116.7
C15 N5 C12 126.7(2)
C7 N3 H3 120.4
C7 N3 C8 119.2(3)
C8 N3 H3 120.4
C7 N2 H2 116.8
C4 N2 H2 116.8
C4 N2 C7 126.4(3)
N5 C12 C11 124.3(2)
C13 C12 N5 117.6(2)
C13 C12 C11 118.0(2)
N8 C63 H63A 108.3
N8 C63 H63B 108.3
H63A C63 H63B 107.4
C64 C63 N8 116.0(2)
C64 C63 H63A 108.3
C64 C63 H63B 108.3
C11 C10 H10 119.8
C9 C10 H10 119.8
C9 C10 C11 120.5(2)
N3 C7 N2 112.9(3)
O3 C7 N3 123.8(3)
O3 C7 N2 123.3(3)
O9 C15 N6 122.9(2)
O9 C15 N5 124.2(2)
N6 C15 N5 112.9(2)
N8 C58 H58A 108.3
N8 C58 H58B 108.3
H58A C58 H58B 107.4
C59 C58 N8 116.05(19)
C59 C58 H58A 108.3
C59 C58 H58B 108.3
C12 C11 H11 119.9
C10 C11 C12 120.1(2)
C10 C11 H11 119.9
S2 C16 H16A 109.2
S2 C16 H16B 109.2
N6 C16 S2 112.24(17)
N6 C16 H16A 109.2
N6 C16 H16B 109.2
H16A C16 H16B 107.9
C6 C1 N1 119.2(3)
C2 C1 C6 122.0(3)
C2 C1 N1 118.7(3)
H55A C55 H55B 107.9
C56 C55 H55A 109.3
C56 C55 H55B 109.3
C54 C55 H55A 109.3
C54 C55 H55B 109.3
C54 C55 C56 111.7(2)
C1 C6 H6 120.6
C5 C6 C1 118.8(3)
C5 C6 H6 120.6
C63 C64 H64A 109.5
C63 C64 H64B 109.5
C63 C64 C65 110.6(2)
H64A C64 H64B 108.1
C65 C64 H64A 109.5
C65 C64 H64B 109.5
S1 C8 H8A 109.3
S1 C8 H8B 109.3
N3 C8 S1 111.62(18)
N3 C8 H8A 109.3
N3 C8 H8B 109.3
H8A C8 H8B 108.0
N8 C49 H49A 108.5
N8 C49 H49B 108.5
H49A C49 H49B 107.5
C50 C49 N8 115.2(2)
C50 C49 H49A 108.5
C50 C49 H49B 108.5
C10 C9 C14 120.8(2)
C10 C9 N4 119.9(3)
C14 C9 N4 119.4(3)
H47A C47 H47B 107.9
C46 C47 H47A 109.2
C46 C47 H47B 109.2
C48 C47 H47A 109.2
C48 C47 H47B 109.2
C48 C47 C46 112.0(5)
H57A C57 H57B 109.5
H57A C57 H57C 109.5
H57B C57 H57C 109.5
C56 C57 H57A 109.5
C56 C57 H57B 109.5
C56 C57 H57C 109.5
N2 C4 C5 117.6(2)
N2 C4 C3 124.5(3)
C3 C4 C5 117.8(3)
N7 C33 H33A 108.6
N7 C33 H33B 108.6
H33A C33 H33B 107.5
C34 C33 N7 114.8(3)
C34 C33 H33A 108.6
C34 C33 H33B 108.6
C9 C14 H14 120.4
C13 C14 C9 119.2(3)
C13 C14 H14 120.4
C58 C59 H59A 109.1
C58 C59 H59B 109.1
H59A C59 H59B 107.8
C60 C59 C58 112.5(2)
C60 C59 H59A 109.1
C60 C59 H59B 109.1
C55 C56 H56A 109.3
C55 C56 H56B 109.3
C57 C56 C55 111.6(2)
C57 C56 H56A 109.3
C57 C56 H56B 109.3
H56A C56 H56B 108.0
C6 C5 C4 121.0(3)
C6 C5 H5 119.5
C4 C5 H5 119.5
N7 C45 H45A 107.8
N7 C45 H45B 107.8
H45A C45 H45B 107.1
C46 C45 N7 118.0(3)
C46 C45 H45A 107.8
C46 C45 H45B 107.8
C12 C13 H13 119.3
C14 C13 C12 121.4(3)
C14 C13 H13 119.3
H35A C35 H35B 107.9
C34 C35 H35A 109.3
C34 C35 H35B 109.3
C36 C35 H35A 109.3
C36 C35 H35B 109.3
C36 C35 C34 111.8(5)
O2 N1 C1 118.8(4)
O2 N1 O1 123.0(4)
O1 N1 C1 118.2(3)
C1 C2 H2A 120.1
C3 C2 C1 119.8(3)
C3 C2 H2A 120.1
N7 C29 H29A 107.9
N7 C29 H29B 107.9
H29A C29 H29B 107.2
C30 C29 N7 117.6(3)
C30 C29 H29A 107.9
C30 C29 H29B 107.9
C29 C30 H30A 109.1
C29 C30 H30B 109.1
C29 C30 C31 112.5(4)
H30A C30 H30B 107.8
C31 C30 H30A 109.1
C31 C30 H30B 109.1
N7 C17 H17A 108.5
N7 C17 H17B 108.5
H17A C17 H17B 107.5
C18 C17 N7 115.1(3)
C18 C17 H17A 108.5
C18 C17 H17B 108.5
C64 C65 H65A 109.0
C64 C65 H65B 109.0
C64 C65 H66A 109.0
C64 C65 H66B 109.0
C64 C65 C67 112.7(8)
H65A C65 H65B 107.8
H66A C65 H66B 107.8
C66 C65 C64 113.1(8)
C66 C65 H65A 109.0
C66 C65 H65B 109.0
C67 C65 H66A 109.0
C67 C65 H66B 109.0
C49 C50 H50A 109.2
C49 C50 H50B 109.2
C49 C50 C51 111.9(3)
H50A C50 H50B 107.9
C51 C50 H50A 109.2
C51 C50 H50B 109.2
N8 C54 H54A 108.3
N8 C54 H54B 108.3
C55 C54 N8 116.01(19)
C55 C54 H54A 108.3
C55 C54 H54B 108.3
H54A C54 H54B 107.4
H19A C19 H19B 106.9
C20 C19 H19A 107.3
C20 C19 H19B 107.3
C20 C19 C18 120.2(4)
C18 C19 H19A 107.3
C18 C19 H19B 107.3
C30 C31 H31A 109.3
C30 C31 H31B 109.3
H31A C31 H31B 108.0
C32 C31 C30 111.5(5)
C32 C31 H31A 109.3
C32 C31 H31B 109.3
O8 N4 C9 118.1(3)
O7 N4 O8 123.1(3)
O7 N4 C9 118.8(3)
C47 C46 H46A 109.7
C47 C46 H46B 109.7
C45 C46 C47 109.6(3)
C45 C46 H46A 109.7
C45 C46 H46B 109.7
H46A C46 H46B 108.2
C4 C3 H3A 119.7
C2 C3 C4 120.7(3)
C2 C3 H3A 119.7
C59 C60 H61A 106.5
C59 C60 H61B 106.5
C59 C60 H60A 104.1
C59 C60 H60B 104.1
H61A C60 H61B 106.5
H60A C60 H60B 105.5
C61 C60 C59 123.4(5)
C61 C60 H61A 106.5
C61 C60 H61B 106.5
C62 C60 C59 132.6(5)
C62 C60 H60A 104.1
C62 C60 H60B 104.1
C19 C20 H20A 109.5
C19 C20 H20B 109.5
C19 C20 H20C 109.5
H20A C20 H20B 109.5
H20A C20 H20C 109.5
H20B C20 H20C 109.5
C33 C34 C35 111.7(3)
C33 C34 H34A 109.3
C33 C34 H34B 109.3
C35 C34 H34A 109.3
C35 C34 H34B 109.3
H34A C34 H34B 107.9
C50 C51 H51A 109.0
C50 C51 H51B 109.0
C50 C51 H51C 106.6
C50 C51 H51D 106.6
H51A C51 H51B 107.8
H51C C51 H51D 106.5
C52 C51 C50 113.1(3)
C52 C51 H51A 109.0
C52 C51 H51B 109.0
C53 C51 C50 123.0(7)
C53 C51 H51C 106.6
C53 C51 H51D 106.6
C35 C36 H36A 109.5
C35 C36 H36B 109.5
C35 C36 H36C 109.5
H36A C36 H36B 109.5
H36A C36 H36C 109.5
H36B C36 H36C 109.5
C47 C48 H48A 109.5
C47 C48 H48B 109.5
C47 C48 H48C 109.5
H48A C48 H48B 109.5
H48A C48 H48C 109.5
H48B C48 H48C 109.5
C31 C32 H32A 109.5
C31 C32 H32B 109.5
C31 C32 H32C 109.5
H32A C32 H32B 109.5
H32A C32 H32C 109.5
H32B C32 H32C 109.5
C17 C18 C19 112.0(4)
C17 C18 H18A 109.2
C17 C18 H18B 109.2
C19 C18 H18A 109.2
C19 C18 H18B 109.2
H18A C18 H18B 107.9
C65 C66 H66C 109.5
C65 C66 H66D 109.5
C65 C66 H66E 109.5
H66C C66 H66D 109.5
H66C C66 H66E 109.5
H66D C66 H66E 109.5
C51 C52 H52A 109.5
C51 C52 H52B 109.5
C51 C52 H52C 109.5
H52A C52 H52B 109.5
H52A C52 H52C 109.5
H52B C52 H52C 109.5
H38A C38 H38B 108.3
C37 C38 H38A 109.8
C37 C38 H38B 109.8
C39 C38 H38A 109.8
C39 C38 H38B 109.8
C39 C38 C37 109.2(15)
N7 C37 C38 115.1(6)
N7 C37 H37A 108.5
N7 C37 H37B 108.5
C38 C37 H37A 108.5
C38 C37 H37B 108.5
H37A C37 H37B 107.5
N7 C41 H41A 109.2
N7 C41 H41B 109.2
N7 C41 C42 112.1(6)
H41A C41 H41B 107.9
C42 C41 H41A 109.2
C42 C41 H41B 109.2
C41 C42 H42A 109.2
C41 C42 H42B 109.2
H42A C42 H42B 107.9
C43 C42 C41 112.2(17)
C43 C42 H42A 109.2
C43 C42 H42B 109.2
N7 C25 H25A 109.6
N7 C25 H25B 109.6
N7 C25 C26 110.2(5)
H25A C25 H25B 108.1
C26 C25 H25A 109.6
C26 C25 H25B 109.6
C25 C26 H26A 110.1
C25 C26 H26B 110.1
H26A C26 H26B 108.4
C27 C26 C25 108(2)
C27 C26 H26A 110.1
C27 C26 H26B 110.1
H22A C22 H22B 107.1
C21 C22 H22A 107.7
C21 C22 H22B 107.7
C23 C22 H22A 107.7
C23 C22 H22B 107.7
C23 C22 C21 118.6(8)
N7 C21 C22 114.0(6)
N7 C21 H21A 108.8
N7 C21 H21B 108.8
C22 C21 H21A 108.8
C22 C21 H21B 108.8
H21A C21 H21B 107.7
H40A C40 H40B 109.5
H40A C40 H40C 109.5
H40B C40 H40C 109.5
C39 C40 H40A 109.5
C39 C40 H40B 109.5
C39 C40 H40C 109.5
C38 C39 H39A 110.4
C38 C39 H39B 110.4
C40 C39 C38 106.7(13)
C40 C39 H39A 110.4
C40 C39 H39B 110.4
H39A C39 H39B 108.6
C60 C61 H62A 109.5
C60 C61 H62B 109.5
C60 C61 H62C 109.5
H62A C61 H62B 109.5
H62A C61 H62C 109.5
H62B C61 H62C 109.5
C60 C62 H62D 109.5
C60 C62 H62E 109.5
C60 C62 H62F 109.5
H62D C62 H62E 109.5
H62D C62 H62F 109.5
H62E C62 H62F 109.5
H24A C24 H24B 109.5
H24A C24 H24C 109.5
H24B C24 H24C 109.5
C23 C24 H24A 109.5
C23 C24 H24B 109.5
C23 C24 H24C 109.5
C22 C23 C24 123.5(12)
C22 C23 H23A 106.4
C22 C23 H23B 106.4
C24 C23 H23A 106.4
C24 C23 H23B 106.4
H23A C23 H23B 106.5
C51 C53 H53A 109.5
C51 C53 H53B 109.5
C51 C53 H53C 109.5
H53A C53 H53B 109.5
H53A C53 H53C 109.5
H53B C53 H53C 109.5
H28A C28 H28B 109.5
H28A C28 H28C 109.5
H28B C28 H28C 109.5
C27 C28 H28A 109.5
C27 C28 H28B 109.5
C27 C28 H28C 109.5
C26 C27 H27A 109.6
C26 C27 H27B 109.6
C28 C27 C26 110.1(13)
C28 C27 H27A 109.6
C28 C27 H27B 109.6
H27A C27 H27B 108.2
C65 C67 H68A 109.5
C65 C67 H68B 109.5
C65 C67 H68C 109.5
H68A C67 H68B 109.5
H68A C67 H68C 109.5
H68B C67 H68C 109.5
H44A C44 H44B 109.5
H44A C44 H44C 109.5
H44B C44 H44C 109.5
C43 C44 H44A 109.5
C43 C44 H44B 109.5
C43 C44 H44C 109.5
C42 C43 H43A 110.1
C42 C43 H43B 110.1
C44 C43 C42 107.9(12)
C44 C43 H43A 110.1
C44 C43 H43B 110.1
H43A C43 H43B 108.4
loop_
_geom_bond_atom_site_label_1
_geom_bond_atom_site_label_2
_geom_bond_distance
S1 O5 1.4481(17)
S1 O4 1.4516(16)
S1 O6 1.4581(17)
S1 C8 1.790(3)
S2 O10 1.4569(19)
S2 O12 1.4465(19)
S2 O11 1.4406(19)
S2 C16 1.779(3)
O9 C15 1.224(3)
N7 C33 1.512(3)
N7 C45 1.526(3)
N7 C29 1.530(3)
N7 C17 1.518(3)
N7 C37 1.537(6)
N7 C41 1.526(6)
N7 C25 1.508(6)
N7 C21 1.548(6)
N8 C63 1.513(3)
N8 C58 1.524(3)
N8 C49 1.526(3)
N8 C54 1.516(3)
N6 H6A 0.8600
N6 C15 1.360(3)
N6 C16 1.435(3)
N5 H5A 0.8600
N5 C12 1.392(3)
N5 C15 1.380(3)
N3 H3 0.8600
N3 C7 1.349(4)
N3 C8 1.440(3)
N2 H2 0.8600
N2 C7 1.396(4)
N2 C4 1.378(4)
O3 C7 1.221(4)
C12 C11 1.395(3)
C12 C13 1.386(4)
C63 H63A 0.9700
C63 H63B 0.9700
C63 C64 1.506(4)
C10 H10 0.9300
C10 C11 1.378(3)
C10 C9 1.351(4)
C58 H58A 0.9700
C58 H58B 0.9700
C58 C59 1.511(3)
C11 H11 0.9300
C16 H16A 0.9700
C16 H16B 0.9700
C1 C6 1.376(4)
C1 N1 1.453(5)
C1 C2 1.363(5)
O8 N4 1.227(3)
C55 H55A 0.9700
C55 H55B 0.9700
C55 C56 1.519(3)
C55 C54 1.513(3)
C6 H6 0.9300
C6 C5 1.364(4)
C64 H64A 0.9700
C64 H64B 0.9700
C64 C65 1.515(3)
C8 H8A 0.9700
C8 H8B 0.9700
C49 H49A 0.9700
C49 H49B 0.9700
C49 C50 1.505(4)
C9 C14 1.380(4)
C9 N4 1.454(3)
C47 H47A 0.9700
C47 H47B 0.9700
C47 C46 1.514(8)
C47 C48 1.511(6)
O2 N1 1.219(4)
C57 H57A 0.9600
C57 H57B 0.9600
C57 H57C 0.9600
C57 C56 1.519(3)
C4 C5 1.407(4)
C4 C3 1.405(4)
C33 H33A 0.9700
C33 H33B 0.9700
C33 C34 1.490(4)
C14 H14 0.9300
C14 C13 1.369(4)
C59 H59A 0.9700
C59 H59B 0.9700
C59 C60 1.478(4)
C56 H56A 0.9700
C56 H56B 0.9700
C5 H5 0.9300
C45 H45A 0.9700
C45 H45B 0.9700
C45 C46 1.489(4)
C13 H13 0.9300
C35 H35A 0.9700
C35 H35B 0.9700
C35 C34 1.516(8)
C35 C36 1.492(6)
N1 O1 1.226(4)
C2 H2A 0.9300
C2 C3 1.357(5)
C29 H29A 0.9700
C29 H29B 0.9700
C29 C30 1.487(4)
C30 H30A 0.9700
C30 H30B 0.9700
C30 C31 1.515(8)
C17 H17A 0.9700
C17 H17B 0.9700
C17 C18 1.488(5)
C65 H65A 0.9700
C65 H65B 0.9700
C65 H66A 0.9700
C65 H66B 0.9700
C65 C66 1.498(16)
C65 C67 1.547(15)
C50 H50A 0.9700
C50 H50B 0.9700
C50 C51 1.523(4)
C54 H54A 0.9700
C54 H54B 0.9700
C19 H19A 0.9700
C19 H19B 0.9700
C19 C20 1.481(5)
C19 C18 1.520(5)
C31 H31A 0.9700
C31 H31B 0.9700
C31 C32 1.506(7)
N4 O7 1.220(4)
C46 H46A 0.9700
C46 H46B 0.9700
C3 H3A 0.9300
C60 H61A 0.9700
C60 H61B 0.9700
C60 H60A 0.9700
C60 H60B 0.9700
C60 C61 1.388(8)
C60 C62 1.314(9)
C20 H20A 0.9600
C20 H20B 0.9600
C20 H20C 0.9600
C34 H34A 0.9700
C34 H34B 0.9700
C51 H51A 0.9700
C51 H51B 0.9700
C51 H51C 0.9700
C51 H51D 0.9700
C51 C52 1.459(5)
C51 C53 1.356(14)
C36 H36A 0.9600
C36 H36B 0.9600
C36 H36C 0.9600
C48 H48A 0.9600
C48 H48B 0.9600
C48 H48C 0.9600
C32 H32A 0.9600
C32 H32B 0.9600
C32 H32C 0.9600
C18 H18A 0.9700
C18 H18B 0.9700
C66 H66C 0.9600
C66 H66D 0.9600
C66 H66E 0.9600
C52 H52A 0.9600
C52 H52B 0.9600
C52 H52C 0.9600
C38 H38A 0.9700
C38 H38B 0.9700
C38 C37 1.552(8)
C38 C39 1.535(11)
C37 H37A 0.9700
C37 H37B 0.9700
C41 H41A 0.9700
C41 H41B 0.9700
C41 C42 1.568(8)
C42 H42A 0.9700
C42 H42B 0.9700
C42 C43 1.539(11)
C25 H25A 0.9700
C25 H25B 0.9700
C25 C26 1.575(8)
C26 H26A 0.9700
C26 H26B 0.9700
C26 C27 1.539(12)
C22 H22A 0.9700
C22 H22B 0.9700
C22 C21 1.565(9)
C22 C23 1.524(10)
C21 H21A 0.9700
C21 H21B 0.9700
C40 H40A 0.9600
C40 H40B 0.9600
C40 H40C 0.9600
C40 C39 1.513(11)
C39 H39A 0.9700
C39 H39B 0.9700
C61 H62A 0.9600
C61 H62B 0.9600
C61 H62C 0.9600
C62 H62D 0.9600
C62 H62E 0.9600
C62 H62F 0.9600
C24 H24A 0.9600
C24 H24B 0.9600
C24 H24C 0.9600
C24 C23 1.539(10)
C23 H23A 0.9700
C23 H23B 0.9700
C53 H53A 0.9600
C53 H53B 0.9600
C53 H53C 0.9600
C28 H28A 0.9600
C28 H28B 0.9600
C28 H28C 0.9600
C28 C27 1.526(12)
C27 H27A 0.9700
C27 H27B 0.9700
C67 H68A 0.9600
C67 H68B 0.9600
C67 H68C 0.9600
C44 H44A 0.9600
C44 H44B 0.9600
C44 H44C 0.9600
C44 C43 1.531(11)
C43 H43A 0.9700
C43 H43B 0.9700
loop_
_geom_hbond_atom_site_label_D
_geom_hbond_atom_site_label_H
_geom_hbond_atom_site_label_A
_geom_hbond_distance_DH
_geom_hbond_distance_HA
_geom_hbond_distance_DA
_geom_hbond_angle_DHA
_geom_hbond_site_symmetry_A
N5 H5A O4 0.86 2.02 2.862(2) 164.8 4_676
N3 H3 O10 0.86 2.03 2.860(3) 161.8 4_575
C11 H11 O9 0.93 2.23 2.839(3) 122.7 .
C3 H3A O3 0.93 2.22 2.830(4) 122.1 .
loop_
_geom_torsion_atom_site_label_1
_geom_torsion_atom_site_label_2
_geom_torsion_atom_site_label_3
_geom_torsion_atom_site_label_4
_geom_torsion
O5 S1 C8 N3 176.8(2)
N7 C33 C34 C35 -172.1(4)
N7 C45 C46 C47 177.1(6)
N7 C29 C30 C31 178.3(7)
N7 C17 C18 C19 172.0(3)
N7 C41 C42 C43 -175.7(11)
N7 C25 C26 C27 175.6(11)
O4 S1 C8 N3 56.1(2)
N8 C63 C64 C65 -177.6(2)
N8 C58 C59 C60 176.1(3)
N8 C49 C50 C51 -172.1(2)
O6 S1 C8 N3 -62.0(2)
O10 S2 C16 N6 57.9(2)
O12 S2 C16 N6 -59.5(2)
N5 C12 C11 C10 -177.7(2)
N5 C12 C13 C14 178.0(3)
O11 S2 C16 N6 178.31(17)
N2 C4 C5 C6 -176.5(3)
N2 C4 C3 C2 176.9(3)
C12 N5 C15 O9 -7.6(4)
C12 N5 C15 N6 173.5(2)
C63 N8 C58 C59 -55.8(3)
C63 N8 C49 C50 -66.1(3)
C63 N8 C54 C55 173.5(2)
C63 C64 C65 C66 -165.4(16)
C63 C64 C65 C67 169.2(10)
C10 C9 C14 C13 1.0(5)
C10 C9 N4 O8 -2.8(4)
C10 C9 N4 O7 175.2(3)
C7 N3 C8 S1 -90.5(3)
C7 N2 C4 C5 166.3(3)
C7 N2 C4 C3 -10.6(5)
C15 N6 C16 S2 96.8(2)
C15 N5 C12 C11 -0.5(4)
C15 N5 C12 C13 -179.1(3)
C58 N8 C63 C64 -49.8(3)
C58 N8 C49 C50 172.3(2)
C58 N8 C54 C55 -65.2(3)
C58 C59 C60 C61 40.5(9)
C58 C59 C60 C62 -34.7(13)
C11 C12 C13 C14 -0.7(5)
C11 C10 C9 C14 -0.8(5)
C11 C10 C9 N4 178.8(3)
C16 N6 C15 O9 7.8(4)
C16 N6 C15 N5 -173.3(2)
C1 C6 C5 C4 -0.3(5)
C1 C2 C3 C4 -1.1(6)
C6 C1 N1 O2 -177.5(3)
C6 C1 N1 O1 2.4(5)
C6 C1 C2 C3 1.5(6)
C8 N3 C7 N2 165.7(2)
C8 N3 C7 O3 -14.1(5)
C49 N8 C63 C64 -169.3(2)
C49 N8 C58 C59 64.1(3)
C49 N8 C54 C55 53.4(3)
C49 C50 C51 C52 82.0(5)
C49 C50 C51 C53 143.7(14)
C9 C10 C11 C12 -0.1(4)
C9 C14 C13 C12 -0.2(5)
C4 N2 C7 N3 -166.3(3)
C4 N2 C7 O3 13.5(5)
C33 N7 C45 C46 71.0(4)
C33 N7 C29 C30 -170.5(3)
C33 N7 C17 C18 49.3(4)
C33 N7 C37 C38 20.5(5)
C33 N7 C41 C42 -164.3(6)
C33 N7 C25 C26 -57.5(8)
C33 N7 C21 C22 -90.5(7)
C14 C9 N4 O8 176.8(3)
C14 C9 N4 O7 -5.2(5)
C56 C55 C54 N8 -176.9(2)
C5 C4 C3 C2 0.0(5)
C45 N7 C33 C34 173.9(3)
C45 N7 C29 C30 -51.6(3)
C45 N7 C17 C18 -70.9(3)
C45 N7 C37 C38 49.8(10)
C45 N7 C41 C42 -16.6(5)
C45 N7 C25 C26 81.6(6)
C45 N7 C21 C22 161.4(7)
C13 C12 C11 C10 0.9(4)
N1 C1 C6 C5 176.2(3)
N1 C1 C2 C3 -175.6(3)
C2 C1 C6 C5 -0.8(5)
C2 C1 N1 O2 -0.4(5)
C2 C1 N1 O1 179.5(3)
C29 N7 C33 C34 -66.3(3)
C29 N7 C45 C46 -48.1(4)
C29 N7 C17 C18 169.3(3)
C29 N7 C37 C38 162.4(8)
C29 N7 C41 C42 88.3(6)
C29 N7 C25 C26 -26.4(5)
C29 N7 C21 C22 45.2(10)
C29 C30 C31 C32 -166.2(7)
C17 N7 C33 C34 53.4(4)
C17 N7 C45 C46 -166.6(3)
C17 N7 C29 C30 67.4(3)
C17 N7 C37 C38 -90.5(7)
C17 N7 C41 C42 -50.3(9)
C17 N7 C25 C26 -170.8(6)
C17 N7 C21 C22 25.1(5)
C54 N8 C63 C64 69.1(3)
C54 N8 C58 C59 -175.4(2)
C54 N8 C49 C50 54.1(3)
C54 C55 C56 C57 -179.1(2)
N4 C9 C14 C13 -178.6(3)
C3 C4 C5 C6 0.7(4)
C20 C19 C18 C17 54.5(6)
C36 C35 C34 C33 173.8(5)
C48 C47 C46 C45 -167.3(7)
C37 N7 C33 C34 -26.0(6)
C37 N7 C45 C46 54.7(6)
C37 N7 C29 C30 168.7(4)
C37 N7 C17 C18 82.6(4)
C37 N7 C41 C42 175.5(6)
C37 N7 C25 C26 -70.2(7)
C37 N7 C21 C22 -57.7(8)
C37 C38 C39 C40 -82(2)
C41 N7 C33 C34 -168.9(4)
C41 N7 C45 C46 37.0(7)
C41 N7 C29 C30 -84.2(4)
C41 N7 C17 C18 -53.1(6)
C41 N7 C37 C38 59.4(8)
C41 N7 C25 C26 51.3(7)
C41 N7 C21 C22 -175.1(7)
C41 C42 C43 C44 69(3)
C25 N7 C33 C34 -48.5(6)
C25 N7 C45 C46 -82.5(4)
C25 N7 C29 C30 30.2(6)
C25 N7 C17 C18 -170.7(4)
C25 N7 C37 C38 -174.7(7)
C25 N7 C41 C42 54.0(8)
C25 N7 C21 C22 60.0(8)
C25 C26 C27 C28 72(3)
C21 N7 C33 C34 85.1(4)
C21 N7 C45 C46 170.2(5)
C21 N7 C29 C30 56.1(6)
C21 N7 C17 C18 -24.3(7)
C21 N7 C37 C38 -57.2(9)
C21 N7 C41 C42 -66.1(7)
C21 N7 C25 C26 170.9(6)
C21 C22 C23 C24 169.9(14)
C39 C38 C37 N7 179.3(9)
C23 C22 C21 N7 -179.7(11)
loop_
_exptl_oxdiff_crystal_face_indexfrac_h
_exptl_oxdiff_crystal_face_indexfrac_k
_exptl_oxdiff_crystal_face_indexfrac_l
_exptl_oxdiff_crystal_face_x
_exptl_oxdiff_crystal_face_y
_exptl_oxdiff_crystal_face_z
-2.0045 -1.9996 -0.9862 0.1805 -0.1108 0.1953
-0.0022 -0.9998 0.0050 0.0830 -0.0431 -0.0104
0.0022 0.9998 -0.0050 -0.0830 0.0431 0.0104
-1.9998 0.0001 1.0012 0.0684 0.0962 0.1420
0.0002 0.0001 0.9987 0.0270 0.0604 -0.0371
1.0000 -0.0000 -0.0012 -0.0207 -0.0179 -0.0895
0.9998 -0.0001 -1.0000 -0.0477 -0.0783 -0.0525
-0.0002 -0.0001 -0.9987 -0.0270 -0.0604 0.0371
0.9959 -1.9996 1.0075 0.1723 -0.0437 -0.1475
1.0003 0.0001 1.9962 0.0333 0.1029 -0.1637
loop_
_twin_individual_id
_twin_individual_mass_fraction_refined
_oxdiff_twin_reflns_isolated
_oxdiff_twin_reflns_overlapped
_twin_individual_twin_lattice_type
_twin_individual_twin_matrix_11
_twin_individual_twin_matrix_12
_twin_individual_twin_matrix_13
_twin_individual_twin_matrix_21
_twin_individual_twin_matrix_22
_twin_individual_twin_matrix_23
_twin_individual_twin_matrix_31
_twin_individual_twin_matrix_32
_twin_individual_twin_matrix_33
1 0.8046 21979 10371 ref 1.0000 0.0000 0.0000 0.0000 1.0000 0.0000 0.0000
0.0000 1.0000
2 0.1954 0 10371 nmt -1.0108 -0.0100 -0.0441 -0.0067 0.9998 0.0070 0.0668
0.0167 -0.9870
