#------------------------------------------------------------------------------
#$Date: 2016-08-05 06:42:02 +0300 (Fri, 05 Aug 2016) $
#$Revision: 184986 $
#$URL: file:///home/coder/svn-repositories/cod/cif/1/54/35/1543599.cif $
#------------------------------------------------------------------------------
#
# This file is available in the Crystallography Open Database (COD),
# http://www.crystallography.net/
#
# All data on this site have been placed in the public domain by the
# contributors.
#
data_1543599
loop_
_publ_author_name
'Yu, Junchao'
'Zhang-Negrerie, Daisy'
'Du, Yunfei'
_publ_section_title
;
 Cu(OAc)2-Mediated Cascade Annulation of Diarylalkyne Sulfonamides through
 Dual C-N Bond Formation: Synthesis of 5,10-Dihydroindolo[3,2-b]indoles.
;
_journal_issue                   14
_journal_name_full               'Organic letters'
_journal_page_first              3322
_journal_page_last               3325
_journal_paper_doi               10.1021/acs.orglett.6b01343
_journal_volume                  18
_journal_year                    2016
_chemical_formula_sum            'C28 H20 Br Cl N2 O4 S2'
_chemical_formula_weight         627.94
_chemical_name_systematic
; 
 ? 
;
_space_group_crystal_system      monoclinic
_space_group_IT_number           14
_space_group_name_Hall           '-P 2yn'
_space_group_name_H-M_alt        'P 1 21/n 1'
_symmetry_space_group_name_Hall  '-P 2yn'
_symmetry_space_group_name_H-M   'P 1 21/n 1'
_atom_sites_solution_hydrogens   geom
_atom_sites_solution_primary     direct
_atom_sites_solution_secondary   difmap
_audit_creation_method           SHELXL-2014/8
_cell_angle_alpha                90
_cell_angle_beta                 94.174(3)
_cell_angle_gamma                90
_cell_formula_units_Z            2
_cell_length_a                   5.4375(8)
_cell_length_b                   10.0119(15)
_cell_length_c                   22.541(3)
_cell_measurement_reflns_used    3390
_cell_measurement_temperature    113(2)
_cell_measurement_theta_max      27.5
_cell_measurement_theta_min      3.4
_cell_volume                     1223.9(3)
_computing_cell_refinement       'CrystalClear-SM Expert 2.1 b42'
_computing_data_collection
'CrystalClear-SM Expert 2.1 b42 (Rigaku, 2015)'
_computing_data_reduction        'CrystalClear-SM Expert 2.1 b42'
_computing_molecular_graphics    'CrystalStructure 4.1'
_computing_publication_material  'CrystalStructure 4.1 (Rigaku, 2014)'
_computing_structure_refinement  'SHELXL-2014/8 (Sheldrick, 2014)'
_computing_structure_solution    'SHELXS-97 (Sheldrick, 1990)'
_diffrn_ambient_temperature      113(2)
_diffrn_detector_area_resol_mean 5.814
_diffrn_measured_fraction_theta_full 0.995
_diffrn_measured_fraction_theta_max 0.991
_diffrn_measurement_device_type  'Rigaku XtaLAB P200'
_diffrn_measurement_method       '\w and \f scans'
_diffrn_radiation_type           MoK\a
_diffrn_radiation_wavelength     0.71073
_diffrn_reflns_av_R_equivalents  0.0210
_diffrn_reflns_av_unetI/netI     0.0164
_diffrn_reflns_Laue_measured_fraction_full 0.995
_diffrn_reflns_Laue_measured_fraction_max 0.991
_diffrn_reflns_limit_h_max       6
_diffrn_reflns_limit_h_min       -7
_diffrn_reflns_limit_k_max       12
_diffrn_reflns_limit_k_min       -12
_diffrn_reflns_limit_l_max       29
_diffrn_reflns_limit_l_min       -29
_diffrn_reflns_number            12047
_diffrn_reflns_point_group_measured_fraction_full 0.995
_diffrn_reflns_point_group_measured_fraction_max 0.991
_diffrn_reflns_theta_full        25.242
_diffrn_reflns_theta_max         27.478
_diffrn_reflns_theta_min         3.396
_exptl_absorpt_coefficient_mu    2.001
_exptl_absorpt_correction_T_max  0.7952
_exptl_absorpt_correction_T_min  0.6903
_exptl_absorpt_correction_type   multi-scan
_exptl_absorpt_process_details   'REQAB (Rigaku, 1998)'
_exptl_crystal_colour            Colorless
_exptl_crystal_density_diffrn    1.704
_exptl_crystal_density_method    'not measured'
_exptl_crystal_description       Prism
_exptl_crystal_F_000             636
_exptl_crystal_size_max          0.200
_exptl_crystal_size_mid          0.180
_exptl_crystal_size_min          0.120
_refine_diff_density_max         0.397
_refine_diff_density_min         -0.346
_refine_diff_density_rms         0.056
_refine_ls_extinction_method     none
_refine_ls_goodness_of_fit_ref   1.059
_refine_ls_hydrogen_treatment    constr
_refine_ls_matrix_type           full
_refine_ls_number_parameters     182
_refine_ls_number_reflns         2764
_refine_ls_number_restraints     2
_refine_ls_restrained_S_all      1.073
_refine_ls_R_factor_all          0.0288
_refine_ls_R_factor_gt           0.0234
_refine_ls_shift/su_max          0.003
_refine_ls_shift/su_mean         0.000
_refine_ls_structure_factor_coef Fsqd
_refine_ls_weighting_details
'w=1/[\s^2^(Fo^2^)+(0.0285P)^2^+0.7991P] where P=(Fo^2^+2Fc^2^)/3'
_refine_ls_weighting_scheme      calc
_refine_ls_wR_factor_gt          0.0586
_refine_ls_wR_factor_ref         0.0605
_reflns_Friedel_coverage         0.000
_reflns_number_gt                2447
_reflns_number_total             2764
_reflns_threshold_expression     'I > 2\s(I)'
_cod_data_source_file            ol6b01343_si_002.cif
_cod_data_source_block           shelx
_cod_depositor_comments
;
The following automatic conversions were performed:

'_exptl_absorpt_correction_type' value 'MULTI-SCAN' changed to
'multi-scan' according to
/usr/data/users/saulius/crontab/automatic-downloads/rss-feeds/ACS/lib/dictionaries/cif_core.dic
dictionary named 'cif_core.dic' version 2.4.2 from 2011-04-26.

Automatic conversion script
Id: cif_fix_values 4268 2015-11-12 08:31:59Z antanas 

 Adding full bibliography for 1543599.cif.
;
_cod_database_code               1543599
_shelx_shelxl_version_number     2014/8
_shelx_space_group_comment
; 
The symmetry employed for this shelxl refinement is uniquely defined 
by the following loop, which should always be used as a source of 
symmetry information in preference to the above space-group names. 
They are only intended as comments. 
;
_shelx_estimated_absorpt_t_min   0.690
_shelx_estimated_absorpt_t_max   0.795
_shelx_res_file
; 
  
    shelx.res created by SHELXL-2014/8 
  
TITL shelx in P2(1)/n 
CELL 0.71073   5.4375  10.0119  22.5413  90.000  94.174  90.000 
ZERR    2.00   0.0008   0.0015   0.0032   0.000   0.003   0.000 
LATT 1 
SYMM 0.5-X, 0.5+Y, 0.5-Z 
SFAC C  H  N  O  S  Cl Br 
UNIT 56 40 4 8 4 2 2 
ACTA 
CONF 
HTAB 
SIZE 0.20 0.18 0.12 
L.S. 4 
BOND $H 
FMAP 2 
PLAN 20 
DFIX 1.74 0.01 C4 CL1 
DFIX 1.98 0.01 C4 BR1 
TEMP -160 
WGHT    0.028500    0.799100 
FVAR       0.34182 
PART 1 
BR1   7    0.730759    0.549758    1.067595    10.50000    0.01731    0.00727 = 
         0.01764   -0.00204   -0.00015    0.00450 
PART 2 
CL1   6    0.743448    0.533792    1.067750    10.50000    0.02034    0.00670 = 
         0.02328   -0.00375   -0.00058    0.00487 
PART 0 
S1    5    0.553001    0.051918    0.899937    11.00000    0.01309    0.01445 = 
         0.01314   -0.00112   -0.00199    0.00175 
O1    4    0.475628    0.172720    0.926475    11.00000    0.01819    0.01711 = 
         0.01880   -0.00310   -0.00223    0.00499 
O2    4    0.376762   -0.044150    0.877094    11.00000    0.01575    0.01865 = 
         0.02045   -0.00184   -0.00338   -0.00039 
N1    3    0.730388   -0.025846    0.953295    11.00000    0.01315    0.01339 = 
         0.01300   -0.00134   -0.00152    0.00110 
C1    1    0.904326    0.042018    0.991739    11.00000    0.01291    0.01473 = 
         0.01146    0.00007    0.00192    0.00004 
C2    1    0.940556    0.168658    1.021497    11.00000    0.01402    0.01372 = 
         0.01099   -0.00042    0.00212   -0.00107 
C3    1    0.807252    0.287927    1.024238    11.00000    0.01420    0.01558 = 
         0.01382   -0.00022    0.00069    0.00053 
AFIX  43 
H3    2    0.653872    0.299535    1.001849    11.00000   -1.20000 
AFIX   0 
C4    1    0.906622    0.387860    1.060592    11.00000    0.01736    0.01216 = 
         0.01440    0.00020    0.00441    0.00258 
C5    1    1.133625    0.375857    1.093159    11.00000    0.01733    0.01625 = 
         0.01468   -0.00299    0.00157   -0.00254 
AFIX  43 
H5    2    1.196514    0.448258    1.116916    11.00000   -1.20000 
AFIX   0 
C6    1    1.266935    0.258975    1.090912    11.00000    0.01475    0.01839 = 
         0.01597   -0.00183   -0.00123   -0.00150 
AFIX  43 
H6    2    1.421670    0.249417    1.112925    11.00000   -1.20000 
AFIX   0 
C7    1    1.168394    0.155471    1.055498    11.00000    0.01471    0.01283 = 
         0.01309    0.00096    0.00261    0.00072 
C8    1    0.753452    0.090422    0.844652    11.00000    0.01537    0.01654 = 
         0.01313    0.00129   -0.00144    0.00147 
C9    1    0.886415    0.209090    0.848965    11.00000    0.02569    0.01863 = 
         0.01732   -0.00207    0.00008   -0.00219 
AFIX  43 
H9    2    0.865332    0.269682    0.880629    11.00000   -1.20000 
AFIX   0 
C10   1    1.050848    0.237750    0.806192    11.00000    0.02744    0.02205 = 
         0.01998    0.00203   -0.00035   -0.00495 
AFIX  43 
H10   2    1.141857    0.318794    0.808829    11.00000   -1.20000 
AFIX   0 
C11   1    1.084502    0.149680    0.759519    11.00000    0.02054    0.02560 = 
         0.01570    0.00599   -0.00050    0.00576 
C12   1    0.947252    0.031963    0.755975    11.00000    0.02681    0.02240 = 
         0.01566   -0.00142    0.00138    0.00600 
AFIX  43 
H12   2    0.966605   -0.028161    0.724044    11.00000   -1.20000 
AFIX   0 
C13   1    0.782465    0.000903    0.798332    11.00000    0.02309    0.01723 = 
         0.01820   -0.00157   -0.00147    0.00095 
AFIX  43 
H13   2    0.691166   -0.080046    0.795722    11.00000   -1.20000 
AFIX   0 
C14   1    1.270869    0.180452    0.714977    11.00000    0.02633    0.03476 = 
         0.02090    0.00747    0.00386    0.00326 
AFIX 137 
H14A  2    1.437676    0.172992    0.734296    11.00000   -1.50000 
H14B  2    1.244442    0.271449    0.699810    11.00000   -1.50000 
H14C  2    1.251496    0.116894    0.681903    11.00000   -1.50000 
AFIX   0 
HKLF 4 
  
REM  shelx in P2(1)/n 
REM R1 =  0.0234 for    2447 Fo > 4sig(Fo)  and  0.0288 for all    2764 data 
REM    182 parameters refined using      2 restraints 
  
END 
  
WGHT      0.0278      0.8160 
  
REM Instructions for potential hydrogen bonds 
EQIV $1 -x+1, -y+1, -z+2 
HTAB C3 Br1_$1 
HTAB C3 O1 
EQIV $2 -x+2, -y, -z+2 
HTAB C6 O2_$2 
EQIV $3 -x+2, -y+1, -z+2 
HTAB C9 Br1_$3 
  
REM Highest difference peak  0.397,  deepest hole -0.346,  1-sigma level  0.056 
Q1    1   1.0000  0.0000  1.0000  10.50000  0.05    0.40 
Q2    1   0.6698  0.0729  0.8699  11.00000  0.05    0.37 
Q3    1   0.8366  0.4527  1.0600  11.00000  0.05    0.36 
Q4    1   0.8984  0.1007  1.0042  11.00000  0.05    0.33 
Q5    1   1.1731  0.2861  0.7966  11.00000  0.05    0.33 
Q6    1   1.1572  0.3080  1.0940  11.00000  0.05    0.33 
Q7    1   1.0399  0.1620  1.0425  11.00000  0.05    0.32 
Q8    1   1.1953  0.1980  1.0813  11.00000  0.05    0.30 
Q9    1   0.6446  0.0073  0.9322  11.00000  0.05    0.30 
Q10   1   1.2275  0.0948  1.0532  11.00000  0.05    0.30 
Q11   1   0.8129  0.0179  0.9723  11.00000  0.05    0.30 
Q12   1   1.2364  0.2197  1.0656  11.00000  0.05    0.29 
Q13   1   1.1726  0.1622  0.7390  11.00000  0.05    0.28 
Q14   1   0.7800  0.0440  0.8240  11.00000  0.05    0.28 
Q15   1   0.9991  0.0928  0.7588  11.00000  0.05    0.28 
Q16   1   0.8344  0.1414  0.8488  11.00000  0.05    0.28 
Q17   1   0.8856  0.2333  1.0218  11.00000  0.05    0.27 
Q18   1   1.0398  0.3788  1.0725  11.00000  0.05    0.26 
Q19   1   0.8547  0.3413  1.0395  11.00000  0.05    0.26 
Q20   1   0.8480  0.0274  0.7719  11.00000  0.05    0.25 
;
_shelx_res_checksum              79327
_shelx_hkl_file
; 
   0   0   4   48.06    1.88 
   0   0  -4   44.67    1.83 
   0   0   4   50.58    2.10 
   0   0   5    0.28    0.59 
   0   0  -5   -0.01    0.75 
   0   0   5    0.52    0.68 
   0   0   6 2785.90   30.53 
   0   0  -6 2653.51   29.13 
   0   0   6 2800.49   31.35 
   0   0   7    1.07    0.78 
   0   0  -7   -0.07    0.74 
   0   0   7   -0.18    0.77 
   0   0  -7    0.23    0.88 
   0   0  -8  572.34    8.07 
   0   0   8  599.34    8.95 
   0   0  -8  586.59    8.72 
   0   0   9   -0.02    0.73 
   0   0  -9   -0.56    0.80 
   0   0  -9    0.39    0.86 
   0   0  10    1.49    0.85 
   0   0 -10    1.45    0.88 
   0   0 -10    1.39    0.86 
   0   0  11    0.43    0.77 
   0   0 -11    1.05    0.93 
   0   0 -11    0.27    0.75 
   0   0  12  139.92    3.04 
   0   0 -12  140.25    2.98 
   0   0 -12  141.43    3.32 
   0   0 -12  143.27    2.91 
   0   0  13   -0.41    0.82 
   0   0 -13    1.18    0.96 
   0   0 -13    1.18    0.92 
   0   0 -13    0.91    0.83 
   0   0  14  179.35    3.63 
   0   0 -14  192.80    3.65 
   0   0 -14  195.80    4.07 
   0   0 -14  190.63    3.59 
   0   0  15   -0.59    0.79 
   0   0 -15    0.35    0.81 
   0   0 -15   -0.92    0.73 
   0   0 -15    1.11    0.77 
   0   0  16   94.08    2.69 
   0   0 -16   97.72    2.92 
   0   0 -16  101.40    2.68 
   0   0  17    0.22    0.84 
   0   0 -17   -0.15    0.97 
   0   0 -17    0.43    0.88 
   0   0  18    4.19    1.02 
   0   0 -18    4.92    1.06 
   0   0 -19    0.11    0.91 
   0   0 -20   40.23    1.77 
   0   0 -21    0.02    1.17 
   0   0 -22  257.91    3.87 
   0   0 -23    1.09    1.24 
   0   0 -24  193.81    3.51 
   0   0 -25    1.33    1.36 
   0   0 -26   49.97    2.18 
   0   0 -27    1.34    1.47 
   0   0 -28    4.42    1.58 
   0   0 -29   -0.65    1.64 
   0  -1   3  327.06    5.47 
   0   1  -3  315.95    5.25 
   0  -1  -3  314.41    5.37 
   0   1   3  332.29    5.89 
   0   1  -3  338.32    5.69 
   0  -1   4  228.26    4.30 
   0   1  -4  221.47    4.14 
   0  -1  -4  234.31    4.41 
   0   1   4  239.49    4.81 
   0   1  -4  236.03    4.47 
   0  -1   5  103.74    2.70 
   0   1  -5  104.63    2.69 
   0  -1  -5  100.63    2.68 
   0   1   5  105.31    3.02 
   0   1  -5  108.19    2.77 
   0  -1   6  107.95    2.78 
   0   1  -6  102.78    2.67 
   0  -1  -6  108.64    2.77 
   0   1   6  100.72    2.97 
   0  -1  -6   99.17    2.88 
   0   1  -6  104.70    2.69 
   0  -1   7  931.92   11.86 
   0   1  -7  920.25   11.57 
   0  -1  -7  933.80   11.77 
   0   1   7  948.30   12.59 
   0  -1  -7  922.38   12.26 
   0   1  -7  910.24   11.50 
   0  -1   8    8.25    0.99 
   0   1  -8    8.48    1.01 
   0  -1  -8    7.09    0.99 
   0   1  -8    8.74    1.16 
   0   1   8    7.64    1.15 
   0  -1  -8    7.55    1.13 
   0   1  -8    8.26    0.90 
   0  -1   9  898.33   10.91 
   0   1  -9  871.14   10.39 
   0  -1  -9  890.42   10.52 
   0   1  -9  883.54   10.89 
   0   1   9  848.53   10.76 
   0  -1  -9  883.36   11.05 
   0   1  -9  854.46   10.14 
   0  -1  10  315.71    5.06 
   0   1 -10  338.55    5.25 
   0  -1 -10  345.91    5.31 
   0   1 -10  350.93    5.73 
   0   1  10  322.40    5.77 
   0  -1 -10  331.85    5.62 
   0   1 -10  326.16    5.28 
   0  -1  11    2.29    0.76 
   0   1 -11    1.52    0.87 
   0  -1 -11    1.26    0.76 
   0   1 -11    1.65    0.93 
   0   1  11    2.21    0.90 
   0  -1 -11    2.19    0.91 
   0   1 -11    2.69    0.75 
   0  -1  12  149.69    3.12 
   0   1 -12  146.46    2.98 
   0  -1 -12  151.62    3.04 
   0   1  12  148.74    3.42 
   0   1 -12  150.53    3.34 
   0  -1 -12  144.03    3.30 
   0   1 -12  144.21    2.96 
   0  -1  13  315.91    5.45 
   0   1 -13  325.16    5.06 
   0  -1 -13  339.74    5.24 
   0   1  13  317.43    5.44 
   0   1 -13  335.59    5.56 
   0  -1 -13  308.97    5.38 
   0   1 -13  317.01    5.05 
   0  -1  14    0.61    1.01 
   0   1 -14    0.22    1.04 
   0  -1 -14   -0.51    0.68 
   0   1  14   -0.11    0.76 
   0   1 -14   -0.46    0.91 
   0  -1 -14    0.55    0.80 
   0   1 -14    0.15    0.76 
   0  -1  15  533.42    8.33 
   0  -1 -15  511.95    7.85 
   0   1  15  517.75    8.43 
   0   1 -15  534.51    8.57 
   0  -1 -15  539.09    8.60 
   0   1 -15  525.46    8.07 
   0  -1  16    5.29    1.17 
   0   1  16    5.16    1.09 
   0   1 -16    5.40    1.18 
   0  -1 -16    4.76    1.11 
   0   1 -16    5.74    1.11 
   0  -1 -16    6.44    1.01 
   0  -1  17   60.80    2.30 
   0   1 -17   58.53    2.26 
   0  -1 -17   56.40    2.19 
   0   1 -17   56.60    2.14 
   0  -1 -17   60.68    2.14 
   0  -1  18   17.19    1.43 
   0   1 -18   16.30    1.36 
   0  -1 -18   19.64    1.36 
   0  -1  19  102.49    2.87 
   0   1 -19  106.75    2.85 
   0  -1 -19  104.46    2.69 
   0  -1  20   -1.29    1.24 
   0   1 -20   -0.67    1.19 
   0  -1 -20    0.72    1.15 
   0  -1  21  373.20    4.85 
   0   1 -21  367.28    4.65 
   0  -1 -21  364.70    4.56 
   0  -1  22   33.60    1.81 
   0   1 -22   35.93    1.99 
   0  -1 -22   36.16    1.80 
   0  -1  23   25.79    1.89 
   0   1 -23   28.66    1.81 
   0  -1 -23   28.40    1.72 
   0  -1  24  117.40    2.92 
   0   1 -24  115.83    2.84 
   0  -1 -24  119.75    2.88 
   0  -1  25   31.27    1.89 
   0   1 -25   36.29    2.09 
   0  -1 -25   37.69    1.92 
   0  -1  26   11.23    1.82 
   0   1  26    9.07    1.76 
   0   1 -26    8.63    1.70 
   0  -1 -26    8.97    1.61 
   0  -1  27   57.75    2.36 
   0   1  27   50.38    2.17 
   0   1 -27   52.64    2.26 
   0  -1 -27   57.35    2.40 
   0  -1  28    6.51    1.69 
   0   1  28    4.26    1.64 
   0   1 -28    5.50    1.68 
   0  -1 -28    2.67    1.75 
   0  -1  29   16.80    1.80 
   0   1  29   16.60    1.99 
   0   1 -29   15.85    1.92 
   0  -1 -29   17.21    2.00 
   0   2   0 1214.64   14.93 
   0  -2   0 1184.84   14.73 
   0  -2  -1  714.13   10.03 
   0   2   1  706.36    9.81 
   0   2  -1  726.64    9.91 
   0  -2   1  704.16    9.69 
   0   2  -1  738.02   10.70 
   0  -2   1  660.65    9.82 
   0  -2   2  320.98    5.60 
   0  -2  -2  320.04    5.65 
   0   2   2  323.16    5.66 
   0   2  -2  338.43    5.73 
   0  -2   2  317.02    5.44 
   0   2  -2  323.66    6.03 
   0  -2   2  307.96    5.76 
   0  -2   3   35.85    1.70 
   0  -2  -3   34.37    1.71 
   0   2   3   34.74    1.75 
   0   2  -3   33.72    1.57 
   0  -2   3   33.65    1.68 
   0   2  -3   35.74    1.85 
   0  -2   3   33.54    1.72 
   0  -2   4  125.28    3.07 
   0  -2  -4  120.94    3.19 
   0   2   4  127.26    3.32 
   0   2  -4  115.82    3.06 
   0  -2   4  122.36    3.12 
   0   2  -4  124.25    3.28 
   0  -2   4  118.91    3.02 
   0  -2   5   23.60    1.36 
   0  -2  -5   22.96    1.46 
   0   2   5   25.63    1.52 
   0  -2  -5   20.23    1.41 
   0   2  -5   24.71    1.52 
   0  -2   5   23.92    1.32 
   0  -2   6  782.63   10.40 
   0  -2  -6  760.23   10.16 
   0   2   6  808.07   11.08 
   0  -2  -6  804.07   10.85 
   0   2  -6  795.50   10.79 
   0  -2   6  748.69    9.86 
   0  -2  -7  399.61    6.26 
   0   2   7  408.06    6.76 
   0  -2  -7  386.29    6.51 
   0   2  -7  406.44    6.51 
   0  -2   7  397.43    5.96 
   0  -2   8   41.24    1.74 
   0  -2  -8   37.26    1.68 
   0   2   8   37.68    1.86 
   0  -2  -8   38.62    1.78 
   0   2  -8   40.76    1.77 
   0  -2   9    6.04    0.91 
   0  -2  -9    6.05    0.86 
   0   2   9    6.63    1.05 
   0  -2  -9    5.79    0.98 
   0   2  -9    6.02    0.93 
   0  -2  10   27.61    1.43 
   0  -2 -10   25.76    1.44 
   0   2  10   24.37    1.57 
   0  -2 -10   24.87    1.51 
   0   2 -10   26.59    1.46 
   0  -2  11    2.44    0.93 
   0  -2 -11    2.30    0.88 
   0   2  11    2.04    0.93 
   0  -2 -11    2.27    0.88 
   0   2 -11    2.14    0.79 
   0  -2  12    3.72    0.84 
   0  -2 -12    4.37    0.81 
   0   2 -12    4.92    0.89 
   0   2  12    3.58    0.98 
   0  -2 -12    4.04    0.99 
   0   2 -12    5.70    1.01 
   0  -2  13  385.34    5.84 
   0  -2 -13  373.89    5.63 
   0   2 -13  379.33    6.06 
   0   2  13  379.27    6.22 
   0  -2 -13  380.83    6.02 
   0   2 -13  382.22    5.82 
   0  -2  14   25.60    1.50 
   0  -2 -14   24.38    1.50 
   0   2 -14   27.37    1.56 
   0   2  14   24.52    1.52 
   0  -2 -14   24.71    1.50 
   0   2 -14   25.86    1.46 
   0  -2  15   77.36    2.45 
   0   2 -15   75.26    2.53 
   0   2  15   76.77    2.59 
   0  -2 -15   81.03    2.63 
   0   2 -15   79.08    2.55 
   0  -2  16  235.77    4.28 
   0   2  16  241.47    4.71 
   0   2 -16  240.52    4.45 
   0  -2 -16  241.54    4.52 
   0   2 -16  225.26    4.23 
   0  -2  17  114.59    3.16 
   0   2  17  106.66    3.20 
   0   2  17  117.43    3.38 
   0  -2 -17  113.23    3.19 
   0   2 -17  115.74    3.17 
   0  -2  18  127.24    3.26 
   0   2  18  121.61    3.24 
   0   2  18  126.97    3.45 
   0   2 -18  127.93    3.24 
   0  -2  19  165.93    3.64 
   0   2  19  162.10    4.03 
   0   2  19  163.12    3.75 
   0   2 -19  168.70    3.66 
   0  -2 -19  166.06    3.43 
   0  -2  20   17.09    1.48 
   0   2  20   17.85    1.52 
   0   2  20   18.00    1.57 
   0   2 -20   16.77    1.57 
   0  -2 -20   17.15    1.56 
   0  -2  21    8.68    1.41 
   0   2  21    8.92    1.57 
   0   2 -21    8.01    1.26 
   0  -2 -21   10.15    1.29 
   0  -2  22   48.86    2.17 
   0   2  22   49.64    2.15 
   0   2 -22   49.33    2.03 
   0  -2 -22   51.76    2.07 
   0  -2  23   20.74    1.81 
   0   2  23   22.32    1.81 
   0   2 -23   23.79    1.83 
   0  -2 -23   22.84    1.67 
   0  -2  24   12.14    1.70 
   0   2  24   11.33    1.63 
   0   2 -24   11.26    1.52 
   0  -2 -24   12.12    1.60 
   0  -2  25   12.77    1.69 
   0   2  25   11.31    1.73 
   0   2 -25   11.00    1.61 
   0  -2 -25   10.99    1.76 
   0  -2  26    5.23    1.63 
   0   2  26    5.27    1.63 
   0   2 -26    4.77    1.40 
   0  -2 -26    3.80    1.57 
   0  -2  27    1.12    1.70 
   0   2  27    0.11    1.43 
   0   2 -27   -1.16    1.59 
   0   2 -27   -0.81    1.53 
   0  -2 -27    0.76    1.64 
   0  -2  28   48.25    2.34 
   0   2  28   57.97    2.66 
   0   2 -28   49.08    2.16 
   0   2 -28   50.77    2.37 
   0  -2 -28   56.02    2.32 
   0   3   0    0.21    0.69 
   0   3   0    0.54    0.74 
   0  -3   0    0.29    0.81 
   0  -3   0    0.00    0.87 
   0   3   1   10.81    1.19 
   0  -3   1   12.01    1.19 
   0   3  -1   11.11    1.10 
   0   3   1   11.00    1.02 
   0   3  -1   12.17    1.16 
   0  -3   1   10.70    1.18 
   0  -3  -1   11.96    1.31 
   0   3  -1   12.24    1.25 
   0  -3   1   11.38    1.28 
   0  -3   2  280.70    5.17 
   0  -3  -2  268.67    5.14 
   0   3   2  283.17    5.17 
   0   3  -2  270.17    4.90 
   0  -3   2  277.24    4.98 
   0   3  -2  272.63    5.50 
   0  -3   2  266.60    5.29 
   0  -3   3  135.00    3.30 
   0   3   3  120.67    3.13 
   0  -3  -3  135.26    3.38 
   0   3   3  140.38    3.42 
   0   3  -3  131.09    3.20 
   0  -3   3  134.91    3.22 
   0   3  -3  134.20    3.62 
   0  -3   3  130.91    3.38 
   0  -3   4  656.67    9.24 
   0  -3  -4  658.71    9.26 
   0   3   4  649.77    9.40 
   0   3  -4  634.24    8.95 
   0  -3   4  657.06    9.11 
   0   3  -4  639.42    9.51 
   0  -3   4  642.38    9.15 
   0  -3   5   91.12    2.60 
   0   3   5   85.11    2.52 
   0  -3  -5   89.09    2.63 
   0   3   5   91.28    2.75 
   0  -3  -5   91.65    2.66 
   0   3  -5   86.89    2.55 
   0  -3   5   92.53    2.66 
   0   3  -5   89.64    2.83 
   0  -3   5   83.89    2.56 
   0  -3   6   19.93    1.32 
   0   3   6   17.00    1.26 
   0  -3  -6   18.58    1.34 
   0   3   6   20.46    1.41 
   0  -3  -6   17.97    1.30 
   0   3  -6   18.73    1.37 
   0  -3   6   18.78    1.23 
   0  -3   7  159.36    3.46 
   0   3   7  163.27    3.49 
   0  -3  -7  170.03    3.61 
   0   3   7  157.25    3.66 
   0  -3  -7  156.51    3.55 
   0   3  -7  162.73    3.70 
   0  -3   7  159.55    3.27 
   0  -3   8  156.22    3.43 
   0   3   8  155.99    3.37 
   0  -3  -8  160.31    3.48 
   0   3   8  158.48    3.67 
   0  -3  -8  157.84    3.54 
   0   3  -8  163.86    3.70 
   0  -3   8  164.11    3.29 
   0   3   9  951.08   11.16 
   0  -3  -9  976.77   11.42 
   0   3   9  953.13   11.77 
   0  -3  -9  925.05   11.46 
   0   3  -9  972.94   11.85 
   0  -3   9  994.98   11.23 
   0  -3  10   98.10    2.60 
   0   3  10  104.47    2.59 
   0  -3 -10  107.00    2.66 
   0   3  10  102.06    2.84 
   0  -3 -10  101.53    2.73 
   0   3 -10   95.36    2.58 
   0   3 -10  103.63    2.75 
   0  -3  11   26.10    1.51 
   0   3  11   26.53    1.51 
   0  -3 -11   25.57    1.36 
   0   3  11   28.77    1.60 
   0  -3 -11   26.80    1.57 
   0   3 -11   27.71    1.56 
   0   3 -11   25.72    1.54 
   0  -3  12    7.97    1.06 
   0   3  12    7.40    1.07 
   0  -3 -12    7.49    1.08 
   0   3  12    6.40    1.19 
   0  -3 -12    8.33    1.14 
   0   3 -12    7.73    1.06 
   0   3 -12    7.70    1.11 
   0  -3  13  444.51    6.97 
   0   3  13  463.18    7.06 
   0  -3 -13  455.22    6.90 
   0   3  13  451.53    7.50 
   0  -3 -13  436.73    6.96 
   0   3 -13  441.51    7.18 
   0   3 -13  446.95    7.05 
   0  -3  14  272.05    5.15 
   0   3  14  261.22    5.13 
   0  -3 -14  269.01    4.98 
   0   3  14  272.56    5.51 
   0  -3 -14  270.68    5.27 
   0   3 -14  265.90    5.19 
   0   3 -14  269.87    5.23 
   0  -3  15  243.78    4.41 
   0   3  15  246.20    4.46 
   0   3  15  257.52    4.86 
   0  -3 -15  258.60    4.66 
   0   3 -15  235.97    4.47 
   0   3 -15  259.54    4.66 
   0  -3  16   13.68    1.41 
   0   3  16    9.47    1.49 
   0   3  16   11.69    1.39 
   0  -3 -16   10.31    1.15 
   0   3 -16   10.87    1.26 
   0   3 -16   11.12    1.25 
   0  -3  17   66.55    2.46 
   0   3  17   59.39    2.44 
   0   3  17   60.54    2.40 
   0  -3 -17   61.32    2.28 
   0   3 -17   64.00    2.40 
   0   3 -17   65.14    2.32 
   0  -3  18   16.08    1.49 
   0   3  18   16.90    1.62 
   0   3  18   15.94    1.46 
   0   3 -18   15.00    1.53 
   0   3 -18   14.85    1.34 
   0  -3  19  117.65    2.92 
   0   3  19  111.63    2.94 
   0   3  19  107.49    2.88 
   0   3 -19  114.14    2.82 
   0   3 -19  112.62    2.89 
   0  -3  20   71.14    2.52 
   0   3  20   69.94    2.52 
   0   3  20   66.25    2.49 
   0   3 -20   71.13    2.39 
   0   3 -20   67.15    2.35 
   0  -3  21  159.68    3.64 
   0   3  21  169.49    3.71 
   0   3  21  158.76    3.65 
   0   3 -21  154.83    3.44 
   0   3 -21  156.32    3.49 
   0  -3  22   42.67    2.14 
   0   3  22   41.07    2.08 
   0   3  22   41.23    2.15 
   0   3 -22   39.46    1.97 
   0   3 -22   37.56    1.99 
   0  -3  23  155.44    3.35 
   0   3  23  157.98    3.40 
   0   3  23  145.83    3.36 
   0   3 -23  154.53    3.35 
   0   3 -23  149.53    3.32 
   0  -3 -23  140.29    2.94 
   0  -3  24    6.68    1.53 
   0   3  24    9.34    1.85 
   0   3 -24    5.41    1.61 
   0   3 -24    8.61    1.67 
   0  -3 -24    6.82    1.45 
   0  -3  25   -0.94    1.58 
   0   3  25    0.39    1.70 
   0   3 -25    0.47    1.38 
   0   3 -25   -0.14    1.37 
   0  -3 -25    0.65    1.52 
   0  -3  26   85.24    2.69 
   0   3  26   83.88    2.62 
   0   3 -26   85.14    2.55 
   0   3 -26   84.56    2.71 
   0  -3 -26   89.03    2.57 
   0  -3  27   39.30    2.23 
   0   3  27   40.92    2.20 
   0   3 -27   39.90    2.08 
   0   3 -27   37.66    2.14 
   0  -3 -27   42.50    2.21 
   0  -3  28   82.05    2.80 
   0   3  28   75.53    2.62 
   0   3 -28   77.94    2.56 
   0   3 -28   80.99    2.64 
   0  -3 -28   83.83    2.61 
   0   4   0  632.81    9.01 
   0   4   0  614.15    9.04 
   0   4   0  575.98    8.31 
   0  -4   0  584.37    9.03 
   0  -4   1  186.44    4.08 
   0   4   1  190.07    4.08 
   0   4  -1  194.92    4.04 
   0   4   1  194.14    4.22 
   0   4   1  193.67    4.07 
   0   4  -1  191.81    4.01 
   0  -4  -1  182.37    4.38 
   0  -4   1  187.58    4.35 
   0   4   2    6.28    0.98 
   0  -4   2    6.88    1.01 
   0   4  -2    6.29    0.96 
   0   4   2    6.90    1.02 
   0   4   2    5.78    0.96 
   0   4  -2    6.56    0.97 
   0  -4   2    5.94    0.85 
   0   4  -2    7.13    1.11 
   0  -4   2    6.17    1.11 
   0  -4   3  231.66    4.70 
   0   4  -3  238.47    4.30 
   0   4   3  214.92    4.57 
   0  -4  -3  244.04    4.63 
   0   4   3  230.20    4.40 
   0  -4  -3  223.49    4.20 
   0   4  -3  235.25    4.36 
   0  -4   3  244.20    4.38 
   0   4  -3  235.19    4.88 
   0  -4   3  233.56    4.66 
   0  -4   4    5.90    0.96 
   0   4  -4    5.35    0.95 
   0   4   4    4.25    0.80 
   0  -4  -4    4.47    0.99 
   0   4   4    6.67    0.97 
   0  -4  -4    5.78    0.99 
   0   4  -4    5.14    0.93 
   0  -4   4    5.75    0.97 
   0   4  -4    6.28    1.08 
   0  -4   4    6.17    0.90 
   0  -4   5  385.87    6.04 
   0   4  -5  386.47    5.88 
   0   4   5  373.85    5.90 
   0  -4  -5  393.43    6.14 
   0   4   5  398.05    6.30 
   0  -4  -5  395.90    6.03 
   0   4  -5  388.60    5.98 
   0  -4   5  399.47    6.02 
   0   4  -5  386.33    6.53 
   0  -4   5  384.30    6.03 
   0  -4   6    3.88    0.80 
   0   4  -6    4.26    0.84 
   0   4   6    4.32    0.90 
   0  -4  -6    5.50    1.00 
   0   4   6    4.42    0.96 
   0  -4  -6    5.41    0.94 
   0   4  -6    3.12    0.85 
   0  -4   6    4.22    0.82 
   0   4  -6    4.83    0.96 
   0  -4   6    4.42    0.91 
   0  -4   7   88.46    2.52 
   0   4  -7   89.57    2.36 
   0   4   7   87.24    2.42 
   0  -4  -7   86.29    2.50 
   0   4   7   88.87    2.63 
   0  -4  -7   86.20    2.47 
   0   4  -7   89.92    2.74 
   0  -4   7   89.80    2.41 
   0  -4   8   11.00    1.11 
   0   4  -8   11.56    1.10 
   0   4   8   11.45    1.08 
   0  -4  -8   11.75    1.21 
   0   4   8   12.06    1.26 
   0  -4  -8   11.28    1.17 
   0   4  -8    8.93    1.12 
   0  -4   8   10.79    0.99 
   0  -4   9   79.65    2.36 
   0   4  -9   79.23    2.19 
   0   4   9   81.83    2.36 
   0  -4  -9   84.69    2.46 
   0   4   9   81.82    2.58 
   0  -4  -9   79.89    2.37 
   0   4  -9   82.83    2.60 
   0  -4   9   82.24    2.16 
   0  -4  10   80.62    2.48 
   0   4 -10   79.38    2.23 
   0   4  10   79.01    2.41 
   0  -4 -10   81.56    2.47 
   0   4  10   81.20    2.63 
   0  -4 -10   75.76    2.36 
   0   4 -10   79.25    2.58 
   0  -4  10   81.97    2.22 
   0  -4  11  467.00    7.20 
   0   4 -11  456.87    6.76 
   0   4  11  481.66    7.26 
   0  -4 -11  483.23    7.33 
   0   4  11  477.25    7.68 
   0  -4 -11  477.36    7.32 
   0   4 -11  467.97    7.24 
   0   4 -11  460.77    7.44 
   0  -4  12   11.50    1.24 
   0   4 -12   13.22    1.14 
   0   4  12   11.57    1.22 
   0  -4 -12   12.14    1.12 
   0   4  12   12.46    1.39 
   0  -4 -12   11.90    1.16 
   0   4 -12   12.26    1.39 
   0   4 -12   11.89    1.34 
   0   4  13  752.72   10.85 
   0  -4 -13  740.82   10.83 
   0   4  13  712.83   11.14 
   0  -4 -13  732.62   10.78 
   0   4 -13  729.30   10.85 
   0   4 -13  733.94   11.01 
   0  -4  14    2.95    0.95 
   0   4  14    1.79    1.13 
   0   4  14    3.31    0.99 
   0  -4 -14    2.55    0.99 
   0   4 -14    1.65    0.97 
   0   4 -14    2.69    1.06 
   0  -4  15    6.32    1.19 
   0   4  15    7.06    1.36 
   0   4  15    6.52    1.32 
   0  -4 -15    8.18    1.10 
   0   4 -15    8.08    1.30 
   0   4 -15    6.83    1.19 
   0  -4  16   18.03    1.43 
   0   4  16   18.58    1.59 
   0   4  16   17.36    1.54 
   0   4 -16   18.14    1.61 
   0   4 -16   18.69    1.48 
   0  -4  17  329.90    5.72 
   0   4  17  313.26    5.30 
   0   4  17  324.91    5.76 
   0   4 -17  325.08    5.45 
   0   4 -17  326.06    5.55 
   0  -4  18   12.68    1.54 
   0   4  18   12.74    1.69 
   0   4  18   13.65    1.43 
   0   4 -18   12.62    1.62 
   0   4 -18   13.23    1.57 
   0  -4  19  253.41    4.14 
   0   4  19  251.31    4.09 
   0   4  19  249.39    4.40 
   0   4 -19  248.12    4.05 
   0   4 -19  250.59    4.21 
   0  -4  20    0.37    1.14 
   0   4  20    1.36    1.36 
   0   4 -20    0.36    1.27 
   0   4 -20   -0.10    1.41 
   0  -4  21   22.32    1.74 
   0   4  21   25.55    2.74 
   0   4  21   23.77    1.89 
   0   4 -21   25.50    1.84 
   0   4 -21   24.26    1.73 
   0  -4  22    8.61    1.64 
   0   4  22    7.69    1.91 
   0   4  22    4.19    1.44 
   0   4 -22    6.73    1.58 
   0   4 -22    7.39    1.56 
   0  -4  23  188.55    3.62 
   0   4  23  177.94    3.58 
   0   4  23  182.09    3.68 
   0   4 -23  192.57    3.63 
   0   4 -23  191.83    3.85 
   0  -4  24   -0.56    1.44 
   0   4  24    0.00    1.59 
   0   4  24   -0.17    1.48 
   0   4 -24    0.49    1.37 
   0   4 -24    1.16    1.60 
   0  -4  25  107.39    3.01 
   0   4  25  106.58    3.02 
   0   4  25  104.03    3.07 
   0   4 -25  106.16    2.94 
   0   4 -25  106.01    3.07 
   0  -4  26    7.84    1.79 
   0   4  26    6.27    1.78 
   0   4 -26    6.92    1.60 
   0   4 -26    6.78    1.61 
   0  -4  27    2.15    1.75 
   0   4  27    2.98    1.75 
   0   4 -27    1.55    1.54 
   0   4 -27    3.17    1.70 
   0   5   0    0.44    0.80 
   0   5   0    0.72    0.73 
   0   5   0    0.56    0.76 
   0  -5   0    0.07    0.76 
   0  -5   1   88.33    2.66 
   0   5   1   92.44    2.66 
   0   5  -1   88.15    2.56 
   0   5   1   91.09    2.75 
   0   5   1   89.24    2.63 
   0   5  -1   90.43    2.58 
   0  -5  -1   86.42    2.85 
   0  -5   1   91.73    2.92 
   0   5   2  640.62    7.36 
   0   5  -2  626.94    7.47 
   0   5   2  596.34    7.57 
   0   5   2  628.02    7.33 
   0   5  -2  627.37    7.27 
   0  -5  -2  601.50    7.07 
   0   5  -2  614.49    7.94 
   0  -5  -2  627.12    7.84 
   0  -5   2  610.99    7.68 
   0   5   3    0.77    0.82 
   0  -5   3   -0.28    0.83 
   0   5  -3    0.50    0.77 
   0   5   3    0.42    0.80 
   0   5   3    0.12    0.71 
   0  -5  -3    0.43    0.84 
   0   5  -3    0.14    0.65 
   0  -5   3    0.41    0.87 
   0   5  -3    0.24    0.82 
   0  -5   3   -0.22    0.80 
   0  -5   4  448.73    6.08 
   0   5  -4  453.00    5.75 
   0   5   4  456.40    6.12 
   0  -5  -4  462.29    6.12 
   0   5   4  453.54    6.10 
   0  -5  -4  459.06    6.05 
   0   5  -4  463.61    6.04 
   0  -5   4  450.45    5.84 
   0   5  -4  464.60    6.69 
   0  -5   4  454.40    6.18 
   0  -5   5    1.58    0.78 
   0   5  -5    1.46    0.71 
   0   5   5    0.72    0.89 
   0  -5  -5    1.58    0.83 
   0   5   5    0.69    0.82 
   0  -5  -5    2.90    0.92 
   0   5  -5    1.02    0.81 
   0  -5   5    1.78    0.78 
   0   5  -5    1.38    0.93 
   0  -5   5    2.07    0.87 
   0  -5   6  217.54    4.02 
   0   5  -6  221.19    3.74 
   0   5   6  212.93    3.96 
   0  -5  -6  215.30    3.95 
   0   5   6  217.88    4.13 
   0  -5  -6  226.54    4.00 
   0   5  -6  216.72    3.88 
   0  -5   6  231.13    4.00 
   0   5  -6  223.51    4.45 
   0  -5   6  220.16    3.94 
   0  -5   7   35.35    1.75 
   0   5  -7   34.45    1.55 
   0   5   7   36.28    1.72 
   0  -5  -7   35.78    1.76 
   0   5   7   34.56    1.78 
   0  -5  -7   33.23    1.64 
   0   5  -7   29.63    1.54 
   0  -5   7   34.12    1.69 
   0   5  -7   33.98    1.86 
   0  -5   7   35.10    1.65 
   0  -5   8  115.70    3.00 
   0   5  -8  119.67    2.83 
   0   5   8  109.23    2.87 
   0  -5  -8  122.54    3.08 
   0   5   8  113.89    3.06 
   0  -5  -8  117.44    2.96 
   0   5  -8  117.36    3.26 
   0  -5   8  122.36    2.88 
   0  -5   9   18.69    1.35 
   0   5  -9   18.37    1.22 
   0   5   9   18.67    1.31 
   0  -5  -9   19.15    1.41 
   0   5   9   19.70    1.59 
   0  -5  -9   18.08    1.28 
   0   5  -9   19.93    1.58 
   0  -5   9   19.57    1.23 
   0  -5  10  299.02    5.56 
   0   5 -10  282.52    5.03 
   0   5  10  286.61    5.33 
   0  -5 -10  286.98    5.34 
   0   5  10  290.44    5.70 
   0  -5 -10  281.07    5.25 
   0   5 -10  288.96    5.74 
   0  -5  10  298.53    5.18 
   0  -5  11    0.07    1.06 
   0   5 -11   -0.02    0.73 
   0   5  11    1.24    1.01 
   0  -5 -11    1.34    0.98 
   0   5  11    0.90    0.90 
   0  -5 -11    1.80    0.82 
   0   5 -11    0.77    1.03 
   0   5 -11    1.18    0.98 
   0  -5  11    1.15    0.73 
   0  -5  12   21.42    1.49 
   0   5  12   20.64    1.45 
   0  -5 -12   20.31    1.46 
   0   5  12   22.20    1.66 
   0  -5 -12   22.19    1.48 
   0   5 -12   21.03    1.42 
   0   5 -12   21.31    1.59 
   0  -5  13    6.32    1.15 
   0   5  13    8.11    1.27 
   0   5  13    4.99    1.22 
   0  -5 -13    5.66    0.97 
   0   5 -13    7.37    1.11 
   0   5 -13    6.59    1.25 
   0  -5  14    6.10    1.29 
   0   5  14    6.33    1.21 
   0   5  14    6.06    1.28 
   0   5 -14    6.52    1.14 
   0   5 -14    6.70    1.31 
   0  -5  15   19.62    1.61 
   0   5  15   18.02    1.56 
   0   5  15   18.45    1.67 
   0   5 -15   17.73    1.46 
   0   5 -15   19.24    1.62 
   0  -5  16   25.64    1.59 
   0   5  16   30.40    1.89 
   0   5  16   27.73    1.68 
   0   5 -16   28.01    1.73 
   0   5 -16   26.90    1.74 
   0  -5  17    2.16    1.37 
   0   5  17    0.93    1.24 
   0   5  17    2.12    1.20 
   0   5 -17    0.75    1.14 
   0   5 -17    0.58    1.32 
   0  -5  18   12.02    1.67 
   0   5  18   12.46    1.86 
   0   5  18   13.88    1.45 
   0   5 -18   16.50    1.50 
   0   5 -18   14.72    1.58 
   0  -5  19    0.71    1.37 
   0   5  19   -1.30    1.60 
   0   5  19    0.61    1.27 
   0   5 -19   -0.44    1.34 
   0   5 -19    0.26    1.35 
   0  -5  20  199.19    4.16 
   0   5  20  192.63    4.08 
   0   5  20  211.25    4.34 
   0   5 -20  204.19    4.03 
   0   5 -20  205.04    4.24 
   0  -5  21   29.98    1.98 
   0   5  21   32.83    2.16 
   0   5  21   30.71    2.04 
   0   5 -21   30.31    1.89 
   0   5 -21   29.92    2.02 
   0  -5  22  210.87    3.90 
   0   5  22  213.89    3.85 
   0   5  22  207.57    4.06 
   0   5 -22  202.18    3.71 
   0   5 -22  202.18    3.93 
   0  -5  23    1.15    1.62 
   0   5  23    0.34    1.66 
   0   5  23    0.96    1.53 
   0   5 -23    1.57    1.58 
   0   5 -23    0.09    1.69 
   0  -5 -23   -0.08    1.45 
   0  -5  24    0.45    1.57 
   0   5  24    2.04    1.82 
   0   5  24    2.31    1.44 
   0   5 -24   -1.02    1.32 
   0   5 -24    1.52    1.50 
   0  -5 -24   -0.07    1.41 
   0  -5  25    3.48    1.51 
   0   5  25    5.72    1.66 
   0   5 -25    4.40    1.71 
   0   5 -25    2.21    1.68 
   0  -5 -25    3.24    1.61 
   0  -5  26  166.94    4.38 
   0   5  26  175.89    4.66 
   0   5 -26  157.05    4.05 
   0   5 -26  160.75    4.31 
   0  -5 -26  170.42    4.21 
   0   6   0   14.38    1.26 
   0   6   0   12.89    1.21 
   0   6   0   13.46    1.20 
   0  -6   0   13.31    1.32 
   0   6   1    9.05    1.11 
   0   6  -1    7.05    1.05 
   0   6   1    7.66    1.18 
   0   6  -1    7.12    1.09 
   0   6   1    7.35    1.02 
   0   6  -1    5.95    1.15 
   0  -6  -1    8.26    1.02 
   0  -6  -1    7.42    1.18 
   0  -6   1    7.39    1.08 
   0  -6   2    0.41    0.75 
   0   6   2    1.13    0.88 
   0   6  -2   -0.41    0.83 
   0   6   2    0.48    0.87 
   0   6   2    0.27    0.71 
   0   6  -2    0.36    0.95 
   0  -6  -2    1.05    0.74 
   0  -6  -2    0.79    1.00 
   0  -6   2    0.60    0.84 
   0   6   3  315.19    5.25 
   0  -6   3  327.30    5.54 
   0   6  -3  322.67    5.16 
   0   6   3  323.06    5.46 
   0   6   3  318.71    5.40 
   0   6  -3  322.12    5.32 
   0  -6  -3  324.09    5.21 
   0  -6   3  304.10    5.01 
   0   6  -3  334.90    5.95 
   0  -6  -3  322.46    5.77 
   0  -6   3  322.26    5.64 
   0   6   4  270.93    4.80 
   0  -6   4  264.55    4.86 
   0   6  -4  271.18    4.59 
   0   6   4  265.74    4.79 
   0   6   4  263.76    4.82 
   0  -6  -4  266.03    4.68 
   0   6  -4  270.18    4.76 
   0  -6   4  264.66    4.58 
   0   6  -4  270.39    5.27 
   0  -6   4  266.57    4.92 
   0  -6   5  251.24    4.89 
   0   6  -5  252.29    4.57 
   0   6   5  245.92    4.82 
   0  -6  -5  241.51    5.03 
   0   6   5  242.95    4.77 
   0  -6  -5  254.28    4.69 
   0   6  -5  254.97    4.79 
   0  -6   5  252.14    4.64 
   0   6  -5  256.18    5.28 
   0  -6   5  256.77    4.92 
   0  -6   6    3.90    1.04 
   0   6  -6    4.99    0.98 
   0   6   6    4.07    0.86 
   0  -6  -6    4.39    1.05 
   0   6   6    4.10    1.01 
   0  -6  -6    4.20    1.00 
   0   6  -6    3.45    1.11 
   0  -6   6    4.86    1.06 
   0   6  -6    4.05    1.01 
   0  -6   6    4.27    0.87 
   0  -6   7   54.76    2.21 
   0   6  -7   55.42    1.95 
   0   6   7   58.31    2.22 
   0  -6  -7   54.36    2.08 
   0   6   7   58.93    2.31 
   0  -6  -7   55.91    2.05 
   0   6  -7   50.83    1.97 
   0   6  -7   54.88    2.33 
   0  -6   7   54.50    2.02 
   0  -6   8    2.70    1.06 
   0   6  -8    3.72    0.99 
   0   6   8    3.48    0.86 
   0  -6  -8    2.46    1.04 
   0   6   8    2.03    1.12 
   0  -6  -8    3.09    1.01 
   0   6  -8    2.17    1.04 
   0  -6   8    2.10    0.81 
   0  -6   9   64.77    2.27 
   0   6  -9   71.63    2.20 
   0   6   9   70.22    2.35 
   0  -6  -9   69.16    2.38 
   0   6   9   66.03    2.35 
   0  -6  -9   71.36    2.25 
   0   6  -9   70.71    2.57 
   0  -6   9   71.31    2.17 
   0  -6  10   35.52    1.82 
   0   6  10   36.57    1.80 
   0  -6 -10   35.76    1.79 
   0   6  10   33.79    1.82 
   0  -6 -10   35.98    1.74 
   0   6 -10   35.02    1.89 
   0  -6  10   35.06    1.55 
   0  -6  11  491.08    8.40 
   0   6  11  445.62    7.93 
   0   6  11  469.90    8.34 
   0   6 -11  473.72    8.57 
   0  -6  11  484.11    7.92 
   0  -6  12   16.56    1.53 
   0   6  12   18.38    1.41 
   0   6  12   18.11    1.54 
   0   6 -12   17.40    1.54 
   0   6 -12   18.57    1.52 
   0  -6  12   19.27    1.22 
   0  -6  13  547.71    8.70 
   0   6  13  545.01    8.51 
   0   6  13  547.57    8.97 
   0   6 -13  551.37    8.71 
   0   6 -13  540.97    8.98 
   0  -6  14    9.61    1.40 
   0   6  14    9.22    1.33 
   0   6  14    8.82    1.50 
   0   6 -14   10.17    1.36 
   0   6 -14    9.09    1.47 
   0  -6  15   42.94    1.97 
   0   6  15   44.46    1.92 
   0   6  15   40.64    1.96 
   0   6 -15   44.66    2.05 
   0   6 -15   41.79    2.09 
   0  -6  16    9.93    1.42 
   0   6  16    9.84    1.43 
   0   6  16   10.31    1.57 
   0   6 -16   11.11    1.48 
   0   6 -16    9.84    1.49 
   0  -6  17  189.68    3.64 
   0   6  17  184.92    3.71 
   0   6  17  183.77    3.79 
   0   6 -17  190.79    3.57 
   0   6 -17  192.60    3.95 
   0  -6  18    3.03    1.42 
   0   6  18    2.63    1.67 
   0   6  18    5.09    1.42 
   0   6 -18    3.86    1.28 
   0   6 -18    3.95    1.48 
   0  -6  19  242.11    4.05 
   0   6  19  236.35    3.95 
   0   6  19  242.33    4.32 
   0   6 -19  232.22    3.89 
   0   6 -19  236.41    4.21 
   0  -6  20   17.71    1.76 
   0   6  20   18.63    1.90 
   0   6  20   17.44    1.73 
   0   6 -20   18.88    1.84 
   0   6 -20   17.80    1.73 
   0  -6  21    1.83    1.62 
   0   6  21    2.57    1.63 
   0   6  21    2.48    1.49 
   0   6 -21    1.46    1.45 
   0   6 -21    1.30    1.60 
   0  -6  22    5.68    1.54 
   0   6  22    3.99    1.77 
   0   6  22    3.42    1.67 
   0   6 -22    2.03    1.44 
   0   6 -22    4.32    1.64 
   0  -6  23   80.95    2.76 
   0   6  23   77.37    2.56 
   0   6  23   76.65    2.61 
   0   6 -23   77.65    2.53 
   0   6 -23   77.82    2.76 
   0  -6  24   17.95    2.00 
   0   6  24   16.74    2.09 
   0   6 -24   19.84    1.87 
   0   6 -24   20.94    2.04 
   0  -6 -24   19.08    1.67 
   0  -6  25   37.59    2.25 
   0   6  25   35.40    2.28 
   0   6 -25   35.88    2.14 
   0   6 -25   36.90    2.21 
   0  -6 -25   36.29    2.13 
   0   7   0    0.64    0.95 
   0   7   0   -0.79    0.83 
   0   7   0    0.93    0.93 
   0  -7   0   -0.47    0.89 
   0   7   1   29.42    1.58 
   0   7  -1   30.60    1.58 
   0   7   1   28.30    1.66 
   0   7  -1   28.55    1.74 
   0   7   1   30.99    1.79 
   0   7  -1   27.79    1.62 
   0  -7  -1   28.80    1.74 
   0  -7   1   30.44    1.77 
   0   7   2  387.48    6.61 
   0   7  -2  362.00    6.26 
   0   7   2  363.81    6.49 
   0   7  -2  349.48    6.43 
   0   7   2  364.51    6.42 
   0   7  -2  371.69    6.47 
   0  -7  -2  367.10    6.83 
   0  -7   2  370.62    6.74 
   0  -7   3  175.64    4.04 
   0   7   3  174.42    3.94 
   0   7  -3  175.49    3.79 
   0   7   3  167.88    3.92 
   0   7   3  174.37    3.99 
   0   7  -3  178.84    4.01 
   0  -7  -3  182.47    4.37 
   0  -7   3  171.50    4.09 
   0  -7   4  777.82    9.86 
   0   7   4  772.82    9.63 
   0   7  -4  800.08    9.58 
   0   7   4  780.32   10.00 
   0   7  -4  790.06    9.83 
   0   7  -4  790.59   10.38 
   0  -7  -4  756.59   10.03 
   0  -7   4  789.14    9.98 
   0   7   5   52.77    2.09 
   0  -7   5   50.41    2.15 
   0   7  -5   47.94    1.84 
   0   7   5   48.35    2.08 
   0   7   5   46.69    2.00 
   0   7  -5   48.87    2.02 
   0  -7  -5   51.67    2.22 
   0   7  -5   50.84    2.24 
   0  -7   5   49.33    1.97 
   0   7   6   11.80    1.28 
   0  -7   6   11.74    1.20 
   0   7  -6   12.21    1.19 
   0   7   6   10.59    1.34 
   0   7   6   11.22    1.26 
   0   7  -6   11.81    1.40 
   0   7  -6   11.04    1.37 
   0  -7   6   12.83    1.16 
   0  -7   7  144.21    3.71 
   0   7   7  141.34    3.63 
   0  -7  -7  146.85    3.66 
   0   7   7  143.68    3.76 
   0   7  -7  144.68    3.62 
   0   7  -7  144.70    3.95 
   0  -7   7  141.21    3.47 
   0  -7   8  367.06    6.88 
   0   7   8  373.97    6.81 
   0   7   8  361.82    6.86 
   0   7  -8  362.55    6.65 
   0   7  -8  363.19    7.14 
   0  -7   8  374.92    6.68 
   0  -7   9   95.02    2.93 
   0   7   9   95.19    2.84 
   0   7   9   99.76    3.11 
   0   7  -9   93.96    3.09 
   0  -7   9   95.34    2.60 
   0  -7  10  496.09    8.12 
   0   7  10  511.17    8.21 
   0   7  10  501.19    8.36 
   0   7 -10  493.83    8.48 
   0  -7  10  507.27    7.83 
   0  -7  11   65.75    2.45 
   0   7  11   65.64    2.31 
   0   7  11   62.46    2.47 
   0   7 -11   64.47    2.51 
   0  -7  11   64.79    1.96 
   0  -7  12   73.28    2.51 
   0   7  12   74.68    2.37 
   0   7  12   77.18    2.71 
   0   7 -12   77.11    2.75 
   0  -7  12   78.36    2.19 
   0  -7  13    7.99    1.43 
   0   7  13    8.44    1.29 
   0   7  13    6.98    1.35 
   0   7 -13    9.48    1.44 
   0   7 -13    9.94    1.38 
   0  -7  14   52.29    2.26 
   0   7  14   52.46    2.09 
   0   7  14   52.81    2.28 
   0   7 -14   56.49    2.26 
   0   7 -14   52.94    2.24 
   0  -7  15  100.78    2.77 
   0   7  15  100.85    2.59 
   0   7  15   99.09    2.84 
   0   7 -15  101.57    2.69 
   0   7 -15   95.80    2.83 
   0  -7  16   26.86    1.72 
   0   7  16   23.78    1.70 
   0   7  16   28.08    1.82 
   0   7 -16   26.65    1.81 
   0   7 -16   24.99    1.84 
   0  -7  17   36.22    1.97 
   0   7  17   37.44    1.88 
   0   7  17   37.95    2.08 
   0   7 -17   35.11    1.89 
   0   7 -17   36.04    1.96 
   0  -7  18   74.27    2.55 
   0   7  18   79.13    2.59 
   0   7  18   78.59    2.64 
   0   7 -18   78.80    2.51 
   0   7 -18   77.37    2.71 
   0  -7  19   56.41    2.31 
   0   7  19   53.11    2.28 
   0   7  19   49.15    2.29 
   0   7 -19   49.80    2.18 
   0   7 -19   51.31    2.37 
   0  -7  20   31.13    2.19 
   0   7  20   27.01    2.16 
   0   7  20   30.25    2.05 
   0   7 -20   31.63    2.01 
   0   7 -20   29.46    1.90 
   0  -7  21   60.42    2.44 
   0   7  21   55.69    2.52 
   0   7  21   53.58    2.42 
   0   7 -21   54.47    2.27 
   0  -7  22   55.44    2.40 
   0   7  22   55.49    2.53 
   0   7  22   58.53    2.53 
   0   7 -22   57.62    2.39 
   0  -7  23   13.93    2.02 
   0   7  23   12.41    2.08 
   0   7 -23   13.42    1.71 
   0  -7  24    6.82    1.85 
   0   7  24    3.24    2.00 
   0   7 -24    7.74    1.76 
   0   8   0  333.86    6.48 
   0   8   0  332.37    6.32 
   0  -8   0  336.73    6.73 
   0   8   1   35.90    1.78 
   0   8  -1   37.39    1.93 
   0   8   1   37.55    1.87 
   0   8  -1   34.75    1.74 
   0  -8  -1   38.89    1.99 
   0  -8   1   33.73    1.85 
   0   8   2  150.37    3.70 
   0   8  -2  136.33    3.64 
   0   8   2  145.52    3.60 
   0   8  -2  149.33    3.66 
   0  -8  -2  144.88    3.79 
   0  -8   2  143.84    3.75 
   0   8   3  374.99    6.71 
   0   8  -3  354.60    6.58 
   0   8   3  374.74    6.68 
   0   8  -3  384.91    6.74 
   0  -8  -3  382.59    7.04 
   0  -8   3  379.71    6.83 
   0  -8   4   35.72    1.77 
   0   8   4   35.70    1.82 
   0   8   4   35.73    1.85 
   0   8  -4   35.38    1.79 
   0  -8  -4   34.97    1.93 
   0  -8   4   36.74    1.78 
   0  -8   5   60.52    2.42 
   0   8   5   57.93    2.30 
   0   8   5   58.77    2.40 
   0   8  -5   59.56    2.36 
   0  -8  -5   56.60    2.36 
   0  -8   5   58.57    2.25 
   0  -8   6   89.66    2.82 
   0   8   6   91.77    2.83 
   0   8   6   94.47    3.01 
   0   8  -6   95.05    2.88 
   0  -8  -6   89.29    2.96 
   0   8  -6   91.36    3.02 
   0  -8   6   94.75    2.78 
   0  -8   7  241.94    4.78 
   0   8   7  246.10    4.59 
   0   8   7  253.06    4.81 
   0   8  -7  246.54    4.63 
   0  -8  -7  255.76    5.01 
   0   8  -7  248.04    5.09 
   0  -8   7  255.37    4.57 
   0  -8   8    2.19    1.06 
   0   8   8    1.34    1.01 
   0   8   8    2.12    1.30 
   0   8  -8    2.40    1.15 
   0   8  -8    2.17    1.08 
   0  -8   8    1.65    0.84 
   0  -8   9    1.53    1.15 
   0   8   9    1.59    1.03 
   0   8   9    1.13    1.20 
   0   8  -9    0.00    1.26 
   0   8  -9    0.58    1.16 
   0  -8   9    1.04    0.85 
   0  -8  10    1.82    1.37 
   0   8  10    0.59    1.24 
   0   8  10    1.01    1.46 
   0   8 -10    0.49    1.15 
   0  -8  10    0.44    0.83 
   0  -8  11  104.61    2.81 
   0   8  11  107.97    2.76 
   0   8  11  110.73    2.96 
   0   8 -11  104.23    3.05 
   0  -8  11  108.93    2.44 
   0  -8  12   19.56    1.73 
   0   8  12   21.63    1.63 
   0   8  12   20.77    1.75 
   0   8 -12   20.65    1.72 
   0  -8  12   20.31    1.26 
   0  -8  13  198.32    4.08 
   0   8  13  202.06    3.96 
   0   8  13  199.86    4.23 
   0   8 -13  203.16    4.43 
   0  -8  14   38.46    1.99 
   0   8  14   39.72    1.92 
   0   8  14   37.10    2.18 
   0   8 -14   36.38    1.92 
   0  -8  15    2.25    1.58 
   0   8  15    2.18    1.28 
   0   8  15    2.28    1.45 
   0   8 -15    1.40    1.40 
   0  -8  16    3.89    1.46 
   0   8  16    3.63    1.40 
   0   8  16    4.19    1.54 
   0   8 -16    2.75    1.48 
   0  -8  17   33.05    2.01 
   0   8  17   33.87    1.84 
   0   8  17   34.67    2.08 
   0   8 -17   35.37    2.04 
   0  -8  18   31.58    1.96 
   0   8  18   31.35    1.96 
   0   8  18   30.75    2.08 
   0   8 -18   33.80    2.00 
   0  -8  19   75.87    2.72 
   0   8  19   79.70    2.67 
   0   8  19   79.62    2.74 
   0   8 -19   77.84    2.68 
   0  -8  20   26.74    1.95 
   0   8  20   28.37    1.95 
   0   8  20   24.86    2.07 
   0   8 -20   28.91    2.02 
   0  -8  21   10.86    1.85 
   0   8  21    5.78    1.75 
   0   8  21    6.43    1.61 
   0   8 -21    7.80    1.79 
   0  -8  22   56.72    2.46 
   0   8  22   56.48    2.45 
   0   8 -22   59.33    2.48 
   0   9   0    0.16    1.20 
   0   9   0   -0.25    1.32 
   0  -9   0    1.08    1.01 
   0   9   1   40.65    2.02 
   0   9  -1   40.30    2.06 
   0   9   1   40.21    1.94 
   0   9  -1   41.90    1.92 
   0  -9  -1   39.65    1.96 
   0  -9   1   37.89    1.89 
   0   9   2    1.32    1.24 
   0   9  -2    1.12    1.11 
   0   9   2   -0.02    1.22 
   0   9  -2   -0.04    1.16 
   0  -9  -2    0.04    1.00 
   0  -9   2    0.58    0.96 
   0   9   3   10.36    1.41 
   0   9  -3   10.27    1.51 
   0   9   3   10.61    1.57 
   0   9  -3   10.58    1.49 
   0  -9  -3    9.99    1.30 
   0  -9   3   10.11    1.19 
   0   9   4   10.22    1.45 
   0   9  -4   10.14    1.43 
   0   9   4   10.99    1.40 
   0   9  -4   10.53    1.57 
   0  -9  -4   10.18    1.37 
   0  -9   4    9.37    1.16 
   0  -9   5   56.00    2.22 
   0   9   5   52.78    2.17 
   0   9   5   54.08    2.27 
   0   9  -5   55.45    2.25 
   0  -9  -5   55.14    2.24 
   0  -9   5   55.76    2.05 
   0  -9   6   62.71    2.35 
   0   9   6   67.12    2.38 
   0   9   6   64.46    2.43 
   0   9  -6   67.40    2.38 
   0  -9  -6   63.79    2.41 
   0  -9   6   62.42    2.11 
   0  -9   7   71.01    2.45 
   0   9   7   69.32    2.33 
   0   9   7   70.67    2.52 
   0   9  -7   71.45    2.44 
   0  -9   8   38.15    1.95 
   0   9   8   36.37    1.92 
   0   9   8   37.78    2.02 
   0   9  -8   33.57    2.12 
   0  -9   9  247.30    4.64 
   0   9   9  243.09    4.45 
   0   9   9  251.78    4.70 
   0   9  -9  248.05    4.55 
   0  -9  10    5.05    1.36 
   0   9  10    5.79    1.28 
   0   9  10    7.37    1.42 
   0   9 -10    6.64    1.36 
   0  -9  11   48.44    2.10 
   0   9  11   54.38    2.10 
   0   9  11   48.87    2.29 
   0  -9  12    3.25    1.58 
   0   9  12    4.43    1.40 
   0   9  12    1.39    1.52 
   0  -9  13   48.23    2.17 
   0   9  13   47.03    2.04 
   0   9  13   48.20    2.32 
   0  -9  14    3.41    1.48 
   0   9  14   -0.31    1.33 
   0   9  14    3.01    1.55 
   0   9 -14    0.37    1.44 
   0  -9  15  264.61    5.65 
   0   9  15  265.67    5.48 
   0   9  15  276.83    5.90 
   0   9 -15  261.24    5.45 
   0  -9  16   17.54    1.95 
   0   9  16   20.47    1.76 
   0   9  16   17.94    1.94 
   0   9 -16   20.46    1.92 
   0  -9  17    8.32    1.84 
   0   9  17    7.71    1.59 
   0   9  17    4.76    1.70 
   0   9 -17    7.21    1.66 
   0  -9  18  107.92    3.10 
   0   9  18  107.50    2.77 
   0   9  18  113.85    3.12 
   0   9 -18  101.37    2.97 
   0  -9  19    2.82    1.60 
   0   9  19    0.64    1.40 
   0   9  19    1.40    1.60 
   0   9 -19    1.99    1.75 
   0  -9  20   11.29    1.98 
   0   9  20   12.89    1.85 
   0   9  20   12.84    1.75 
   0   9 -20   13.45    1.78 
   0  -9  21   64.45    2.64 
   0   9  21   63.32    2.58 
   0   9 -21   64.75    2.53 
   0  10   0  565.09    7.64 
   0  10   0  566.64    6.16 
   0  10   1    1.71    1.26 
   0  10  -1    1.62    1.43 
   0  10   1    2.31    1.61 
   0  10  -1    2.53    1.56 
   0  10   2  152.03    3.57 
   0  10  -2  159.90    3.73 
   0  10   2  160.25    3.74 
   0  10  -2  154.91    3.65 
   0  10   3   19.33    1.59 
   0  10  -3   19.29    1.82 
   0  10   3   18.58    1.76 
   0  10  -3   16.29    1.71 
   0  10   4   36.53    1.95 
   0  10  -4   36.98    2.05 
   0  10   4   33.03    2.08 
   0  10  -4   34.44    2.09 
   0  10   5    1.15    1.30 
   0  10  -5    0.88    1.43 
   0  10   5    1.00    1.67 
   0  10  -5    2.15    1.40 
   0  10   6  412.25    5.22 
   0  10   6  419.77    5.46 
   0  10  -6  410.34    5.26 
   0 -10   7   -0.14    1.32 
   0  10   7    1.78    1.21 
   0  10   7    1.51    1.38 
   0  10  -7    0.21    1.41 
   0 -10   8   32.71    1.96 
   0  10   8   32.69    1.79 
   0  10   8   35.45    2.09 
   0  10  -8   29.56    1.89 
   0 -10   9   15.58    1.64 
   0  10   9   19.43    1.55 
   0  10   9   20.52    1.96 
   0  10  -9   21.84    1.91 
   0 -10  10    9.47    1.57 
   0  10  10   12.47    1.60 
   0  10  10    8.63    1.76 
   0  10 -10   10.18    1.65 
   0 -10  11   21.50    1.82 
   0  10  11   26.57    1.87 
   0  10  11   24.81    2.09 
   0 -10  12   47.08    2.38 
   0  10  12   45.57    2.07 
   0  10  12   44.64    2.37 
   0 -10  13   63.94    2.56 
   0  10  13   65.21    2.34 
   0  10  13   64.42    2.68 
   0 -10  14    0.23    1.57 
   0  10  14    1.11    1.51 
   0  10  14    2.67    1.64 
   0 -10  15    1.86    1.73 
   0  10  15    2.32    1.56 
   0  10  15    1.49    1.72 
   0  10 -15    1.41    1.62 
   0 -10  16   90.74    3.13 
   0  10  16   87.26    2.88 
   0  10  16   92.82    3.26 
   0  10 -16   86.65    3.13 
   0 -10  17   -0.28    1.72 
   0  10  17    1.45    1.46 
   0  10  17    1.63    1.67 
   0  10 -17    4.24    1.74 
   0 -10  18   13.65    1.95 
   0  10  18   18.60    1.86 
   0  10  18   17.15    1.85 
   0  10 -18   14.16    1.90 
   0  11   0    1.17    1.50 
   0  11   0    0.38    1.68 
   0  11   1   58.21    2.28 
   0  11  -1   58.52    2.37 
   0  11   1   61.63    2.44 
   0  11  -1   55.49    2.45 
   0  11   2   12.86    1.47 
   0  11  -2   14.72    1.62 
   0  11   2   14.97    1.82 
   0  11  -2   13.22    1.83 
   0  11   3   31.29    1.96 
   0  11  -3   31.52    2.07 
   0  11   3   30.34    2.13 
   0  11  -3   30.77    2.06 
   0  11   4   21.07    1.72 
   0  11  -4   16.52    1.74 
   0  11   4   15.76    1.79 
   0  11  -4   19.11    1.95 
   0  11   5    6.38    1.55 
   0  11  -5    6.71    1.60 
   0  11   5    6.05    1.47 
   0  11  -5    5.36    1.62 
   0  11   6    2.99    1.34 
   0  11  -6    3.60    1.53 
   0  11   6    1.46    1.62 
   0  11  -6    3.36    1.52 
   0  11   7  128.16    3.47 
   0  11  -7  133.12    3.74 
   0  11   7  137.36    3.83 
   0  11  -7  134.44    3.73 
   0  11   8   10.30    1.60 
   0  11   8    9.09    1.87 
   0  11  -8    6.07    1.58 
   0 -11   9  248.46    4.61 
   0  11   9  244.37    4.29 
   0  11   9  253.48    4.74 
   0  11  -9  243.46    4.45 
   0 -11  10    0.36    1.57 
   0  11  10   -1.33    1.40 
   0  11  10   -1.51    1.69 
   0  11 -10    0.68    1.79 
   0 -11  11    2.40    1.64 
   0  11  11    4.40    1.50 
   0  11  11    4.52    1.79 
   0  11 -11    1.85    1.71 
   0 -11  12    3.22    1.60 
   0  11  12    3.89    1.42 
   0  11  12    2.54    1.65 
   0 -11  13  110.45    3.44 
   0  11  13  106.37    3.18 
   0  11  13  109.22    3.55 
   0 -11  14    5.13    1.65 
   0  11  14    5.02    1.49 
   0  11  14    0.04    1.67 
   0 -11  15  147.04    3.50 
   0  11  15  144.73    3.09 
   0  11  15  140.52    3.47 
   0  11 -15  139.91    3.36 
   0  12   0  215.02    3.86 
   0  12   0  224.81    4.04 
   0  12   1    1.11    1.44 
   0  12  -1    0.34    1.58 
   0  12   1    0.68    1.63 
   0  12  -1    3.29    1.81 
   0  12   2  112.75    2.98 
   0  12  -2  108.70    2.96 
   0  12   2  111.32    3.07 
   0  12  -2  104.28    2.92 
   0  12   3    1.21    1.33 
   0  12  -3   -0.49    1.50 
   0  12   3   -2.55    1.53 
   0  12  -3   -0.07    1.62 
   0  12   4   24.23    1.88 
   0  12  -4   25.76    1.87 
   0  12   4   31.14    2.34 
   0  12  -4   26.63    2.07 
   0  12   5    8.28    1.59 
   0  12  -5    9.69    1.67 
   0  12   5    9.99    1.92 
   0  12  -5   12.02    1.81 
   0  12   6  116.76    3.45 
   0  12  -6  116.25    3.61 
   0  12   6  116.78    3.63 
   0  12  -6  116.82    3.58 
   0  12   7   15.77    1.81 
   0  12  -7   14.01    1.91 
   0  12   7   12.72    1.97 
   0  12  -7   18.23    2.01 
   0  12   8    4.17    1.50 
   0  12  -8    4.67    1.65 
   0  12   8    5.66    1.78 
   0  12  -8    5.50    1.91 
   0  12   9    1.28    1.34 
   0  12  -9   -0.08    1.62 
   0  12   9   -1.80    1.59 
   0  12  -9   -0.86    1.65 
   0  12  10    3.40    1.44 
   0  12  10    2.26    1.70 
   0  12 -10    5.65    1.91 
   0 -12  11   57.02    2.43 
   0  12  11   59.97    2.30 
   0  12  11   58.71    2.64 
   0  12 -11   57.12    2.66 
  -1   0  29   13.93    2.00 
   1   0 -29   15.39    1.63 
  -1   0  28   -2.39    1.55 
   1   0 -28   -0.24    1.49 
  -1   0  27   62.22    2.35 
   1   0 -27   58.85    2.25 
  -1   0  26    0.29    1.46 
   1   0 -26    1.06    1.44 
  -1   0  25  321.97    6.28 
   1   0 -25  323.51    6.14 
  -1   0  24    1.54    1.33 
   1   0 -24   -0.78    1.44 
  -1   0  23   37.52    1.93 
   1   0 -23   37.24    1.82 
  -1   0  22   -0.95    1.19 
   1   0 -22    0.27    1.21 
  -1   0  21   11.06    1.63 
   1   0 -21   12.83    1.48 
  -1   0  20    0.41    1.37 
  -1   0  19  970.85    8.03 
  -1   0  18    0.06    1.03 
  -1   0  17  546.45    8.99 
  -1   0  16   -0.31    1.00 
  -1   0  15    8.07    1.06 
   1   0 -15   10.49    1.20 
   1   0 -15   11.18    1.34 
  -1   0  14    0.64    0.94 
   1   0 -14   -0.34    1.04 
  -1   0  14    0.49    0.98 
   1   0 -14    1.21    0.84 
  -1   0  13  501.22    6.95 
   1   0 -13  494.02    6.73 
  -1   0  13  505.85    7.45 
   1   0 -13  513.80    7.62 
  -1   0  12    0.80    0.81 
   1   0 -12    0.57    0.83 
  -1   0  12    0.23    0.74 
   1   0 -12   -0.20    0.93 
  -1   0  11   16.99    1.16 
   1   0 -11   17.91    1.31 
  -1   0  11   16.37    1.36 
  -1   0  10    0.08    0.60 
  -1   0  10    1.11    0.85 
  -1   0   9    2.06    0.75 
   1   0  -9    2.28    0.89 
  -1   0   9    2.09    0.82 
  -1   0   8    0.18    0.70 
   1   0  -8    0.33    0.71 
  -1   0   8    0.41    0.69 
   1   0  -8    0.28    0.95 
  -1   0   7    2.22    0.77 
   1   0  -7    1.85    0.74 
  -1   0   7    2.53    0.89 
   1   0  -7    2.63    0.96 
  -1   0   6    1.10    0.73 
   1   0  -6    0.71    0.71 
  -1   0   6    0.91    0.87 
   1   0  -6    0.47    0.89 
   1   0  -5  252.69    4.51 
  -1   0   5  255.97    5.07 
   1   0  -5  254.06    4.98 
   1   0  -4    0.20    0.65 
  -1   0   4    0.05    0.77 
   1   0  -4    0.14    0.96 
   1   0  -3   18.49    1.24 
   1   0  -3   20.76    1.49 
   1   0  -2    0.10    0.69 
   1   0  -2    0.42    0.87 
   1   0  -2    0.40    0.88 
   1   0  -1    0.33    1.25 
   1   0  -1    1.46    0.86 
   1   0  -1    1.06    0.96 
   1   0   0    1.02    1.50 
   1   0   0    0.57    1.39 
   1   0   0    0.25    0.84 
   1   0   1    3.21    0.88 
  -1   0  -1    2.58    1.14 
   1   0   1    2.62    1.11 
   1   0   1    2.05    0.96 
   1   0   2    0.68    0.68 
  -1   0  -2    1.05    0.81 
   1   0   2    0.60    0.75 
   1   0   2    0.08    0.93 
   1   0   3  197.22    4.04 
  -1   0  -3  189.75    4.04 
   1   0   3  200.80    4.18 
   1   0   4    0.78    0.71 
  -1   0  -4    0.43    0.95 
  -1   0  -4    0.97    0.82 
   1   0   4    0.87    0.88 
   1   0   5 4861.33   46.30 
  -1   0  -5 4720.05   51.36 
   1   0   5 4793.12   45.05 
   1   0   6    1.01    0.75 
  -1   0  -6    0.58    0.71 
  -1   0  -6    0.16    0.68 
   1   0   6    0.21    0.74 
   1   0   7  163.67    9.82 
  -1   0  -7  180.63    3.99 
   1   0   7  186.07    3.65 
  -1   0  -8    0.05    0.82 
  -1   0  -8    1.26    0.79 
   1   0   8    1.20    0.75 
   1   0   9  182.11    3.71 
  -1   0  -9  194.68    4.08 
  -1   0  -9  188.57    3.89 
   1   0   9  200.57    3.65 
   1   0  10    0.08    0.87 
  -1   0 -10    0.82    0.73 
  -1   0 -10    0.32    0.71 
   1   0  11  497.91    6.49 
  -1   0 -11  509.22    6.61 
  -1   0 -11  493.04    6.22 
   1   0  12    0.36    0.81 
  -1   0 -12   -0.22    0.75 
  -1   0 -12    0.47    0.74 
   1   0  13  177.55    3.93 
  -1   0 -13  181.17    3.92 
  -1   0 -13  182.77    3.82 
   1   0  14    1.70    1.00 
  -1   0 -14    0.35    0.82 
  -1   0 -14   -0.82    0.96 
   1   0  15   13.76    1.29 
  -1   0 -15   14.76    1.26 
  -1   0 -15   16.56    1.39 
   1   0  16    1.12    0.98 
  -1   0 -16    1.04    0.85 
  -1   0 -16    1.02    1.03 
   1   0  17  636.21   10.18 
  -1   0 -17  615.73   10.17 
  -1   0 -17  625.13   10.10 
   1   0  18   -0.28    1.09 
  -1   0 -18    1.05    0.96 
  -1   0 -18    0.51    1.19 
   1   0  19  452.21    6.75 
  -1   0 -19  424.98    6.61 
  -1   0 -19  436.87    6.61 
   1   0  20   -0.80    1.18 
  -1   0 -20    0.17    1.28 
   1   0  21    5.11    1.38 
  -1   0 -21    5.66    1.30 
   1   0  22   -1.43    1.34 
  -1   0 -22    0.57    1.33 
   1   0  23  229.22    3.98 
  -1   0 -23  234.03    3.98 
   1   0  24    0.91    1.41 
  -1   0 -24   -0.60    1.65 
   1   0  25   86.29    3.01 
  -1   0 -25   94.49    3.10 
   1   0  26    2.75    1.78 
  -1   0 -26    0.62    1.68 
   1   0  27  262.65    5.86 
  -1   0 -27  282.98    4.38 
   1   0  28    1.01    1.70 
  -1   0 -28    2.27    1.86 
  -1  -1  29   21.13    1.84 
  -1   1  29   22.22    2.01 
   1   1 -29   25.41    1.94 
   1  -1 -29   25.73    1.98 
  -1  -1  28   26.27    2.09 
  -1   1  28   25.29    1.92 
   1   1 -28   30.23    1.97 
   1  -1 -28   28.32    1.99 
  -1  -1  27   14.09    1.78 
  -1   1  27   16.59    1.78 
   1   1 -27   18.06    1.74 
   1  -1 -27   17.60    1.63 
  -1  -1  26   20.20    1.95 
  -1   1  26   17.09    1.68 
   1   1 -26   16.89    1.72 
   1  -1 -26   18.20    1.70 
  -1  -1  25    1.40    1.57 
  -1   1  25    2.07    1.47 
   1   1 -25   -0.09    1.32 
   1  -1 -25    1.51    1.44 
  -1  -1  24    1.74    1.51 
  -1   1  24    2.90    1.48 
   1   1 -24    2.73    1.26 
   1  -1 -24    3.29    1.50 
  -1  -1  23    3.07    1.40 
  -1   1  23    3.97    1.48 
   1   1 -23    3.13    1.31 
  -1  -1  22   13.44    1.57 
  -1   1  22   13.72    1.49 
   1   1 -22   13.99    1.39 
  -1  -1  21   18.54    1.66 
  -1   1  21   17.48    1.55 
   1   1 -21   16.04    1.45 
  -1  -1  20  112.20    2.76 
  -1   1  20  121.99    2.88 
   1   1 -20  119.62    2.62 
  -1  -1  19   42.29    1.89 
  -1   1  19   48.96    1.95 
  -1   1  19   44.34    2.20 
   1   1 -19   52.56    1.97 
  -1   1  18    3.52    1.07 
  -1   1  18    1.76    1.16 
   1   1 -18    2.64    0.86 
  -1   1  17   46.65    2.04 
  -1   1  17   46.98    2.07 
  -1   1  16  221.22    4.16 
  -1   1  16  217.34    4.54 
  -1   1  15    0.81    0.96 
   1  -1 -15    0.05    0.95 
  -1   1  15    1.05    0.98 
   1   1 -15    1.71    1.11 
   1  -1 -15    1.71    0.98 
  -1   1  14    0.53    0.85 
   1   1 -14    1.53    1.09 
   1  -1 -14   -0.18    0.82 
  -1   1  14    1.23    1.10 
   1   1 -14    0.64    0.91 
   1  -1 -14    0.14    0.98 
  -1   1  13    0.11    0.67 
   1   1 -13    0.18    0.74 
   1  -1 -13   -0.87    0.79 
  -1   1  13    1.91    1.07 
   1   1 -13   -0.02    1.01 
   1  -1 -13   -0.08    0.80 
  -1   1  12  271.90    4.27 
   1   1 -12  279.45    4.18 
   1  -1 -12  278.39    4.21 
  -1   1  12  263.89    4.76 
   1  -1 -12  280.69    4.68 
  -1   1  11   50.73    1.88 
   1   1 -11   54.36    1.88 
   1  -1 -11   52.74    1.85 
  -1   1  11   54.44    2.21 
  -1   1  10 1381.39   15.14 
   1   1 -10 1408.11   15.03 
   1  -1 -10 1389.60   15.02 
  -1   1  10 1372.20   15.95 
   1   1  -9    2.19    0.79 
  -1   1   9    0.83    0.74 
   1  -1  -9    1.53    0.85 
   1   1  -9    0.64    0.91 
  -1   1   9    2.13    0.82 
   1   1  -8   19.99    1.25 
  -1   1   8   20.34    1.26 
   1  -1  -8   18.25    1.28 
   1   1  -8   20.27    1.43 
  -1   1   8   18.21    1.34 
   1   1  -7  564.44    7.86 
  -1   1   7  545.41    7.82 
   1  -1  -7  535.65    7.68 
   1   1  -7  559.82    8.32 
  -1   1   7  559.39    8.51 
   1  -1  -7  550.54    8.25 
   1   1  -6 3003.04   32.52 
  -1   1   6 2958.59   32.63 
   1   1  -6 2873.50   31.84 
  -1   1   6 2945.59   33.41 
   1  -1  -6 2850.77   31.70 
   1   1  -5 1668.20   19.21 
  -1   1   5 1666.23   19.30 
   1  -1  -5 1567.00   18.24 
   1   1  -5 1641.08   19.50 
  -1   1   5 1571.21   19.01 
   1  -1  -5 1634.55   19.41 
   1   1  -4 4271.45   46.09 
  -1   1   4 4242.32   45.52 
   1   1  -4 4393.26   47.49 
  -1   1   4 4151.73   44.86 
   1  -1  -4 4218.69   45.47 
   1   1  -3  527.19    7.75 
  -1   1   3  516.03    7.56 
   1  -1  -3  514.03    7.50 
   1   1  -3  520.64    7.88 
  -1   1   3  504.38    7.83 
   1  -1  -3  516.62    7.87 
   1   1  -2  592.00    8.48 
  -1   1   2  622.88    8.65 
   1  -1  -2  567.20    7.99 
   1  -1  -2  600.55    8.76 
   1  -1  -2  595.82    9.11 
   1   1  -1   74.36    2.45 
   1  -1  -1   60.42    1.94 
   1  -1  -1   67.48    2.37 
  -1   1   1   71.19    2.68 
  -1  -1   1   69.80    2.88 
   1  -1  -1   72.30    2.69 
   1   1  -1   66.98    2.85 
   1   1   0  130.99    3.27 
   1  -1   0  130.81    3.46 
   1   1   0  126.89    3.31 
   1  -1   0  131.97    3.30 
  -1   1   0  140.06    3.77 
   1  -1   0  134.78    3.67 
  -1  -1   0  123.91    3.49 
   1   1   0  130.04    3.44 
   1  -1   1    6.77    1.27 
  -1   1  -1    5.80    1.06 
   1   1   1    5.39    1.03 
   1  -1   1    5.11    0.96 
   1   1   1    5.77    1.25 
  -1   1  -1    5.88    1.20 
   1  -1   1    5.55    1.17 
   1   1   1    5.44    0.95 
   1  -1   2 2507.18   27.70 
  -1   1  -2 2428.52   27.20 
   1   1   2 2521.56   28.43 
  -1   1  -2 2470.37   27.74 
   1  -1   2 2465.28   27.67 
   1   1   2 2570.57   28.55 
  -1   1  -2 2545.54   29.29 
   1  -1   2 2427.18   27.75 
   1   1   2 2452.80   27.29 
   1  -1   3 1138.40   14.00 
  -1   1  -3 1084.60   13.51 
   1   1   3 1137.31   14.21 
   1   1   3 1129.62   15.44 
  -1   1  -3 1123.03   14.02 
   1  -1   3 1065.59   15.63 
  -1   1  -3 1121.72   14.60 
   1  -1   3 1100.36   14.11 
   1   1   3 1115.60   14.39 
   1  -1   4   89.32    2.50 
  -1   1  -4   86.98    2.46 
   1   1   4   89.44    2.57 
   1   1   4   90.83    2.83 
  -1  -1  -4   82.83    2.56 
  -1   1  -4   87.34    2.54 
   1  -1   4   85.18    2.53 
  -1   1  -4   87.48    2.85 
   1  -1   4   85.77    2.66 
   1   1   4   85.99    2.34 
   1  -1   5    1.88    0.70 
  -1   1  -5    1.42    0.82 
   1   1   5    2.23    0.74 
   1   1   5    1.64    1.22 
  -1  -1  -5    1.70    1.27 
  -1   1  -5    2.33    0.73 
  -1   1  -5    1.88    0.91 
   1  -1   5    2.25    0.86 
   1   1   5    2.09    0.73 
   1  -1   6  383.97    6.22 
  -1   1  -6  405.16    6.22 
   1   1   6  393.87    6.28 
   1   1   6  419.36    6.83 
  -1  -1  -6  371.03    6.24 
  -1   1  -6  398.31    6.36 
  -1   1  -6  389.14    6.54 
   1  -1   6  381.39    6.12 
   1  -1   7  427.29    6.56 
  -1   1  -7  449.86    6.70 
   1   1   7  460.42    6.95 
   1   1   7  437.93    7.04 
  -1  -1  -7  433.34    6.97 
  -1   1  -7  458.06    7.06 
  -1   1  -7  461.46    7.31 
   1  -1   7  446.75    6.75 
   1  -1   8   16.45    1.21 
  -1   1  -8   15.94    1.24 
   1   1   8   15.23    1.18 
   1   1   8   17.11    1.25 
  -1  -1  -8   16.53    1.29 
  -1   1  -8   17.69    1.25 
  -1   1  -8   16.70    1.29 
   1  -1   8   17.38    1.22 
   1  -1   9  256.61    4.68 
  -1   1  -9  260.27    4.44 
   1   1   9  276.90    4.74 
   1   1   9  272.87    4.92 
  -1  -1  -9  262.95    4.85 
  -1   1  -9  260.41    4.67 
  -1   1  -9  266.94    4.85 
   1  -1  10   49.98    1.92 
   1   1  10   46.35    1.83 
  -1   1 -10   51.28    1.82 
   1   1  10   50.91    2.02 
  -1  -1 -10   50.65    1.99 
  -1   1 -10   51.32    2.00 
  -1   1 -10   50.09    2.00 
   1  -1  11   23.40    1.40 
   1   1  11   23.90    1.36 
  -1   1 -11   27.33    1.47 
  -1  -1 -11   24.38    1.37 
  -1   1 -11   27.46    1.50 
  -1  -1 -11   26.77    1.56 
  -1   1 -11   27.11    1.60 
   1  -1  12  629.39    8.21 
   1   1  12  632.42    8.50 
  -1   1 -12  652.20    8.37 
  -1  -1 -12  613.05    8.02 
  -1   1 -12  635.66    8.55 
  -1  -1 -12  620.09    8.39 
  -1   1 -12  641.52    8.58 
   1  -1  13   21.10    1.42 
   1   1  13   18.63    1.44 
  -1   1 -13   19.52    1.28 
  -1  -1 -13   16.48    1.26 
  -1   1 -13   19.52    1.37 
  -1  -1 -13   20.25    1.40 
  -1   1 -13   19.33    1.45 
   1  -1  14  189.66    4.09 
   1   1  14  173.00    4.22 
  -1   1 -14  186.15    3.83 
  -1   1 -14  183.87    4.09 
  -1  -1 -14  186.78    4.17 
  -1   1 -14  193.31    4.19 
  -1  -1 -14  174.94    3.98 
   1  -1  15  113.01    3.00 
   1   1  15  109.62    3.11 
  -1   1 -15  113.77    3.09 
  -1  -1 -15  116.53    3.15 
  -1   1 -15  120.59    3.23 
  -1  -1 -15  116.14    3.03 
   1  -1  16    3.96    1.10 
  -1   1 -16    3.38    1.00 
  -1  -1 -16    3.04    0.91 
  -1   1 -16    3.04    1.16 
  -1  -1 -16    4.12    1.01 
   1  -1  17   16.30    1.43 
  -1   1 -17   15.39    1.35 
  -1  -1 -17   14.02    1.29 
  -1   1 -17   15.48    1.49 
  -1  -1 -17   13.99    1.45 
   1  -1  18   83.73    2.61 
   1   1  18   85.30    2.63 
  -1   1 -18   86.98    2.73 
  -1  -1 -18   86.74    2.70 
  -1   1 -18   89.36    2.87 
  -1  -1 -18   83.41    2.59 
   1  -1  19    3.31    1.22 
   1   1  19    3.08    1.26 
  -1   1 -19    5.34    1.15 
  -1  -1 -19    5.95    1.00 
  -1   1 -19    6.22    1.35 
  -1  -1 -19    2.62    1.18 
   1  -1  20  310.58    4.44 
   1   1  20  305.96    4.61 
  -1  -1 -20  302.11    4.49 
  -1   1 -20  308.24    4.58 
  -1  -1 -20  312.69    4.44 
   1  -1  21   15.46    1.54 
   1   1  21   18.69    1.56 
  -1   1 -21   14.62    1.69 
  -1  -1 -21   17.04    1.70 
   1  -1  22  138.64    3.23 
   1   1  22  132.40    3.25 
  -1   1 -22  144.87    3.52 
  -1  -1 -22  132.56    3.21 
   1  -1  23    6.88    1.51 
   1   1  23    5.19    1.71 
  -1   1 -23    7.16    1.54 
  -1  -1 -23    7.90    1.60 
   1  -1  24   89.42    2.63 
   1   1  24   95.42    2.77 
  -1   1 -24   88.35    2.64 
  -1   1 -24   97.04    2.88 
  -1  -1 -24   92.42    2.66 
   1  -1  25    3.33    1.57 
   1   1  25    1.26    1.58 
  -1   1 -25    0.06    1.26 
  -1   1 -25   -1.21    1.62 
  -1  -1 -25    0.71    1.64 
   1  -1  26  136.66    3.15 
   1   1  26  136.06    3.21 
  -1   1 -26  124.83    3.31 
  -1   1 -26  141.96    3.38 
  -1  -1 -26  139.07    3.24 
   1  -1  27   51.11    2.32 
   1   1  27   55.92    2.47 
  -1   1 -27   55.61    2.19 
  -1   1 -27   58.99    2.66 
  -1  -1 -27   59.92    2.71 
   1  -1  28   22.42    1.93 
   1   1  28   20.27    1.82 
  -1   1 -28   21.38    1.73 
  -1   1 -28   22.30    2.13 
  -1  -1 -28   24.32    2.18 
  -1  -2  28    2.07    1.67 
  -1   2  28    1.34    1.71 
   1   2 -28    1.17    1.48 
   1  -2 -28    0.30    1.47 
  -1   2  27   44.78    2.17 
   1   2 -27   47.56    2.12 
   1  -2 -27   45.95    2.11 
  -1   2  26    7.72    1.60 
   1   2 -26    5.22    1.56 
   1  -2 -26    5.09    1.59 
  -1   2  25  192.60    4.42 
   1   2 -25  203.42    4.52 
   1  -2 -25  217.00    4.64 
  -1   2  24    4.24    1.60 
   1   2 -24    5.06    1.43 
  -1   2  23   67.08    2.34 
  -1   2  23   65.60    2.45 
   1   2 -23   68.35    2.35 
  -1   2  22   40.89    2.00 
  -1   2  22   34.87    2.04 
   1   2 -22   39.92    1.86 
  -1   2  21    9.06    1.37 
  -1   2  21    7.71    1.35 
   1   2 -21   12.47    1.30 
  -1   2  20    0.72    1.10 
  -1   2  20   -0.07    1.18 
   1   2 -20    0.83    0.93 
  -1   2  19  317.81    5.30 
  -1   2  19  328.12    5.78 
   1   2 -19  307.34    4.95 
  -1   2  18   31.68    1.76 
  -1   2  18   28.88    1.90 
   1   2 -18   29.56    1.44 
  -1   2  17   61.61    2.27 
  -1   2  17   62.30    2.53 
   1   2 -17   65.73    2.19 
  -1   2  16    5.97    1.03 
  -1   2  16    6.28    1.30 
   1   2 -16    6.29    1.19 
  -1   2  15   52.75    2.07 
   1  -2 -15   54.53    1.95 
  -1   2  15   51.74    2.22 
   1  -2 -15   52.03    2.09 
   1   2 -15   52.95    1.93 
   1   2 -14   92.33    2.49 
  -1   2  14   89.05    2.59 
   1  -2 -14   90.38    2.47 
   1   2 -14   88.70    2.69 
  -1   2  14   84.73    2.81 
   1  -2 -14   92.30    2.80 
   1   2 -14   93.52    2.46 
   1   2 -13  537.58    7.01 
  -1   2  13  507.73    7.21 
   1  -2 -13  539.97    7.17 
  -1   2  13  505.80    7.60 
   1  -2 -13  511.18    7.63 
   1   2 -13  517.72    6.80 
   1   2 -12  439.43    6.07 
  -1   2  12  444.35    6.35 
   1  -2 -12  445.39    6.32 
  -1   2  12  422.79    6.79 
   1  -2 -12  431.82    6.70 
   1   2 -11  703.50    7.18 
  -1   2  11  651.11    7.11 
   1  -2 -11  680.91    7.16 
  -1   2  11  666.35    8.37 
   1  -2 -11  669.96    7.79 
   1   2 -10    6.92    0.94 
  -1   2  10    7.20    1.56 
   1  -2 -10    8.04    0.98 
   1   2 -10    6.73    0.98 
  -1   2  10    8.28    1.17 
   1   2  -9   41.95    1.63 
  -1   2   9   38.19    1.71 
   1  -2  -9   43.46    1.72 
   1   2  -9   44.70    1.91 
  -1   2   9   44.22    2.02 
  -1  -2   8   11.78    1.14 
   1   2  -8   11.51    1.05 
  -1   2   8   12.78    1.18 
   1  -2  -8   12.34    1.05 
  -1   2   8   10.98    1.16 
  -1  -2   7  118.27    2.97 
   1   2  -7  130.16    3.02 
  -1   2   7  126.72    7.03 
   1  -2  -7  125.91    2.98 
  -1   2   7  129.64    3.36 
  -1  -2   6   33.56    1.59 
   1   2  -6   37.23    1.64 
  -1   2   6   37.21    1.67 
   1  -2  -6   35.84    1.61 
  -1   2   6   30.79    1.71 
   1  -2  -6   38.34    1.79 
  -1  -2   5   17.43    1.26 
   1   2  -5   19.42    1.28 
  -1   2   5   17.96    1.26 
   1  -2  -5   18.64    1.22 
  -1   2   5   18.65    1.36 
   1  -2  -5   20.32    1.41 
  -1  -2   4  121.84    3.11 
   1   2  -4  128.17    3.08 
  -1   2   4  132.24    3.10 
   1  -2  -4  132.56    3.14 
  -1   2   4  130.34    3.35 
   1  -2  -4  124.18    3.27 
  -1  -2   3  321.04    5.63 
   1   2  -3  337.47    5.65 
  -1   2   3  349.22    5.67 
   1  -2  -3  336.48    5.69 
  -1   2   3  353.25    6.18 
   1  -2  -3  329.60    5.94 
  -1  -2   2  135.12    3.43 
   1   2  -2  148.86    3.47 
  -1   2   2  155.29    3.56 
   1  -2  -2  134.22    3.41 
  -1   2   2  145.07    3.54 
   1  -2  -2  145.56    3.46 
   1   2  -2  145.29    3.42 
   1  -2  -2  136.29    3.65 
   1   2  -2  136.99    3.65 
  -1  -2   1  173.87    3.88 
   1   2  -1  180.84    3.92 
  -1   2   1  182.04    3.95 
  -1   2   1  185.61    4.03 
   1  -2  -1  176.80    3.86 
   1   2  -1  185.21    3.91 
  -1   2   1  188.63    4.42 
  -1  -2   1  188.25    4.56 
   1  -2  -1  162.37    4.03 
   1   2  -1  172.63    3.92 
   1   2   0  260.29    4.90 
   1  -2   0  297.73    5.40 
  -1   2   0  269.53    4.90 
   1   2   0  270.36    5.17 
   1  -2   0  276.45    5.00 
   1   2   0  291.24    5.17 
  -1  -2   0  274.27    4.98 
  -1   2   0  277.76    5.58 
  -1  -2   0  277.67    5.43 
   1   2   0  266.92    4.75 
   1  -2   1  392.12    6.44 
  -1   2  -1  371.05    5.92 
   1   2   1  388.82    6.51 
  -1  -2  -1  377.64    6.58 
   1  -2   1  366.14    6.08 
   1   2   1  389.75    6.27 
  -1  -2  -1  377.86    6.12 
  -1   2  -1  374.26    6.74 
  -1  -2  -1  388.04    6.40 
   1  -2   2   68.45    2.18 
  -1   2  -2   66.41    2.09 
   1   2   2   69.00    2.37 
  -1  -2  -2   65.41    2.33 
   1   2   2   67.43    2.23 
   1  -2   2   65.69    2.17 
  -1  -2  -2   66.99    2.20 
  -1   2  -2   69.38    2.62 
  -1  -2  -2   68.70    2.24 
   1  -2   3 2396.76   27.24 
  -1   2  -3 2368.37   26.20 
   1   2   3 2332.47   26.73 
  -1  -2  -3 2410.06   27.06 
   1   2   3 2469.94   27.69 
  -1   2  -3 2356.19   26.51 
  -1  -2  -3 2348.79   26.27 
   1  -2   3 2354.69   26.61 
  -1   2  -3 2370.57   27.80 
  -1  -2  -3 2432.79   27.10 
   1  -2   4 1090.40   13.57 
  -1   2  -4 1060.09   13.09 
   1   2   4 1065.27   14.14 
  -1  -2  -4 1092.86   13.74 
   1   2   4 1080.67   13.75 
  -1  -2  -4 1063.28   13.30 
  -1   2  -4 1120.11   13.94 
  -1   2  -4 1073.47   14.19 
  -1  -2  -4 1103.88   13.68 
   1  -2   5  143.59    3.22 
  -1   2  -5  138.70    3.13 
   1   2   5  140.25    3.37 
  -1  -2  -5  140.00    3.36 
   1   2   5  139.45    3.45 
  -1  -2  -5  138.94    3.31 
  -1   2  -5  140.86    3.31 
   1  -2   5  138.07    3.53 
  -1   2  -5  135.40    3.52 
  -1  -2  -5  134.42    3.06 
   1  -2   6   11.92    1.03 
  -1   2  -6   12.44    1.21 
   1   2   6   11.57    1.09 
  -1  -2  -6   12.45    1.19 
   1   2   6   12.87    1.19 
  -1  -2  -6   11.16    1.09 
  -1   2  -6   12.98    1.14 
   1  -2   6   10.39    1.06 
  -1   2  -6   10.79    1.17 
  -1  -2  -6   11.53    1.00 
   1  -2   7  105.39    2.90 
  -1   2  -7  113.38    2.77 
   1   2   7  115.32    2.87 
  -1  -2  -7  113.32    2.90 
   1   2   7  117.48    3.10 
  -1  -2  -7  111.25    2.90 
  -1   2  -7  115.08    2.90 
  -1   2  -7  118.03    3.20 
  -1  -2  -7  107.48    3.06 
   1  -2   8   11.49    1.04 
  -1   2  -8   11.23    1.18 
   1   2   8   11.01    1.12 
  -1  -2  -8   11.53    1.10 
   1   2   8   11.72    1.15 
  -1  -2  -8   10.92    1.08 
  -1   2  -8   11.53    1.17 
  -1   2  -8   11.25    1.20 
  -1  -2  -8    9.78    0.99 
   1  -2   9  363.98    5.58 
  -1   2  -9  371.02    5.59 
   1   2   9  373.27    5.71 
  -1  -2  -9  390.53    5.94 
   1   2   9  366.73    6.08 
  -1  -2  -9  374.30    5.97 
  -1   2  -9  373.98    5.93 
  -1   2  -9  375.96    6.21 
  -1  -2  -9  356.45    5.43 
   1  -2  10   46.44    1.80 
  -1   2 -10   48.01    1.84 
   1   2  10   46.97    1.77 
  -1  -2 -10   51.84    1.91 
   1   2  10   50.18    2.06 
  -1  -2 -10   47.26    1.88 
  -1   2 -10   46.79    1.86 
  -1   2 -10   48.80    1.97 
   1  -2  10   47.88    1.79 
  -1  -2 -10   44.14    1.65 
   1  -2  11  693.24   10.09 
  -1   2 -11  736.85    7.49 
  -1  -2 -11  761.42    7.89 
   1   2  11  761.90    8.66 
  -1  -2 -11  715.34    7.96 
  -1   2 -11  734.50    8.93 
  -1   2 -11  743.20    8.29 
   1  -2  11  741.50    7.37 
   1  -2  12    7.60    1.03 
  -1   2 -12    6.96    1.18 
   1   2  12    6.60    1.21 
  -1  -2 -12    6.73    1.05 
   1   2  12    6.27    1.00 
  -1  -2 -12    5.77    0.95 
  -1   2 -12    6.12    0.98 
  -1   2 -12    7.53    1.16 
   1  -2  12    6.41    0.94 
   1  -2  13    9.22    1.13 
  -1   2 -13   10.20    1.12 
   1   2  13    8.90    1.30 
  -1  -2 -13    9.70    1.07 
   1   2  13    9.08    1.11 
  -1  -2 -13    8.04    1.06 
  -1   2 -13    8.32    1.02 
  -1   2 -13    9.87    1.27 
   1  -2  13    9.49    0.96 
   1  -2  14   13.51    1.35 
   1   2  14   12.34    1.46 
  -1   2 -14   12.94    1.94 
  -1   2 -14   12.30    1.21 
   1   2  14   12.78    1.23 
  -1  -2 -14   13.28    1.19 
  -1   2 -14   12.83    1.25 
  -1   2 -14   13.19    1.35 
   1  -2  15   54.22    2.07 
   1   2  15   52.38    2.09 
   1   2  15   53.33    2.08 
  -1   2 -15   55.56    2.10 
  -1  -2 -15   55.11    2.11 
  -1   2 -15   53.17    2.05 
  -1   2 -15   54.79    2.16 
   1  -2  16    0.31    1.13 
   1   2  16    2.67    1.17 
   1   2  16    0.63    0.94 
  -1   2 -16    1.70    0.91 
  -1  -2 -16    1.29    0.88 
  -1   2 -16    0.94    0.98 
  -1   2 -16    1.09    1.19 
   1  -2  17  258.76    4.99 
   1   2  17  239.58    4.90 
  -1   2 -17  256.23    5.02 
  -1  -2 -17  253.80    5.06 
  -1   2 -17  251.53    5.00 
  -1   2 -17  253.85    5.14 
   1  -2  18   18.06    1.45 
   1   2  18   17.39    1.80 
  -1   2 -18   16.69    1.31 
  -1  -2 -18   14.58    1.38 
  -1   2 -18   15.03    1.31 
  -1   2 -18   17.05    1.54 
   1  -2  19  106.00    2.81 
   1   2  19   99.15    2.71 
  -1  -2 -19  103.79    2.72 
  -1   2 -19   99.45    2.60 
  -1   2 -19   96.52    2.72 
   1  -2  20   10.52    1.58 
   1   2  20    9.66    1.71 
  -1  -2 -20    9.61    1.16 
  -1   2 -20    9.32    1.43 
  -1   2 -20    8.95    1.55 
   1  -2  21    8.22    1.36 
   1   2  21   11.59    1.71 
  -1   2 -21    9.47    1.27 
  -1   2 -21    9.60    1.65 
   1  -2  22   39.83    2.00 
   1   2  22   37.10    2.16 
  -1   2 -22   34.46    1.84 
  -1   2 -22   37.41    2.10 
   1  -2  23    1.98    1.33 
   1   2  23   -0.62    1.67 
  -1   2 -23    3.37    1.37 
  -1   2 -23    1.03    1.44 
   1  -2  24   41.49    2.11 
   1   2  24   41.82    2.35 
  -1   2 -24   37.90    1.92 
  -1   2 -24   41.68    2.21 
   1  -2  25    2.53    1.59 
   1   2  25    2.24    1.93 
  -1   2 -25    3.40    1.35 
  -1   2 -25    1.98    1.70 
  -1  -2 -25    2.56    1.61 
   1  -2  26   47.02    2.14 
   1   2  26   46.88    2.29 
  -1   2 -26   45.97    1.99 
  -1   2 -26   49.16    2.45 
  -1  -2 -26   43.67    2.25 
   1  -2  27   13.34    1.89 
  -1   2 -27   11.42    1.64 
  -1   2 -27   14.48    1.95 
  -1  -2 -27   14.64    1.87 
   1  -2  28   13.10    1.89 
  -1   2 -28   13.23    1.50 
  -1   2 -28   15.51    2.08 
  -1  -2 -28   16.07    1.93 
  -1   3  28    2.05    1.61 
   1   3 -28    1.74    1.70 
   1   3 -28    1.91    1.63 
   1  -3 -28    4.34    1.73 
  -1   3  27   71.43    2.68 
   1   3 -27   74.01    2.76 
   1  -3 -27   74.72    2.67 
  -1   3  26    2.48    1.61 
   1   3 -26    0.92    1.48 
  -1   3  25    0.15    1.46 
  -1   3  25   -1.22    1.67 
   1   3 -25    0.95    1.30 
  -1   3  24   -0.51    1.40 
  -1   3  24    0.51    1.60 
   1   3 -24    0.04    1.26 
  -1   3  23  208.95    3.62 
  -1   3  23  212.02    4.09 
   1   3 -23  212.94    3.66 
  -1   3  22    5.64    1.57 
  -1   3  22    3.32    1.39 
   1   3 -22    4.72    1.42 
  -1   3  21  237.37    4.27 
  -1   3  21  219.62    4.38 
   1   3 -21  226.15    4.10 
  -1  -3  20   12.91    1.59 
  -1   3  20   12.12    1.45 
  -1   3  20   11.24    1.67 
   1   3 -20   15.08    1.55 
  -1  -3  19    0.75    1.08 
  -1   3  19    0.45    1.24 
  -1   3  19   -0.42    1.40 
   1   3 -19    2.20    1.04 
  -1  -3  18   22.17    1.77 
  -1   3  18   24.36    1.72 
  -1   3  18   23.12    1.68 
   1   3 -18   25.08    1.53 
  -1  -3  17  197.41    4.28 
  -1   3  17  181.50    3.96 
  -1   3  17  193.76    4.53 
   1   3 -17  196.99    4.08 
  -1  -3  16  129.56    3.45 
  -1   3  16  126.75    3.23 
  -1   3  16  125.10    3.54 
   1   3 -16  125.49    3.19 
  -1  -3  15  132.56    3.30 
  -1   3  15  138.27    3.29 
   1  -3 -15  135.89    3.09 
  -1   3  15  135.51    3.46 
   1   3 -15  140.82    3.12 
  -1  -3  14  107.19    3.01 
  -1   3  14  109.86    2.98 
   1  -3 -14  107.45    2.80 
  -1   3  14  111.11    3.29 
   1  -3 -14  104.71    2.97 
   1   3 -14  113.94    2.91 
  -1  -3  13   21.01    1.48 
   1   3 -13   20.99    1.25 
  -1   3  13   19.60    1.51 
   1  -3 -13   21.73    1.32 
  -1   3  13   21.07    1.59 
   1  -3 -13   19.51    1.51 
   1   3 -13   20.27    1.30 
  -1  -3  12    6.36    1.20 
   1   3 -12    4.06    0.95 
  -1   3  12    4.41    1.01 
   1  -3 -12    4.66    0.98 
  -1   3  12    4.05    1.23 
   1  -3 -12    4.88    1.11 
   1   3 -12    4.19    0.76 
  -1  -3  11   90.98    2.66 
   1   3 -11   85.07    2.31 
  -1   3  11   82.49    2.46 
   1  -3 -11   84.10    2.40 
  -1   3  11   86.47    2.81 
   1  -3 -11   82.79    2.55 
   1   3 -11   84.18    2.33 
  -1  -3  10  305.65    4.75 
   1   3 -10  292.31    4.27 
  -1   3  10  300.25    4.53 
   1  -3 -10  299.21    4.51 
  -1   3  10  314.06    5.11 
   1  -3 -10  314.13    4.94 
   1   3 -10  292.92    4.35 
  -1  -3   9    2.04    0.88 
   1   3  -9    2.37    0.85 
  -1   3   9    2.08    0.84 
   1  -3  -9    1.56    0.85 
  -1   3   9    1.95    0.80 
   1   3  -9    1.68    0.73 
  -1  -3   8  444.09    6.54 
   1   3  -8  451.77    6.38 
  -1   3   8  463.79    6.61 
   1  -3  -8  443.97    6.43 
  -1   3   8  450.50    6.99 
   1   3  -8  464.33    6.50 
  -1  -3   7  266.18    4.86 
   1   3  -7  266.18    4.50 
  -1   3   7  261.55    4.53 
   1  -3  -7  254.41    4.52 
  -1   3   7  244.95    4.77 
   1   3  -7  253.99    4.71 
   1   3  -7  270.91    4.57 
  -1  -3   6   38.91    1.76 
   1   3  -6   38.26    1.62 
  -1   3   6   37.90    1.63 
   1  -3  -6   38.28    1.71 
  -1   3   6   39.67    1.83 
   1  -3  -6   33.67    1.66 
   1   3  -6   36.09    1.69 
   1   3  -6   38.42    1.62 
  -1  -3   5    2.53    0.82 
   1   3  -5    2.41    0.80 
  -1   3   5    2.94    0.77 
   1  -3  -5    2.29    0.83 
  -1   3   5    2.90    0.92 
   1  -3  -5    2.16    0.86 
   1   3  -5    2.55    0.87 
   1   3  -5    2.51    0.73 
  -1  -3   4  871.34   11.68 
   1   3  -4  948.29   12.08 
  -1   3   4  916.73   11.86 
   1  -3  -4  890.67   11.72 
  -1   3   4  885.63   11.96 
   1  -3  -4  913.19   12.03 
   1   3  -4  899.82   11.94 
   1   3  -4  915.00   11.98 
  -1  -3   3    4.32    0.91 
   1   3  -3    5.69    1.02 
  -1   3   3    4.96    0.84 
   1  -3  -3    4.41    0.92 
  -1   3   3    5.38    1.02 
   1  -3  -3    5.71    1.01 
   1   3  -3    5.37    0.79 
   1   3  -3    5.58    0.88 
  -1   3   2  218.17    4.38 
  -1  -3   2  204.25    4.27 
   1   3  -2  215.67    4.31 
  -1   3   2  224.36    4.44 
  -1   3   2  225.95    4.59 
   1  -3  -2  225.77    4.41 
   1   3  -2  222.00    4.35 
  -1  -3   2  213.36    4.23 
  -1  -3   1    4.78    0.96 
   1   3  -1    5.73    0.97 
  -1   3   1    4.69    0.86 
  -1   3   1    4.97    0.84 
  -1   3   1    4.73    0.88 
   1  -3  -1    6.13    0.98 
   1   3  -1    5.05    0.96 
  -1  -3   1    4.14    0.86 
  -1   3   1    4.43    1.04 
   1  -3   0    4.60    0.84 
   1   3   0    3.35    0.83 
  -1   3   0    3.97    0.81 
   1   3   0    4.25    0.95 
   1  -3   0    3.89    0.90 
   1   3   0    6.18    0.90 
  -1  -3   0    4.92    0.88 
  -1   3   0    4.49    1.05 
  -1  -3   0    4.85    0.97 
   1   3   1  510.79    7.68 
   1  -3   1  533.51    7.98 
  -1   3  -1  527.26    7.64 
   1   3   1  518.44    8.00 
   1  -3   1  499.13    7.90 
   1   3   1  523.84    7.72 
  -1  -3  -1  535.04    7.81 
  -1   3  -1  516.29    8.36 
  -1  -3  -1  515.88    7.47 
   1  -3   2  140.97    3.35 
  -1   3  -2  139.34    3.17 
   1   3   2  136.94    3.53 
  -1  -3  -2  145.37    3.52 
   1   3   2  147.15    3.40 
   1  -3   2  140.59    3.26 
  -1  -3  -2  139.92    3.24 
  -1   3  -2  141.29    3.75 
   1  -3   2  135.21    3.59 
  -1  -3  -2  141.23    3.14 
   1  -3   3 1069.33   13.51 
  -1   3  -3 1082.62   13.28 
   1   3   3 1142.86   14.45 
  -1  -3  -3 1106.89   14.11 
   1   3   3 1115.21   14.01 
  -1  -3  -3 1099.65   13.74 
   1  -3   3 1109.44   13.71 
  -1   3  -3 1119.35   14.69 
   1  -3   3 1110.50   14.48 
  -1  -3  -3 1159.22   14.20 
   1  -3   4  169.39    3.64 
  -1   3  -4  171.74    3.50 
   1   3   4  177.18    3.89 
  -1  -3  -4  170.90    3.85 
   1   3   4  178.07    3.86 
  -1   3  -4  161.53    3.95 
  -1  -3  -4  170.29    3.65 
   1  -3   4  167.88    3.75 
  -1   3  -4  177.82    4.24 
   1  -3   4  167.44    3.91 
  -1  -3  -4  176.58    3.54 
   1  -3   5    4.76    0.80 
  -1   3  -5    5.53    0.79 
   1   3   5    5.32    0.98 
  -1  -3  -5    5.77    1.07 
   1   3   5    5.49    0.91 
  -1  -3  -5    4.89    0.89 
  -1   3  -5    5.09    0.85 
   1  -3   5    5.88    0.96 
  -1   3  -5    5.90    1.12 
   1  -3   5    6.25    1.05 
  -1  -3  -5    5.53    0.80 
   1  -3   6  382.31    5.82 
  -1   3  -6  371.01    5.48 
   1   3   6  351.32    5.91 
  -1  -3  -6  364.69    5.78 
   1   3   6  371.48    6.00 
  -1  -3  -6  361.56    5.68 
  -1   3  -6  366.37    5.74 
   1  -3   6  376.43    5.84 
  -1   3  -6  355.71    6.18 
   1  -3   6  369.86    6.01 
  -1  -3  -6  382.25    5.60 
   1  -3   7  494.63    7.07 
  -1   3  -7  509.81    6.82 
   1   3   7  487.32    6.94 
  -1  -3  -7  491.59    7.10 
   1   3   7  494.59    7.32 
  -1  -3  -7  484.55    6.95 
  -1   3  -7  508.76    7.15 
   1  -3   7  493.78    7.12 
  -1   3  -7  497.41    7.63 
   1  -3   7  498.21    7.11 
  -1  -3  -7  493.22    6.69 
   1  -3   8    1.98    0.81 
  -1   3  -8    1.83    0.83 
   1   3   8    1.92    0.77 
  -1  -3  -8    1.85    0.86 
   1   3   8    1.33    0.77 
  -1  -3  -8    1.61    0.80 
  -1   3  -8    1.26    0.82 
  -1   3  -8    2.38    0.98 
   1  -3   8    1.99    0.78 
  -1  -3  -8    1.35    0.72 
   1  -3   9 1100.04   10.62 
  -1   3  -9 1120.18   12.46 
  -1  -3  -9 1119.99   12.69 
   1   3   9 1098.25   10.81 
  -1  -3  -9 1086.19   10.28 
  -1   3  -9 1078.74   10.10 
  -1   3  -9 1113.13   13.28 
   1  -3   9 1085.11   10.30 
  -1  -3  -9 1105.28   12.29 
   1  -3  10  156.12    3.35 
  -1   3 -10  164.65    3.31 
   1   3  10  153.14    3.34 
  -1  -3 -10  169.01    3.59 
   1   3  10  165.59    3.73 
  -1  -3 -10  164.25    3.57 
  -1   3 -10  162.72    3.51 
  -1   3 -10  163.13    3.79 
   1  -3  10  170.34    3.46 
  -1  -3 -10  163.31    3.29 
   1  -3  11   28.73    1.46 
  -1   3 -11   32.25    1.65 
   1   3  11   28.06    1.57 
  -1  -3 -11   30.95    1.55 
   1   3  11   29.40    1.64 
  -1  -3 -11   30.47    1.58 
  -1   3 -11   30.72    1.55 
  -1   3 -11   30.40    1.70 
   1  -3  11   30.63    1.51 
  -1  -3 -11   31.10    1.48 
   1  -3  12  120.73    3.00 
  -1   3 -12  116.60    2.90 
   1   3  12  113.94    2.94 
  -1  -3 -12  122.21    3.03 
   1   3  12  122.36    3.28 
  -1  -3 -12  116.76    3.05 
  -1   3 -12  118.76    3.08 
  -1   3 -12  119.28    3.26 
   1  -3  12  117.69    2.79 
  -1  -3 -12  123.84    2.96 
   1  -3  13  121.74    3.07 
  -1   3 -13  117.77    2.97 
   1   3  13  109.48    2.93 
   1   3  13  115.81    3.26 
  -1  -3 -13  113.95    3.10 
  -1   3 -13  117.23    3.12 
  -1   3 -13  120.32    3.39 
  -1  -3 -13  116.30    2.90 
   1  -3  13  127.52    2.98 
   1  -3  14  112.19    2.86 
   1   3  14  104.48    2.80 
   1   3  14  116.23    3.13 
  -1  -3 -14  119.11    3.03 
  -1   3 -14  119.84    2.99 
  -1   3 -14  107.46    3.07 
  -1  -3 -14  121.85    2.88 
   1  -3  15  167.65    3.92 
   1   3  15  162.65    4.00 
  -1  -3 -15  163.76    3.90 
  -1   3 -15  168.32    3.97 
  -1   3 -15  167.59    4.10 
  -1  -3 -15  163.50    3.72 
   1  -3  16    3.47    1.08 
   1   3  16    2.97    1.10 
  -1  -3 -16    3.14    0.95 
  -1   3 -16    2.95    1.00 
  -1   3 -16    3.88    1.33 
  -1  -3 -16    3.27    1.16 
   1  -3  17    8.48    1.28 
   1   3  17    9.50    1.25 
  -1  -3 -17    9.61    1.18 
  -1   3 -17   11.28    1.22 
  -1   3 -17    9.21    1.51 
  -1  -3 -17   10.88    1.19 
   1  -3  18   58.78    2.14 
   1   3  18   60.16    2.32 
  -1  -3 -18   65.89    2.30 
  -1   3 -18   62.51    2.26 
  -1   3 -18   66.45    2.50 
  -1  -3 -18   62.19    2.15 
   1  -3  19  109.28    2.82 
   1   3  19  107.86    2.86 
  -1  -3 -19  109.32    2.72 
  -1   3 -19  108.89    2.82 
  -1   3 -19  106.42    3.00 
  -1  -3 -19  111.64    2.72 
   1  -3  20   45.19    1.97 
   1   3  20   39.74    1.92 
  -1   3 -20   42.97    1.97 
  -1   3 -20   39.81    2.16 
  -1  -3 -20   45.83    1.95 
   1  -3  21   19.77    1.63 
  -1   3 -21   18.57    1.64 
  -1   3 -21   16.69    1.78 
  -1  -3 -21   16.05    1.56 
   1  -3  22   33.48    1.92 
  -1   3 -22   35.17    1.81 
  -1   3 -22   32.74    1.98 
  -1  -3 -22   37.87    1.91 
   1  -3  23    2.51    1.58 
  -1   3 -23    2.73    1.37 
  -1   3 -23    1.80    1.53 
  -1  -3 -23    2.20    1.56 
   1  -3  24   81.03    2.85 
  -1   3 -24   82.90    2.71 
  -1   3 -24   81.58    3.07 
   1  -3  25   44.21    2.23 
  -1   3 -25   44.22    2.15 
  -1   3 -25   38.45    2.22 
   1  -3  26   23.50    2.00 
  -1   3 -26   24.81    1.88 
  -1   3 -26   26.49    2.07 
   1  -3  27    4.04    1.78 
  -1   3 -27    2.86    1.46 
  -1   3 -27    3.67    1.61 
  -1  -4  27   46.64    2.42 
  -1   4  27   48.49    2.26 
  -1   4  27   50.44    2.50 
   1   4 -27   50.28    2.35 
   1   4 -27   48.13    2.26 
  -1  -4  26   37.71    2.17 
  -1   4  26   37.75    2.11 
  -1   4  26   37.03    2.26 
   1   4 -26   39.19    2.22 
   1   4 -26   37.08    2.07 
  -1  -4  25  122.36    3.32 
  -1   4  25  129.72    3.17 
  -1   4  25  118.36    3.32 
   1   4 -25  129.16    3.36 
   1   4 -25  126.74    3.12 
  -1   4  24   15.38    1.71 
  -1   4  24   16.47    1.89 
   1   4 -24   15.11    1.85 
   1   4 -24   13.97    1.65 
  -1  -4  23    1.91    1.47 
  -1   4  23    2.67    1.42 
  -1   4  23    2.65    1.76 
   1   4 -23    2.30    1.59 
   1   4 -23    2.27    1.42 
  -1  -4  22   34.55    2.06 
  -1   4  22   29.87    1.90 
  -1   4  22   30.90    1.99 
   1   4 -22   30.25    1.83 
   1   4 -22   33.17    1.79 
  -1  -4  21    0.88    1.47 
  -1   4  21    1.81    1.37 
  -1   4  21    0.72    1.28 
   1   4 -21    2.75    1.45 
   1   4 -21    0.82    1.16 
  -1  -4  20  121.72    3.23 
  -1   4  20  115.28    3.03 
  -1   4  20  114.38    3.27 
   1   4 -20  116.31    3.04 
   1   4 -20  117.06    2.95 
  -1  -4  19  109.95    2.88 
  -1   4  19  116.51    2.82 
  -1   4  19  107.56    3.17 
   1   4 -19  113.77    2.99 
   1   4 -19  116.53    2.86 
  -1  -4  18  103.94    2.81 
  -1   4  18  102.21    2.74 
  -1   4  18  101.90    2.92 
   1   4 -18  104.85    2.83 
   1   4 -18  100.91    2.65 
  -1  -4  17   60.25    2.38 
  -1   4  17   60.72    2.36 
  -1   4  17   61.53    2.48 
   1   4 -17   57.13    2.29 
   1   4 -17   57.59    2.08 
  -1  -4  16   12.89    1.34 
  -1   4  16   12.50    1.56 
  -1   4  16    9.35    1.31 
   1   4 -16   14.97    1.40 
  -1  -4  15    8.02    1.24 
  -1   4  15    6.20    1.25 
  -1   4  15    7.36    1.39 
   1   4 -15    8.15    1.16 
  -1  -4  14  426.85    6.40 
  -1   4  14  419.67    6.23 
   1  -4 -14  421.02    6.15 
  -1   4  14  428.31    6.73 
   1   4 -14  430.77    6.31 
  -1  -4  13   17.02    1.33 
  -1   4  13   16.03    5.07 
   1  -4 -13   18.29    1.28 
  -1   4  13   17.41    1.60 
   1   4 -13   19.06    1.34 
  -1  -4  12  259.81    5.25 
  -1   4  12  259.35    4.99 
   1  -4 -12  267.58    5.01 
  -1   4  12  258.52    5.26 
   1  -4 -12  256.13    5.04 
   1   4 -12  261.75    5.00 
  -1  -4  11   96.39    2.81 
   1   4 -11   93.87    2.50 
  -1   4  11   92.39    2.60 
   1  -4 -11   91.07    2.59 
  -1   4  11   92.94    2.83 
   1  -4 -11   96.49    2.83 
   1   4 -11   91.54    2.72 
   1   4 -11   97.01    2.75 
  -1  -4  10    4.06    1.02 
   1   4 -10    5.09    0.84 
  -1   4  10    5.00    1.02 
   1  -4 -10    4.46    0.94 
  -1   4  10    4.84    1.01 
   1  -4 -10    4.83    0.95 
   1   4 -10    5.23    1.14 
   1   4 -10    4.79    0.93 
  -1  -4   9    1.77    1.01 
   1   4  -9    1.59    0.81 
  -1   4   9    1.68    0.81 
   1  -4  -9    0.98    0.74 
  -1   4   9    0.96    0.88 
   1  -4  -9    2.54    0.90 
   1   4  -9    1.29    0.84 
   1   4  -9    1.46    0.69 
  -1  -4   8  356.02    5.18 
   1   4  -8  325.44    4.61 
  -1   4   8  336.04    4.82 
   1  -4  -8  334.23    4.91 
  -1   4   8  330.98    5.29 
   1   4  -8  343.20    5.06 
   1   4  -8  341.84    5.12 
  -1  -4   7    7.17    1.05 
   1   4  -7    6.67    0.87 
  -1   4   7    5.30    0.91 
   1  -4  -7    6.84    0.96 
  -1   4   7    6.35    0.94 
   1   4  -7    7.55    1.10 
   1   4  -7    6.70    0.95 
   1   4  -6  948.99    9.03 
  -1   4   6  951.51    9.24 
   1  -4  -6  932.54    9.27 
  -1   4   6  923.65    9.72 
   1   4  -6  943.50    9.42 
   1   4  -6  945.86    9.75 
  -1  -4   5  178.51    3.81 
   1   4  -5  171.38    3.52 
  -1   4   5  179.03    3.68 
   1  -4  -5  174.05    3.76 
  -1   4   5  188.19    4.07 
   1  -4  -5  162.67    3.53 
   1   4  -5  181.03    3.79 
   1   4  -5  173.51    3.98 
  -1  -4   4  142.32    3.36 
   1   4  -4  138.78    3.20 
  -1   4   4  150.86    3.38 
   1  -4  -4  148.84    3.45 
  -1   4   4  149.82    3.57 
   1  -4  -4  151.37    3.40 
   1   4  -4  150.57    3.35 
   1  -4  -4  150.37    3.75 
   1   4  -4  151.11    3.83 
  -1   4   3  188.58    3.97 
  -1  -4   3  215.08    4.28 
  -1   4   3  200.70    4.04 
  -1   4   3  202.90    4.17 
   1  -4  -3  211.16    4.07 
   1   4  -3  202.98    4.02 
  -1  -4   3  199.65    3.95 
   1  -4  -3  201.21    4.38 
  -1  -4   2  201.05    4.17 
  -1   4   2  203.55    4.12 
  -1   4   2  200.02    4.11 
  -1   4   2  190.88    4.54 
   1  -4  -2  198.89    3.93 
   1   4  -2  204.61    4.03 
  -1  -4   2  202.23    3.96 
   1  -4  -2  201.86    4.43 
  -1  -4   1   35.85    1.71 
  -1   4   1   40.02    1.75 
  -1   4   1   39.05    1.78 
  -1   4   1   40.55    1.81 
   1  -4  -1   41.17    1.74 
   1   4  -1   39.47    1.73 
  -1  -4   1   38.98    1.72 
   1  -4  -1   41.04    2.05 
  -1   4   0 1713.35   14.55 
  -1   4   0 1731.72   15.18 
   1   4   0 1672.78   21.01 
  -1   4   0 1711.62   16.09 
   1  -4   0 1700.04   19.06 
   1  -4   1  117.87    3.03 
  -1   4  -1  119.32    2.91 
   1   4   1  112.91    2.91 
   1  -4   1  121.79    2.96 
  -1  -4  -1  119.13    2.91 
  -1   4  -1  117.19    3.45 
   1  -4   1  122.32    3.39 
   1  -4   2  188.21    3.89 
  -1   4  -2  184.46    3.68 
   1   4   2  185.04    3.82 
   1  -4   2  171.35    3.58 
  -1  -4  -2  183.01    3.68 
  -1   4  -2  180.28    4.22 
   1  -4   2  176.69    4.06 
   1  -4   3   49.07    1.93 
  -1   4  -3   51.44    1.83 
  -1  -4  -3   52.02    2.08 
   1   4   3   50.33    1.95 
  -1  -4  -3   50.59    1.89 
   1  -4   3   51.18    1.93 
  -1   4  -3   50.41    2.24 
   1  -4   3   50.17    2.18 
   1  -4   4   21.79    1.34 
  -1   4  -4   22.36    1.30 
  -1  -4  -4   21.54    1.46 
   1   4   4   21.55    1.37 
  -1  -4  -4   23.12    1.40 
   1  -4   4   23.89    1.40 
  -1   4  -4   23.37    1.62 
   1  -4   4   22.25    1.52 
   1  -4   5  134.11    3.21 
  -1   4  -5  146.44    3.12 
  -1  -4  -5  145.38    3.42 
   1   4   5  147.27    3.45 
  -1  -4  -5  145.63    3.27 
  -1   4  -5  140.43    3.27 
   1  -4   5  150.53    3.30 
  -1   4  -5  146.36    3.75 
   1  -4   5  144.84    3.52 
   1  -4   6   77.90    2.31 
  -1   4  -6   78.03    2.15 
  -1  -4  -6   79.90    2.45 
   1   4   6   78.60    2.47 
  -1  -4  -6   77.60    2.31 
  -1   4  -6   76.79    2.32 
   1  -4   6   79.15    2.33 
  -1   4  -6   74.41    2.61 
   1  -4   6   75.98    2.43 
   1  -4   7   37.04    1.68 
  -1   4  -7   38.89    1.57 
  -1  -4  -7   37.38    1.73 
   1   4   7   33.68    1.69 
  -1  -4  -7   35.68    1.64 
  -1   4  -7   37.14    1.69 
   1  -4   7   36.04    1.65 
  -1   4  -7   38.84    2.00 
   1  -4   7   38.19    1.78 
   1  -4   8    2.21    0.86 
  -1   4  -8    3.05    0.81 
  -1  -4  -8    3.07    0.99 
   1   4   8    3.65    0.91 
  -1  -4  -8    3.80    0.82 
  -1   4  -8    3.51    0.92 
   1  -4   8    2.12    0.89 
  -1   4  -8    4.12    1.12 
   1  -4   8    3.29    0.83 
   1  -4   9   17.48    1.32 
  -1   4  -9   18.31    1.15 
  -1  -4  -9   18.55    1.41 
   1   4   9   18.46    1.36 
  -1  -4  -9   17.79    1.26 
  -1   4  -9   17.94    1.31 
   1  -4   9   18.96    1.35 
  -1   4  -9   17.63    1.54 
   1  -4   9   18.58    1.34 
   1  -4  10   14.10    1.23 
  -1   4 -10   15.55    1.15 
  -1  -4 -10   14.21    1.22 
   1   4  10   15.51    1.32 
  -1  -4 -10   14.67    1.17 
  -1   4 -10   15.00    1.30 
  -1   4 -10   13.49    1.36 
   1  -4  10   14.53    1.22 
   1  -4  11   33.48    1.63 
  -1   4 -11   33.74    1.65 
  -1  -4 -11   33.86    1.71 
   1   4  11   33.64    1.76 
  -1  -4 -11   34.96    1.67 
  -1   4 -11   34.21    1.73 
  -1   4 -11   33.24    1.90 
   1  -4  11   35.62    1.66 
   1  -4  12   13.42    1.27 
  -1   4 -12   13.90    1.21 
   1   4  12   12.51    1.32 
  -1  -4 -12   13.26    1.19 
  -1   4 -12   13.77    1.31 
  -1   4 -12   13.14    1.38 
   1  -4  12   13.64    1.13 
  -1  -4 -12   13.74    1.22 
   1  -4  13   13.45    1.21 
   1   4  13   12.50    1.29 
  -1  -4 -13   12.76    1.21 
  -1   4 -13   13.23    1.38 
  -1   4 -13   13.73    1.47 
   1  -4  13   14.10    1.13 
  -1  -4 -13   13.73    1.20 
   1  -4  14   48.41    2.00 
   1   4  14   47.65    2.12 
  -1  -4 -14   49.72    2.03 
  -1   4 -14   47.55    1.99 
  -1   4 -14   49.72    2.27 
  -1  -4 -14   49.53    1.92 
   1  -4  15   44.96    1.91 
   1   4  15   48.31    2.10 
  -1  -4 -15   43.81    1.82 
  -1   4 -15   44.83    1.91 
  -1   4 -15   45.33    2.11 
  -1  -4 -15   41.83    1.71 
   1  -4  16  382.18    5.95 
   1   4  16  393.88    6.43 
  -1  -4 -16  391.19    6.12 
  -1   4 -16  390.03    6.14 
  -1   4 -16  385.28    6.38 
  -1  -4 -16  391.64    5.82 
   1  -4  17    9.58    1.42 
   1   4  17    8.49    1.36 
  -1  -4 -17   10.18    1.25 
  -1   4 -17    8.86    1.37 
  -1   4 -17    7.86    1.38 
  -1  -4 -17    9.43    1.30 
   1  -4  18  413.12    5.13 
   1   4  18  420.78    5.48 
  -1  -4 -18  421.04    5.18 
  -1   4 -18  424.01    5.17 
  -1   4 -18  425.45    5.60 
  -1  -4 -18  422.01    4.89 
   1  -4  19   36.05    1.89 
   1   4  19   34.22    1.86 
  -1   4 -19   34.09    1.84 
  -1   4 -19   33.61    1.96 
  -1  -4 -19   34.54    1.74 
   1  -4  20    7.28    1.48 
   1   4  20    7.00    1.29 
  -1   4 -20    7.31    1.38 
  -1   4 -20    7.48    1.54 
  -1  -4 -20    8.86    1.42 
   1  -4  21    0.89    1.47 
  -1   4 -21    0.07    1.41 
  -1   4 -21    1.11    1.35 
  -1  -4 -21    0.82    1.39 
  -1   4 -22  375.88    5.01 
  -1   4 -22  373.03    5.32 
  -1  -4 -22  379.65    4.75 
   1  -4  23    7.43    1.53 
   1   4  23    8.95    2.22 
  -1   4 -23    8.09    1.65 
  -1   4 -23    8.22    1.71 
  -1  -4 -23    7.19    1.55 
   1  -4  24  112.66    3.11 
   1   4  24  107.40    3.54 
  -1   4 -24  110.30    2.93 
  -1   4 -24  114.80    3.24 
  -1  -4 -24  117.74    3.05 
   1  -4  25    3.61    1.75 
   1   4  25    0.21    1.89 
  -1   4 -25    2.35    1.49 
  -1   4 -25    2.43    1.78 
  -1  -4 -25    2.64    1.53 
   1  -4  26    5.71    1.83 
   1   4  26    3.23    1.78 
  -1   4 -26    5.15    1.42 
  -1   4 -26    8.37    1.83 
  -1  -4 -26    6.04    1.70 
   1  -4  27    1.30    1.70 
   1   4  27   -0.63    1.89 
  -1   4 -27    3.48    1.63 
  -1   4 -27    2.63    1.75 
  -1  -4 -27    1.30    1.64 
  -1  -5  26    3.93    1.89 
  -1   5  26    3.80    1.52 
  -1   5  26    4.69    1.67 
   1   5 -26    3.57    1.63 
  -1  -5  25    2.20    1.72 
  -1   5  25    0.99    1.48 
  -1   5  25    1.33    1.72 
   1   5 -25    1.67    1.59 
   1   5 -25   -1.39    1.41 
  -1  -5  24    6.66    1.71 
  -1   5  24    8.66    1.59 
  -1   5  24    8.71    1.94 
   1   5 -24    7.40    1.67 
   1   5 -24    6.31    1.53 
  -1  -5  23  119.76    3.56 
  -1   5  23  114.01    3.22 
  -1   5  23  111.49    3.46 
   1   5 -23  117.15    3.41 
   1   5 -23  112.85    3.37 
  -1  -5  22   -0.33    1.46 
  -1   5  22   -0.80    1.57 
  -1   5  22    2.56    1.62 
   1   5 -22    2.22    1.56 
   1   5 -22    0.32    1.24 
  -1  -5  21  160.19    3.46 
  -1   5  21  158.37    3.33 
  -1   5  21  143.70    3.43 
   1   5 -21  161.58    3.40 
   1   5 -21  145.25    3.20 
  -1  -5  20   23.21    1.83 
  -1   5  20   23.53    2.26 
  -1   5  20   21.02    1.82 
   1   5 -20   22.28    1.80 
   1   5 -20   20.81    1.75 
  -1  -5  19    2.23    1.34 
  -1   5  19    5.97    1.91 
  -1   5  19    3.56    1.63 
   1   5 -19    0.16    1.29 
   1   5 -19    2.47    1.17 
  -1  -5  18    1.78    1.48 
  -1   5  18    1.56    1.20 
  -1   5  18    0.31    1.36 
   1   5 -18    0.26    1.36 
   1   5 -18    0.65    1.18 
  -1  -5  17  248.64    4.21 
  -1   5  17  241.78    3.87 
  -1   5  17  256.66    4.41 
   1   5 -17  249.96    4.16 
  -1  -5  16    7.60    1.55 
  -1   5  16    6.74    1.35 
  -1   5  16    7.55    1.40 
   1   5 -16    7.67    1.25 
  -1  -5  15  280.32    5.43 
  -1   5  15  265.66    5.11 
  -1   5  15  264.88    5.46 
   1   5 -15  271.31    5.33 
  -1  -5  14    1.06    1.11 
  -1   5  14   -0.03    1.12 
  -1   5  14    0.77    1.04 
   1   5 -14    1.75    0.99 
  -1  -5  13    8.10    1.16 
  -1   5  13    9.33    1.18 
   1  -5 -13    8.87    1.17 
  -1   5  13    8.92    1.28 
   1   5 -13    8.62    1.20 
   1   5 -13    8.91    1.20 
  -1  -5  12    3.13    1.12 
  -1   5  12    1.97    1.04 
   1  -5 -12    2.50    0.99 
  -1   5  12    1.57    1.04 
   1   5 -12    2.58    0.99 
   1   5 -12    2.44    0.92 
  -1  -5  11   11.16    1.19 
  -1   5  11   10.61    1.21 
   1  -5 -11    9.90    1.13 
  -1   5  11   10.25    1.37 
   1   5 -11    9.87    1.21 
   1   5 -11   10.70    1.23 
  -1  -5  10    4.08    1.05 
  -1   5  10    4.14    1.01 
   1  -5 -10    4.42    0.86 
  -1   5  10    3.68    0.94 
   1  -5 -10    5.10    1.08 
   1   5 -10    5.45    1.14 
   1   5 -10    4.96    1.04 
  -1  -5   9  185.00    4.03 
  -1   5   9  195.83    3.97 
   1  -5  -9  191.12    4.10 
  -1   5   9  197.26    4.31 
   1  -5  -9  190.17    4.00 
   1   5  -9  187.91    4.01 
   1   5  -9  189.28    4.22 
  -1  -5   8    1.68    1.01 
  -1   5   8    2.70    0.88 
   1  -5  -8    2.68    0.89 
  -1   5   8    2.36    0.95 
   1  -5  -8    1.59    0.96 
   1   5  -8    2.63    0.95 
   1   5  -8    2.19    0.87 
  -1  -5   7  176.58    3.82 
  -1   5   7  168.10    3.52 
   1  -5  -7  169.42    3.66 
  -1   5   7  164.35    3.80 
   1   5  -7  171.55    3.64 
   1   5  -7  169.93    3.93 
  -1  -5   6  158.63    3.59 
  -1   5   6  156.47    3.42 
   1  -5  -6  161.96    3.60 
  -1   5   6  159.52    3.69 
   1   5  -6  162.03    3.55 
   1   5  -6  156.67    3.83 
  -1  -5   5    5.79    1.11 
  -1   5   5    6.30    0.93 
   1  -5  -5    6.59    1.00 
  -1   5   5    7.42    1.19 
   1   5  -5    5.24    0.89 
   1  -5  -5    5.91    1.18 
   1   5  -5    6.75    1.03 
  -1   5   4   26.67    1.48 
  -1  -5   4   26.12    1.62 
  -1   5   4   26.23    1.45 
  -1   5   4   25.64    1.61 
   1  -5  -4   23.24    1.37 
   1   5  -4   25.19    1.41 
  -1  -5   4   24.74    1.43 
   1  -5  -4   25.24    1.59 
  -1  -5   3   78.87    2.46 
  -1   5   3   73.35    2.31 
  -1   5   3   73.44    2.34 
  -1   5   3   69.47    2.31 
   1  -5  -3   72.34    2.21 
   1   5  -3   75.34    2.31 
  -1  -5   3   75.16    2.24 
   1  -5  -3   74.31    2.62 
  -1  -5   2   16.34    1.36 
  -1   5   2   15.72    1.19 
  -1   5   2   14.35    1.23 
  -1   5   2   16.16    1.33 
   1  -5  -2   15.60    1.29 
   1   5  -2   15.53    1.15 
  -1  -5   2   15.85    1.20 
   1  -5  -2   15.44    1.36 
  -1   5   1  287.45    4.56 
  -1   5   1  280.47    4.67 
  -1   5   1  283.54    4.71 
   1  -5  -1  299.50    4.56 
   1   5  -1  293.62    4.58 
  -1  -5   1  286.47    4.43 
   1  -5  -1  287.58    5.09 
  -1   5   0   76.84    2.28 
  -1   5   0   76.21    2.43 
  -1   5   0   77.81    2.35 
   1   5   0   79.42    2.34 
   1  -5   0   83.02    2.34 
  -1  -5   0   78.51    2.27 
  -1  -5   0   77.05    2.59 
   1  -5   0   80.88    2.64 
   1  -5   1   93.32    2.62 
  -1   5  -1   91.85    2.46 
   1   5   1   90.26    2.55 
   1  -5   1   90.01    2.40 
  -1  -5  -1   90.71    2.46 
  -1   5  -1   90.60    2.87 
   1  -5   1   88.99    2.82 
   1  -5   2   30.79    1.61 
  -1   5  -2   30.35    1.46 
   1   5   2   30.34    1.50 
   1  -5   2   29.68    1.53 
  -1  -5  -2   31.70    1.55 
  -1   5  -2   31.89    1.83 
   1  -5   2   30.44    1.79 
   1  -5   3   77.60    2.44 
  -1   5  -3   85.42    2.31 
   1   5   3   80.56    2.39 
  -1  -5  -3   84.71    2.38 
   1  -5   3   85.90    2.37 
  -1   5  -3   80.16    2.76 
   1  -5   3   82.13    2.66 
   1  -5   4    3.99    0.89 
  -1   5  -4    2.86    0.80 
  -1  -5  -4    3.58    0.92 
   1   5   4    3.01    0.80 
  -1  -5  -4    3.07    0.87 
   1  -5   4    3.39    0.97 
  -1   5  -4    1.85    0.96 
   1  -5   4    2.01    0.98 
   1  -5   5   69.91    2.29 
  -1   5  -5   65.12    2.05 
  -1  -5  -5   70.97    2.33 
   1   5   5   71.83    2.39 
  -1   5  -5   62.34    2.20 
  -1  -5  -5   70.10    2.22 
   1  -5   5   73.31    2.27 
  -1   5  -5   71.26    2.62 
   1  -5   5   67.52    2.41 
   1  -5   6   84.95    2.53 
  -1   5  -6   87.49    2.37 
  -1  -5  -6   83.96    2.55 
   1   5   6   81.73    2.56 
  -1   5  -6   85.89    2.57 
  -1  -5  -6   86.14    2.47 
   1  -5   6   79.43    2.35 
  -1   5  -6   82.36    2.86 
   1  -5   6   80.95    2.57 
   1  -5   7 1280.99   14.30 
  -1   5  -7 1234.01   13.39 
  -1  -5  -7 1289.21   14.39 
   1   5   7 1278.73   16.28 
  -1  -5  -7 1263.37   13.90 
  -1   5  -7 1297.07   14.35 
   1  -5   7 1260.80   15.09 
  -1   5  -7 1277.43   15.08 
   1  -5   7 1277.74   14.37 
   1  -5   8    8.64    1.00 
  -1   5  -8    8.10    0.91 
  -1  -5  -8    7.88    1.27 
   1   5   8    8.41    1.17 
  -1  -5  -8    8.04    1.06 
  -1   5  -8    6.94    1.00 
   1  -5   8    7.40    1.00 
  -1   5  -8    8.10    1.24 
   1  -5   8    9.04    1.07 
   1  -5   9  595.94    9.26 
  -1   5  -9  629.08    9.17 
  -1  -5  -9  600.47    9.21 
   1   5   9  609.59    9.49 
  -1  -5  -9  611.91    9.35 
  -1   5  -9  612.81    9.31 
   1  -5   9  619.25    9.41 
  -1   5  -9  595.53    9.67 
   1  -5   9  611.76    9.37 
   1  -5  10    8.44    1.19 
  -1   5 -10    8.93    1.06 
   1   5  10    8.01    1.20 
  -1  -5 -10    9.02    1.09 
  -1   5 -10   10.54    1.20 
  -1   5 -10    9.34    1.34 
   1  -5  10    8.56    1.09 
   1  -5  11    0.81    0.98 
  -1   5 -11    0.17    0.77 
   1   5  11   -0.17    0.98 
  -1  -5 -11    0.29    0.68 
  -1   5 -11   -0.33    0.97 
  -1   5 -11   -0.02    1.17 
   1  -5  11   -1.11    0.89 
   1  -5  12    2.54    1.02 
   1   5  12    1.88    0.92 
   1   5  12    1.13    1.00 
  -1  -5 -12    1.72    0.85 
  -1   5 -12    3.23    1.11 
  -1   5 -12    1.81    1.02 
   1  -5  12    0.49    0.90 
   1  -5  13  311.62    5.95 
   1   5  13  303.45    6.08 
  -1  -5 -13  307.84    5.82 
  -1   5 -13  311.06    5.96 
  -1   5 -13  300.50    6.20 
   1  -5  14   -0.52    1.04 
   1   5  14    0.56    1.05 
   1   5  14   -0.19    1.08 
  -1  -5 -14   -0.09    0.86 
  -1   5 -14   -0.45    0.99 
  -1   5 -14   -0.10    1.27 
  -1  -5 -14    0.34    0.82 
   1  -5  15  237.76    4.48 
   1   5  15  228.09    4.34 
   1   5  15  241.50    4.76 
  -1  -5 -15  240.77    4.41 
  -1   5 -15  230.83    4.35 
  -1   5 -15  237.71    4.82 
  -1  -5 -15  243.13    4.34 
   1  -5  16   11.93    1.51 
   1   5  16   13.03    1.61 
   1   5  16   12.24    1.42 
  -1  -5 -16   12.84    1.17 
  -1   5 -16   10.47    1.33 
  -1   5 -16   12.40    1.70 
  -1  -5 -16   11.73    1.18 
   1  -5  17   59.18    2.22 
   1   5  17   57.14    2.33 
   1   5  17   60.27    2.32 
  -1  -5 -17   58.20    2.08 
  -1   5 -17   56.01    2.22 
  -1   5 -17   57.82    2.32 
  -1  -5 -17   60.55    2.01 
   1  -5  18    3.36    1.23 
   1   5  18    2.76    1.48 
   1   5  18    2.15    1.31 
  -1   5 -18    0.66    1.31 
  -1   5 -18    2.82    1.51 
  -1  -5 -18    2.07    1.10 
   1  -5  19   75.70    2.64 
   1   5  19   73.61    2.64 
   1   5  19   73.42    2.59 
  -1   5 -19   78.31    2.56 
  -1   5 -19   78.06    2.77 
  -1  -5 -19   76.74    2.36 
   1  -5  20   20.93    1.73 
   1   5  20   19.73    2.00 
   1   5  20   18.72    1.63 
  -1   5 -20   22.25    1.77 
  -1   5 -20   17.31    1.83 
  -1  -5 -20   20.59    1.62 
   1  -5  21   70.71    2.57 
   1   5  21   77.60    2.61 
  -1   5 -21   77.65    2.55 
  -1   5 -21   78.91    2.80 
  -1  -5 -21   82.05    2.46 
   1  -5  22    0.60    1.53 
   1   5  22    0.83    1.62 
  -1   5 -22    0.46    1.27 
  -1   5 -22    0.51    1.57 
  -1  -5 -22    1.50    1.44 
   1  -5  23    1.25    1.69 
   1   5  23    2.70    1.98 
  -1   5 -23    1.68    1.36 
  -1   5 -23   -1.08    1.74 
  -1  -5 -23    1.27    1.47 
   1  -5  24    8.30    1.62 
   1   5  24    7.36    2.02 
  -1   5 -24    7.02    1.54 
  -1   5 -24    8.94    1.94 
  -1  -5 -24    8.77    1.71 
   1  -5  25   23.76    2.00 
   1   5  25   20.43    2.20 
  -1   5 -25   20.43    1.83 
  -1   5 -25   18.58    1.89 
  -1  -5 -25   23.37    1.94 
   1  -5  26    5.27    1.71 
   1   5  26    4.04    2.20 
  -1   5 -26    1.01    1.37 
  -1   5 -26    2.77    1.75 
  -1  -5 -26    2.89    1.69 
  -1  -6  25    9.40    1.94 
  -1   6  25    9.94    1.65 
  -1   6  25    5.78    1.87 
   1   6 -25    9.92    1.80 
  -1  -6  24    6.57    1.79 
  -1   6  24    6.76    1.64 
  -1   6  24    7.87    1.81 
   1   6 -24    6.82    1.79 
  -1  -6  23    0.37    1.76 
  -1   6  23   -0.93    1.60 
  -1   6  23    0.97    1.71 
   1   6 -23    1.04    1.50 
  -1  -6  22   42.66    2.33 
  -1   6  22   42.46    2.14 
  -1   6  22   44.42    2.32 
   1   6 -22   44.54    2.19 
  -1  -6  21   24.62    1.90 
  -1   6  21   31.98    2.09 
  -1   6  21   26.41    1.98 
   1   6 -21   28.08    1.84 
  -1  -6  20   38.20    2.14 
  -1   6  20   34.71    2.00 
  -1   6  20   33.56    2.24 
   1   6 -20   35.58    2.01 
   1   6 -20   33.76    1.91 
  -1  -6  19   14.86    1.70 
  -1   6  19   15.64    1.81 
  -1   6  19   15.90    1.89 
   1   6 -19   14.58    1.64 
   1   6 -19   14.05    1.51 
  -1  -6  18   18.04    1.86 
  -1   6  18   17.20    1.67 
  -1   6  18   18.04    1.83 
   1   6 -18   18.19    1.58 
   1   6 -18   18.23    1.60 
  -1  -6  17   11.12    1.52 
  -1   6  17    8.43    1.71 
  -1   6  17    8.94    1.49 
   1   6 -17    9.09    1.41 
  -1  -6  16  119.31    3.00 
  -1   6  16  122.66    2.95 
  -1   6  16  120.54    3.23 
   1   6 -16  117.68    3.05 
  -1  -6  15  237.78    4.07 
  -1   6  15  251.97    3.92 
  -1   6  15  240.39    4.30 
   1   6 -15  243.59    4.20 
  -1  -6  14  381.19    6.11 
  -1   6  14  379.29    5.83 
  -1   6  14  378.97    6.43 
   1   6 -14  377.67    6.27 
  -1  -6  13  114.39    3.09 
  -1   6  13  110.76    2.92 
  -1   6  13  121.61    3.27 
   1   6 -13  113.60    3.00 
   1   6 -13  117.78    3.22 
  -1  -6  12  276.29    5.41 
  -1   6  12  276.25    5.13 
   1  -6 -12  270.23    5.19 
  -1   6  12  261.99    5.34 
   1   6 -12  276.13    5.28 
   1   6 -12  266.50    5.39 
  -1  -6  11    6.02    1.25 
  -1   6  11    5.77    1.17 
   1  -6 -11    6.13    1.07 
  -1   6  11    5.21    1.34 
   1   6 -11    7.04    1.21 
   1   6 -11    5.54    1.03 
  -1  -6  10  130.14    3.28 
  -1   6  10  120.78    2.95 
   1  -6 -10  125.25    3.09 
  -1   6  10  123.56    3.31 
   1   6 -10  120.03    3.03 
   1   6 -10  118.88    3.24 
  -1  -6   9   33.57    1.78 
  -1   6   9   33.56    1.65 
   1  -6  -9   33.92    1.72 
  -1   6   9   33.04    1.84 
   1   6  -9   34.39    1.70 
   1   6  -9   32.87    1.83 
  -1  -6   8  620.99    9.56 
  -1   6   8  594.37    9.26 
   1  -6  -8  602.81    9.41 
  -1   6   8  595.29    9.45 
   1   6  -8  599.82    9.22 
   1   6  -8  611.54    9.84 
  -1  -6   7  135.47    3.49 
  -1   6   7  142.70    3.41 
   1  -6  -7  131.56    3.35 
  -1   6   7  136.39    3.60 
   1   6  -7  137.24    3.40 
   1   6  -7  137.65    3.72 
  -1  -6   6  513.16    8.26 
   1   6  -6  536.19    8.24 
  -1   6   6  534.56    8.42 
   1  -6  -6  546.80    8.73 
  -1   6   6  543.81    8.95 
   1   6  -6  545.50    8.62 
   1  -6  -6  541.00    8.90 
   1   6  -6  535.57    8.97 
  -1   6   5   54.10    2.07 
  -1  -6   5   53.48    2.12 
   1   6  -5   55.70    2.07 
  -1   6   5   53.23    2.02 
  -1   6   5   51.22    2.15 
   1   6  -5   52.96    2.09 
  -1  -6   5   52.97    2.06 
   1  -6  -5   50.00    2.16 
  -1  -6   4    0.77    0.81 
  -1   6   4    1.16    0.82 
   1   6  -4    0.36    0.96 
  -1   6   4    0.18    0.78 
  -1   6   4    0.81    0.88 
   1   6  -4    0.88    0.83 
  -1  -6   4    0.70    0.91 
   1  -6  -4    0.42    1.03 
  -1  -6   3    7.56    1.23 
  -1   6   3    7.86    1.03 
   1   6  -3    8.12    1.04 
  -1   6   3    8.19    1.09 
  -1   6   3    8.46    1.18 
   1  -6  -3    7.68    1.15 
   1   6  -3    8.44    1.02 
  -1  -6   3    8.44    1.16 
   1  -6  -3    6.77    1.10 
  -1   6   2  229.93    4.50 
   1   6  -2  231.03    4.49 
  -1   6   2  232.57    4.62 
  -1   6   2  225.91    4.58 
   1  -6  -2  230.08    4.39 
   1   6  -2  231.55    4.51 
  -1  -6   2  231.22    4.45 
   1  -6  -2  227.42    4.90 
   1   6  -1    0.82    0.82 
  -1   6   1    1.03    0.79 
  -1   6   1    0.57    0.82 
   1   6  -1    0.66    0.81 
  -1   6   1    0.58    1.02 
   1   6  -1    1.50    0.90 
   1  -6  -1    0.75    0.90 
  -1  -6   1    0.31    0.84 
   1  -6  -1    1.24    1.01 
  -1  -6   1    1.03    0.79 
   1   6   0  651.64    9.74 
  -1   6   0  639.29    9.03 
  -1   6   0  640.73    9.42 
  -1   6   0  624.51    8.46 
   1   6   0  657.68    9.87 
   1  -6   0  662.69    8.42 
  -1  -6   0  644.92    8.25 
  -1  -6   0  616.29    9.38 
   1  -6   0  622.32    9.44 
   1   6   1   18.30    1.39 
  -1   6  -1   15.56    1.21 
   1   6   1   17.23    1.37 
  -1   6  -1   15.10    1.32 
  -1   6  -1   14.45    1.22 
   1   6   1   17.26    1.28 
   1  -6   1   16.50    1.25 
  -1  -6  -1   17.04    1.31 
  -1   6  -1   16.18    1.51 
  -1  -6  -1   15.56    1.38 
   1  -6   1   17.42    1.48 
   1  -6   2   41.03    1.84 
   1   6   2   40.43    1.84 
  -1   6  -2   40.57    1.68 
   1   6   2   41.24    1.99 
   1   6   2   41.86    1.89 
   1  -6   2   42.21    1.79 
  -1  -6  -2   39.74    1.71 
  -1  -6  -2   40.12    1.97 
  -1   6  -2   38.51    2.01 
   1  -6   2   41.78    2.02 
   1   6   3    2.36    1.02 
   1  -6   3    0.99    0.83 
  -1   6  -3    1.19    0.79 
   1   6   3    0.80    0.90 
   1   6   3    1.35    0.97 
  -1  -6  -3    1.78    0.90 
   1  -6   3    2.15    0.82 
  -1   6  -3    0.68    1.02 
   1  -6   3    1.26    0.85 
   1   6   4  332.12    5.72 
   1  -6   4  333.56    5.81 
  -1   6  -4  330.83    5.48 
   1   6   4  325.63    5.79 
   1   6   4  326.04    5.72 
  -1  -6  -4  330.92    5.52 
   1  -6   4  320.92    5.54 
  -1   6  -4  311.18    6.01 
   1  -6   4  320.95    5.85 
   1  -6   5   43.71    1.91 
  -1   6  -5   48.65    1.85 
   1   6   5   44.36    2.02 
  -1  -6  -5   46.21    2.00 
   1   6   5   46.46    1.96 
  -1  -6  -5   46.01    1.90 
   1  -6   5   45.21    1.92 
  -1   6  -5   46.62    2.24 
   1  -6   5   44.50    2.04 
   1  -6   6  177.59    3.99 
  -1   6  -6  183.87    3.81 
   1   6   6  176.36    4.05 
  -1  -6  -6  179.11    4.07 
   1   6   6  173.63    4.03 
  -1   6  -6  167.03    3.86 
  -1  -6  -6  183.63    3.92 
   1  -6   6  176.15    3.85 
  -1   6  -6  173.00    4.27 
   1  -6   6  178.38    4.07 
   1  -6   7   19.63    1.38 
  -1   6  -7   18.13    1.23 
   1   6   7   18.25    1.47 
   1   6   7   18.48    1.48 
  -1   6  -7   19.16    1.47 
  -1  -6  -7   18.20    1.33 
  -1   6  -7   18.35    1.64 
   1  -6   7   19.14    1.47 
   1  -6   8    2.88    1.04 
  -1   6  -8    2.03    0.74 
   1   6   8    2.90    1.01 
   1   6   8    1.04    1.00 
  -1  -6  -8    2.65    0.94 
  -1   6  -8    1.49    0.91 
  -1   6  -8    1.64    1.04 
   1  -6   8    2.26    0.96 
   1  -6   9   85.04    2.52 
  -1   6  -9   82.83    2.30 
   1   6   9   77.28    2.46 
   1   6   9   80.01    2.59 
  -1  -6  -9   85.59    2.47 
  -1   6  -9   81.80    2.50 
  -1   6  -9   84.00    2.87 
   1  -6   9   84.54    2.51 
   1  -6  10    1.61    0.96 
  -1   6 -10    1.03    0.81 
   1   6  10    1.69    1.16 
   1   6  10    0.94    1.13 
  -1  -6 -10    0.91    0.88 
  -1   6 -10    1.16    0.95 
  -1   6 -10    0.67    1.06 
   1  -6  10    1.32    0.94 
   1  -6  11    1.08    0.87 
   1   6  11   -0.08    1.03 
   1   6  11    1.11    1.16 
  -1  -6 -11    0.40    0.89 
  -1   6 -11    0.12    0.91 
  -1   6 -11    0.57    1.03 
   1  -6  11   -0.46    0.84 
   1  -6  12    0.91    1.16 
   1   6  12    0.66    1.08 
   1   6  12    1.65    1.12 
  -1  -6 -12    0.62    0.88 
  -1   6 -12   -0.50    0.92 
  -1   6 -12    1.14    1.36 
   1  -6  13   38.51    1.90 
   1   6  13   40.71    1.89 
   1   6  13   39.41    1.99 
  -1  -6 -13   38.40    1.75 
  -1   6 -13   37.89    1.79 
  -1   6 -13   37.65    2.13 
   1  -6  14   70.84    2.39 
   1   6  14   67.45    2.42 
   1   6  14   69.82    2.56 
  -1  -6 -14   70.96    2.24 
  -1   6 -14   69.16    2.42 
  -1   6 -14   71.32    2.65 
   1  -6  15   -1.47    1.05 
   1   6  15    2.15    1.32 
   1   6  15    0.69    1.18 
  -1   6 -15   -0.01    1.10 
   1  -6  16  477.74    5.64 
   1   6  16  471.73    5.59 
   1   6  16  479.48    5.98 
  -1   6 -16  465.69    5.43 
  -1   6 -16  468.58    6.09 
  -1  -6 -16  493.56    5.19 
   1  -6  17   16.78    1.73 
   1   6  17   18.25    1.62 
   1   6  17   15.66    1.64 
  -1   6 -17   19.44    1.70 
  -1   6 -17   17.03    1.71 
  -1  -6 -17   18.83    1.56 
   1  -6  18  184.08    3.56 
   1   6  18  190.81    3.53 
   1   6  18  181.22    3.72 
  -1   6 -18  192.22    3.59 
  -1   6 -18  186.44    3.95 
  -1  -6 -18  183.39    3.32 
   1  -6  19   -1.21    1.49 
   1   6  19    1.15    1.57 
   1   6  19   -0.57    1.32 
  -1   6 -19   -0.59    1.23 
  -1   6 -19    0.12    1.53 
  -1  -6 -19    0.63    1.09 
   1  -6  20    5.03    1.44 
   1   6  20    3.13    1.74 
  -1   6 -20    4.07    1.33 
  -1   6 -20    4.77    1.76 
  -1  -6 -20    5.75    1.31 
   1  -6  21   -0.33    1.47 
   1   6  21   -0.53    1.63 
  -1   6 -21    0.05    1.39 
  -1   6 -21   -0.98    1.74 
  -1  -6 -21   -0.12    1.31 
   1  -6  22  226.35    4.32 
   1   6  22  224.35    4.26 
  -1   6 -22  221.17    4.12 
  -1   6 -22  216.30    4.51 
  -1  -6 -22  232.70    4.05 
   1  -6  23    3.44    1.67 
   1   6  23    4.32    1.96 
  -1   6 -23    3.71    1.45 
  -1   6 -23    6.50    1.79 
  -1  -6 -23    2.60    1.73 
   1  -6  24  140.26    3.91 
   1   6  24  129.38    3.79 
  -1   6 -24  132.02    3.65 
  -1   6 -24  136.04    4.16 
  -1  -6 -24  140.65    3.80 
   1  -6  25    8.31    1.94 
   1   6  25    5.83    2.58 
  -1   6 -25    6.52    1.55 
  -1   6 -25    8.78    1.93 
  -1  -6 -25    9.36    1.78 
  -1  -7  24    0.23    1.81 
  -1   7  24    2.62    1.75 
  -1   7  24    1.88    1.66 
   1   7 -24    3.01    1.59 
  -1  -7  23  130.42    3.75 
  -1   7  23  130.58    3.70 
  -1   7  23  137.70    4.10 
   1   7 -23  136.12    3.86 
  -1  -7  22    7.03    1.80 
  -1   7  22    9.95    1.91 
  -1   7  22    6.08    1.88 
   1   7 -22    8.70    1.85 
  -1  -7  21   77.32    2.85 
  -1   7  21   78.13    2.75 
  -1   7  21   79.39    2.97 
   1   7 -21   77.80    2.63 
  -1  -7  20    3.55    1.70 
  -1   7  20    1.55    1.48 
  -1   7  20    3.84    1.45 
   1   7 -20    3.05    1.54 
  -1  -7  19    3.28    1.53 
  -1   7  19    4.84    1.46 
  -1   7  19    2.78    1.44 
   1   7 -19    0.62    1.67 
  -1  -7  18    9.16    1.67 
  -1   7  18    8.56    1.63 
  -1   7  18    7.40    1.79 
  -1  -7  17  155.08    3.43 
  -1   7  17  163.59    3.34 
  -1   7  17  159.02    3.63 
  -1  -7  16   24.07    2.02 
  -1   7  16   33.08    2.13 
  -1   7  16   20.16    1.77 
  -1  -7  15  103.90    2.81 
  -1   7  15  108.34    2.80 
  -1   7  15   99.00    2.87 
  -1  -7  14  245.66    4.17 
  -1   7  14  236.39    3.84 
  -1   7  14  230.14    4.26 
   1   7 -14  229.82    4.06 
  -1  -7  13   25.68    1.87 
  -1   7  13   28.28    1.70 
  -1   7  13   28.23    1.82 
   1   7 -13   26.40    1.79 
   1   7 -13   26.02    1.74 
  -1  -7  12    7.82    1.30 
  -1   7  12    9.38    1.32 
  -1   7  12    8.63    1.49 
   1   7 -12   10.02    1.39 
   1   7 -12    8.65    1.28 
  -1  -7  11  123.65    3.24 
  -1   7  11  124.34    3.02 
   1  -7 -11  118.60    3.06 
  -1   7  11  122.02    3.37 
   1   7 -11  118.99    3.10 
   1   7 -11  119.35    3.31 
  -1  -7  10   54.88    2.22 
  -1   7  10   53.80    2.12 
   1  -7 -10   52.78    2.13 
  -1   7  10   53.83    2.35 
   1   7 -10   54.49    2.22 
   1   7 -10   54.11    2.32 
  -1  -7   9  198.13    4.41 
  -1   7   9  201.55    4.25 
   1  -7  -9  200.34    4.38 
  -1   7   9  198.43    4.49 
   1   7  -9  205.37    4.39 
   1   7  -9  197.05    4.60 
  -1  -7   8   23.11    1.60 
  -1   7   8   21.44    1.44 
   1  -7  -8   22.07    1.51 
  -1   7   8   21.71    1.68 
   1   7  -8   23.22    1.68 
   1   7  -8   22.51    1.60 
  -1   7   7  218.86    4.68 
  -1  -7   7  215.88    4.81 
  -1   7   7  221.53    4.69 
  -1   7   7  218.86    4.86 
   1   7  -7  221.58    4.72 
   1   7  -7  221.84    5.09 
  -1   7   6   29.25    1.59 
  -1  -7   6   28.70    1.68 
  -1   7   6   31.10    1.65 
  -1   7   6   29.51    1.73 
   1   7  -6   29.91    1.76 
   1  -7  -6   29.28    1.74 
  -1  -7   5   63.71    2.31 
  -1   7   5   68.04    2.30 
  -1   7   5   67.42    2.27 
  -1   7   5   65.89    2.42 
   1   7  -5   64.09    2.22 
   1  -7  -5   64.23    2.42 
  -1  -7   4   56.21    2.27 
  -1   7   4   53.67    2.02 
  -1   7   4   55.17    2.10 
  -1   7   4   53.37    2.24 
   1   7  -4   60.12    2.15 
   1  -7  -4   55.90    2.37 
  -1  -7   3    1.92    1.12 
  -1   7   3    3.53    0.91 
  -1   7   3    2.65    0.99 
  -1   7   3    2.64    1.14 
   1   7  -3    1.93    1.02 
   1  -7  -3    1.88    1.12 
  -1   7   2   42.42    1.81 
  -1   7   2   42.72    1.91 
   1   7  -2   44.30    2.13 
  -1   7   2   43.28    1.99 
   1   7  -2   43.84    1.88 
   1  -7  -2   43.69    2.12 
  -1   7   1   73.26    2.31 
  -1   7   1   76.08    2.46 
   1   7  -1   69.65    2.59 
  -1   7   1   76.10    2.51 
   1   7  -1   71.27    2.38 
   1  -7  -1   71.49    2.59 
  -1  -7   1   72.73    2.51 
  -1   7   0   38.00    1.71 
  -1   7   0   38.20    1.84 
   1   7   0   33.48    1.80 
  -1   7   0   39.19    1.90 
   1   7   0   35.44    1.68 
  -1  -7   0   35.65    1.67 
   1  -7   0   36.79    1.97 
  -1  -7   0   33.21    1.80 
  -1   7  -1  215.95    4.09 
   1   7   1  206.85    4.33 
  -1   7  -1  220.95    4.43 
  -1   7  -1  214.70    4.26 
   1   7   1  227.96    4.34 
  -1  -7  -1  221.78    4.14 
  -1  -7  -1  212.82    4.60 
   1  -7   1  225.93    4.60 
  -1   7  -2   57.63    1.95 
   1   7   2   60.77    2.34 
  -1   7  -2   60.87    2.27 
  -1   7  -2   55.81    2.17 
   1   7   2   59.70    2.17 
  -1  -7  -2   58.60    2.04 
  -1   7  -2   61.37    2.43 
  -1  -7  -2   58.72    2.30 
   1  -7   2   60.52    2.32 
   1  -7   3  318.01    5.36 
  -1   7  -3  310.64    5.12 
   1   7   3  329.40    5.52 
   1   7   3  314.18    5.34 
  -1  -7  -3  316.47    5.08 
  -1  -7  -3  320.51    5.68 
  -1   7  -3  326.09    5.89 
   1  -7   3  316.66    5.60 
   1  -7   4   47.42    2.02 
  -1   7  -4   47.53    1.83 
   1   7   4   46.30    2.11 
   1   7   4   45.23    2.03 
  -1  -7  -4   48.23    1.85 
  -1   7  -4   47.32    2.26 
   1  -7   4   45.49    2.03 
   1  -7   5   13.29    1.37 
  -1   7  -5   12.08    1.13 
   1   7   5   13.02    1.30 
   1   7   5   11.89    1.38 
  -1  -7  -5   14.30    1.24 
  -1   7  -5   13.88    1.55 
   1  -7   5   12.04    1.29 
   1  -7   6   39.32    1.87 
  -1   7  -6   40.83    1.74 
   1   7   6   40.38    1.97 
   1   7   6   39.11    1.96 
  -1  -7  -6   38.43    1.73 
  -1   7  -6   38.28    2.09 
   1  -7   6   41.66    1.97 
   1  -7   7  266.04    5.37 
  -1   7  -7  266.94    5.06 
   1   7   7  267.39    5.46 
   1   7   7  279.85    5.64 
  -1   7  -7  253.50    5.18 
  -1  -7  -7  263.61    5.19 
  -1   7  -7  263.63    5.79 
   1  -7   7  266.70    5.45 
   1  -7   8   45.01    1.98 
  -1   7  -8   46.32    1.77 
   1   7   8   44.89    2.00 
   1   7   8   47.63    2.10 
  -1   7  -8   44.58    1.99 
  -1  -7  -8   45.59    1.82 
  -1   7  -8   42.47    2.17 
   1  -7   8   45.18    1.87 
   1  -7   9 1183.08   16.41 
   1   7   9 1225.84    9.31 
   1   7   9 1198.63    9.45 
  -1   7  -9 1169.23   16.15 
  -1  -7  -9 1151.43   15.83 
  -1   7  -9 1159.90   16.69 
   1  -7   9 1209.85    8.81 
   1  -7  10    0.98    1.06 
   1   7  10    0.76    1.15 
   1   7  10    0.99    1.15 
  -1   7 -10    0.54    1.08 
  -1   7 -10    0.75    1.27 
   1  -7  10    0.28    0.96 
   1  -7  11   16.12    1.52 
   1   7  11   15.48    1.66 
   1   7  11   13.56    1.39 
  -1   7 -11   15.03    1.42 
  -1   7 -11   14.49    1.70 
   1  -7  12   22.59    1.52 
   1   7  12   19.21    1.61 
   1   7  12   21.13    1.58 
  -1   7 -12   19.49    1.61 
  -1   7 -12   20.51    1.80 
   1  -7  13  189.21    3.57 
   1   7  13  180.12    3.51 
   1   7  13  179.69    3.71 
  -1   7 -13  182.43    3.50 
  -1   7 -13  195.10    4.09 
   1  -7  14    0.26    1.10 
   1   7  14   -0.50    1.32 
   1   7  14   -0.53    1.24 
  -1   7 -14   -0.36    1.42 
  -1   7 -14   -0.05    1.48 
   1  -7  15  315.26    5.21 
   1   7  15  312.54    5.05 
   1   7  15  316.74    5.45 
  -1   7 -15  302.05    5.09 
  -1   7 -15  306.99    5.61 
   1  -7  16   -0.86    1.22 
   1   7  16    0.25    1.17 
   1   7  16    0.25    1.10 
  -1   7 -16    0.89    1.42 
  -1   7 -16   -1.66    1.44 
  -1  -7 -16    0.15    1.04 
   1  -7  17   49.51    2.23 
   1   7  17   47.78    2.08 
   1   7  17   50.14    2.27 
  -1   7 -17   53.38    2.15 
  -1   7 -17   51.63    2.46 
  -1  -7 -17   52.84    1.96 
   1  -7  18   17.62    1.61 
   1   7  18   21.19    1.94 
   1   7  18   18.60    1.68 
  -1   7 -18   20.33    1.85 
  -1   7 -18   19.73    1.90 
  -1  -7 -18   21.95    1.67 
   1  -7  19    3.33    1.60 
   1   7  19    5.91    1.60 
  -1   7 -19    7.72    1.63 
  -1   7 -19    5.64    1.68 
  -1  -7 -19    6.31    1.38 
   1  -7  20   32.13    2.15 
   1   7  20   33.28    2.22 
  -1   7 -20   32.01    2.06 
  -1   7 -20   34.07    2.16 
  -1  -7 -20   33.85    1.98 
   1  -7  21   42.07    2.14 
   1   7  21   43.21    2.26 
  -1   7 -21   45.37    2.12 
  -1   7 -21   47.45    2.35 
  -1  -7 -21   44.97    1.99 
   1  -7  22    5.94    1.61 
   1   7  22    6.02    1.87 
  -1   7 -22    6.60    1.63 
  -1   7 -22    4.64    1.88 
  -1  -7 -22    3.49    1.47 
   1  -7  23   56.66    2.40 
   1   7  23   54.36    2.58 
  -1   7 -23   56.34    2.28 
  -1   7 -23   52.71    2.53 
  -1  -7 -23   50.90    2.14 
  -1  -8  22   37.62    2.40 
  -1   8  22   31.58    2.19 
  -1   8  22   36.83    2.36 
   1   8 -22   34.50    2.17 
  -1  -8  21   21.46    2.15 
  -1   8  21   20.84    2.13 
  -1   8  21   21.80    2.17 
   1   8 -21   22.90    2.03 
  -1  -8  20   64.11    2.59 
  -1   8  20   66.49    2.60 
  -1   8  20   68.58    2.78 
   1   8 -20   66.41    2.40 
  -1  -8  19   74.09    2.86 
  -1   8  19   69.62    2.51 
  -1   8  19   71.51    2.80 
   1   8 -19   67.55    2.57 
  -1  -8  18   41.76    2.22 
  -1   8  18   47.28    2.36 
  -1   8  18   46.02    2.51 
  -1  -8  17   39.42    2.17 
  -1   8  17   40.90    1.97 
  -1   8  17   40.66    2.32 
  -1  -8  16  126.13    3.19 
  -1   8  16  121.52    2.86 
  -1   8  16  122.75    3.32 
  -1  -8  15   -1.45    1.62 
  -1   8  15   -0.53    1.20 
  -1   8  15   -0.07    1.45 
   1   8 -15   -0.35    1.24 
  -1  -8  14   66.68    2.59 
  -1   8  14   68.02    2.19 
  -1   8  14   67.99    2.57 
   1   8 -14   72.07    2.49 
  -1  -8  13   93.99    3.00 
  -1   8  13   96.23    2.69 
  -1   8  13   97.50    3.08 
   1   8 -13  100.12    2.92 
  -1  -8  12   60.12    2.29 
  -1   8  12   63.06    2.17 
  -1   8  12   65.47    2.50 
   1   8 -12   64.54    2.42 
  -1  -8  11   -1.25    1.40 
  -1   8  11    2.46    1.16 
  -1   8  11    3.69    1.58 
   1   8 -11    1.28    1.21 
  -1  -8  10   -0.13    1.34 
  -1   8  10    0.09    1.06 
  -1   8  10    0.34    1.24 
   1   8 -10    2.08    1.37 
  -1  -8   9   22.45    1.79 
  -1   8   9   19.59    1.44 
  -1   8   9   17.92    1.64 
   1   8  -9   19.29    1.77 
  -1   8   8   25.47    1.50 
  -1  -8   8   30.12    1.86 
  -1   8   8   27.88    1.54 
  -1   8   8   26.56    1.98 
   1   8  -8   27.76    1.80 
  -1   8   7   47.99    1.92 
  -1  -8   7   49.33    2.16 
  -1   8   7   49.96    2.02 
  -1   8   7   54.98    2.32 
   1   8  -7   51.36    2.19 
  -1  -8   6   62.13    2.40 
  -1   8   6   60.66    2.19 
  -1   8   6   61.61    2.22 
  -1   8   6   58.30    2.38 
   1   8  -6   61.08    2.31 
  -1  -8   5    0.41    1.07 
  -1   8   5    0.21    0.92 
  -1   8   5    1.45    0.99 
  -1   8   5    1.14    1.26 
   1   8  -5    0.59    1.11 
  -1   8   4   20.07    1.42 
  -1   8   4   19.16    1.37 
  -1   8   4   20.71    1.65 
   1   8  -4   21.38    1.53 
   1  -8  -4   19.40    1.59 
  -1   8   3   26.48    1.45 
  -1   8   3   26.06    1.52 
   1   8  -3   25.69    1.71 
  -1   8   3   28.21    1.82 
   1   8  -3   26.06    1.68 
   1  -8  -3   26.94    1.77 
  -1   8   2  262.99    5.04 
  -1   8   2  260.66    5.17 
   1   8  -2  268.53    5.44 
  -1   8   2  260.68    5.24 
   1   8  -2  272.52    5.28 
   1  -8  -2  257.98    5.43 
  -1   8   1  313.41    5.69 
  -1   8   1  304.50    5.78 
   1   8  -1  309.18    5.91 
  -1   8   1  311.26    5.84 
   1   8  -1  313.34    5.77 
   1  -8  -1  311.03    6.04 
  -1  -8   1  307.10    5.93 
  -1   8   0  111.91    2.95 
  -1   8   0  111.89    3.11 
   1   8   0  115.87    3.36 
  -1   8   0  115.74    3.26 
   1   8   0  112.89    3.09 
   1  -8   0  115.62    3.38 
  -1  -8   0  113.28    3.29 
  -1   8  -1    5.91    1.01 
   1   8   1    2.99    1.23 
  -1   8  -1    5.97    1.19 
  -1   8  -1    5.15    1.41 
   1   8   1    7.92    1.26 
  -1  -8  -1    5.19    1.06 
   1  -8   1    4.96    1.19 
  -1   8  -2   14.09    1.13 
   1   8   2   13.35    1.44 
  -1   8  -2   16.93    1.52 
  -1   8  -2   14.40    1.45 
   1   8   2   15.54    1.50 
  -1  -8  -2   14.45    1.38 
   1  -8   2   14.07    1.32 
  -1   8  -3  222.28    4.37 
   1   8   3  224.34    4.73 
  -1   8  -3  231.15    4.88 
   1   8   3  222.47    4.63 
  -1   8  -3  202.19    4.50 
  -1  -8  -3  216.77    4.88 
   1  -8   3  232.07    4.98 
   1  -8   4   23.46    1.64 
  -1   8  -4   23.50    1.45 
   1   8   4   23.31    1.70 
   1   8   4   21.69    1.54 
  -1   8  -4   25.76    1.90 
  -1  -8  -4   24.47    1.67 
   1  -8   4   23.91    1.60 
   1  -8   5  523.71    7.59 
  -1   8  -5  516.96    7.08 
   1   8   5  527.68    7.64 
   1   8   5  513.33    7.44 
  -1  -8  -5  507.99    7.83 
  -1   8  -5  506.47    7.96 
   1  -8   5  518.54    7.68 
   1  -8   6   91.20    2.80 
   1   8   6   95.30    2.81 
   1   8   6   93.50    2.81 
  -1   8  -6   93.06    3.05 
   1  -8   6   93.69    2.74 
   1  -8   7  119.86    3.11 
   1   8   7  124.50    3.24 
   1   8   7  124.98    3.30 
  -1   8  -7  123.89    3.51 
   1  -8   7  124.47    3.15 
   1  -8   8   21.15    1.52 
   1   8   8   19.13    1.59 
   1   8   8   18.27    1.66 
  -1   8  -8   19.59    1.52 
  -1   8  -8   19.25    1.73 
   1  -8   8   18.86    1.42 
   1  -8   9  122.65    2.99 
   1   8   9  120.87    2.94 
   1   8   9  123.52    3.04 
  -1   8  -9  124.90    3.05 
  -1   8  -9  122.52    3.37 
   1  -8  10   56.19    2.22 
   1   8  10   52.80    2.17 
   1   8  10   52.62    2.25 
  -1   8 -10   52.75    2.16 
  -1   8 -10   50.70    2.38 
   1  -8  11  124.05    3.03 
   1   8  11  123.12    2.94 
   1   8  11  127.57    3.12 
  -1   8 -11  126.20    3.06 
  -1   8 -11  122.68    3.36 
   1  -8  12   -2.01    1.32 
   1   8  12    0.30    1.14 
   1   8  12    1.21    1.39 
  -1   8 -12    1.32    1.21 
  -1   8 -12    0.60    1.39 
   1  -8  13   27.95    1.75 
   1   8  13   27.99    1.77 
   1   8  13   28.68    1.96 
  -1   8 -13   29.26    1.89 
  -1   8 -13   30.99    2.13 
   1  -8  14   26.76    1.72 
   1   8  14   28.32    1.83 
   1   8  14   25.25    1.82 
  -1   8 -14   26.68    1.86 
  -1   8 -14   28.78    2.04 
   1  -8  15   22.44    1.67 
   1   8  15   22.87    1.66 
   1   8  15   23.25    1.80 
  -1   8 -15   27.15    2.01 
  -1   8 -15   22.61    2.03 
   1  -8  16   67.37    2.50 
   1   8  16   66.20    2.27 
   1   8  16   66.64    2.51 
  -1   8 -16   69.92    2.53 
  -1   8 -16   66.41    2.70 
   1  -8  17   30.54    2.02 
   1   8  17   31.24    1.98 
  -1   8 -17   32.16    2.04 
  -1   8 -17   31.58    2.19 
  -1  -8 -17   31.84    1.76 
   1  -8  18   21.01    1.76 
   1   8  18   21.04    1.89 
  -1   8 -18   18.70    1.77 
  -1   8 -18   18.57    1.99 
  -1  -8 -18   20.72    1.57 
   1  -8  19    8.17    1.74 
   1   8  19    6.57    1.55 
  -1   8 -19    7.77    1.51 
  -1   8 -19    6.47    1.58 
  -1  -8 -19    5.91    1.35 
   1  -8  20  124.53    3.11 
   1   8  20  132.43    3.17 
  -1   8 -20  124.78    3.04 
  -1  -8 -20  130.70    2.87 
   1  -8  21   10.33    1.72 
   1   8  21    9.18    1.94 
  -1   8 -21   11.02    1.64 
  -1  -8 -21    8.18    1.59 
   1  -8  22  126.95    3.18 
   1   8  22  123.26    3.01 
  -1   8 -22  118.89    3.01 
  -1  -8 -22  121.42    3.10 
  -1  -9  20   -0.34    1.75 
  -1   9  20   -1.93    1.89 
  -1   9  20    2.29    1.83 
   1   9 -20   -0.58    1.63 
  -1  -9  19    4.04    1.88 
  -1   9  19    3.00    1.72 
  -1   9  19   -0.10    1.72 
  -1  -9  18   17.83    2.05 
  -1   9  18   19.28    1.93 
  -1   9  18   18.80    2.11 
  -1  -9  17   21.37    2.09 
  -1   9  17   22.06    1.80 
  -1   9  17   20.58    1.93 
  -1  -9  16   35.01    2.29 
  -1   9  16   33.54    1.85 
  -1   9  16   37.96    2.37 
   1   9 -16   31.35    2.02 
  -1  -9  15    0.10    1.54 
  -1   9  15    2.14    1.27 
  -1   9  15    0.62    1.83 
   1   9 -15    0.19    1.54 
  -1  -9  14    4.50    1.57 
  -1   9  14    5.95    1.35 
  -1   9  14    3.76    1.59 
   1   9 -14    4.99    1.69 
  -1  -9  13   56.32    2.38 
  -1   9  13   56.35    2.18 
  -1   9  13   57.57    2.54 
   1   9 -13   55.72    2.22 
  -1  -9  12   53.69    2.33 
  -1   9  12   57.07    2.12 
  -1   9  12   56.17    2.51 
   1   9 -12   53.32    2.20 
  -1  -9  11    1.10    1.64 
  -1   9  11    1.16    1.09 
  -1   9  11    1.34    1.44 
   1   9 -11    0.37    1.44 
  -1  -9  10  419.98    6.35 
  -1   9  10  405.58    5.90 
  -1   9  10  406.40    6.31 
   1   9 -10  424.94    6.22 
  -1  -9   9   35.21    2.12 
  -1   9   9   29.84    1.63 
  -1   9   9   30.71    2.05 
   1   9  -9   31.22    1.89 
  -1  -9   8   98.16    3.00 
  -1   9   8  101.51    2.78 
  -1   9   8  103.16    3.06 
   1   9  -8  100.06    2.86 
  -1  -9   7  106.72    2.94 
  -1   9   7  101.70    2.66 
  -1   9   7  102.99    2.96 
   1   9  -7  101.97    2.73 
  -1  -9   6   93.69    2.74 
  -1   9   6   91.96    2.58 
  -1   9   6   91.90    2.78 
   1   9  -6   94.43    2.64 
  -1   9   5    2.06    1.14 
   1   9  -5    3.01    1.63 
  -1   9   5    4.76    1.36 
   1   9  -5    2.40    1.44 
  -1   9   4  726.17    7.03 
   1   9  -4  733.68    7.30 
  -1   9   4  732.17    7.19 
   1   9  -4  734.57    6.91 
  -1   9   3    8.36    1.31 
   1   9  -3   10.85    1.60 
  -1   9   3   10.19    1.45 
   1   9  -3    8.23    1.42 
  -1   9   2  149.56    3.07 
  -1   9   2  140.04    3.15 
   1   9  -2  144.14    3.35 
  -1   9   2  143.09    3.24 
   1   9  -2  147.65    3.16 
  -1   9   1  250.88    3.87 
  -1   9   1  245.49    4.07 
   1   9  -1  242.96    4.18 
  -1   9   1  250.90    4.23 
   1   9  -1  251.56    4.06 
  -1  -9   1  247.30    4.20 
  -1   9   0   22.96    1.60 
   1   9   0   21.75    1.65 
  -1   9   0   22.18    1.90 
   1   9   0   22.34    1.64 
  -1  -9   0   22.76    1.59 
   1   9   1  107.52    2.89 
  -1   9  -1  100.51    2.87 
  -1   9  -1  112.18    2.95 
   1   9   1  104.78    2.88 
  -1  -9  -1  107.16    2.94 
   1  -9   1  103.57    2.93 
   1   9   2   39.08    1.96 
  -1   9  -2   39.90    1.88 
  -1   9  -2   43.75    2.19 
   1   9   2   43.10    1.96 
  -1  -9  -2   41.37    1.97 
   1  -9   2   39.53    1.89 
   1   9   3   41.23    2.12 
  -1   9  -3   42.40    2.04 
   1   9   3   40.88    1.92 
  -1   9  -3   41.57    2.04 
  -1  -9  -3   40.59    1.99 
   1  -9   3   43.25    1.99 
   1   9   4   10.65    1.57 
  -1   9  -4   10.60    1.38 
   1   9   4   11.35    1.41 
  -1  -9  -4   11.02    1.34 
   1  -9   4   11.96    1.26 
   1  -9   5   42.03    2.00 
   1   9   5   40.87    1.94 
   1   9   5   40.35    2.01 
  -1   9  -5   42.37    2.16 
  -1  -9  -5   39.84    1.99 
   1  -9   6    2.12    1.23 
   1   9   6    0.92    1.13 
   1   9   6   -0.30    1.29 
  -1   9  -6   -0.45    1.24 
   1  -9   7   89.05    2.63 
   1   9   7   94.84    2.71 
   1   9   7   90.71    2.67 
  -1   9  -7   90.97    2.92 
   1  -9   8   59.11    2.24 
   1   9   8   58.83    2.25 
   1   9   8   61.09    2.42 
  -1   9  -8   56.36    2.22 
  -1   9  -8   59.25    2.48 
   1  -9   9  156.53    3.52 
   1   9   9  156.97    3.59 
   1   9   9  155.57    3.70 
  -1   9  -9  154.24    3.57 
  -1   9  -9  157.38    3.92 
   1  -9  10   15.07    1.49 
   1   9  10   18.33    1.81 
   1   9  10   17.23    1.60 
  -1   9 -10   17.43    1.63 
  -1   9 -10   15.62    1.70 
   1  -9  11   11.06    1.56 
   1   9  11    7.46    1.42 
   1   9  11    7.55    1.52 
  -1   9 -11    6.97    1.69 
  -1   9 -11    5.21    1.46 
   1  -9  12   47.73    2.11 
   1   9  12   50.62    2.31 
   1   9  12   48.24    2.23 
  -1   9 -12   50.26    2.17 
  -1   9 -12   46.48    2.27 
   1  -9  13   20.46    1.71 
   1   9  13   19.57    1.77 
   1   9  13   23.29    1.82 
  -1   9 -13   19.21    1.70 
  -1   9 -13   19.93    1.83 
   1  -9  14   27.25    1.83 
   1   9  14   24.46    1.74 
   1   9  14   25.44    1.82 
  -1   9 -14   28.44    1.88 
   1  -9  15   22.71    1.80 
   1   9  15   23.70    1.75 
   1   9  15   23.62    1.84 
  -1   9 -15   24.06    1.88 
   1  -9  16   11.63    1.75 
   1   9  16    9.98    1.81 
  -1   9 -16   12.37    1.77 
  -1  -9 -16   11.47    1.35 
   1  -9  17   28.13    1.99 
   1   9  17   31.80    2.05 
  -1   9 -17   31.26    1.95 
  -1  -9 -17   30.82    1.85 
   1  -9  18   20.02    1.91 
   1   9  18   22.53    1.86 
  -1   9 -18   25.26    1.98 
  -1  -9 -18   27.25    1.76 
   1  -9  19   -1.05    1.41 
   1   9  19   -0.05    1.61 
  -1   9 -19   -0.55    1.71 
  -1  -9 -19   -0.04    1.35 
   1  -9  20   90.32    2.96 
   1   9  20   90.95    2.75 
  -1   9 -20   88.02    2.80 
  -1  -9 -20   89.11    2.54 
  -1  10  18    7.37    1.60 
  -1  10  18    8.30    1.87 
  -1 -10  17   49.15    2.43 
  -1  10  17   49.35    2.13 
  -1  10  17   46.43    2.35 
  -1 -10  16   -2.28    1.53 
  -1  10  16    0.62    1.43 
  -1  10  16   -1.15    1.73 
   1  10 -16    1.64    1.60 
  -1 -10  15   10.64    1.82 
  -1  10  15   10.03    1.48 
  -1  10  15    8.57    1.91 
   1  10 -15    9.73    1.90 
  -1 -10  14   15.44    1.85 
  -1  10  14   12.74    1.55 
  -1  10  14   13.14    1.90 
   1  10 -14   15.11    1.79 
  -1 -10  13  144.60    3.47 
  -1  10  13  146.59    3.32 
  -1  10  13  141.93    3.62 
   1  10 -13  154.38    3.48 
  -1 -10  12   15.80    1.85 
  -1  10  12   14.15    1.44 
  -1  10  12   14.46    1.78 
   1  10 -12   13.53    1.68 
  -1 -10  11   85.76    3.02 
  -1  10  11   83.32    2.66 
  -1  10  11   86.06    3.09 
   1  10 -11   87.07    3.00 
  -1 -10  10   11.20    1.62 
  -1  10  10   12.16    1.37 
  -1  10  10   12.39    1.75 
   1  10 -10   12.27    1.83 
  -1 -10   9    5.62    1.66 
  -1  10   9    4.22    1.18 
  -1  10   9    5.27    1.62 
   1  10  -9    5.12    1.51 
  -1 -10   8    1.78    1.32 
  -1  10   8    1.08    1.08 
  -1  10   8    1.63    1.53 
   1  10  -8    0.22    1.44 
  -1 -10   7    1.48    1.39 
  -1  10   7    0.93    1.27 
  -1  10   7    0.10    1.50 
   1  10  -7    1.33    1.50 
  -1  10   6   88.88    2.55 
   1  10  -6   88.64    2.76 
  -1  10   6   95.25    2.95 
   1  10  -6   93.00    2.80 
  -1  10   5   37.77    1.86 
   1  10  -5   40.39    2.37 
  -1  10   5   39.11    2.11 
   1  10  -5   42.70    2.17 
  -1  10   4   55.58    2.19 
   1  10  -4   51.43    2.44 
  -1  10   4   52.90    2.41 
   1  10  -4   54.22    2.28 
  -1  10   3    6.18    1.34 
   1  10  -3    4.65    1.73 
  -1  10   3    6.82    1.71 
   1  10  -3    5.12    1.51 
  -1  10   2   60.19    2.17 
   1  10  -2   59.63    2.48 
  -1  10   2   65.37    2.58 
   1  10  -2   63.33    2.44 
  -1  10   1  200.40    4.05 
   1  10  -1  198.61    4.14 
  -1  10   1  197.64    4.11 
   1  10  -1  193.74    4.00 
  -1  10   0   16.83    1.58 
   1  10   0   17.78    1.72 
  -1  10   0   16.20    1.83 
   1  10   0   15.10    1.73 
   1  10   1    2.44    1.33 
  -1  10  -1    0.69    1.22 
  -1  10  -1    1.04    1.50 
   1  10   1   -0.77    1.32 
   1  10   2   42.51    2.00 
  -1  10  -2   43.00    2.11 
   1  10   2   41.88    2.12 
  -1  10  -2   42.49    2.19 
   1  10   3  111.99    3.04 
  -1  10  -3  114.72    3.00 
   1  10   3  104.80    2.80 
  -1  10  -3  109.60    3.11 
   1  10   4    5.14    1.47 
  -1  10  -4    6.40    1.36 
   1  10   4    7.43    1.65 
  -1  10  -4    6.98    1.51 
   1  10   5  253.57    4.21 
  -1  10  -5  255.16    4.32 
   1  10   5  255.61    4.20 
   1  10   6   16.40    1.78 
   1  10   6   11.25    1.62 
   1 -10   7   36.85    2.02 
   1  10   7   36.53    1.97 
   1  10   7   39.90    2.08 
   1 -10   8    5.05    1.34 
   1  10   8    4.09    1.47 
   1  10   8    5.08    1.48 
   1 -10   9   57.98    2.24 
   1  10   9   60.12    2.27 
   1  10   9   63.70    2.47 
  -1  10  -9   58.36    2.41 
   1 -10  10    4.07    1.42 
   1  10  10    3.62    1.51 
   1  10  10    4.36    1.52 
  -1  10 -10    2.18    1.56 
   1 -10  11  240.71    5.29 
   1  10  11  237.96    5.08 
   1  10  11  235.29    5.24 
  -1  10 -11  234.34    5.17 
   1 -10  12   22.74    1.87 
   1  10  12   22.98    1.85 
   1  10  12   18.96    1.76 
  -1  10 -12   20.88    1.85 
   1 -10  13   85.62    2.71 
   1  10  13   80.44    2.63 
   1  10  13   82.87    2.89 
  -1  10 -13   80.50    2.66 
   1 -10  14   54.64    2.37 
   1  10  14   52.06    2.24 
   1  10  14   53.57    2.38 
  -1  10 -14   54.76    2.33 
   1 -10  15   17.82    1.86 
   1  10  15   16.58    1.68 
  -1  10 -15   17.62    1.80 
   1 -10  16   16.95    1.73 
   1  10  16   14.75    1.88 
  -1  10 -16   18.12    1.99 
  -1 -10 -16   17.62    1.56 
   1 -10  17  133.35    3.29 
   1  10  17  138.71    3.16 
  -1  10 -17  138.96    3.23 
  -1 -10 -17  142.47    2.98 
  -1 -11  15    1.30    1.77 
  -1  11  15    1.68    1.42 
  -1  11  15    0.06    1.72 
   1  11 -15   -0.79    1.54 
  -1 -11  14   27.16    2.20 
  -1  11  14   28.00    1.78 
  -1  11  14   26.89    2.31 
   1  11 -14   25.77    2.05 
  -1 -11  13    2.11    1.88 
  -1  11  13   -1.13    1.31 
  -1  11  13   -1.11    1.63 
   1  11 -13    1.47    1.69 
  -1 -11  12   27.72    2.12 
  -1  11  12   24.08    1.75 
  -1  11  12   24.22    2.08 
   1  11 -12   24.58    2.05 
  -1 -11  11    5.01    1.78 
  -1  11  11    6.20    1.38 
  -1  11  11    3.97    1.83 
   1  11 -11    5.94    1.81 
  -1 -11  10  250.35    4.25 
  -1  11  10  236.84    4.27 
  -1  11  10  246.99    4.32 
   1  11 -10  230.75    4.04 
  -1 -11   9   13.46    1.71 
  -1  11   9   12.07    1.52 
  -1  11   9   11.32    2.13 
   1  11  -9   10.60    1.86 
  -1  11   8   24.74    1.75 
   1  11  -8   23.02    2.15 
  -1  11   8   21.47    1.94 
   1  11  -8   21.67    1.94 
  -1  11   7    1.51    1.24 
   1  11  -7    0.46    1.68 
  -1  11   7    0.92    1.70 
   1  11  -7    3.47    1.56 
  -1  11   6   75.33    2.64 
   1  11  -6   77.52    2.91 
  -1  11   6   77.81    2.92 
   1  11  -6   78.02    2.86 
  -1  11   5    3.24    1.34 
   1  11  -5    3.37    1.76 
  -1  11   5    4.42    1.83 
   1  11  -5   -0.74    1.82 
  -1  11   4  505.80    9.58 
   1  11  -4  535.41    9.55 
  -1  11   4  528.46    9.48 
   1  11  -4  532.88    9.37 
  -1  11   3    7.54    1.36 
   1  11  -3    6.50    1.74 
  -1  11   3    6.26    1.71 
   1  11  -3    5.56    1.79 
  -1  11   2   21.71    1.65 
   1  11  -2   20.31    2.04 
  -1  11   2   21.99    1.96 
   1  11  -2   20.08    1.95 
  -1  11   1   -0.22    1.18 
   1  11  -1    2.73    1.68 
  -1  11   1   -0.49    1.57 
   1  11  -1   -0.98    1.29 
  -1  11   0    3.49    1.34 
   1  11   0    4.28    1.71 
  -1  11   0    2.81    1.64 
   1  11   0    4.16    1.44 
   1  11   1   10.20    1.71 
  -1  11  -1   12.60    1.50 
  -1  11  -1    8.61    1.79 
   1  11   1   10.99    1.69 
   1  11   2   63.97    2.49 
  -1  11  -2   63.68    2.58 
   1  11   2   66.67    2.62 
  -1  11  -2   66.72    2.77 
   1  11   3   10.55    1.58 
  -1  11  -3   11.98    1.52 
   1  11   3   10.97    1.65 
  -1  11  -3    6.02    1.66 
   1  11   4   84.30    2.93 
  -1  11  -4   78.09    2.73 
   1  11   4   88.97    2.97 
  -1  11  -4   83.23    2.92 
   1  11   5    2.84    1.58 
  -1  11  -5    2.35    1.52 
   1  11   5    0.57    1.47 
  -1  11  -5    1.13    1.70 
   1  11   6   21.69    1.72 
  -1  11  -6   22.29    1.85 
   1  11   6   20.23    1.99 
   1  11   7    4.15    1.51 
  -1  11  -7    3.06    1.37 
   1  11   7    1.06    1.59 
   1  11   8   10.85    1.62 
   1  11   8   16.44    1.81 
   1  11   9    2.01    1.66 
   1  11   9   -0.49    1.37 
  -1  11  -9    0.98    1.62 
   1  11  10    6.48    1.64 
   1  11  10    4.37    1.69 
  -1  11 -10    5.87    1.82 
   1  11  11    0.88    1.53 
   1  11  11    0.54    1.39 
  -1  11 -11    0.39    1.75 
   1  11  12   91.69    3.15 
   1  11  12   92.10    3.16 
  -1  11 -12   90.03    3.14 
   1  11  13   17.35    1.76 
  -1  11 -13   17.40    2.00 
   1  11  14   60.65    2.35 
  -1  11 -14   61.88    2.59 
   1  12 -10    1.35    1.85 
  -1  12  10    2.72    1.89 
   1  12 -10    2.21    1.80 
   1  12  -9    7.13    1.94 
  -1  12   9    5.50    1.98 
   1  12  -9    5.50    1.67 
  -1  12   8   40.05    1.97 
   1  12  -8   44.58    2.48 
  -1  12   8   41.03    2.42 
   1  12  -8   44.07    2.42 
  -1  12   7    4.85    1.40 
   1  12  -7    4.81    1.68 
  -1  12   7    4.21    1.82 
   1  12  -7    7.75    1.85 
  -1  12   6   35.49    1.91 
   1  12  -6   40.17    2.19 
  -1  12   6   33.51    2.16 
   1  12  -6   39.08    2.18 
  -1  12   5   23.36    1.76 
   1  12  -5   25.83    2.04 
  -1  12   5   28.25    2.11 
   1  12  -5   31.59    2.19 
  -1  12   4    3.29    1.38 
   1  12  -4    1.48    1.73 
  -1  12   4    3.22    1.70 
   1  12  -4    2.76    1.68 
  -1  12   3   64.68    2.36 
   1  12  -3   64.79    2.64 
  -1  12   3   66.16    2.56 
   1  12  -3   63.06    2.53 
  -1  12   2   54.25    2.23 
   1  12  -2   54.11    2.43 
  -1  12   2   56.00    2.54 
   1  12  -2   55.71    2.51 
  -1  12   1   47.63    2.14 
   1  12  -1   53.49    2.37 
  -1  12   1   55.71    2.59 
   1  12  -1   54.42    2.44 
  -1  12   0   24.18    1.77 
   1  12   0   22.93    1.95 
  -1  12   0   21.82    2.01 
   1  12   0   23.74    2.05 
   1  12   1    7.84    1.66 
  -1  12  -1    6.37    1.46 
  -1  12  -1    6.80    1.84 
   1  12   1    5.87    1.72 
   1  12   2    0.38    1.49 
  -1  12  -2    0.90    1.42 
  -1  12  -2    1.05    1.67 
   1  12   2   -0.12    1.50 
   1  12   3  131.78    3.17 
  -1  12  -3  131.34    3.14 
   1  12   3  137.40    3.39 
  -1  12  -3  140.32    3.40 
   1  12   4   33.56    2.01 
  -1  12  -4   33.19    2.04 
   1  12   4   30.83    2.00 
  -1  12  -4   33.74    2.27 
   1  12   5  105.08    3.41 
  -1  12  -5  102.53    3.27 
   1  12   5  104.90    3.42 
  -1  12  -5  108.57    3.56 
   1  12   6    7.38    1.75 
  -1  12  -6    8.53    1.62 
   1  12   6    7.79    1.77 
  -1  12  -6    7.08    1.86 
   1  12   7   25.08    1.92 
  -1  12  -7   24.94    1.87 
   1  12   7   25.95    2.06 
   1  12   8   -0.72    1.50 
  -1  12  -8   -0.51    1.51 
   1  12   8   -0.04    1.65 
   1  12   9   71.46    2.55 
  -1  12  -9   66.29    2.54 
   1  12   9   73.18    2.69 
   1  12  10    0.28    1.55 
   1  12  10   -0.88    1.52 
  -2   0  28   19.73    1.95 
   2   0 -28   18.66    1.78 
  -2   0  27    0.10    1.45 
   2   0 -27    0.15    1.42 
  -2   0  26    4.60    1.46 
   2   0 -26    5.96    1.57 
  -2   0  25    1.91    1.34 
  -2   0  24    1.31    1.36 
  -2   0  23   -0.07    1.32 
  -2   0  22   31.95    1.90 
  -2   0  21    0.11    1.26 
  -2   0  20  135.48    3.06 
  -2   0  19    0.17    1.14 
  -2   0  18    1.52    1.22 
  -2   0  17    0.16    0.93 
  -2   0  16    8.30    1.22 
  -2   0  16    5.68    1.30 
  -2   0  15   -1.18    1.01 
   2   0 -15   -0.14    1.07 
  -2   0  15    0.35    1.22 
  -2   0  14  773.62   11.19 
   2   0 -14  822.16    9.60 
  -2   0  14  776.18   14.40 
  -2   0  13    1.14    0.96 
   2   0 -13   -0.30    0.92 
  -2   0  13    0.68    1.10 
   2   0 -13    0.36    0.82 
  -2   0  12   27.78    1.55 
   2   0 -12   25.03    1.41 
  -2   0  12   26.52    1.62 
   2   0 -12   30.08    1.74 
  -2   0  11    0.23    0.85 
   2   0 -11    0.41    0.79 
  -2   0  11    0.50    1.07 
   2   0 -11    0.35    0.80 
  -2   0  10  146.36    3.13 
   2   0 -10  155.94    3.04 
  -2   0  10  143.35    3.36 
   2   0 -10  151.47    3.39 
  -2   0   9    0.70    0.75 
   2   0  -9    0.67    0.74 
   2   0  -9   -0.06    0.75 
  -2   0   7   -0.07    0.74 
   2   0  -7   -0.02    0.75 
   2   0  -7   -0.37    0.90 
  -2   0   6   59.89    2.08 
   2   0  -6   62.23    2.02 
   2   0  -6   59.37    2.24 
  -2   0   5    0.43    0.64 
   2   0  -5   -0.41    0.65 
  -2   0   5   -0.16    0.66 
   2   0  -5    0.64    0.89 
   2   0  -5   -0.79    0.78 
  -2   0   4    4.72    0.91 
   2   0  -4    4.90    0.83 
  -2   0   4    4.99    0.98 
   2   0  -4    5.22    1.01 
   2   0  -4    4.73    1.13 
  -2   0   3    1.00    0.71 
   2   0  -3    0.59    0.73 
  -2   0   3    0.95    0.79 
   2   0  -3    0.51    0.79 
   2   0  -3    0.41    1.01 
  -2   0   2   38.46    1.77 
   2   0  -2   39.44    1.73 
  -2   0   2   41.47    1.94 
   2   0  -2   38.72    1.80 
  -2   0   2   37.21    1.95 
   2   0  -2   37.52    1.96 
   2   0  -1    0.45    0.79 
  -2   0   1    1.86    0.84 
   2   0  -1    1.41    0.84 
  -2   0   1    0.21    0.86 
   2   0  -1    0.22    0.87 
   2   0   0  477.10    7.34 
   2   0   0  504.17    7.75 
  -2   0   0  500.18    7.82 
   2   0   0  483.15    7.48 
  -2   0   0  461.92    7.71 
   2   0   0  489.62    7.88 
   2   0   1    0.85    0.75 
  -2   0  -1   -0.10    0.80 
   2   0   1   -0.01    0.67 
  -2   0  -1    0.55    0.77 
   2   0   1    0.00    0.97 
   2   0   2  521.35    7.73 
  -2   0  -2  516.84    7.82 
  -2   0  -2  524.32    8.26 
   2   0   2  494.39    7.49 
   2   0   2  511.32    8.05 
   2   0   3    0.26    0.65 
  -2   0  -3    0.15    0.74 
  -2   0  -3    0.64    1.23 
   2   0   3    0.06    1.00 
   2   0   3    0.53    0.88 
   2   0   4    2.38    0.71 
  -2   0  -4    2.12    0.79 
  -2   0  -4    1.39    1.05 
   2   0   4    1.86    0.95 
   2   0   4    1.71    0.90 
   2   0   5    0.97    0.66 
  -2   0  -5    0.56    0.73 
  -2   0  -5    0.45    0.87 
   2   0   5    0.00    0.82 
   2   0   6  195.28    3.78 
  -2   0  -6  194.47    3.90 
  -2   0  -6  201.40    4.11 
   2   0   6  200.53    3.95 
   2   0   7    1.06    0.77 
  -2   0  -7   -0.18    0.64 
  -2   0  -7    0.00    0.99 
   2   0   7    0.13    0.71 
   2   0   8  715.92    7.80 
  -2   0  -8  704.46    7.52 
  -2   0  -8  719.83    8.01 
  -2   0  -8  721.75    7.75 
   2   0   8  725.70    7.68 
   2   0   9    0.17    0.78 
  -2   0  -9    0.65    0.79 
  -2   0  -9    0.40    0.72 
  -2   0  -9    0.82    0.69 
   2   0   9    0.60    0.66 
   2   0  10  433.22    6.29 
  -2   0 -10  428.91    6.23 
  -2   0 -10  420.95    6.50 
  -2   0 -10  422.12    6.25 
   2   0  10  421.34    6.22 
   2   0  11    0.65    1.05 
  -2   0 -11    1.02    0.85 
  -2   0 -11    0.42    0.74 
   2   0  11    0.64    0.74 
   2   0  12  321.27    5.90 
  -2   0 -12  322.01    5.68 
  -2   0 -12  336.09    6.12 
  -2   0 -12  322.09    5.87 
   2   0  12  307.87    5.38 
   2   0  13    0.43    1.12 
  -2   0 -13    0.15    0.82 
  -2   0 -13   -0.09    0.81 
  -2   0 -13    0.33    0.76 
   2   0  14  231.97    4.36 
  -2   0 -14  234.33    4.46 
  -2   0 -14  239.90    4.44 
  -2   0 -15    0.92    0.78 
  -2   0 -15    0.19    0.81 
   2   0  16  198.01    4.28 
  -2   0 -16  195.07    4.30 
  -2   0 -16  190.70    4.26 
  -2   0 -16  180.91    4.29 
   2   0  17   -0.63    1.37 
  -2   0 -17    1.00    0.91 
  -2   0 -17   -0.80    0.90 
  -2   0 -17   -0.43    1.29 
   2   0  18  124.21    2.95 
  -2   0 -18  124.84    2.95 
  -2   0 -18  124.35    2.87 
  -2   0 -18  121.67    3.10 
   2   0  19   -0.08    1.53 
  -2   0 -19   -0.01    0.94 
  -2   0 -19   -0.71    0.94 
  -2   0 -19   -0.85    1.18 
   2   0  20   21.17    1.70 
  -2   0 -20   20.97    1.52 
  -2   0 -20   20.44    1.78 
   2   0  21   -1.40    1.32 
  -2   0 -21    0.35    0.99 
  -2   0 -21   -0.89    1.55 
   2   0  22  173.73    3.43 
  -2   0 -22  176.70    3.56 
  -2   0 -22  173.73    3.76 
   2   0  23    1.08    1.54 
  -2   0 -23   -0.26    1.11 
  -2   0 -23    0.46    1.76 
   2   0  24    2.94    1.57 
  -2   0 -24    4.32    1.67 
   2   0  25   -0.64    1.41 
  -2   0 -25   -1.21    1.73 
   2   0  26   46.33    2.25 
  -2   0 -26   50.29    2.58 
   2   0  27    0.17    1.63 
  -2   0 -27    1.84    1.95 
  -2  -1  28    4.46    1.77 
  -2   1  28    4.94    1.85 
   2   1 -28    5.20    1.62 
   2  -1 -28    4.68    1.63 
  -2  -1  27   70.24    2.79 
  -2   1  27   69.77    2.66 
   2   1 -27   70.15    2.60 
  -2  -1  26    3.75    1.66 
  -2   1  26    3.10    1.45 
   2   1 -26    2.75    1.58 
  -2  -1  25   40.60    2.20 
  -2   1  25   38.35    2.06 
   2   1 -25   43.73    2.04 
  -2  -1  24   28.47    1.89 
  -2   1  24   28.34    1.80 
   2   1 -24   26.39    1.74 
  -2  -1  23  237.17    4.01 
  -2   1  23  236.06    3.91 
  -2  -1  22   37.21    2.00 
  -2   1  22   36.83    1.87 
  -2  -1  21   56.51    2.12 
  -2   1  21   59.66    2.16 
  -2   1  21   64.24    2.43 
  -2  -1  20   -0.25    1.16 
  -2   1  20    1.03    1.32 
  -2   1  20    0.56    1.23 
  -2  -1  19    0.88    1.30 
  -2   1  19    0.47    1.00 
  -2   1  19   -1.53    1.30 
  -2  -1  18   20.02    1.47 
  -2   1  18   20.33    1.58 
  -2   1  18   18.06    1.64 
  -2  -1  17  211.32    4.43 
  -2   1  17  204.92    4.31 
  -2   1  17  204.15    4.57 
  -2  -1  16    6.31    1.26 
  -2   1  16    8.15    1.09 
  -2   1  16    6.50    1.23 
  -2  -1  15   13.75    1.27 
  -2   1  15   13.93    1.29 
   2  -1 -15   15.90    1.23 
  -2   1  15   14.09    1.40 
  -2  -1  14   11.95    1.16 
  -2   1  14   11.08    1.17 
   2   1 -14   11.09    1.19 
   2  -1 -14   10.88    1.23 
  -2   1  14   11.06    1.49 
  -2  -1  13   31.18    1.65 
  -2   1  13   30.86    1.62 
   2   1 -13   33.43    1.57 
   2  -1 -13   31.52    1.62 
  -2   1  13   29.71    1.82 
  -2  -1  12   39.16    1.77 
  -2   1  12   39.43    1.68 
   2   1 -12   40.82    1.67 
   2  -1 -12   39.89    2.02 
  -2   1  12   36.98    1.86 
   2   1 -12   39.16    1.85 
   2  -1 -12   39.92    1.92 
  -2  -1  11  139.53    3.24 
  -2   1  11  140.02    3.15 
   2   1 -11  142.14    3.05 
   2  -1 -11  139.07    8.90 
  -2   1  11  143.93    3.57 
   2   1 -11  144.67    3.50 
   2  -1 -11  144.65    3.45 
  -2  -1  10   62.71    2.10 
  -2   1  10   64.75    2.07 
   2   1 -10   66.92    2.01 
   2  -1 -10   63.63    2.04 
  -2   1  10   63.25    2.35 
   2   1 -10   67.09    2.38 
   2  -1 -10   63.23    2.25 
  -2  -1   9  168.84    3.42 
  -2   1   9  157.65    3.23 
   2   1  -9  166.60    3.17 
   2  -1  -9  166.41    3.19 
   2   1  -9  168.22    3.58 
  -2   1   9  150.94    3.58 
   2  -1  -9  165.19    3.54 
  -2  -1   8  161.36    3.37 
  -2   1   8  170.53    3.32 
   2   1  -8  164.69    3.18 
   2  -1  -8  163.25    3.17 
   2   1  -8  174.82    3.66 
   2  -1  -8  172.73    3.63 
  -2  -1   7  208.06    4.07 
  -2   1   7  209.90    4.00 
   2   1  -7  213.64    3.94 
   2  -1  -7  206.85    3.78 
   2   1  -7  216.53    4.38 
   2  -1  -7  223.67    4.43 
  -2  -1   6    6.58    0.95 
  -2   1   6    9.83    1.01 
   2   1  -6    8.48    0.98 
   2  -1  -6    7.05    0.84 
   2   1  -6    7.20    1.18 
   2  -1  -6    8.80    1.19 
  -2  -1   5  781.28   10.06 
  -2   1   5  799.84    9.91 
   2   1  -5  787.37    9.57 
   2  -1  -5  797.25    9.54 
   2   1  -5  797.34   10.19 
   2  -1  -5  792.70   10.12 
   2   1  -5  824.38   10.90 
   2  -1  -5  787.22   10.39 
  -2  -1   4   14.68    1.15 
  -2   1   4   16.30    1.21 
   2   1  -4   14.16    1.14 
   2  -1  -4   15.33    1.08 
   2   1  -4   13.60    1.27 
  -2   1   4   13.26    1.29 
   2  -1  -4   15.04    1.30 
   2  -1  -4   15.29    1.45 
   2   1  -4   14.32    1.29 
  -2  -1   3    1.03    0.83 
  -2   1   3    1.10    0.66 
   2   1  -3    0.25    0.66 
   2  -1  -3    1.01    0.59 
   2   1  -3    1.82    0.86 
  -2   1   3    1.04    0.81 
   2  -1  -3    1.60    0.84 
   2  -1  -3    0.30    1.00 
   2   1  -3    0.72    0.88 
  -2  -1   2   15.69    1.26 
   2   1  -2   12.55    1.20 
   2  -1  -2   12.61    1.09 
   2  -1  -2   14.06    1.21 
   2   1  -2   16.29    1.32 
  -2   1   2   13.97    1.23 
   2  -1  -2   15.45    1.35 
  -2  -1   2   12.75    1.30 
   2  -1  -2   12.68    1.39 
   2   1  -2   13.60    1.36 
   2   1  -1  905.93   11.81 
   2  -1  -1  919.03   11.86 
   2  -1  -1  968.15   12.50 
   2   1  -1  947.84   12.58 
   2   1  -1  929.10   12.32 
  -2   1   1  945.13   12.50 
   2  -1  -1  915.12   12.12 
  -2  -1   1  920.22   12.75 
   2  -1  -1  960.37   12.90 
   2   1  -1  948.27   12.75 
   2  -1   0    9.84    1.08 
   2   1   0   14.60    1.26 
   2  -1   0   10.20    0.96 
   2   1   0   11.71    1.17 
   2   1   0   11.15    1.19 
  -2   1   0    9.33    1.12 
   2  -1   0   10.18    1.09 
  -2  -1   0   10.13    1.18 
   2  -1   0    9.41    1.32 
   2   1   0   10.51    1.24 
   2  -1   1  704.82    9.62 
   2   1   1  727.21   10.07 
  -2   1  -1  692.88    9.72 
  -2  -1  -1  720.79   10.03 
   2   1   1  689.07    9.76 
  -2   1  -1  716.66   10.11 
   2  -1   1  677.98    9.46 
  -2  -1  -1  716.01   10.74 
   2  -1   1  719.28   10.33 
   2   1   1  678.15    9.68 
   2  -1   2  431.02    6.58 
   2   1   2  416.79    6.68 
  -2   1  -2  434.78    6.84 
  -2  -1  -2  440.36    7.04 
   2   1   2  413.76    7.65 
  -2   1  -2  433.29    7.03 
   2  -1   2  437.61    6.83 
  -2  -1  -2  435.26    7.38 
   2  -1   2  426.55    7.06 
   2   1   2  437.59    7.02 
   2  -1   3  233.51    4.20 
   2   1   3  231.39    4.39 
  -2   1  -3  230.07    4.32 
  -2  -1  -3  231.60    4.42 
   2   1   3  219.48    4.73 
  -2   1  -3  230.44    4.56 
   2  -1   3  233.18    4.35 
   2   1   3  236.16    4.54 
  -2  -1  -3  212.18    4.61 
   2  -1   3  232.76    4.65 
   2   1   3  234.22    4.44 
   2  -1   4   17.75    1.21 
  -2   1  -4   20.33    1.26 
   2   1   4   19.33    1.30 
  -2  -1  -4   19.80    1.36 
  -2   1  -4   20.12    1.30 
   2  -1   4   17.54    1.26 
  -2  -1  -4   18.41    1.40 
   2  -1   4   21.49    1.52 
   2   1   4   20.66    1.37 
   2  -1   5  411.22    6.14 
   2   1   5  409.18    6.22 
  -2   1  -5  409.57    6.09 
  -2  -1  -5  410.81    6.26 
  -2   1  -5  405.77    6.27 
   2  -1   5  384.15    6.55 
  -2  -1  -5  383.99    6.40 
   2  -1   5  413.65    6.36 
   2   1   5  391.81    6.04 
   2  -1   6  198.82    3.85 
   2   1   6  195.30    3.98 
  -2   1  -6  195.60    3.80 
  -2  -1  -6  200.58    4.02 
  -2   1  -6  196.12    3.94 
   2  -1   6  185.98    3.99 
  -2   1  -6  192.22    4.30 
  -2  -1  -6  197.85    4.23 
   2  -1   6  197.83    4.07 
   2   1   6  200.58    3.84 
   2  -1   7  798.06    8.17 
   2   1   7  794.95    8.14 
  -2   1  -7  778.82    8.05 
  -2  -1  -7  797.79    8.49 
  -2   1  -7  813.07    8.48 
  -2  -1  -7  803.00    8.97 
   2  -1   7  794.96    8.26 
   2  -1   8  157.96    3.24 
   2   1   8  163.11    3.30 
  -2   1  -8  161.82    3.22 
  -2  -1  -8  169.38    3.40 
  -2   1  -8  167.71    3.37 
  -2   1  -8  163.46    3.72 
  -2  -1  -8  166.04    3.59 
   2  -1   8  167.52    3.34 
   2   1   8  155.53    3.06 
   2  -1   9   78.04    2.34 
   2   1   9   80.44    2.35 
  -2   1  -9   80.16    2.24 
  -2  -1  -9   81.80    2.40 
  -2   1  -9   80.58    2.34 
  -2  -1  -9   80.92    2.46 
  -2   1  -9   81.83    2.62 
  -2  -1  -9   81.41    2.52 
   2  -1   9   80.17    2.34 
   2   1   9   74.58    2.05 
   2  -1  10   19.10    1.45 
   2   1  10   21.00    1.40 
  -2   1 -10   19.46    1.29 
  -2  -1 -10   21.20    1.39 
  -2  -1 -10   19.10    1.30 
  -2   1 -10   20.84    1.32 
  -2  -1 -10   18.97    1.25 
  -2   1 -10   19.07    1.51 
  -2  -1 -10   20.26    1.42 
   2  -1  10   19.35    1.29 
   2   1  10   22.48    1.30 
   2  -1  11  121.04    3.10 
   2   1  11  110.50    2.94 
  -2   1 -11  116.05    2.85 
  -2  -1 -11  117.99    2.95 
  -2  -1 -11  116.87    3.10 
  -2   1 -11  117.25    2.98 
  -2   1 -11  113.74    3.26 
  -2  -1 -11  109.62    3.02 
   2  -1  11  118.43    2.84 
   2   1  11  118.25    2.81 
   2  -1  12   63.51    2.29 
   2   1  12   63.02    2.19 
  -2   1 -12   59.06    2.08 
  -2  -1 -12   62.02    2.22 
  -2   1 -12   63.03    2.23 
  -2  -1 -12   64.98    2.30 
  -2   1 -12   63.59    2.22 
  -2   1 -12   63.42    2.46 
  -2  -1 -12   57.47    2.26 
   2  -1  13  593.22    9.05 
   2   1  13  541.62    9.43 
  -2   1 -13  579.59    8.68 
  -2   1 -13  601.88    9.27 
  -2  -1 -13  585.71    9.16 
  -2   1 -13  571.78    9.18 
   2  -1  14  102.20    2.71 
   2   1  14  100.18    2.77 
  -2   1 -14  101.93    2.77 
  -2  -1 -14  102.77    2.85 
  -2   1 -14  100.67    2.73 
  -2   1 -14  102.65    3.04 
   2  -1  15   89.50    2.72 
   2   1  15   92.91    2.86 
  -2   1 -15   94.66    2.86 
  -2  -1 -15   96.28    2.89 
  -2   1 -15   95.62    2.81 
  -2   1 -15   92.17    3.04 
   2  -1  16    9.37    1.43 
   2   1  16    9.80    1.56 
  -2   1 -16    8.36    1.09 
  -2  -1 -16    9.51    1.11 
  -2   1 -16    9.06    1.11 
  -2   1 -16    9.73    1.49 
   2  -1  17    1.27    1.12 
   2   1  17    2.55    1.37 
  -2   1 -17    0.69    0.88 
  -2  -1 -17    1.04    0.89 
  -2   1 -17    0.58    0.91 
  -2   1 -17    2.80    1.21 
   2  -1  18   42.07    1.93 
   2   1  18   42.36    2.15 
  -2   1 -18   41.88    1.84 
  -2  -1 -18   44.46    1.90 
  -2   1 -18   43.03    1.84 
  -2   1 -18   41.90    2.18 
   2  -1  19  108.56    2.81 
   2   1  19  104.43    2.98 
  -2   1 -19  105.77    2.74 
  -2   1 -19  100.26    2.62 
  -2   1 -19  107.41    2.99 
   2  -1  20   96.61    2.86 
   2   1  20  103.93    3.01 
  -2   1 -20   97.79    2.71 
  -2   1 -20   98.26    3.01 
   2  -1  21   62.84    2.40 
   2   1  21   61.91    2.43 
  -2   1 -21   57.55    2.11 
  -2   1 -21   58.15    2.39 
   2  -1  22   12.56    1.49 
   2   1  22   15.74    2.04 
  -2   1 -22   15.20    1.35 
  -2  -1 -22   14.41    1.31 
  -2   1 -22   16.04    1.95 
   2  -1  23   54.15    2.34 
   2   1  23   57.95    2.61 
  -2   1 -23   56.11    2.21 
  -2   1 -23   62.34    2.81 
   2  -1  24    1.96    1.55 
   2   1  24   -0.19    1.77 
  -2   1 -24    0.88    1.56 
   2  -1  25  148.00    3.26 
   2   1  25  143.32    3.34 
  -2   1 -25  142.25    3.49 
   2  -1  26    7.57    1.64 
   2   1  26   12.36    1.88 
  -2   1 -26    7.26    1.91 
   2  -1  27    9.37    1.73 
   2   1  27   11.08    1.90 
  -2   1 -27   10.22    2.11 
  -2  -2  28    6.79    1.73 
  -2   2  28    6.94    1.72 
   2   2 -28    6.94    1.57 
  -2  -2  27   70.21    2.80 
  -2   2  27   70.59    2.71 
   2   2 -27   72.27    2.63 
  -2  -2  26   20.70    1.82 
  -2   2  26   24.25    1.85 
   2   2 -26   22.52    1.61 
  -2  -2  25   49.01    2.34 
  -2   2  25   46.39    2.18 
   2   2 -25   48.52    2.00 
  -2  -2  24    1.93    1.55 
  -2   2  24    2.19    1.35 
  -2   2  24    2.36    1.66 
   2   2 -24    2.13    1.23 
  -2  -2  23    2.12    1.35 
  -2   2  23    0.84    1.31 
  -2   2  23    1.64    1.49 
   2   2 -23    3.90    1.28 
  -2  -2  22   81.22    2.59 
  -2   2  22   83.80    2.45 
  -2   2  22   77.70    2.80 
   2   2 -22   87.95    2.36 
  -2  -2  21   31.25    1.86 
  -2   2  21   34.58    1.89 
  -2   2  21   32.89    2.10 
   2   2 -21   31.48    1.73 
  -2  -2  20  101.48    2.83 
  -2   2  20  106.30    2.68 
  -2   2  20  101.88    2.90 
  -2  -2  19   49.97    2.13 
  -2   2  19   49.99    2.02 
  -2   2  19   48.03    2.34 
  -2  -2  18  151.82    3.50 
  -2   2  18  151.17    3.39 
  -2   2  18  143.48    3.65 
  -2  -2  17  209.50    4.48 
  -2   2  17  202.99    4.23 
  -2   2  17  201.98    4.72 
  -2  -2  16  141.16    3.59 
  -2   2  16  142.95    3.48 
   2  -2 -16  138.81    3.27 
  -2   2  16  148.36    3.89 
  -2  -2  15   26.56    1.68 
  -2   2  15   26.95    1.48 
   2  -2 -15   27.73    1.51 
  -2   2  15   29.01    1.79 
  -2  -2  14  485.05    7.23 
  -2   2  14  495.56    6.83 
   2  -2 -14  488.24    6.61 
  -2   2  14  481.78    7.80 
  -2  -2  13   96.92    2.80 
  -2   2  13   98.59    2.71 
   2   2 -13  101.94    2.69 
   2  -2 -13   99.92    2.68 
  -2   2  13   93.58    3.08 
  -2  -2  12   17.63    1.35 
  -2   2  12   16.23    1.25 
   2   2 -12   18.41    1.28 
   2  -2 -12   15.07    1.18 
   2   2 -12   16.67    1.35 
  -2   2  12   17.53    1.43 
   2  -2 -12   15.77    1.44 
  -2  -2  11  541.61    7.54 
   2   2 -11  567.97    7.36 
  -2   2  11  542.79    7.27 
   2  -2 -11  561.61    7.39 
   2   2 -11  543.31    7.69 
  -2   2  11  525.05    7.93 
   2  -2 -11  550.39    7.71 
  -2  -2  10  588.95    7.95 
   2   2 -10  610.27    7.84 
  -2   2  10  596.19    7.84 
   2  -2 -10  611.43    7.85 
   2   2 -10  616.95    8.32 
  -2   2  10  624.26    8.76 
   2  -2 -10  611.67    8.26 
  -2  -2   9  252.68    4.31 
   2   2  -9  267.44    4.11 
  -2   2   9  268.14    4.21 
   2  -2  -9  265.82    4.13 
   2   2  -9  266.08    4.50 
  -2   2   9  263.01    4.69 
   2  -2  -9  274.87    4.59 
  -2  -2   8 1041.87    9.98 
   2   2  -8 1020.69    9.37 
  -2   2   8 1032.85    9.62 
   2  -2  -8 1011.26    9.51 
   2   2  -8 1025.05   10.08 
   2  -2  -8 1017.80   10.14 
  -2  -2   7  280.45    4.59 
   2   2  -7  272.97    4.23 
  -2   2   7  275.36    4.26 
   2  -2  -7  278.60    4.21 
   2   2  -7  288.13    4.84 
   2  -2  -7  275.39    4.61 
  -2  -2   6  146.78    3.42 
   2   2  -6  141.17    3.15 
  -2   2   6  140.81    3.12 
   2  -2  -6  138.53    3.15 
   2   2  -6  145.78    3.41 
   2  -2  -6  138.33    3.34 
   2  -2  -6  142.78    3.68 
  -2  -2   5  210.79    4.25 
   2   2  -5  221.10    4.12 
  -2   2   5  234.44    4.24 
   2  -2  -5  223.94    4.04 
   2   2  -5  233.36    4.46 
   2  -2  -5  229.77    4.41 
   2  -2  -5  224.79    4.69 
  -2  -2   4   14.16    1.29 
   2   2  -4   14.29    1.29 
  -2   2   4   14.46    1.15 
   2  -2  -4   14.50    1.09 
   2   2  -4   13.53    1.34 
   2  -2  -4   15.07    1.34 
   2  -2  -4   13.63    1.35 
   2   2  -4   14.38    1.31 
  -2  -2   3  442.05    7.01 
  -2   2   3  425.56    6.76 
   2   2  -3  449.18    6.64 
   2  -2  -3  446.08    6.40 
   2   2  -3  478.87    7.01 
  -2   2   3  461.13    7.03 
   2  -2  -3  452.80    6.82 
   2  -2  -3  465.53    7.33 
   2   2  -3  459.54    7.30 
  -2  -2   2   76.18    2.46 
   2   2  -2   75.77    2.40 
   2   2  -2   77.62    2.47 
  -2   2   2   65.05    2.46 
   2  -2  -2   72.12    2.36 
  -2  -2   2   75.64    2.68 
  -2   2   2   77.53    2.72 
   2  -2  -2   75.67    2.67 
   2   2  -2   77.29    2.62 
   2   2  -1  248.46    4.57 
   2   2  -1  232.98    6.14 
   2   2  -1  262.83    4.76 
  -2   2   1  251.67    4.79 
   2  -2  -1  254.61    4.61 
  -2   2   1  251.23    5.10 
  -2  -2   1  246.86    5.30 
   2  -2  -1  261.00    5.12 
   2   2  -1  244.59    4.78 
   2   2   0  291.90    5.05 
   2  -2   0  269.68    4.90 
   2   2   0  289.18    5.23 
  -2   2   0  287.35    5.21 
   2  -2   0  282.70    4.98 
   2   2   0  297.52    5.14 
  -2   2   0  297.38    5.67 
  -2  -2   0  296.52    5.60 
   2  -2   0  286.62    5.40 
   2   2   0  292.18    5.20 
   2   2   1   21.04    1.43 
   2  -2   1   20.02    1.43 
  -2   2  -1   20.78    1.52 
   2   2   1   20.59    1.42 
  -2   2  -1   21.69    1.48 
   2  -2   1   18.68    1.32 
   2   2   1   21.61    1.29 
  -2   2  -1   20.15    1.53 
   2  -2   1   22.47    1.62 
  -2  -2  -1   20.06    1.52 
   2   2   1   19.55    1.30 
   2  -2   2  174.90    3.53 
  -2   2  -2  174.03    3.59 
   2   2   2  171.23    3.77 
  -2  -2  -2  175.73    3.80 
  -2   2  -2  178.94    3.92 
   2  -2   2  174.84    3.66 
   2   2   2  177.39    3.73 
  -2   2  -2  182.00    4.25 
   2  -2   2  172.21    3.98 
  -2  -2  -2  179.11    4.11 
   2   2   2  173.21    3.63 
   2  -2   3  662.12    8.52 
  -2   2  -3  631.55    8.16 
   2   2   3  649.37    8.72 
  -2  -2  -3  651.51    8.73 
  -2   2  -3  622.03    8.46 
   2  -2   3  614.04    8.52 
   2   2   3  637.64    8.31 
  -2   2  -3  634.78    9.14 
   2  -2   3  651.15    8.98 
  -2  -2  -3  635.07    8.95 
   2   2   3  624.71    8.13 
   2  -2   4    6.57    0.91 
  -2   2  -4    6.14    0.86 
   2   2   4    7.07    1.06 
  -2  -2  -4    7.92    1.11 
  -2   2  -4    7.21    0.98 
   2   2   4    7.27    1.21 
   2  -2   4    7.55    0.92 
  -2   2  -4    6.82    1.16 
   2  -2   4    6.39    1.15 
  -2  -2  -4    7.37    1.05 
   2   2   4    5.59    1.20 
   2  -2   5  905.77   10.85 
  -2   2  -5  872.75   10.36 
   2   2   5  876.34   11.05 
  -2  -2  -5  870.48   10.65 
   2   2   5  909.74   11.31 
  -2   2  -5  891.18   10.93 
  -2   2  -5  865.41   11.30 
   2  -2   5  922.24   11.35 
  -2  -2  -5  858.23   14.13 
   2   2   5  873.56   10.19 
   2  -2   6   12.00    1.05 
  -2   2  -6   11.86    1.04 
   2   2   6   12.79    1.24 
  -2  -2  -6   12.81    1.14 
   2   2   6   12.11    1.13 
  -2   2  -6   12.32    1.11 
   2  -2   6   11.83    1.09 
  -2   2  -6   12.06    1.33 
   2  -2   6   12.43    1.21 
  -2  -2  -6   12.21    1.23 
   2   2   6   12.21    1.04 
   2  -2   7    4.16    0.82 
  -2   2  -7    3.83    0.80 
   2   2   7    3.14    0.80 
  -2  -2  -7    4.17    1.00 
   2   2   7    3.88    0.86 
  -2   2  -7    3.75    0.89 
  -2  -2  -7    2.06    0.64 
   2  -2   7    2.98    0.80 
  -2   2  -7    3.37    1.05 
   2  -2   7    3.28    1.02 
  -2  -2  -7    3.42    0.96 
   2   2   7    3.49    0.80 
   2  -2   8  843.25    8.80 
  -2   2  -8  842.24    8.21 
   2   2   8  834.67    8.83 
  -2  -2  -8  821.18    8.54 
  -2   2  -8  832.14    8.62 
   2  -2   8  825.52    8.63 
  -2   2  -8  858.44    9.58 
  -2  -2  -8  857.12    9.07 
   2  -2   8  844.66    8.57 
   2   2   8  841.00    9.09 
   2  -2   9  158.47    3.44 
  -2   2  -9  162.83    3.33 
   2   2   9  154.63    3.36 
  -2  -2  -9  165.22    3.53 
  -2   2  -9  169.47    3.60 
  -2   2  -9  156.82    3.81 
  -2  -2  -9  167.58    3.70 
   2  -2   9  161.26    3.48 
   2  -2  10   87.26    2.50 
  -2   2 -10   88.21    2.48 
   2   2  10   88.23    2.56 
  -2  -2 -10   86.58    2.57 
  -2  -2 -10   81.91    2.47 
  -2   2 -10   86.64    2.52 
  -2   2 -10   84.25    2.83 
  -2  -2 -10   84.76    2.67 
   2  -2  11   74.34    2.34 
   2   2  11   74.16    2.38 
  -2   2 -11   74.88    2.27 
  -2  -2 -11   77.59    2.46 
  -2  -2 -11   73.49    2.35 
  -2   2 -11   73.42    2.33 
  -2   2 -11   74.64    2.68 
  -2  -2 -11   72.97    2.49 
   2  -2  12    0.15    0.80 
   2   2  12    1.34    1.08 
  -2   2 -12    0.79    0.75 
  -2  -2 -12    0.92    0.75 
  -2   2 -12    0.64    0.86 
  -2   2 -12    1.39    1.02 
  -2  -2 -12    0.27    0.90 
   2  -2  13    2.80    1.03 
   2   2  13   -0.11    1.11 
  -2   2 -13    2.36    0.94 
  -2  -2 -13    2.02    0.80 
  -2   2 -13    2.31    0.90 
  -2   2 -13    3.32    1.28 
  -2  -2 -13    2.21    0.97 
   2  -2  14  233.52    4.77 
   2   2  14  227.69    4.77 
  -2  -2 -14  222.74    4.76 
  -2   2 -14  229.40    4.79 
  -2   2 -14  228.10    5.11 
  -2  -2 -14  234.60    5.03 
   2  -2  15   45.71    1.82 
   2   2  15   52.43    2.10 
  -2   2 -15   50.90    1.93 
  -2  -2 -15   50.99    1.98 
  -2   2 -15   49.47    1.93 
  -2   2 -15   48.44    2.33 
  -2  -2 -15   49.93    2.09 
   2  -2  16  590.00    8.21 
   2   2  16  601.43    8.90 
  -2   2 -16  552.75    7.83 
  -2  -2 -16  590.63    8.16 
  -2   2 -16  578.17    7.98 
  -2   2 -16  602.14    8.61 
  -2  -2 -16  568.90    8.03 
   2  -2  17    3.05    1.15 
   2   2  17    3.39    1.40 
  -2   2 -17    3.13    1.02 
  -2  -2 -17    2.65    0.93 
  -2   2 -17    1.94    0.94 
  -2   2 -17    1.52    1.27 
  -2  -2 -17    3.07    1.22 
   2  -2  18  140.64    2.97 
   2   2  18  128.67    3.05 
  -2   2 -18  140.09    3.08 
  -2  -2 -18  139.91    3.08 
  -2   2 -18  139.84    3.03 
  -2   2 -18  139.43    3.37 
  -2  -2 -18  140.12    3.22 
   2  -2  19    5.67    1.24 
   2   2  19    5.94    1.74 
  -2   2 -19    6.64    1.14 
  -2   2 -19    6.02    1.19 
  -2   2 -19    6.71    1.59 
  -2  -2 -19    5.03    1.30 
   2  -2  20   51.06    2.11 
   2   2  20   48.91    2.39 
  -2   2 -20   49.65    2.05 
  -2   2 -20   49.79    2.38 
  -2  -2 -20   51.50    2.29 
   2  -2  21   29.43    1.93 
   2   2  21   30.56    2.15 
  -2   2 -21   28.04    1.69 
  -2   2 -21   26.43    2.11 
  -2  -2 -21   30.02    2.02 
   2  -2  22  244.16    4.01 
   2   2  22  248.47    4.06 
  -2   2 -22  243.95    4.02 
  -2   2 -22  241.98    4.44 
  -2  -2 -22  241.63    4.22 
   2  -2  23   30.62    1.89 
   2   2  23   32.92    2.06 
  -2   2 -23   29.10    1.70 
  -2   2 -23   29.29    2.20 
  -2  -2 -23   31.01    2.10 
   2  -2  24   39.60    2.09 
   2   2  24   39.00    2.26 
  -2   2 -24   39.47    2.02 
  -2   2 -24   38.98    2.41 
  -2  -2 -24   39.85    2.26 
   2  -2  25    2.94    1.50 
   2   2  25    2.11    1.71 
  -2   2 -25    1.13    2.00 
  -2  -2 -25    0.81    1.72 
   2  -2  26  130.63    3.69 
   2   2  26  142.51    3.95 
  -2   2 -26  139.57    4.15 
  -2  -2 -26  131.81    3.89 
   2  -2  27   12.63    1.73 
   2   2  27   13.15    2.01 
  -2   2 -27   14.86    2.13 
  -2  -2 -27   14.03    2.17 
  -2  -3  27   35.63    2.11 
  -2   3  27   37.99    2.07 
  -2   3  27   36.32    2.37 
   2   3 -27   38.08    2.05 
  -2  -3  26    8.89    1.87 
  -2   3  26    9.54    1.58 
  -2   3  26    9.33    1.76 
   2   3 -26   10.46    1.53 
  -2  -3  25    1.37    1.66 
  -2   3  25    1.68    1.27 
  -2   3  25   -0.34    1.77 
   2   3 -25    2.33    1.38 
  -2  -3  24   67.40    2.70 
  -2   3  24   63.83    2.41 
  -2   3  24   61.92    2.70 
   2   3 -24   65.21    2.37 
  -2  -3  23   93.61    2.83 
  -2   3  23   89.19    2.53 
  -2   3  23   94.98    3.07 
   2   3 -23   89.71    2.39 
  -2  -3  22   36.06    2.05 
  -2   3  22   34.36    1.91 
  -2   3  22   33.58    2.12 
   2   3 -22   32.33    1.76 
  -2  -3  21    9.21    1.59 
  -2   3  21    9.87    1.45 
  -2   3  21   11.67    1.76 
   2   3 -21    9.72    1.24 
  -2  -3  20   28.40    1.74 
  -2   3  20   30.00    1.63 
  -2   3  20   30.23    2.02 
   2   3 -20   30.05    1.66 
  -2  -3  19    3.67    1.44 
  -2   3  19    2.49    1.14 
  -2   3  19    4.53    1.38 
   2   3 -19    3.70    1.12 
  -2  -3  18  172.20    3.42 
  -2   3  18  173.79    3.29 
  -2   3  18  165.48    3.61 
   2   3 -18  175.00    3.07 
  -2  -3  17  257.15    4.74 
  -2   3  17  264.23    4.59 
  -2   3  17  259.59    5.05 
   2   3 -17  265.38    4.43 
  -2  -3  16  583.07    9.13 
  -2   3  16  572.57    8.75 
   2  -3 -16  584.62    8.89 
  -2   3  16  554.29    9.13 
  -2  -3  15   19.28    1.55 
  -2   3  15   17.98    1.36 
   2  -3 -15   17.22    1.28 
  -2   3  15   15.72    1.71 
  -2  -3  14   20.21    1.61 
  -2   3  14   18.89    1.37 
   2  -3 -14   18.80    1.29 
  -2   3  14   17.37    1.58 
  -2  -3  13  214.86    4.27 
  -2   3  13  223.99    4.08 
   2  -3 -13  228.64    4.10 
  -2   3  13  232.90    4.73 
  -2  -3  12  218.96    4.52 
  -2   3  12  237.92    4.58 
   2  -3 -12  239.29    4.59 
  -2   3  12  237.76    5.02 
   2   3 -11  159.23    3.39 
  -2   3  11  156.37    3.41 
   2  -3 -11  161.65    3.45 
   2   3 -11  155.37    3.64 
  -2   3  11  154.94    3.78 
   2  -3 -11  160.91    3.69 
   2   3 -10  534.91    7.65 
  -2   3  10  535.11    7.73 
   2  -3 -10  541.79    7.87 
   2   3 -10  510.41    7.71 
  -2   3  10  534.25    8.42 
   2  -3 -10  534.88    8.03 
   2   3  -9    1.05    0.85 
  -2   3   9    2.30    0.76 
   2  -3  -9    2.25    0.82 
   2   3  -9    1.14    0.87 
  -2   3   9    2.22    1.08 
   2  -3  -9    2.80    1.04 
   2   3  -8   85.82    2.42 
  -2   3   8   86.31    2.38 
   2  -3  -8   81.49    2.35 
   2   3  -8   82.83    2.55 
  -2   3   8   80.14    2.65 
   2  -3  -8   81.36    2.48 
   2   3  -7  152.92    3.13 
  -2   3   7  150.55    3.05 
   2  -3  -7  141.71    3.02 
   2  -3  -7  152.71    3.34 
   2   3  -6  374.39    5.12 
  -2   3   6  382.55    5.06 
   2  -3  -6  367.21    5.10 
   2  -3  -6  373.62    5.40 
   2  -3  -6  377.35    5.82 
   2   3  -5  586.90    6.74 
  -2   3   5  572.64    6.54 
   2  -3  -5  547.75    6.64 
   2  -3  -5  589.71    6.95 
   2  -3  -5  582.44    7.47 
   2   3  -4  671.31    8.84 
  -2   3   4  709.05    8.83 
   2  -3  -4  663.31    8.78 
   2  -3  -4  695.96    9.65 
   2  -3  -4  703.94    9.61 
   2   3  -4  673.47    9.40 
   2   3  -3  148.73    3.37 
   2  -3  -3  151.27    3.42 
   2   3  -3  150.35    3.48 
   2  -3  -3  141.13    3.65 
   2   3  -3  140.10    3.52 
   2   3  -2  227.06    4.28 
  -2   3   2  219.12    4.39 
   2  -3  -2  207.34    4.05 
   2   3  -2  217.84    4.20 
  -2   3   2  223.64    4.74 
   2  -3  -2  213.66    4.58 
   2   3  -2  212.33    4.30 
   2   3  -1   33.08    1.70 
   2   3  -1   32.88    1.71 
  -2   3   1   34.14    1.75 
   2  -3  -1   33.39    1.65 
   2   3  -1   35.18    1.67 
  -2   3   1   33.36    1.95 
  -2  -3   1   35.60    1.92 
   2  -3  -1   30.93    1.84 
   2   3  -1   32.64    1.55 
   2   3   0   88.97    2.62 
   2   3   0   84.10    2.64 
  -2   3   0   81.86    2.56 
   2  -3   0   87.40    2.50 
   2   3   0   86.95    2.48 
  -2   3   0   84.93    2.84 
  -2  -3   0   87.82    2.87 
   2  -3   0   79.56    2.73 
   2   3   0   86.18    2.43 
   2   3   1   10.43    1.18 
   2  -3   1   11.71    1.30 
   2   3   1   10.47    1.20 
  -2   3  -1   11.00    1.15 
   2  -3   1    9.83    1.08 
   2   3   1   10.18    1.01 
  -2   3  -1   10.44    1.32 
  -2  -3  -1    9.79    1.19 
   2   3   1   11.51    0.96 
   2  -3   2  180.88    3.66 
  -2   3  -2  175.58    3.50 
   2   3   2  179.15    3.90 
  -2   3  -2  180.32    3.88 
   2  -3   2  185.74    3.77 
   2   3   2  179.66    3.68 
  -2   3  -2  172.86    4.15 
  -2  -3  -2  181.67    4.10 
   2  -3   3  256.37    4.45 
  -2   3  -3  256.81    4.39 
   2   3   3  256.13    4.71 
  -2   3  -3  255.64    4.74 
   2   3   3  252.30    4.51 
   2  -3   3  255.52    4.52 
  -2   3  -3  271.24    5.36 
  -2  -3  -3  253.38    4.86 
   2   3   3  253.70    4.27 
   2  -3   4   62.72    2.01 
  -2   3  -4   60.61    1.96 
   2   3   4   62.87    2.18 
  -2   3  -4   63.56    2.16 
   2   3   4   64.57    2.12 
   2  -3   4   58.10    1.99 
  -2  -3  -4   61.28    2.04 
  -2   3  -4   62.60    2.47 
  -2  -3  -4   62.15    2.23 
   2  -3   5  225.29    3.81 
  -2   3  -5  222.23    3.73 
   2   3   5  227.74    4.20 
   2   3   5  230.99    4.10 
  -2   3  -5  231.33    4.08 
   2  -3   5  221.64    3.92 
  -2  -3  -5  224.60    3.92 
  -2   3  -5  232.91    4.62 
  -2  -3  -5  219.22    4.27 
   2  -3   6   63.84    2.01 
  -2   3  -6   63.80    2.03 
   2   3   6   63.86    2.20 
   2   3   6   64.51    2.20 
  -2   3  -6   62.67    2.11 
   2  -3   6   64.56    2.11 
  -2  -3  -6   61.86    2.04 
  -2   3  -6   66.94    2.55 
  -2  -3  -6   67.85    2.30 
   2  -3   7    6.27    0.90 
   2   3   7    7.24    1.03 
   2   3   7    7.09    0.98 
  -2   3  -7    7.26    1.04 
  -2  -3  -7    7.12    0.89 
   2  -3   7    7.48    0.98 
  -2   3  -7    7.96    1.16 
  -2  -3  -7    6.64    0.90 
   2  -3   8  227.37    4.20 
  -2   3  -8  227.45    4.04 
   2   3   8  215.17    4.25 
   2   3   8  221.81    4.47 
  -2   3  -8  220.33    4.21 
   2  -3   8  220.42    4.18 
  -2   3  -8  224.83    4.71 
  -2  -3  -8  218.30    4.29 
   2  -3   9  197.27    4.46 
  -2   3  -9  206.62    3.98 
   2   3   9  205.84    4.23 
   2   3   9  200.71    4.31 
  -2   3  -9  203.75    4.14 
  -2  -3  -9  198.10    4.00 
   2  -3   9  204.57    4.12 
  -2   3  -9  204.93    4.65 
  -2  -3  -9  208.66    4.28 
   2  -3  10   90.35    2.61 
  -2   3 -10   92.13    2.56 
   2   3  10   88.09    2.62 
   2   3  10   89.95    2.78 
  -2  -3 -10   87.75    2.56 
  -2   3 -10   92.39    2.68 
  -2   3 -10   95.26    3.11 
   2  -3  10   87.44    2.63 
  -2  -3 -10   91.56    2.72 
   2  -3  11   11.73    1.16 
  -2   3 -11   10.98    1.07 
   2   3  11   10.82    1.17 
   2   3  11   11.63    1.19 
  -2  -3 -11   10.75    1.05 
  -2   3 -11   11.58    1.19 
  -2   3 -11   11.14    1.32 
  -2  -3 -11   11.04    1.32 
   2  -3  12  306.74    5.00 
  -2   3 -12  306.10    4.86 
   2   3  12  315.42    5.12 
   2   3  12  318.17    5.34 
  -2  -3 -12  304.70    5.10 
  -2   3 -12  316.43    5.21 
  -2   3 -12  321.18    5.78 
  -2  -3 -12  316.40    5.32 
   2  -3  13    2.40    1.10 
  -2   3 -13    1.30    1.02 
   2   3  13    1.76    1.14 
   2   3  13    1.58    0.88 
  -2  -3 -13    1.82    0.81 
  -2   3 -13    1.76    0.96 
  -2   3 -13    2.37    1.33 
  -2  -3 -13    0.81    0.95 
   2  -3  14  150.66    3.48 
   2   3  14  151.38    3.62 
   2   3  14  157.89    3.73 
  -2  -3 -14  152.55    3.59 
  -2   3 -14  157.32    3.67 
  -2   3 -14  155.53    4.03 
  -2  -3 -14  147.05    3.65 
   2  -3  15   34.63    1.73 
   2   3  15   33.34    1.71 
  -2  -3 -15   33.59    1.63 
  -2   3 -15   34.81    1.70 
  -2   3 -15   34.94    1.99 
  -2  -3 -15   33.86    1.85 
   2  -3  16    7.46    1.30 
   2   3  16    6.83    1.48 
  -2  -3 -16    7.75    1.05 
  -2   3 -16    9.57    1.22 
  -2   3 -16    6.88    1.52 
  -2  -3 -16    6.59    1.42 
   2  -3  17    9.27    1.48 
   2   3  17   13.33    1.52 
  -2   3 -17   13.81    1.30 
  -2  -3 -17   13.46    1.21 
  -2   3 -17   12.92    1.21 
  -2   3 -17   12.33    1.49 
  -2  -3 -17   10.12    1.33 
   2  -3  18  118.84    2.88 
   2   3  18  124.96    3.05 
  -2   3 -18  117.72    2.86 
  -2   3 -18  127.09    3.35 
  -2  -3 -18  119.69    2.99 
   2  -3  19   13.37    1.55 
   2   3  19   15.69    1.94 
  -2   3 -19   13.00    1.44 
  -2   3 -19   11.83    1.66 
  -2  -3 -19   15.29    1.63 
   2  -3  20   88.15    2.72 
   2   3  20   90.89    2.92 
  -2   3 -20   87.99    2.53 
  -2   3 -20   98.18    3.07 
  -2  -3 -20   91.06    2.70 
   2  -3  21    5.19    1.39 
  -2   3 -21    4.01    1.32 
  -2   3 -21    2.43    1.56 
  -2  -3 -21    5.27    1.40 
   2  -3  22    2.18    1.46 
  -2   3 -22   -0.34    1.05 
  -2   3 -22    1.48    1.71 
  -2  -3 -22    0.67    1.41 
   2  -3  23    9.68    1.48 
   2   3  23    8.31    2.10 
  -2   3 -23    8.94    1.47 
  -2   3 -23   14.15    1.98 
  -2  -3 -23    8.87    1.58 
   2  -3  24   87.19    2.67 
   2   3  24   89.27    2.87 
  -2   3 -24   94.21    2.58 
  -2   3 -24   92.97    3.05 
  -2  -3 -24   96.47    2.84 
   2  -3  25   84.90    2.90 
   2   3  25   85.96    3.26 
  -2   3 -25   89.24    3.43 
  -2  -3 -25   92.99    3.21 
   2  -3  26   69.53    2.57 
   2   3  26   63.45    2.65 
  -2   3 -26   69.26    2.86 
  -2  -3 -26   64.48    2.56 
  -2  -4  27  110.05    3.14 
  -2   4  27  114.35    2.85 
  -2   4  27  107.78    3.12 
   2   4 -27  115.90    3.17 
  -2  -4  26    2.55    1.78 
  -2   4  26   -1.15    1.31 
  -2   4  26    1.70    1.70 
   2   4 -26    0.51    1.79 
  -2  -4  25   55.15    2.54 
  -2   4  25   58.81    2.25 
  -2   4  25   57.86    2.63 
  -2  -4  24   16.78    1.91 
  -2   4  24   13.18    1.66 
  -2   4  24   11.64    1.70 
   2   4 -24   14.60    1.59 
  -2  -4  23    3.10    1.52 
  -2   4  23    0.51    1.46 
  -2   4  23    0.50    1.62 
   2   4 -23    1.76    1.33 
  -2  -4  22   23.16    1.94 
  -2   4  22   22.62    1.63 
  -2   4  22   21.43    2.00 
   2   4 -22   23.82    1.65 
  -2  -4  21   22.91    1.84 
  -2   4  21   28.66    1.70 
  -2   4  21   26.52    2.12 
   2   4 -21   29.73    1.73 
  -2   4  20   87.54    2.50 
  -2   4  20   97.56    3.11 
   2   4 -20   93.01    2.53 
  -2   4  19   90.71    2.51 
  -2   4  19   87.56    2.93 
   2   4 -19   87.53    2.43 
  -2   4  18   80.03    2.34 
  -2   4  18   82.42    2.75 
   2   4 -18   82.22    2.31 
  -2   4  17    2.28    1.10 
  -2   4  17    3.62    1.38 
   2   4 -17    1.10    0.94 
  -2   4  16    7.81    1.20 
  -2   4  16   10.18    1.46 
   2   4 -16    9.04    1.09 
  -2   4  15    1.22    0.90 
   2  -4 -15    1.21    0.92 
  -2   4  15    1.77    1.15 
   2   4 -15    0.68    0.89 
  -2   4  14   84.17    2.52 
   2  -4 -14   83.99    2.46 
  -2   4  14   82.48    2.83 
   2   4 -14   84.94    2.44 
  -2   4  13    2.58    0.99 
   2  -4 -13    2.33    0.93 
  -2   4  13    1.88    1.12 
   2   4 -13    2.62    0.83 
  -2   4  12   55.63    1.98 
   2  -4 -12   55.45    1.97 
  -2   4  12   57.43    2.30 
   2   4 -12   54.99    1.85 
  -2   4  11    5.21    1.03 
   2  -4 -11    4.80    0.92 
  -2   4  11    4.06    1.07 
   2   4 -11    5.08    0.79 
  -2   4  10   60.96    2.12 
   2  -4 -10   56.64    2.04 
  -2   4  10   57.56    2.39 
   2   4 -10   60.51    1.97 
   2   4  -9   56.66    2.06 
  -2   4   9   60.13    2.10 
   2  -4  -9   57.23    2.06 
  -2   4   9   55.74    2.30 
   2  -4  -9   54.29    2.14 
   2   4  -9   55.11    2.07 
   2   4  -9   59.80    1.94 
   2   4  -8  255.62    4.60 
  -2   4   8  260.02    4.68 
   2  -4  -8  247.80    4.66 
  -2   4   8  258.94    5.13 
   2  -4  -8  251.53    4.76 
   2   4  -8  266.60    5.00 
   2   4  -8  258.25    4.48 
   2   4  -7    5.68    0.94 
  -2   4   7    6.62    0.97 
   2  -4  -7    5.83    0.94 
  -2   4   7    6.49    1.15 
   2  -4  -7    6.89    1.14 
   2   4  -7    6.45    0.95 
   2   4  -7    6.14    0.79 
   2   4  -6  152.22    3.26 
  -2   4   6  147.97    3.21 
   2  -4  -6  148.79    3.38 
   2  -4  -6  147.20    3.37 
   2   4  -6  143.04    3.31 
   2   4  -6  142.39    3.59 
   2   4  -6  150.58    3.07 
   2   4  -5   35.09    1.67 
  -2   4   5   35.26    1.57 
   2  -4  -5   35.71    1.71 
   2  -4  -5   36.77    1.71 
   2   4  -5   36.43    1.70 
   2   4  -5   34.06    1.94 
   2   4  -5   36.74    1.56 
  -2   4   4   47.02    1.86 
   2   4  -4   45.76    1.80 
  -2   4   4   49.26    1.79 
   2  -4  -4   46.92    1.82 
   2   4  -4   47.23    1.88 
   2   4  -3  206.22    3.78 
  -2   4   3  207.19    3.74 
   2  -4  -3  201.57    3.72 
   2   4  -3  204.05    3.76 
   2   4  -2  205.54    3.81 
  -2   4   2  199.97    4.20 
   2   4  -2  197.83    4.02 
   2  -4  -2  199.37    3.72 
   2   4  -2  199.32    3.71 
  -2   4   1  533.50    7.62 
   2   4  -1  500.99    6.79 
  -2   4   1  519.92    6.80 
   2  -4  -1  540.30    6.46 
   2   4  -1  515.75    6.37 
  -2   4   1  524.77    7.24 
   2   4   0  191.61    3.69 
  -2   4   0  190.37    3.77 
   2   4   0  186.19    3.82 
  -2   4   0  192.76    3.82 
   2  -4   0  180.59    3.60 
   2   4   0  196.71    3.66 
  -2   4   0  195.33    4.22 
  -2  -4   0  201.82    4.22 
   2   4   1    3.29    0.94 
   2  -4   1    2.49    0.82 
  -2   4  -1    2.40    0.69 
   2   4   1    2.95    0.86 
  -2   4  -1    2.40    0.96 
   2  -4   1    1.48    0.86 
   2   4   1    2.91    0.76 
  -2   4  -1    1.86    0.88 
   2  -4   1    1.54    0.93 
  -2  -4  -1    1.67    0.90 
   2   4   2  182.53    3.61 
   2  -4   2  191.80    3.70 
  -2   4  -2  189.03    3.38 
   2   4   2  191.54    3.83 
  -2   4  -2  190.78    3.81 
   2  -4   2  187.68    3.52 
   2   4   2  194.93    3.69 
  -2  -4  -2  185.37    3.56 
  -2   4  -2  182.50    4.06 
   2  -4   2  190.81    4.06 
  -2  -4  -2  188.01    3.91 
   2  -4   3  936.14    9.20 
  -2   4  -3  932.64    8.74 
   2   4   3  947.61    9.73 
  -2   4  -3  939.25    9.50 
   2   4   3  941.92    9.31 
   2  -4   3  938.76    9.11 
  -2   4  -3  942.98   10.33 
   2  -4   3  941.19    9.96 
  -2  -4  -3  937.73    9.77 
   2  -4   4    1.88    0.77 
  -2   4  -4    1.66    0.75 
   2   4   4    2.36    1.09 
  -2   4  -4    2.33    0.91 
   2  -4   4    2.41    0.87 
  -2  -4  -4    1.80    0.80 
  -2   4  -4    1.49    1.01 
   2  -4   4    2.02    1.12 
  -2  -4  -4    3.18    0.90 
   2  -4   5 1499.41   16.17 
  -2   4  -5 1494.47   15.81 
   2   4   5 1582.81   19.20 
   2   4   5 1545.93   18.72 
  -2   4  -5 1528.48   18.90 
   2  -4   5 1495.65   16.94 
  -2  -4  -5 1518.42   16.29 
  -2   4  -5 1546.72   19.60 
   2  -4   5 1543.03   19.25 
   2  -4   6  106.06    2.71 
  -2   4  -6  106.23    2.67 
   2   4   6  106.84    2.93 
   2   4   6  112.04    2.97 
  -2   4  -6  105.29    2.83 
   2  -4   6  108.27    2.77 
  -2  -4  -6  108.95    2.77 
  -2   4  -6  107.43    3.27 
   2  -4   6  106.00    3.00 
  -2  -4  -6  110.93    2.93 
   2  -4   7    4.49    0.84 
  -2   4  -7    7.40    1.08 
   2   4   7    4.79    1.01 
   2   4   7    4.12    0.91 
  -2   4  -7    4.43    1.04 
  -2  -4  -7    5.13    0.86 
   2  -4   7    5.12    0.93 
  -2   4  -7    5.85    1.28 
   2  -4   7    4.15    1.00 
  -2  -4  -7    4.53    0.95 
   2  -4   8   63.40    2.13 
  -2   4  -8   64.80    2.13 
   2   4   8   67.41    2.26 
   2   4   8   68.91    2.37 
  -2   4  -8   68.48    2.32 
  -2  -4  -8   66.90    2.20 
   2  -4   8   67.39    2.23 
  -2   4  -8   65.77    2.66 
   2  -4   8   72.25    2.42 
  -2  -4  -8   66.75    2.31 
   2  -4   9   95.84    2.68 
  -2   4  -9   95.52    2.62 
   2   4   9   98.49    2.91 
  -2   4  -9   99.36    2.86 
  -2  -4  -9   97.20    2.69 
   2  -4   9   91.67    2.66 
  -2   4  -9   97.46    3.22 
   2  -4   9   96.54    2.82 
  -2  -4  -9   95.83    2.76 
   2  -4  10   -0.08    0.71 
  -2   4 -10   -0.41    0.91 
   2   4  10    0.92    1.07 
   2   4  10    0.24    0.79 
  -2   4 -10    0.54    0.95 
  -2  -4 -10    0.86    0.69 
   2  -4  10   -0.26    0.88 
  -2   4 -10   -0.83    0.89 
  -2  -4 -10    0.73    0.98 
   2  -4  11   33.25    1.58 
  -2   4 -11   32.40    1.67 
   2   4  11   30.78    1.59 
   2   4  11   31.89    1.71 
  -2  -4 -11   29.59    1.47 
  -2   4 -11   32.23    1.68 
  -2   4 -11   31.69    2.01 
  -2  -4 -11   31.18    1.75 
   2  -4  12   44.86    1.93 
  -2   4 -12   43.72    1.84 
   2   4  12   41.49    1.87 
   2   4  12   43.48    2.02 
  -2  -4 -12   42.79    1.82 
  -2   4 -12   44.00    1.97 
  -2   4 -12   44.18    2.22 
  -2  -4 -12   39.33    1.83 
   2  -4  13    2.17    1.04 
   2   4  13    2.39    1.28 
   2   4  13    1.23    0.91 
  -2  -4 -13    1.67    0.86 
  -2   4 -13    1.49    1.00 
  -2   4 -13    1.47    1.22 
  -2  -4 -13    2.14    1.16 
   2  -4  14   26.63    1.54 
   2   4  14   26.57    1.58 
   2   4  14   24.64    1.56 
  -2  -4 -14   26.06    1.44 
  -2   4 -14   25.58    1.59 
  -2   4 -14   25.12    1.83 
  -2  -4 -14   25.15    1.65 
   2  -4  15    4.06    1.21 
   2   4  15    3.75    1.21 
   2   4  15    3.84    1.05 
  -2  -4 -15    2.25    0.88 
  -2   4 -15    3.51    1.10 
  -2   4 -15    3.19    1.44 
  -2  -4 -15    2.36    1.04 
   2  -4  16   36.31    1.84 
   2   4  16   36.20    1.85 
  -2  -4 -16   35.02    1.64 
  -2   4 -16   33.67    1.74 
  -2   4 -16   34.08    2.06 
  -2  -4 -16   31.44    1.71 
   2  -4  17   17.93    1.58 
   2   4  17   16.23    1.68 
  -2   4 -17   18.60    1.50 
  -2   4 -17   17.61    1.84 
  -2  -4 -17   17.07    1.50 
   2  -4  18   26.70    1.68 
   2   4  18   20.27    4.31 
  -2   4 -18   26.11    1.65 
  -2   4 -18   28.54    1.92 
  -2  -4 -18   26.46    1.80 
   2  -4  19   23.75    1.67 
   2   4  19   28.72    2.34 
  -2   4 -19   26.52    1.71 
  -2   4 -19   24.19    2.12 
  -2  -4 -19   23.85    1.75 
   2  -4  20    5.78    1.42 
   2   4  20    8.34    1.92 
  -2   4 -20    5.41    1.17 
  -2   4 -20    5.37    1.59 
  -2  -4 -20    5.03    1.52 
   2  -4  21  101.44    2.69 
   2   4  21   86.98    2.84 
  -2   4 -21   93.00    2.67 
  -2   4 -21   90.40    3.05 
  -2  -4 -21   95.93    2.81 
   2  -4  22   16.06    1.62 
   2   4  22   14.33    2.14 
  -2   4 -22   15.63    1.60 
  -2   4 -22   13.88    2.10 
  -2  -4 -22   15.38    1.83 
   2  -4  23   50.04    2.41 
   2   4  23   46.26    2.60 
  -2   4 -23   47.20    2.15 
  -2   4 -23   49.82    2.54 
  -2  -4 -23   45.17    2.34 
   2  -4  24   21.25    1.71 
   2   4  24   22.13    2.35 
  -2   4 -24   19.87    1.70 
  -2   4 -24   24.52    2.21 
  -2  -4 -24   23.17    1.85 
   2  -4  25    3.73    1.61 
   2   4  25    0.53    2.11 
  -2   4 -25    1.65    1.95 
  -2  -4 -25   -0.49    1.66 
  -2   5  26   44.91    2.11 
  -2   5  26   43.04    2.43 
   2   5 -26   45.65    2.44 
  -2   5  25   -0.25    1.38 
  -2   5  25    1.50    1.79 
   2   5 -25   -2.44    1.50 
  -2   5  24   60.62    2.30 
  -2   5  24   60.47    2.63 
   2   5 -24   60.53    2.49 
  -2   5  23   21.97    1.70 
  -2   5  23   24.95    2.09 
   2   5 -23   24.77    2.10 
  -2   5  22   43.83    2.11 
  -2   5  22   41.63    2.49 
  -2   5  21   31.64    1.91 
  -2   5  21   34.98    2.27 
  -2   5  20  181.29    3.37 
  -2   5  20  175.28    3.87 
  -2   5  19   46.77    1.90 
  -2   5  19   55.61    2.42 
   2   5 -19   42.68    2.11 
   2   5 -19   49.50    1.99 
  -2   5  18  332.74    5.13 
  -2   5  18  331.04    5.79 
   2   5 -18  342.00    5.47 
   2   5 -18  319.63    5.11 
  -2   5  17    5.53    1.29 
  -2   5  17    4.18    1.49 
   2   5 -17    5.71    1.40 
   2   5 -17    5.39    1.12 
  -2   5  16  208.39    3.56 
  -2   5  16  216.08    4.17 
   2   5 -16  219.53    3.92 
   2   5 -16  214.14    3.64 
  -2   5  15   26.26    1.64 
  -2   5  15   23.86    1.75 
   2   5 -15   23.77    1.71 
   2   5 -15   24.98    1.53 
  -2   5  14   19.66    1.46 
   2  -5 -14   19.90    1.34 
  -2   5  14   19.79    1.64 
   2   5 -14   21.53    1.59 
   2   5 -14   18.68    1.30 
  -2   5  13  154.33    3.58 
   2  -5 -13  154.58    3.59 
  -2   5  13  157.35    3.98 
   2   5 -13  155.42    3.72 
   2   5 -13  151.87    3.53 
  -2   5  12  461.09    7.83 
   2  -5 -12  453.40    7.82 
  -2   5  12  433.25    7.95 
   2   5 -12  455.21    8.01 
   2   5 -12  459.86    7.87 
  -2  -5  11    9.41    1.49 
   2  -5 -11   11.39    1.16 
  -2   5  11   10.84    1.54 
   2   5 -11    9.20    1.40 
   2   5 -11   11.41    1.09 
  -2   5  10  799.77    9.73 
   2  -5 -10  786.43   10.99 
  -2   5  10  811.62   10.34 
   2   5 -10  809.28    9.91 
   2   5 -10  795.61   10.05 
  -2  -5   9   -0.09    1.09 
  -2   5   9    0.05    0.99 
   2  -5  -9    0.50    0.83 
  -2   5   9    0.39    1.18 
   2   5  -9    0.20    0.96 
   2   5  -9   -0.30    0.73 
  -2  -5   8   12.83    1.27 
  -2   5   8   14.17    1.24 
   2  -5  -8   14.04    1.21 
  -2   5   8   13.77    1.31 
   2   5  -8   14.74    1.32 
   2   5  -8   14.95    1.23 
  -2  -5   7   18.64    1.52 
  -2   5   7   17.06    1.25 
   2  -5  -7   17.90    1.30 
  -2   5   7   18.49    1.48 
   2   5  -7   15.19    1.37 
   2  -5  -7   16.40    1.46 
   2   5  -7   16.46    1.49 
   2   5  -7   16.51    1.42 
  -2  -5   6  114.83    3.08 
   2   5  -6  110.66    2.83 
  -2   5   6  120.93    2.93 
   2  -5  -6  119.50    3.15 
  -2   5   6  111.48    3.10 
   2  -5  -6  113.82    2.93 
   2   5  -6  118.28    3.06 
   2  -5  -6  114.27    3.27 
  -2   5   5   17.27    1.29 
  -2  -5   5   17.05    1.58 
   2   5  -5   15.57    1.27 
  -2   5   5   18.15    1.22 
   2  -5  -5   16.21    1.39 
   2   5  -5   18.19    1.55 
   2  -5  -5   17.04    1.49 
  -2  -5   4  651.67   10.03 
  -2   5   4  634.67    9.08 
   2   5  -4  649.93    9.67 
  -2   5   4  658.64    9.70 
   2  -5  -4  652.47    9.73 
   2   5  -4  656.11    9.88 
   2  -5  -4  617.42    9.42 
  -2  -5   3    0.45    0.95 
   2   5  -3    0.45    0.91 
  -2   5   3    0.73    0.70 
  -2   5   3    0.33    0.66 
   2  -5  -3    0.50    0.78 
   2   5  -3   -0.52    0.84 
   2  -5  -3   -0.48    0.90 
   2   5  -2   46.01    1.94 
  -2   5   2   42.76    1.72 
  -2   5   2   45.18    1.83 
   2   5  -2   49.14    2.14 
   2  -5  -2   45.62    1.89 
   2   5  -2   47.04    1.92 
   2  -5  -2   43.03    2.06 
   2   5  -1  223.72    4.22 
  -2   5   1  235.86    4.21 
  -2   5   1  229.07    4.35 
   2   5  -1  233.67    4.61 
  -2   5   1  219.45    4.33 
   2  -5  -1  238.38    4.35 
   2   5  -1  238.39    4.39 
  -2   5   1  238.20    4.92 
   2  -5  -1  231.78    4.75 
   2   5   0    3.37    0.98 
  -2   5   0    2.55    0.71 
  -2   5   0    2.75    0.83 
   2   5   0    2.23    1.14 
  -2   5   0    2.96    0.94 
   2  -5   0    2.34    0.85 
   2   5   0    1.70    0.84 
  -2   5   0    2.99    1.17 
  -2  -5   0    2.59    0.84 
   2  -5   0    2.67    1.13 
   2   5   1   10.38    1.16 
  -2   5  -1   10.75    0.96 
   2   5   1   11.49    1.17 
  -2   5  -1    9.65    1.18 
   2  -5   1   11.35    1.11 
   2   5   1    9.86    1.12 
  -2  -5  -1   10.61    1.12 
  -2   5  -1   10.84    1.32 
   2  -5   1   10.58    1.37 
  -2  -5  -1   10.09    1.15 
   2   5   2   12.77    1.18 
   2  -5   2   12.65    1.12 
  -2   5  -2   12.41    1.03 
   2   5   2   13.66    1.31 
  -2   5  -2   12.66    1.24 
   2   5   2   13.34    1.19 
   2  -5   2   12.56    1.11 
  -2  -5  -2   13.24    1.17 
  -2   5  -2    9.95    1.24 
   2  -5   2   13.45    1.31 
  -2  -5  -2   13.15    1.22 
   2   5   3    0.68    0.87 
   2  -5   3    0.35    0.72 
  -2   5  -3    1.05    0.67 
   2   5   3    0.17    0.99 
  -2   5  -3    0.84    0.96 
   2   5   3    0.89    0.82 
   2  -5   3    0.58    0.78 
  -2  -5  -3    0.38    0.81 
  -2   5  -3    0.52    0.99 
   2  -5   3   -0.04    0.81 
  -2  -5  -3    0.71    0.77 
   2  -5   4    1.93    0.75 
  -2   5  -4    2.35    0.72 
   2   5   4    1.41    0.98 
  -2   5  -4    1.45    1.01 
   2   5   4    1.65    0.84 
   2  -5   4    1.91    0.95 
  -2  -5  -4    2.23    0.84 
  -2   5  -4    2.61    1.32 
   2  -5   4    2.02    0.95 
  -2  -5  -4    2.15    0.88 
   2  -5   5    3.91    0.87 
  -2   5  -5    4.10    0.81 
   2   5   5    4.29    0.98 
   2   5   5    3.25    0.90 
  -2   5  -5    3.66    1.04 
   2  -5   5    5.04    0.92 
  -2  -5  -5    4.11    0.86 
  -2   5  -5    3.47    1.29 
   2  -5   5    4.26    1.16 
  -2  -5  -5    3.64    0.90 
   2  -5   6  164.61    3.70 
  -2   5  -6  164.01    3.53 
   2   5   6  159.61    3.77 
   2   5   6  164.70    3.82 
  -2   5  -6  159.24    3.74 
   2  -5   6  166.06    3.70 
  -2  -5  -6  166.76    3.70 
  -2   5  -6  162.62    4.20 
   2  -5   6  166.19    3.95 
  -2  -5  -6  169.27    3.86 
   2  -5   7    4.70    0.97 
  -2   5  -7    4.59    0.92 
   2   5   7    5.41    1.17 
   2   5   7    5.01    0.96 
  -2   5  -7    3.75    1.09 
  -2  -5  -7    4.99    0.95 
   2  -5   7    5.09    0.92 
  -2   5  -7    5.37    1.38 
   2  -5   7    4.20    1.04 
  -2  -5  -7    4.72    0.98 
   2  -5   8   19.60    1.38 
  -2   5  -8   19.29    1.57 
   2   5   8   20.73    1.49 
   2   5   8   18.11    1.34 
  -2   5  -8   18.47    1.47 
  -2  -5  -8   18.87    1.25 
   2  -5   8   19.89    1.43 
  -2   5  -8   19.79    1.61 
  -2  -5  -8   19.63    1.40 
   2  -5   9   12.47    1.19 
  -2   5  -9   12.28    1.26 
   2   5   9   13.62    1.30 
   2   5   9   12.36    1.21 
  -2   5  -9   13.50    1.34 
  -2  -5  -9   12.86    1.11 
   2  -5   9   11.97    1.23 
  -2   5  -9   11.85    1.61 
  -2  -5  -9   11.66    1.29 
   2  -5  10   59.28    2.19 
  -2   5 -10   48.84    6.50 
   2   5  10   60.29    2.31 
   2   5  10   60.15    2.34 
  -2   5 -10   61.78    2.29 
  -2  -5 -10   59.66    2.10 
   2  -5  10   59.12    2.18 
  -2   5 -10   58.31    2.52 
  -2  -5 -10   57.93    2.22 
   2  -5  11    1.33    0.84 
  -2   5 -11    2.66    1.09 
   2   5  11    1.27    1.17 
   2   5  11    1.19    1.00 
  -2   5 -11    0.45    0.96 
  -2  -5 -11    1.52    0.84 
   2  -5  11    1.41    1.01 
  -2   5 -11    1.35    1.18 
  -2  -5 -11    2.52    0.94 
   2  -5  12 1142.14   15.62 
  -2   5 -12 1125.51   15.20 
   2   5  12 1168.03   16.31 
  -2   5 -12 1147.99   15.93 
  -2  -5 -12 1184.92   16.23 
  -2   5 -12 1145.85   16.56 
   2  -5  13   27.06    1.62 
   2   5  13   26.54    1.70 
   2   5  13   29.53    1.71 
  -2  -5 -13   29.18    1.54 
  -2   5 -13   28.32    1.66 
  -2   5 -13   26.84    2.05 
  -2  -5 -13   25.66    1.67 
   2  -5  14  237.49    3.87 
   2   5  14  240.69    3.98 
   2   5  14  240.12    4.17 
  -2  -5 -14  227.99    3.71 
  -2   5 -14  237.61    3.93 
  -2   5 -14  225.98    4.31 
  -2  -5 -14  220.42    3.76 
   2  -5  15    8.00    1.42 
   2   5  15    7.39    1.47 
  -2  -5 -15    7.90    1.06 
  -2   5 -15   10.59    1.39 
  -2   5 -15    9.31    1.59 
  -2  -5 -15   10.99    1.29 
   2  -5  16   28.92    1.79 
   2   5  16   27.14    1.82 
  -2   5 -16   30.69    1.76 
  -2   5 -16   27.73    2.04 
  -2  -5 -16   25.27    1.69 
   2  -5  17    0.77    1.14 
   2   5  17   -1.09    1.50 
  -2   5 -17    0.11    1.19 
  -2   5 -17   -1.04    1.43 
  -2  -5 -17    1.19    1.39 
   2  -5  18  327.51    4.67 
   2   5  18  330.71    4.86 
  -2   5 -18  326.29    4.57 
  -2   5 -18  322.89    5.22 
  -2  -5 -18  310.18    4.56 
   2  -5  19    1.22    1.42 
   2   5  19    0.23    1.76 
  -2   5 -19    0.94    1.33 
  -2   5 -19    0.37    1.50 
  -2  -5 -19    1.04    1.36 
   2  -5  20  111.29    3.30 
   2   5  20  106.01    3.23 
  -2   5 -20  112.17    3.26 
  -2   5 -20  111.26    3.56 
  -2  -5 -20  108.57    3.23 
   2  -5  21   38.50    2.01 
   2   5  21   34.67    2.27 
  -2   5 -21   36.27    1.96 
  -2   5 -21   36.88    2.27 
  -2  -5 -21   32.62    2.03 
   2  -5  22   38.76    2.09 
   2   5  22   32.87    2.29 
  -2   5 -22   36.50    1.95 
  -2   5 -22   34.41    2.42 
  -2  -5 -22   36.05    2.16 
   2  -5  23   11.98    1.69 
  -2   5 -23   11.42    1.63 
  -2   5 -23   14.25    1.95 
  -2  -5 -23   10.88    1.72 
   2  -5  24  151.16    4.04 
  -2   5 -24  144.35    3.86 
  -2   5 -24  151.36    4.43 
  -2  -5 -24  150.81    4.09 
   2  -5  25    3.74    1.71 
  -2   5 -25    3.34    1.48 
  -2   5 -25    3.36    2.02 
  -2  -5 -25    2.44    1.58 
  -2   6  25  105.59    2.80 
  -2   6  25  104.19    3.13 
   2   6 -25  106.39    2.98 
  -2   6  24   -0.65    1.41 
  -2   6  24    1.61    1.77 
   2   6 -24   -1.21    1.57 
  -2  -6  23    3.25    1.86 
  -2   6  23    0.79    1.41 
  -2   6  23    3.09    1.69 
  -2  -6  22    0.18    1.80 
  -2   6  22   -0.35    1.19 
  -2   6  22    0.93    1.78 
  -2  -6  21   32.68    2.21 
  -2   6  21   37.22    1.95 
  -2   6  21   37.25    2.48 
  -2  -6  20   27.36    2.14 
  -2   6  20   30.61    1.89 
  -2   6  20   28.09    2.13 
  -2  -6  19   11.31    1.71 
  -2   6  19   11.13    1.59 
  -2   6  19   14.91    1.98 
   2   6 -19   12.12    1.73 
  -2  -6  18   30.20    2.08 
  -2   6  18   35.51    1.95 
  -2   6  18   30.30    2.11 
   2   6 -18   34.22    2.09 
  -2  -6  17    3.00    1.62 
  -2   6  17    1.57    1.17 
  -2   6  17    3.47    1.72 
   2   6 -17    4.41    1.45 
  -2  -6  16    0.39    1.23 
  -2   6  16    0.56    1.27 
  -2   6  16    0.55    1.36 
   2   6 -16    3.32    1.59 
  -2  -6  15   26.70    1.83 
  -2   6  15   29.16    1.76 
  -2   6  15   28.74    1.99 
   2   6 -15   28.53    1.88 
  -2  -6  14    1.19    1.28 
  -2   6  14    1.50    1.22 
  -2   6  14    0.16    1.50 
   2   6 -14    1.05    1.19 
  -2  -6  13   90.28    2.80 
  -2   6  13   93.74    2.68 
  -2   6  13  100.68    3.12 
   2   6 -13   98.87    2.87 
  -2  -6  12  104.70    3.05 
  -2   6  12  106.11    2.81 
  -2   6  12  105.01    3.20 
   2   6 -12  107.36    2.94 
   2   6 -12  100.71    2.87 
  -2  -6  11   57.96    2.41 
  -2   6  11   56.15    2.16 
  -2   6  11   58.39    2.47 
   2   6 -11   53.27    2.17 
   2   6 -11   55.21    2.23 
  -2  -6  10  121.84    3.39 
  -2   6  10  125.63    3.16 
   2  -6 -10  124.82    3.25 
  -2   6  10  128.07    3.53 
   2   6 -10  119.08    3.21 
   2   6 -10  117.03    3.28 
  -2  -6   9   34.85    1.81 
  -2   6   9   41.02    1.83 
   2  -6  -9   37.56    1.76 
  -2   6   9   38.77    2.11 
   2   6  -9   37.85    1.80 
   2   6  -9   38.18    2.20 
  -2  -6   8    4.99    1.20 
  -2   6   8    4.73    1.00 
   2  -6  -8    4.92    0.92 
  -2   6   8    4.64    1.32 
   2   6  -8    4.28    1.03 
  -2  -6   7   61.22    2.36 
  -2   6   7   57.75    2.01 
  -2   6   7   58.64    2.40 
   2   6  -7   59.90    2.16 
  -2   6   6    2.09    0.90 
  -2  -6   6    2.54    1.03 
  -2   6   6    2.40    0.86 
  -2   6   6    1.58    1.11 
   2   6  -6    1.93    0.89 
  -2  -6   5    1.87    1.05 
  -2   6   5    1.33    0.75 
  -2   6   5    1.48    0.75 
  -2   6   5    1.70    1.02 
   2   6  -5    1.65    1.03 
  -2  -6   4    5.21    1.24 
  -2   6   4    3.64    0.87 
  -2   6   4    3.68    0.85 
   2   6  -4    4.35    1.14 
  -2   6   3  340.23    5.98 
  -2   6   3  344.67    6.03 
   2   6  -3  347.22    6.41 
   2   6  -3  341.92    6.05 
   2  -6  -3  340.45    6.47 
  -2   6   2  124.65    3.10 
  -2   6   2  121.08    3.16 
   2   6  -2  123.67    3.42 
   2   6  -2  130.44    3.30 
   2  -6  -2  124.48    3.50 
  -2   6   1  410.94    6.73 
  -2   6   1  414.06    6.98 
   2   6  -1  420.55    7.30 
   2   6  -1  396.14    6.73 
   2  -6  -1  420.25    7.49 
  -2   6   0    8.49    0.92 
  -2   6   0    8.52    1.05 
   2   6   0    8.09    1.30 
  -2   6   0    7.40    1.09 
   2   6   0    7.66    1.14 
  -2  -6   0    8.58    1.15 
  -2   6   0    7.65    1.38 
   2  -6   0    8.92    1.38 
  -2   6  -1   39.63    1.66 
   2   6   1   37.55    1.90 
  -2   6  -1   38.03    1.83 
  -2   6  -1   38.81    1.92 
   2   6   1   37.68    1.74 
  -2  -6  -1   38.92    1.79 
  -2   6  -1   37.57    2.07 
   2  -6   1   40.11    2.00 
  -2  -6  -1   39.92    2.13 
  -2   6  -2    0.85    0.71 
   2   6   2    1.72    1.11 
  -2   6  -2    2.07    1.13 
   2   6   2    1.00    0.91 
  -2   6  -2    0.85    1.30 
   2  -6   2    0.67    0.89 
  -2  -6  -2    0.78    0.80 
   2  -6   3  787.78    9.77 
  -2   6  -3  787.00    9.36 
   2   6   3  773.75    9.91 
  -2   6  -3  755.09    9.49 
   2   6   3  781.00    9.59 
  -2  -6  -3  778.70    9.60 
  -2   6  -3  779.42   10.46 
   2  -6   3  810.63   10.54 
  -2  -6  -3  786.03    9.90 
   2  -6   4   24.58    1.58 
  -2   6  -4   23.43    1.29 
   2   6   4   22.63    1.55 
  -2   6  -4   23.05    1.62 
   2   6   4   24.12    1.55 
  -2  -6  -4   21.49    1.36 
  -2   6  -4   24.44    1.89 
   2  -6   4   24.36    1.69 
  -2  -6  -4   23.69    1.47 
   2  -6   5  765.69    9.51 
   2   6   5  731.12   10.01 
   2   6   5  759.55    9.54 
  -2   6  -5  764.93    9.68 
  -2  -6  -5  770.76    9.55 
  -2   6  -5  750.78   10.27 
  -2  -6  -5  762.10    9.61 
   2  -6   6    8.67    1.10 
  -2   6  -6    8.92    0.98 
   2   6   6    8.76    1.30 
   2   6   6    9.43    1.15 
  -2   6  -6    9.68    1.27 
  -2  -6  -6    9.75    1.10 
  -2   6  -6    8.82    1.56 
  -2  -6  -6    9.71    1.11 
   2  -6   7    4.26    1.02 
  -2   6  -7    4.33    0.93 
   2   6   7    4.16    1.08 
   2   6   7    3.80    1.06 
  -2   6  -7    4.92    1.05 
  -2  -6  -7    3.76    0.92 
  -2   6  -7    3.32    1.41 
  -2  -6  -7    3.41    1.07 
   2  -6   8   28.88    1.57 
  -2   6  -8   29.72    1.46 
   2   6   8   26.90    1.76 
   2   6   8   29.61    1.66 
  -2   6  -8   31.24    1.78 
  -2  -6  -8   30.31    1.55 
  -2   6  -8   30.40    1.91 
  -2  -6  -8   30.59    1.57 
   2  -6   9  415.85    7.03 
  -2   6  -9  426.63    6.89 
   2   6   9  393.84    6.80 
   2   6   9  417.22    7.19 
  -2   6  -9  408.24    6.99 
  -2  -6  -9  381.86    6.73 
  -2   6  -9  420.84    7.67 
  -2  -6  -9  394.74    6.72 
   2  -6  10    5.16    1.13 
  -2   6 -10    4.05    1.04 
   2   6  10    4.41    1.27 
   2   6  10    4.47    1.16 
  -2   6 -10    5.50    1.29 
  -2  -6 -10    4.00    0.95 
  -2   6 -10    4.78    1.41 
  -2  -6 -10    3.13    0.96 
   2  -6  11  390.83    6.04 
  -2   6 -11  391.79    5.74 
   2   6  11  399.93    6.40 
  -2   6 -11  389.63    6.15 
  -2  -6 -11  397.07    5.99 
  -2   6 -11  395.36    6.73 
   2  -6  12   79.03    2.32 
   2   6  12   80.30    2.50 
  -2   6 -12   78.45    2.37 
  -2  -6 -12   78.80    2.28 
  -2   6 -12   76.66    2.76 
   2  -6  13    6.03    1.25 
   2   6  13    4.37    1.17 
  -2   6 -13    4.42    1.17 
  -2  -6 -13    5.21    1.00 
  -2   6 -13    4.92    1.57 
  -2  -6 -13    6.99    1.22 
   2  -6  14   50.39    1.97 
  -2   6 -14   50.67    2.07 
  -2  -6 -14   48.36    1.86 
  -2   6 -14   49.92    2.45 
  -2  -6 -14   44.80    1.89 
   2  -6  15    5.46    1.23 
  -2   6 -15    6.03    1.25 
  -2   6 -15    2.95    1.42 
  -2  -6 -15    4.87    1.22 
   2  -6  16    1.14    1.24 
  -2   6 -16    0.02    1.26 
  -2   6 -16   -3.04    1.57 
  -2  -6 -16   -0.01    1.20 
   2  -6  17   59.16    2.31 
  -2   6 -17   54.78    2.14 
  -2   6 -17   54.95    2.52 
  -2  -6 -17   53.25    2.10 
   2  -6  18    0.02    1.28 
  -2   6 -18    1.31    1.37 
  -2   6 -18    1.01    1.58 
  -2  -6 -18   -0.05    1.20 
   2  -6  19   35.25    1.89 
  -2   6 -19   35.61    1.86 
  -2   6 -19   37.04    2.47 
  -2  -6 -19   33.49    1.86 
   2  -6  20   52.17    2.29 
  -2   6 -20   45.50    2.05 
  -2   6 -20   44.27    2.57 
  -2  -6 -20   45.13    2.16 
   2  -6  21  111.13    2.93 
  -2   6 -21  105.34    2.72 
  -2   6 -21  113.67    3.40 
  -2  -6 -21  113.89    2.94 
   2  -6  22   41.88    2.08 
  -2   6 -22   42.07    2.17 
  -2   6 -22   46.62    2.67 
  -2  -6 -22   43.47    2.05 
   2  -6  23    0.25    1.78 
  -2   6 -23    1.03    1.47 
  -2   6 -23    1.26    1.90 
  -2  -6 -23   -0.84    1.49 
  -2  -7  23   32.20    2.35 
  -2   7  23   31.66    1.92 
  -2   7  23   38.73    2.42 
  -2  -7  22   24.48    2.22 
  -2   7  22   23.31    1.80 
  -2   7  22   22.55    2.06 
  -2  -7  21    5.93    1.87 
  -2   7  21    5.95    1.41 
  -2   7  21    4.68    1.90 
  -2  -7  20    0.93    1.56 
  -2   7  20    3.26    1.40 
  -2   7  20    0.96    1.68 
   2   7 -20    1.83    1.70 
  -2  -7  19    6.86    1.85 
  -2   7  19    7.57    1.42 
  -2   7  19    7.80    1.70 
   2   7 -19    6.55    1.78 
  -2  -7  18   81.46    3.04 
  -2   7  18   82.64    2.74 
  -2   7  18   82.10    3.14 
   2   7 -18   74.68    2.84 
  -2  -7  17    9.74    1.72 
  -2   7  17    7.18    2.13 
  -2   7  17    9.79    1.63 
   2   7 -17    8.16    1.53 
  -2  -7  16  118.91    3.13 
  -2   7  16  117.45    2.83 
  -2   7  16  112.47    3.12 
   2   7 -16  117.00    2.95 
  -2  -7  15   50.62    2.33 
  -2   7  15   50.73    2.08 
  -2   7  15   53.15    2.58 
   2   7 -15   56.28    2.26 
  -2  -7  14   -1.12    1.23 
  -2   7  14    0.18    1.26 
  -2   7  14   -0.67    1.59 
   2   7 -14    1.92    1.46 
  -2  -7  13    1.76    1.20 
  -2   7  13    3.13    1.38 
  -2   7  13    1.39    1.30 
   2   7 -13    1.25    1.24 
  -2  -7  12    3.73    1.52 
  -2   7  12    3.91    1.28 
  -2   7  12    5.00    1.41 
   2   7 -12    5.11    1.28 
  -2  -7  11    2.76    1.35 
  -2   7  11    4.57    1.26 
  -2   7  11    5.89    1.36 
   2   7 -11    5.02    1.31 
  -2  -7  10  158.63    3.69 
  -2   7  10  159.41    3.43 
  -2   7  10  155.89    3.74 
   2   7 -10  159.19    3.61 
  -2  -7   9   44.99    2.22 
  -2   7   9   42.03    1.72 
  -2   7   9   43.44    2.25 
   2   7  -9   44.75    2.12 
  -2   7   8    8.95    1.14 
  -2  -7   8    9.20    1.38 
  -2   7   8    8.64    1.14 
  -2   7   8    9.75    1.57 
   2   7  -8    8.78    1.38 
  -2  -7   7   97.91    3.05 
  -2   7   7   92.25    2.72 
  -2   7   7   96.74    2.69 
  -2   7   7   95.94    3.05 
   2   7  -7   98.66    2.89 
  -2  -7   6  104.76    3.09 
  -2   7   6  104.79    2.92 
  -2   7   6  110.84    2.92 
  -2   7   6  110.11    3.23 
   2   7  -6  108.00    3.04 
  -2  -7   5   58.31    2.38 
  -2   7   5   56.90    2.13 
  -2   7   5   56.16    2.05 
  -2   7   5   55.99    2.38 
   2   7  -5   57.36    2.25 
  -2   7   4  272.65    5.17 
  -2   7   4  279.81    5.27 
  -2   7   4  258.85    5.29 
   2   7  -4  285.79    5.41 
  -2   7   3    1.32    0.73 
  -2   7   3    1.23    0.83 
   2   7  -3    1.49    1.12 
  -2   7   2   12.14    1.10 
  -2   7   2   10.61    1.17 
   2   7  -2   12.35    1.39 
  -2   7   1  150.13    4.26 
  -2   7   1  167.30    4.04 
   2   7  -1  165.79    3.89 
  -2   7   0    1.62    0.79 
  -2   7   0    1.69    0.91 
   2   7   0    1.65    1.03 
  -2  -7   0    2.16    0.92 
  -2   7  -1  183.91    3.96 
  -2   7  -1  185.52    4.30 
  -2   7  -1  182.26    4.25 
   2   7   1  184.89    4.18 
  -2  -7  -1  182.92    4.09 
  -2   7  -1  190.82    4.73 
  -2   7  -2    0.38    0.76 
  -2   7  -2    0.31    0.94 
  -2   7  -2   -0.52    0.97 
   2   7   2    0.89    1.00 
  -2  -7  -2    1.00    0.88 
  -2   7  -2   -0.10    1.25 
  -2  -7  -2    1.40    0.86 
   2  -7   3   23.82    1.45 
  -2   7  -3   26.79    1.39 
  -2   7  -3   25.72    1.67 
   2   7   3   23.74    1.45 
  -2  -7  -3   24.54    1.47 
  -2   7  -3   26.31    1.87 
  -2  -7  -3   25.95    1.50 
   2  -7   4    3.33    1.06 
  -2   7  -4    4.06    0.91 
  -2   7  -4    3.58    1.28 
   2   7   4    3.57    1.12 
  -2  -7  -4    3.53    1.02 
  -2   7  -4    3.15    1.28 
  -2  -7  -4    4.68    1.00 
   2  -7   5    8.95    1.15 
  -2   7  -5    8.61    1.01 
   2   7   5    7.93    1.23 
  -2   7  -5    8.20    1.31 
  -2  -7  -5    9.58    1.13 
  -2   7  -5    8.71    1.41 
  -2  -7  -5    8.05    1.09 
   2  -7   6   10.63    1.22 
  -2   7  -6   11.60    1.02 
   2   7   6   10.52    1.31 
  -2   7  -6   10.07    1.23 
  -2  -7  -6   11.96    1.20 
  -2   7  -6   11.73    1.57 
  -2  -7  -6   11.57    1.18 
   2  -7   7  122.56    3.13 
  -2   7  -7  117.12    2.76 
   2   7   7  121.65    3.14 
  -2   7  -7  121.32    3.12 
  -2  -7  -7  122.55    2.95 
  -2   7  -7  125.51    3.63 
  -2  -7  -7  117.86    2.94 
   2  -7   8   10.82    1.23 
  -2   7  -8   10.92    1.10 
   2   7   8   12.02    1.36 
  -2   7  -8   10.22    1.31 
  -2  -7  -8   10.87    1.16 
  -2   7  -8   10.60    1.54 
  -2  -7  -8   10.42    1.17 
   2  -7   9   78.53    2.43 
  -2   7  -9   76.09    2.11 
   2   7   9   79.83    2.50 
  -2   7  -9   73.77    2.38 
  -2  -7  -9   75.65    2.20 
  -2   7  -9   75.55    2.73 
  -2  -7  -9   68.88    2.21 
   2  -7  10   86.27    2.51 
   2   7  10   90.30    2.67 
  -2   7 -10   82.91    2.45 
  -2  -7 -10   86.67    2.42 
  -2   7 -10   92.04    3.08 
   2  -7  11   10.30    1.38 
   2   7  11   11.80    1.36 
  -2   7 -11   11.01    1.53 
  -2  -7 -11    9.57    1.19 
  -2   7 -11   11.08    1.70 
  -2  -7 -11    7.32    1.10 
   2  -7  12  136.72    3.06 
   2   7  12  138.49    3.21 
  -2   7 -12  135.98    3.06 
  -2  -7 -12  135.88    2.89 
  -2   7 -12  137.75    3.67 
   2  -7  13   22.48    1.62 
  -2   7 -13   23.86    1.72 
  -2   7 -13   19.47    2.00 
  -2  -7 -13   17.98    1.35 
   2  -7  14  101.81    2.72 
  -2   7 -14  100.38    2.80 
  -2   7 -14   98.18    3.12 
  -2  -7 -14   86.82    2.47 
   2  -7  15   -0.30    1.16 
  -2   7 -15    0.57    1.31 
  -2   7 -15   -0.34    1.47 
  -2  -7 -15   -1.48    1.02 
   2  -7  16   72.37    2.37 
  -2   7 -16   75.32    2.50 
  -2   7 -16   75.11    2.83 
  -2  -7 -16   68.33    2.21 
   2  -7  17    2.60    1.35 
  -2   7 -17    4.56    1.55 
  -2   7 -17    4.74    1.96 
  -2  -7 -17    4.39    1.39 
   2  -7  18  288.37    5.82 
   2   7  18  273.34    5.69 
  -2   7 -18  285.99    5.87 
  -2   7 -18  273.39    6.15 
  -2  -7 -18  270.83    5.59 
   2  -7  19    9.76    1.49 
   2   7  19   12.84    1.67 
  -2   7 -19    9.80    1.60 
  -2   7 -19   10.94    1.85 
  -2  -7 -19   10.20    1.54 
   2  -7  20   34.49    2.00 
   2   7  20   30.70    2.06 
  -2   7 -20   32.84    1.91 
  -2   7 -20   34.11    2.52 
  -2  -7 -20   38.14    1.99 
   2  -7  21    6.04    1.74 
   2   7  21    3.65    1.94 
  -2   7 -21    3.97    1.50 
  -2   7 -21    6.85    1.87 
  -2  -7 -21    6.85    1.61 
   2  -7  22   -1.75    1.44 
   2   7  22   -0.91    2.14 
  -2   7 -22    0.42    1.48 
  -2   7 -22   -1.10    1.76 
  -2  -7 -22    0.35    1.59 
  -2  -8  22   22.85    2.29 
  -2   8  22   24.43    1.84 
  -2   8  22   24.16    2.24 
  -2  -8  21   42.16    2.43 
  -2   8  21   45.19    2.16 
  -2   8  21   44.04    2.59 
   2   8 -21   42.11    2.22 
  -2  -8  20   88.13    3.28 
  -2   8  20   87.72    2.97 
  -2   8  20   82.73    3.34 
   2   8 -20   96.71    3.24 
  -2  -8  19   40.16    2.34 
  -2   8  19   40.76    2.08 
  -2   8  19   34.51    2.30 
   2   8 -19   37.96    2.06 
  -2  -8  18   17.42    1.90 
  -2   8  18   19.57    1.82 
  -2   8  18   20.84    2.18 
   2   8 -18   20.97    2.04 
  -2  -8  17   25.02    1.98 
  -2   8  17   19.90    1.79 
  -2   8  17   18.17    1.99 
   2   8 -17   24.71    2.17 
  -2  -8  16   73.04    2.84 
  -2   8  16   73.94    2.63 
  -2   8  16   71.68    3.00 
   2   8 -16   75.08    2.80 
  -2  -8  15    1.88    1.72 
  -2   8  15    0.65    1.36 
  -2   8  15    0.62    1.56 
   2   8 -15    0.91    1.35 
  -2  -8  14  233.50    4.14 
  -2   8  14  243.68    3.88 
  -2   8  14  250.80    4.43 
   2   8 -14  244.61    4.10 
  -2  -8  13    2.32    1.60 
  -2   8  13    1.19    1.18 
  -2   8  13    1.70    1.72 
   2   8 -13    1.94    1.45 
  -2  -8  12   50.65    2.40 
  -2   8  12   54.41    2.08 
  -2   8  12   50.94    2.34 
   2   8 -12   49.58    2.17 
  -2  -8  11  242.30    4.62 
  -2   8  11  237.93    4.18 
  -2   8  11  240.34    4.73 
   2   8 -11  229.10    4.26 
  -2  -8  10   71.69    2.49 
  -2   8  10   79.51    2.32 
  -2   8  10   75.28    2.64 
   2   8 -10   77.05    2.39 
  -2   8   9   36.70    1.74 
  -2  -8   9   35.18    1.95 
  -2   8   9   37.21    1.69 
  -2   8   9   40.07    2.14 
   2   8  -9   38.01    2.00 
  -2  -8   8  216.82    4.00 
  -2   8   8  212.83    3.69 
  -2   8   8  218.08    3.59 
  -2   8   8  210.52    3.98 
   2   8  -8  208.15    3.74 
  -2  -8   7   13.15    1.75 
  -2   8   7   12.32    1.19 
  -2   8   7   14.92    1.27 
  -2   8   7   15.34    1.82 
   2   8  -7   11.96    1.45 
  -2  -8   6   15.29    1.79 
  -2   8   6   11.73    1.15 
  -2   8   6   10.52    1.13 
  -2   8   6   14.41    1.76 
   2   8  -6   11.27    1.36 
  -2   8   5   32.68    1.57 
  -2   8   5   32.64    1.66 
  -2   8   5   29.43    1.99 
   2   8  -5   33.04    1.74 
  -2   8   4   25.82    1.46 
  -2   8   4   27.95    1.58 
  -2   8   4   26.80    1.93 
   2   8  -4   26.15    1.74 
  -2   8   3  134.57    3.11 
  -2   8   3  139.62    3.27 
   2   8  -3  134.36    3.27 
  -2   8   2    4.42    0.87 
  -2   8   2    5.46    0.98 
   2   8  -2    4.61    1.08 
  -2   8   1  167.51    3.44 
  -2   8   1  168.55    3.71 
   2   8  -1  166.32    3.66 
  -2   8   0    2.06    0.83 
  -2   8   0    2.91    1.01 
   2   8   0    1.64    1.16 
  -2   8  -1   65.76    2.07 
  -2   8  -1   64.32    2.33 
  -2   8  -1   59.49    2.35 
   2   8   1   65.10    2.31 
  -2   8  -2    1.39    0.85 
  -2   8  -2    1.02    1.02 
  -2   8  -2    1.83    1.36 
   2   8   2    0.98    1.09 
  -2  -8  -2    1.35    1.37 
  -2   8  -3  573.54    7.58 
  -2   8  -3  570.62    6.27 
  -2   8  -3  557.15    6.13 
   2   8   3  578.67    6.06 
  -2   8  -3  565.72    8.48 
  -2  -8  -3  553.17    8.20 
  -2  -8  -3  589.56    8.12 
   2  -8   4   18.66    1.53 
  -2   8  -4   18.51    1.27 
  -2   8  -4   17.17    1.63 
   2   8   4   20.72    1.61 
  -2   8  -4   16.42    1.68 
  -2  -8  -4   20.57    1.42 
   2  -8   5  472.85    5.57 
  -2   8  -5  483.77    5.03 
   2   8   5  482.20    5.66 
  -2   8  -5  471.36    5.62 
  -2   8  -5  487.49    6.36 
  -2  -8  -5  476.99    5.74 
   2  -8   6    2.20    1.05 
  -2   8  -6    2.65    0.90 
   2   8   6    3.15    1.50 
   2   8   6    2.55    1.23 
  -2   8  -6    3.96    1.32 
  -2   8  -6    0.38    1.55 
  -2  -8  -6    3.17    1.01 
   2  -8   7    0.33    1.04 
  -2   8  -7    2.05    0.90 
   2   8   7    2.52    1.49 
   2   8   7    1.06    1.15 
  -2   8  -7    2.45    1.41 
  -2   8  -7    1.76    1.32 
  -2  -8  -7    1.57    0.91 
   2  -8   8   16.02    1.45 
  -2   8  -8   14.64    1.16 
   2   8   8   15.44    1.66 
   2   8   8   15.89    1.41 
  -2   8  -8   17.05    1.57 
  -2   8  -8   12.85    1.68 
  -2  -8  -8   13.46    1.27 
   2  -8   9   17.60    1.45 
   2   8   9   16.91    1.56 
   2   8   9   19.41    1.61 
  -2   8  -9   18.94    1.60 
  -2   8  -9   19.47    1.80 
  -2  -8  -9   15.27    1.36 
   2  -8  10  159.19    3.55 
   2   8  10  159.54    3.67 
   2   8  10  164.39    3.71 
  -2   8 -10  154.41    3.50 
  -2   8 -10  163.07    4.04 
   2  -8  11  111.88    2.91 
   2   8  11  116.30    3.05 
  -2   8 -11  110.81    2.97 
  -2   8 -11  111.42    3.45 
  -2   8 -12   79.99    2.59 
  -2   8 -12   78.06    2.87 
   2  -8  13    7.45    1.28 
   2   8  13    8.43    1.60 
  -2   8 -13    8.64    1.52 
  -2   8 -13    7.83    1.67 
  -2  -8 -13    5.23    1.12 
   2  -8  14   21.24    1.63 
   2   8  14   20.07    1.87 
  -2   8 -14   19.74    1.66 
  -2   8 -14   19.69    1.95 
  -2  -8 -14   15.48    1.43 
   2  -8  15    0.10    1.15 
   2   8  15   -1.15    1.64 
  -2   8 -15    1.27    1.37 
  -2   8 -15   -0.19    1.62 
  -2  -8 -15    0.64    1.15 
   2  -8  16  156.56    3.52 
   2   8  16  160.03    3.52 
  -2   8 -16  160.75    3.51 
  -2   8 -16  157.74    3.93 
  -2  -8 -16  143.74    3.22 
   2  -8  17    3.91    1.66 
   2   8  17    1.25    1.48 
  -2   8 -17    2.46    1.55 
  -2   8 -17    2.71    1.85 
  -2  -8 -17    2.19    1.44 
   2  -8  18   94.77    2.70 
   2   8  18   94.10    2.77 
  -2   8 -18   91.86    2.68 
  -2   8 -18   93.71    3.16 
  -2  -8 -18   86.61    2.56 
   2  -8  19    3.28    1.53 
   2   8  19    4.51    1.74 
  -2   8 -19    2.72    1.67 
  -2   8 -19    4.27    1.99 
  -2  -8 -19    1.35    1.41 
   2  -8  20   26.97    1.99 
   2   8  20   23.79    2.14 
  -2   8 -20   27.46    2.04 
  -2   8 -20   29.06    2.26 
  -2  -8 -20   26.78    1.84 
  -2  -9  19   14.51    2.07 
  -2   9  19   17.38    2.25 
   2   9 -19   10.96    1.91 
  -2  -9  18   70.81    2.96 
  -2   9  18   84.44    3.17 
   2   9 -18   80.78    2.95 
  -2  -9  17   36.36    2.26 
  -2   9  17   32.12    1.97 
  -2   9  17   43.08    2.46 
   2   9 -17   37.02    2.19 
  -2  -9  16   82.03    2.90 
  -2   9  16   79.41    2.50 
  -2   9  16   78.59    2.79 
   2   9 -16   75.75    2.72 
  -2  -9  15   19.81    1.89 
  -2   9  15   18.74    1.73 
  -2   9  15   17.63    2.15 
   2   9 -15   20.46    1.84 
  -2  -9  14   -0.68    1.68 
  -2   9  14   -1.00    1.25 
  -2   9  14    0.07    1.61 
   2   9 -14    0.46    1.49 
  -2  -9  13   15.07    1.92 
  -2   9  13   14.49    1.46 
  -2   9  13   15.00    2.00 
   2   9 -13   18.65    1.83 
  -2  -9  12   16.57    1.87 
  -2   9  12   18.28    1.54 
  -2   9  12   18.14    1.87 
   2   9 -12   17.41    1.75 
  -2  -9  11   11.11    1.94 
  -2   9  11    8.91    1.26 
  -2   9  11   12.59    1.78 
   2   9 -11   10.55    1.73 
  -2  -9  10   26.03    1.95 
  -2   9  10   29.31    1.55 
  -2   9  10   28.85    2.02 
   2   9 -10   30.62    1.91 
  -2  -9   9    8.65    1.68 
  -2   9   9    7.96    1.22 
  -2   9   9    6.68    1.55 
   2   9  -9    6.26    1.56 
  -2  -9   8   15.95    1.77 
  -2   9   8   13.84    1.27 
  -2   9   8   16.49    1.94 
   2   9  -8   13.37    1.71 
  -2  -9   7  202.57    4.23 
  -2   9   7  190.36    3.70 
  -2   9   7  196.53    4.18 
   2   9  -7  187.72    3.88 
  -2   9   6    8.68    1.14 
   2   9  -6   10.11    1.57 
  -2   9   6    9.69    1.69 
   2   9  -6   10.08    1.58 
  -2   9   5  142.93    3.48 
   2   9  -5  151.78    3.76 
  -2   9   5  147.42    3.62 
   2   9  -5  157.06    3.52 
  -2   9   4   68.27    2.38 
   2   9  -4   70.80    2.66 
  -2   9   4   80.98    2.84 
   2   9  -4   79.38    2.52 
  -2   9   3    6.35    1.09 
   2   9  -3    7.76    1.56 
  -2   9   3    6.28    1.42 
   2   9  -3    7.61    1.42 
  -2   9   2    6.22    1.19 
   2   9  -2    6.85    1.67 
   2   9  -2    7.19    1.35 
  -2   9   1  208.60    3.76 
   2   9  -1  208.00    3.92 
   2   9  -1  207.67    3.78 
  -2   9   0    8.09    1.25 
   2   9   0    9.51    1.65 
   2   9   0   10.66    1.57 
   2   9   1  450.62    5.66 
  -2   9  -1  448.73    5.51 
   2   9   1  454.80    5.47 
   2   9   2    2.85    1.37 
  -2   9  -2    1.58    1.08 
  -2   9  -2    3.50    1.30 
   2   9   2    3.03    1.38 
   2   9   3   26.62    1.80 
  -2   9  -3   24.84    1.62 
  -2   9  -3   23.73    1.70 
   2   9   3   24.27    1.63 
   2   9   4    6.74    1.52 
  -2   9  -4    5.27    1.21 
  -2   9  -4    6.43    1.48 
   2   9   4    5.35    1.37 
  -2   9  -4    5.20    1.57 
  -2  -9  -4    5.57    1.05 
   2   9   5   48.77    2.18 
   2   9   5   51.14    2.21 
  -2   9  -5   47.59    2.21 
  -2   9  -5   46.91    2.31 
  -2  -9  -5   45.44    1.95 
   2   9   6    9.96    1.75 
   2   9   6   10.38    1.54 
  -2   9  -6   10.20    1.58 
  -2   9  -6   11.72    1.82 
  -2  -9  -6   10.23    1.19 
   2   9   7  223.95    3.94 
   2   9   7  231.08    4.12 
  -2   9  -7  229.97    3.97 
  -2   9  -7  232.36    4.55 
  -2  -9  -7  231.35    4.06 
   2   9   8    0.08    1.42 
   2   9   8    0.58    1.29 
  -2   9  -8   -0.15    1.50 
  -2   9  -8    1.94    1.63 
  -2  -9  -8    1.18    1.02 
   2   9   9   20.26    1.83 
   2   9   9   18.84    1.73 
  -2   9  -9   16.65    1.89 
  -2   9  -9   17.92    1.78 
  -2  -9  -9   19.78    1.44 
   2   9  10   18.52    1.67 
   2   9  10   20.11    1.72 
  -2   9 -10   18.85    1.76 
  -2   9 -10   19.13    2.04 
  -2  -9 -10   15.27    1.35 
   2   9  11    3.24    1.53 
  -2   9 -11    4.79    1.52 
  -2   9 -11    5.54    1.73 
  -2  -9 -11    4.41    1.16 
   2   9  12   57.77    2.48 
  -2   9 -12   63.22    2.52 
  -2   9 -12   56.66    2.75 
  -2  -9 -12   47.76    1.99 
   2   9  13  106.11    3.22 
  -2   9 -13  111.75    3.38 
  -2   9 -13  107.35    3.50 
   2   9  14   20.03    1.82 
  -2   9 -14   19.94    1.93 
  -2   9 -14   18.56    1.91 
  -2  -9 -14   18.16    1.48 
   2   9  15   71.89    2.45 
  -2   9 -15   76.49    2.52 
  -2   9 -15   71.25    2.75 
  -2  -9 -15   65.20    2.21 
   2   9  16   16.42    1.90 
  -2   9 -16   15.38    1.76 
  -2   9 -16   16.49    1.88 
  -2  -9 -16   14.14    1.47 
   2   9  17    1.40    1.55 
  -2   9 -17    1.26    1.60 
  -2   9 -17    3.02    1.74 
  -2  -9 -17    2.27    1.19 
   2   9  18   49.40    2.39 
  -2   9 -18   44.05    2.24 
  -2  -9 -18   45.24    2.00 
  -2 -10  17    3.19    1.90 
  -2  10  17    1.86    1.81 
   2  10 -17    1.85    1.84 
  -2 -10  16   82.16    2.93 
  -2  10  16   83.86    3.02 
   2  10 -16   88.77    2.69 
  -2 -10  15    9.48    2.01 
  -2  10  15    4.51    1.94 
   2  10 -15    2.85    1.78 
  -2 -10  14  328.38    4.94 
  -2  10  14  323.83    4.95 
   2  10 -14  319.60    4.52 
  -2 -10  13   16.34    1.93 
  -2  10  13   14.32    2.13 
   2  10 -13   14.51    1.95 
  -2 -10  12   67.43    2.71 
  -2  10  12   66.03    2.73 
   2  10 -12   64.17    2.56 
  -2 -10  11   10.02    1.78 
  -2  10  11    8.54    1.75 
   2  10 -11    8.88    1.59 
  -2 -10  10   99.05    3.32 
  -2  10  10  101.89    3.41 
   2  10 -10   96.75    3.10 
  -2 -10   9   -0.44    1.62 
  -2  10   9    0.88    1.20 
  -2  10   9   -1.19    1.73 
   2  10  -9    1.88    1.53 
  -2  10   8  294.53    6.54 
   2  10  -8  312.93    6.51 
  -2  10   8  318.18    6.52 
   2  10  -8  324.80    6.35 
  -2  10   7    4.94    1.12 
   2  10  -7    3.65    1.60 
  -2  10   7    5.92    1.76 
   2  10  -7    5.07    1.54 
  -2  10   6  157.14    3.76 
   2  10  -6  173.38    3.76 
  -2  10   6  172.73    3.82 
   2  10  -6  169.23    3.53 
  -2  10   5   15.99    1.36 
   2  10  -5   18.39    1.97 
  -2  10   5   13.27    1.79 
   2  10  -5   15.47    1.67 
  -2  10   4   21.46    1.54 
   2  10  -4   23.46    1.92 
  -2  10   4   25.11    1.98 
   2  10  -4   23.32    1.83 
  -2  10   3    4.15    1.15 
   2  10  -3    3.41    1.79 
  -2  10   3    2.18    1.70 
   2  10  -3    2.14    1.43 
  -2  10   2   94.92    2.59 
   2  10  -2   98.78    3.04 
  -2  10   2   94.60    2.93 
   2  10  -2   96.24    2.85 
  -2  10   1   19.18    1.52 
   2  10  -1   23.97    1.95 
   2  10  -1   21.01    1.80 
  -2  10   0    6.12    1.18 
   2  10   0    4.30    1.57 
   2  10   0    6.32    1.62 
   2  10   1    5.80    1.57 
  -2  10  -1    7.97    1.30 
   2  10   1    7.37    1.50 
   2  10   2   75.80    2.61 
  -2  10  -2   70.25    2.36 
   2  10   2   68.71    2.33 
   2  10   3    3.31    1.75 
  -2  10  -3    3.38    1.20 
  -2  10  -3    2.10    1.42 
   2  10   3    2.97    1.30 
   2  10   4   11.67    1.77 
  -2  10  -4   15.97    1.48 
   2  10   4   13.87    1.47 
  -2  10  -4   14.75    1.95 
   2  10   5    7.13    1.51 
  -2  10  -5    9.15    1.31 
   2  10   5    7.34    1.43 
  -2  10  -5    8.49    1.66 
   2  10   6   19.45    1.80 
  -2  10  -6   17.82    1.71 
   2  10   6   21.59    1.84 
  -2  10  -6   19.07    1.82 
  -2  10  -6   19.97    1.87 
   2  10   7   19.92    1.79 
   2  10   7   19.18    1.74 
  -2  10  -7   19.57    1.83 
  -2  10  -7   17.58    2.00 
   2  10   8   80.43    2.89 
   2  10   8   75.19    2.75 
  -2  10  -8   77.22    2.82 
  -2  10  -8   80.85    3.12 
   2  10   9   16.70    1.81 
  -2  10  -9   14.62    1.93 
  -2  10  -9   13.37    1.75 
   2  10  10  116.32    3.15 
  -2  10 -10  118.95    3.13 
  -2  10 -10  116.01    3.37 
   2  10  11    0.84    1.54 
  -2  10 -11    2.82    1.71 
  -2  10 -11    3.30    1.57 
   2  10  12    8.48    1.55 
  -2  10 -12    9.21    1.81 
   2  10  13    3.50    1.71 
  -2  10 -13    1.83    1.57 
   2  10  14   38.81    2.24 
  -2  10 -14   41.18    2.18 
   2  10  15   21.99    1.96 
  -2  10 -15   18.82    2.00 
   2  10  16  173.59    3.61 
  -2  10 -16  173.40    3.54 
  -2 -11  13   20.07    2.16 
  -2  11  13   19.96    2.29 
   2  11 -13   17.23    2.05 
  -2 -11  12    1.27    1.80 
  -2  11  12    1.04    1.88 
   2  11 -12    0.09    1.82 
  -2 -11  11   37.37    2.41 
  -2  11  11   30.83    2.28 
   2  11 -11   34.63    2.20 
   2  11 -10   69.87    2.95 
  -2  11  10   66.94    2.93 
   2  11 -10   67.36    2.66 
   2  11  -9   12.52    2.02 
  -2  11   9   15.99    2.08 
   2  11  -9   13.62    1.89 
   2  11  -8   52.94    2.52 
  -2  11   8   50.29    2.42 
   2  11  -8   49.58    2.30 
   2  11  -7   44.69    2.43 
  -2  11   7   47.33    2.32 
   2  11  -7   44.97    2.31 
   2  11  -6   13.71    2.09 
  -2  11   6   13.29    1.84 
   2  11  -6   12.15    1.86 
   2  11  -5  115.96    3.36 
  -2  11   5  108.66    3.15 
   2  11  -5  114.19    3.04 
   2  11  -4    4.93    1.79 
  -2  11   4    5.65    1.74 
   2  11  -4    5.50    1.47 
   2  11  -3   19.22    1.92 
  -2  11   3   18.47    1.99 
   2  11  -3   15.92    1.90 
   2  11  -2   13.14    1.94 
  -2  11   2   14.61    2.02 
   2  11  -2   14.02    1.64 
   2  11  -1  128.18    3.32 
  -2  11   1  113.71    3.20 
   2  11  -1  129.16    3.21 
   2  11   0   44.03    2.39 
   2  11   0   45.55    2.14 
   2  11   1  304.67    5.10 
   2  11   1  305.46    5.02 
   2  11   2    7.42    1.63 
   2  11   2    7.67    1.63 
   2  11   3    7.04    1.73 
  -2  11  -3    6.04    1.73 
   2  11   3    5.21    1.39 
   2  11   4    1.92    1.84 
  -2  11  -4    0.81    1.52 
   2  11   4    0.04    1.31 
   2  11   5   25.69    1.96 
   2  11   5   30.74    2.08 
  -2  11  -5   27.70    2.04 
   2  11   6    1.99    1.54 
   2  11   6    0.19    1.54 
  -2  11  -6    1.19    1.59 
   2  11   7  167.56    3.47 
   2  11   7  162.82    3.49 
  -2  11  -7  165.69    3.60 
   2  11   8   34.93    2.22 
  -2  11  -8   33.36    2.19 
   2  11   9  131.36    3.79 
  -2  11  -9  123.38    3.68 
   2  11  10    2.10    1.69 
  -2  11 -10   -0.16    1.57 
   2  11  11    6.59    1.65 
  -2  11 -11    2.31    1.80 
   2  11  12    0.09    1.73 
   2  12  -8  122.97    3.35 
  -2  12   8  123.49    3.37 
   2  12  -8  127.76    3.19 
   2  12  -7   12.61    2.05 
  -2  12   7   11.92    2.01 
   2  12  -7   12.08    2.05 
   2  12  -6   10.04    2.09 
  -2  12   6    9.89    1.95 
   2  12  -6    9.74    1.92 
   2  12  -5    2.74    1.86 
  -2  12   5    6.31    2.03 
   2  12  -5    4.56    1.71 
   2  12  -4   14.63    1.98 
  -2  12   4   15.46    2.16 
   2  12  -4   14.26    1.78 
   2  12  -3    1.66    1.80 
  -2  12   3    1.72    1.79 
   2  12  -3    0.06    1.46 
   2  12  -2   44.93    2.47 
  -2  12   2   47.43    2.51 
   2  12  -2   49.92    2.34 
   2  12  -1   43.05    2.45 
  -2  12   1   42.08    2.51 
   2  12  -1   46.72    2.28 
   2  12   0   26.35    2.07 
   2  12   0   28.00    1.99 
   2  12   1   -1.26    1.75 
   2  12   1    0.88    1.70 
   2  12   2  113.82    3.60 
   2  12   2  108.02    3.39 
   2  12   3    6.53    1.82 
   2  12   3    7.59    1.75 
   2  12   4    6.14    1.83 
  -2  12  -4    4.41    1.87 
   2  12   4    5.73    1.65 
   2  12   5    4.35    1.73 
   2  12   5    3.14    1.49 
  -2  12  -5    2.46    1.64 
   2  12   6   36.85    2.32 
  -2  12  -6   32.60    2.25 
  -3   0  27  141.96    3.23 
  -3   0  26    0.05    1.55 
  -3   0  25    0.83    1.44 
  -3   0  24   -1.93    1.28 
  -3   0  23    9.99    1.54 
  -3   0  22   -0.68    1.28 
  -3   0  21   10.23    1.58 
  -3   0  20   -0.38    1.13 
  -3   0  19    5.64    1.42 
  -3   0  18    0.20    1.06 
  -3   0  17   78.03    2.44 
  -3   0  17   72.59    2.60 
  -3   0  16    0.02    1.13 
  -3   0  16    0.96    1.28 
  -3   0  15  205.03    4.34 
  -3   0  14    0.39    0.96 
   3   0 -14    1.19    0.99 
  -3   0  13    1.27    0.84 
   3   0 -13    0.40    0.84 
  -3   0  12    0.00    0.79 
   3   0 -12   -0.09    0.78 
  -3   0  11  230.77    4.63 
   3   0 -11  232.17    4.37 
  -3   0  11  216.18    5.06 
  -3   0  10    0.32    0.78 
   3   0 -10    0.04    0.73 
  -3   0  10    0.27    1.04 
   3   0 -10    0.10    0.84 
  -3   0   9  305.28    5.44 
   3   0  -9  313.29    5.17 
  -3   0   9  304.97    5.66 
   3   0  -9  300.15    5.43 
   3   0  -9  308.63    5.78 
  -3   0   8    0.89    0.79 
   3   0  -8   -0.06    0.68 
  -3   0   8   -0.11    0.92 
   3   0  -8    0.31    0.96 
   3   0  -8    1.31    1.02 
  -3   0   7   37.57    1.75 
   3   0  -7   35.74    1.56 
  -3   0   7   37.12    1.91 
   3   0  -7   36.02    1.75 
   3   0  -7   36.06    1.99 
  -3   0   6    1.00    0.81 
   3   0  -6    0.75    0.66 
  -3   0   6    0.67    0.91 
   3   0  -6   -0.08    0.90 
   3   0  -6    0.75    0.82 
  -3   0   5  242.20    4.57 
   3   0  -5  233.09    4.16 
  -3   0   5  237.00    4.67 
   3   0  -5  227.57    4.42 
   3   0  -5  244.01    4.84 
  -3   0   4    0.63    0.70 
   3   0  -4    0.29    0.65 
   3   0  -4    0.98    0.82 
   3   0  -4    0.86    0.99 
   3   0  -3  319.15    4.79 
   3   0  -3  328.68    5.23 
  -3   0   3  329.38    5.23 
   3   0  -3  323.45    5.01 
  -3   0   3  338.39    5.67 
   3   0  -3  331.75    5.40 
   3   0  -2    0.26    0.73 
   3   0  -2    0.21    0.77 
  -3   0   2   -0.06    0.73 
   3   0  -2    0.11    0.76 
  -3   0   2   -0.35    1.00 
   3   0  -2   -0.66    0.90 
   3   0  -1   28.60    1.52 
   3   0  -1   28.73    1.55 
  -3   0   1   27.93    1.65 
   3   0  -1   28.33    1.59 
  -3   0   1   28.60    1.85 
   3   0  -1   28.95    1.74 
   3   0   0    0.65    0.79 
   3   0   0    0.16    0.65 
  -3   0   0    0.48    0.72 
   3   0   0    0.71    0.80 
  -3   0   0    0.87    1.06 
   3   0   0    0.24    0.85 
   3   0   1  172.50    3.51 
   3   0   1  180.98    3.57 
  -3   0  -1  172.92    3.67 
   3   0   1  175.57    3.59 
  -3   0  -1  174.28    3.98 
   3   0   1  170.94    3.70 
   3   0   2    0.57    0.68 
  -3   0  -2    0.63    0.79 
  -3   0  -2    0.25    0.70 
   3   0   2    0.25    0.72 
  -3   0  -2    1.17    1.05 
   3   0   2   -0.04    0.92 
   3   0   3  261.00    4.66 
  -3   0  -3  270.85    4.86 
  -3   0  -3  256.65    4.89 
   3   0   3  253.95    4.58 
  -3   0  -3  260.01    5.21 
   3   0   3  271.83    4.95 
   3   0   4    0.37    0.74 
  -3   0  -4    0.19    0.81 
  -3   0  -4    0.51    0.73 
   3   0   4    0.35    0.60 
  -3   0  -4    0.87    1.13 
   3   0   4    1.57    0.95 
   3   0   5   40.78    1.73 
  -3   0  -5   41.56    1.80 
  -3   0  -5   41.82    1.88 
   3   0   5   34.39    1.85 
  -3   0  -5   41.32    2.03 
   3   0   5   41.43    1.82 
   3   0   6    0.36    0.81 
  -3   0  -6   -0.50    0.77 
  -3   0  -6   -0.13    1.07 
   3   0   6    0.05    0.84 
   3   0   7  189.06    3.95 
  -3   0  -7  194.85    4.06 
  -3   0  -7  193.84    4.51 
   3   0   7  183.35    3.88 
   3   0   8    0.24    0.74 
  -3   0  -8   -0.41    0.84 
  -3   0  -8    1.58    1.17 
   3   0   8    0.39    0.86 
   3   0   9   90.79    2.66 
  -3   0  -9   91.87    2.70 
  -3   0  -9   87.20    2.93 
   3   0  10   -0.07    1.05 
  -3   0 -10   -0.68    0.87 
  -3   0 -10   -1.37    1.08 
   3   0  11   15.02    1.40 
  -3   0 -11   13.02    1.18 
  -3   0 -11   14.22    1.44 
   3   0  12    0.61    1.20 
  -3   0 -12    0.55    1.23 
   3   0  13    6.08    1.31 
  -3   0 -13    6.72    1.16 
  -3   0 -13    5.44    1.26 
  -3   0 -13    5.88    1.38 
   3   0  14    2.31    1.38 
  -3   0 -14   -1.07    0.68 
  -3   0 -14    0.03    0.81 
  -3   0 -14    1.54    1.37 
   3   0  15    2.42    1.56 
  -3   0 -15    0.43    0.81 
  -3   0 -15   -0.43    1.40 
   3   0  16    1.01    1.28 
  -3   0 -16    0.31    0.83 
   3   0  17   27.04    1.93 
  -3   0 -17   25.76    1.51 
   3   0  18   -0.37    1.55 
   3   0  19  237.43    3.97 
   3   0  20   -0.96    1.34 
   3   0  21  133.74    3.74 
   3   0  22    2.54    1.85 
   3   0  23   10.00    1.74 
   3   0  24   -1.48    1.50 
   3   0  25  126.71    3.03 
  -3  -1  27   -0.24    1.63 
  -3   1  27    0.18    1.43 
  -3  -1  26   11.08    1.72 
  -3   1  26   10.97    1.64 
  -3  -1  25   35.39    2.07 
  -3   1  25   32.44    2.01 
  -3  -1  24  275.95    4.66 
  -3   1  24  267.00    4.55 
  -3  -1  23   13.40    1.65 
  -3   1  23   16.43    1.78 
  -3  -1  22   86.20    2.65 
  -3   1  22   89.65    2.67 
  -3  -1  21    0.39    1.32 
  -3   1  21    1.95    1.41 
  -3   1  21    2.03    1.54 
  -3  -1  20   98.86    2.81 
  -3   1  20   89.64    2.60 
  -3   1  20  100.71    3.13 
  -3  -1  19    1.78    1.20 
  -3   1  19    3.05    1.25 
  -3   1  19    3.76    1.54 
  -3  -1  18  236.16    3.96 
  -3   1  18  237.70    3.89 
  -3   1  18  217.70    4.03 
  -3  -1  17    2.32    1.12 
  -3   1  17    3.67    1.24 
  -3   1  17    2.96    1.39 
  -3  -1  16   99.27    2.80 
  -3   1  16   95.17    2.67 
  -3   1  16   97.93    3.09 
  -3  -1  15   21.48    1.59 
  -3   1  15   20.48    1.39 
   3  -1 -15   21.85    1.48 
  -3   1  15   16.93    1.71 
  -3  -1  14   34.04    1.78 
  -3   1  14   33.55    1.69 
   3  -1 -14   31.22    1.65 
  -3  -1  13   24.08    1.58 
  -3   1  13   25.78    1.52 
   3   1 -13   26.06    1.43 
   3  -1 -13   25.24    1.54 
  -3  -1  12  209.01    4.13 
  -3   1  12  214.56    4.07 
   3   1 -12  212.20    3.84 
   3  -1 -12  216.12    3.87 
  -3  -1  11    1.06    1.02 
  -3   1  11   -0.32    0.82 
   3   1 -11    0.72    0.74 
   3  -1 -11   -0.11    0.85 
  -3  -1  10   57.49    2.13 
  -3   1  10   60.78    2.14 
   3   1 -10   63.45    2.09 
   3  -1 -10   58.52    1.98 
  -3   1  10   56.12    2.41 
   3   1 -10   63.97    2.40 
   3  -1 -10   56.61    2.31 
  -3  -1   9   15.93    1.33 
  -3   1   9   17.44    1.28 
   3   1  -9   17.29    1.23 
   3  -1  -9   15.06    1.12 
  -3   1   9   15.73    1.52 
   3   1  -9   15.48    1.46 
   3  -1  -9   15.60    1.36 
   3  -1  -9   17.29    1.48 
   3   1  -9   14.54    1.41 
  -3  -1   8   42.41    1.85 
  -3   1   8   41.67    1.78 
   3   1  -8   41.80    1.66 
   3  -1  -8   42.80    1.65 
  -3   1   8   42.38    2.10 
   3   1  -8   41.47    1.96 
   3  -1  -8   42.30    1.88 
   3  -1  -8   42.00    2.00 
   3   1  -8   45.15    2.08 
  -3  -1   7   27.12    1.60 
  -3   1   7   26.26    1.52 
   3   1  -7   25.65    1.40 
   3  -1  -7   25.10    1.32 
  -3   1   7   24.75    1.60 
   3   1  -7   25.49    1.61 
   3  -1  -7   26.22    1.55 
   3  -1  -7   23.85    1.61 
   3   1  -7   25.46    1.63 
  -3  -1   6  114.18    3.00 
  -3   1   6  104.29    2.84 
   3   1  -6  105.45    2.65 
   3  -1  -6  100.78    2.52 
  -3   1   6  109.30    3.03 
   3   1  -6  107.64    2.96 
   3  -1  -6  104.25    2.88 
   3  -1  -6  115.20    3.28 
   3   1  -6  103.14    3.04 
  -3  -1   5  271.87    4.91 
  -3   1   5  284.07    4.99 
   3   1  -5  277.36    4.64 
   3  -1  -5  263.05    4.57 
  -3   1   5  280.52    5.25 
   3   1  -5  277.91    4.98 
   3  -1  -5  276.58    4.96 
   3  -1  -5  281.87    5.33 
   3   1  -5  287.67    5.37 
  -3  -1   4   55.19    2.12 
   3   1  -4   61.06    2.05 
   3  -1  -4   54.72    1.86 
   3  -1  -4   59.02    2.18 
  -3   1   4   55.85    2.16 
   3   1  -4   56.58    2.12 
   3  -1  -4   56.50    2.15 
   3  -1  -4   54.29    2.28 
   3   1  -4   57.65    2.30 
   3   1  -3   95.51    2.53 
   3  -1  -3   97.74    2.47 
   3  -1  -3   98.29    2.71 
   3   1  -3   98.83    2.74 
  -3   1   3   92.37    2.75 
   3   1  -3   95.62    2.67 
   3  -1  -3   96.57    2.69 
  -3   1   3   99.48    2.99 
   3  -1  -3   94.27    2.86 
   3   1  -3   97.07    2.89 
   3   1  -2  512.28    6.28 
   3  -1  -2  516.68    6.22 
   3  -1  -2  522.47    6.55 
   3   1  -2  509.04    6.62 
  -3   1   2  515.56    6.80 
   3   1  -2  515.15    6.54 
   3  -1  -2  497.53    6.37 
  -3   1   2  519.83    7.24 
  -3  -1   2  500.06    7.09 
   3  -1  -2  528.68    7.04 
   3   1  -2  525.41    7.02 
   3   1  -1  141.72    3.14 
   3  -1  -1  152.57    3.21 
   3  -1  -1  157.34    3.32 
   3   1  -1  154.69    3.41 
  -3   1   1  153.89    3.49 
   3   1  -1  150.52    3.31 
   3  -1  -1  154.51    3.34 
  -3   1   1  152.96    3.73 
  -3  -1   1  157.00    3.79 
   3  -1  -1  160.56    3.68 
   3   1  -1  157.91    3.62 
   3   1   0   46.13    1.85 
   3  -1   0   44.64    1.80 
   3  -1   0   48.00    1.82 
   3   1   0   48.56    1.97 
  -3   1   0   45.92    1.95 
   3   1   0   45.26    1.89 
   3  -1   0   48.00    1.92 
  -3   1   0   44.85    2.18 
  -3  -1   0   48.66    2.22 
   3  -1   0   50.47    2.17 
   3   1   0   45.58    2.03 
   3  -1   1  122.83    2.91 
   3   1   1  132.34    3.07 
   3  -1   1  126.79    2.88 
   3   1   1  128.61    3.07 
  -3   1  -1  127.50    3.14 
   3   1   1  117.19    2.93 
   3  -1   1  126.18    2.97 
  -3   1  -1  129.77    3.44 
  -3  -1  -1  123.19    3.37 
   3  -1   1  132.45    3.30 
   3   1   1  125.10    3.15 
   3  -1   2   93.84    2.54 
   3   1   2   91.04    2.64 
  -3   1  -2   90.10    2.64 
  -3  -1  -2   90.45    2.67 
  -3   1  -2   91.13    2.74 
   3   1   2   91.29    2.66 
   3  -1   2   89.31    2.52 
  -3   1  -2   87.60    2.90 
  -3  -1  -2   93.45    3.03 
   3  -1   2   97.50    2.87 
   3   1   2   86.92    2.65 
   3  -1   3   14.07    1.12 
   3   1   3   13.73    1.21 
  -3   1  -3   14.86    1.23 
  -3  -1  -3   15.23    1.26 
  -3   1  -3   14.88    1.31 
   3   1   3   13.25    1.12 
   3  -1   3   14.05    1.13 
  -3   1  -3   12.11    1.30 
  -3  -1  -3   14.57    1.48 
   3  -1   3   14.23    1.30 
   3   1   3   13.30    1.27 
   3  -1   4  223.99    4.11 
   3   1   4  226.19    4.26 
  -3   1  -4  220.15    4.23 
  -3  -1  -4  222.76    4.32 
  -3   1  -4  216.74    4.35 
   3   1   4  206.51    4.06 
   3  -1   4  217.26    4.13 
   3   1   4  209.21    4.27 
  -3  -1  -4  226.98    4.77 
   3  -1   4  212.27    4.33 
   3   1   4  221.62    4.26 
   3  -1   5   42.14    1.72 
   3   1   5   38.92    1.75 
  -3   1  -5   40.40    1.78 
  -3  -1  -5   40.54    1.85 
  -3   1  -5   41.01    1.85 
   3  -1   5   38.47    1.70 
  -3  -1  -5   39.74    2.05 
   3  -1   5   40.41    1.93 
   3   1   5   38.11    1.69 
   3  -1   6  589.49    8.35 
   3   1   6  581.58    8.51 
  -3   1  -6  577.31    8.39 
  -3  -1  -6  582.04    8.50 
  -3   1  -6  582.74    8.69 
  -3  -1  -6  564.42    8.91 
   3  -1   6  568.23    8.43 
   3   1   6  577.77    8.32 
   3  -1   7   29.15    1.60 
   3   1   7   28.16    1.57 
  -3   1  -7   29.05    1.54 
  -3  -1  -7   31.08    1.68 
  -3   1  -7   28.48    1.58 
   3  -1   7   25.77    1.44 
  -3  -1  -7   27.65    1.82 
   3  -1   7   29.74    1.62 
   3   1   7   31.56    1.65 
   3  -1   8  178.20    3.85 
   3   1   8  179.16    3.90 
  -3   1  -8  170.87    3.80 
  -3  -1  -8  183.43    4.03 
  -3   1  -8  176.79    4.10 
  -3  -1  -8  179.51    4.38 
   3   1   8  181.59    3.83 
   3  -1   9    5.79    1.21 
   3   1   9    6.41    0.97 
  -3   1  -9    6.28    0.91 
  -3  -1  -9    5.14    0.98 
  -3   1  -9    5.80    0.98 
  -3  -1  -9    5.70    1.12 
   3   1   9    5.16    0.96 
   3  -1  10  189.50    3.79 
   3   1  10  186.30    3.78 
  -3   1 -10  191.60    3.81 
  -3  -1 -10  186.01    3.78 
  -3   1 -10  184.24    3.88 
  -3  -1 -10  184.57    4.15 
   3  -1  11   13.80    1.34 
   3   1  11   13.92    1.25 
  -3   1 -11   13.99    1.25 
  -3   1 -11   13.28    1.15 
  -3   1 -11   13.16    1.17 
  -3  -1 -11   14.33    1.53 
   3  -1  12  642.96   11.93 
   3   1  12  624.50    9.99 
  -3   1 -12  632.72   10.38 
  -3   1 -12  632.33   10.57 
  -3  -1 -12  645.11   10.79 
   3  -1  13   -0.29    1.27 
   3   1  13    1.32    1.11 
  -3   1 -13    0.79    0.80 
  -3   1 -13    0.01    0.82 
  -3  -1 -13    0.89    1.15 
   3  -1  14  245.67    4.49 
   3   1  14  249.29    6.05 
  -3   1 -14  247.13    4.63 
  -3   1 -14  230.47    5.07 
  -3  -1 -14  242.28    4.90 
   3  -1  15   -0.69    1.22 
   3   1  15    2.00    1.57 
  -3   1 -15    2.21    0.92 
  -3   1 -15    0.99    0.92 
  -3  -1 -15    4.09    1.50 
   3  -1  16   86.87    2.60 
   3   1  16   88.58    2.69 
  -3   1 -16   87.37    2.46 
  -3  -1 -16   82.06    2.85 
   3  -1  17    7.22    1.59 
   3   1  17    2.49    1.71 
  -3   1 -17    3.93    1.03 
  -3  -1 -17    2.96    1.63 
   3  -1  18  100.84    2.74 
   3   1  18  100.64    2.99 
  -3   1 -18  101.93    2.76 
  -3   1 -18  104.30    3.29 
  -3  -1 -18  100.00    3.20 
   3  -1  19    7.80    1.38 
   3   1  19   10.03    1.86 
  -3   1 -19    6.77    1.82 
  -3  -1 -19   11.83    1.69 
   3  -1  20   14.31    1.79 
   3   1  20   12.64    1.88 
  -3   1 -20   14.23    1.85 
  -3  -1 -20   11.57    1.65 
   3  -1  21    0.63    1.39 
   3   1  21   -0.15    1.87 
  -3   1 -21    2.08    1.80 
  -3  -1 -21    0.25    1.72 
   3  -1  22   19.93    1.78 
   3   1  22   18.05    2.06 
  -3   1 -22   17.94    2.06 
  -3  -1 -22   18.04    2.07 
   3  -1  23   -0.31    1.51 
   3   1  23   -0.24    1.54 
  -3   1 -23   -0.06    1.73 
  -3  -1 -23    3.09    1.74 
   3  -1  24   30.30    1.98 
   3   1  24   27.19    2.09 
  -3   1 -24   26.64    2.31 
  -3  -1 -24   27.87    2.27 
   3  -1  25   14.66    1.72 
   3   1  25   14.95    1.93 
  -3   1 -25   19.16    2.31 
  -3  -1 -25   17.10    2.18 
  -3  -2  26   62.53    2.60 
  -3   2  26   62.85    2.54 
   3   2 -26   65.91    2.46 
  -3  -2  25   16.39    1.79 
  -3   2  25   12.78    1.67 
   3   2 -25   12.52    1.51 
  -3  -2  24    1.27    1.47 
  -3   2  24    2.14    1.42 
  -3   2  24    3.15    1.75 
  -3  -2  23    4.79    1.76 
  -3   2  23    4.77    1.35 
  -3   2  23    4.25    1.81 
  -3  -2  22   61.87    2.48 
  -3   2  22   58.93    2.37 
  -3   2  22   60.22    2.81 
  -3  -2  21    1.52    1.28 
  -3   2  21    1.74    1.18 
  -3   2  21    1.74    1.75 
  -3  -2  20   48.33    2.08 
  -3   2  20   47.32    1.94 
  -3   2  20   48.21    2.31 
  -3  -2  19    2.47    1.27 
  -3   2  19    1.18    1.23 
  -3   2  19    1.49    1.63 
  -3  -2  18    4.05    1.44 
  -3   2  18    1.87    1.21 
  -3   2  18    3.32    1.46 
  -3  -2  17  213.92    3.80 
  -3   2  17  211.04    3.65 
  -3   2  17  204.15    3.96 
  -3  -2  16   78.56    2.51 
  -3   2  16   78.97    2.44 
   3  -2 -16   83.68    2.37 
  -3   2  16   80.34    2.87 
  -3  -2  15   85.77    2.67 
  -3   2  15   83.16    2.48 
   3  -2 -15   86.31    2.42 
  -3   2  15   85.47    2.94 
  -3  -2  14   47.68    2.05 
  -3   2  14   51.31    1.95 
   3  -2 -14   49.50    1.83 
  -3  -2  13  154.27    3.79 
  -3   2  13  144.73    3.51 
   3  -2 -13  154.40    3.53 
  -3  -2  12    7.50    1.20 
  -3   2  12    8.09    1.05 
   3  -2 -12    7.45    1.02 
  -3  -2  11  464.27    6.75 
  -3   2  11  461.22    6.57 
   3   2 -11  488.33    6.53 
   3  -2 -11  474.80    6.77 
  -3  -2  10  238.08    4.83 
  -3   2  10  227.41    4.53 
   3   2 -10  226.35    4.35 
   3  -2 -10  215.53   10.56 
  -3  -2   9  690.81   10.38 
  -3   2   9  678.10   10.00 
   3   2  -9  692.53    9.98 
   3  -2  -9  641.46    9.34 
   3   2  -9  683.77   10.34 
  -3   2   9  667.96   10.37 
   3  -2  -9  661.63   10.03 
   3  -2  -9  661.47   10.35 
   3   2  -9  671.77   10.52 
  -3  -2   8  111.89    3.02 
  -3   2   8  111.98    2.94 
   3   2  -8  111.67    2.81 
   3  -2  -8  109.41    2.76 
   3   2  -8  115.81    3.11 
  -3   2   8  112.57    3.28 
   3  -2  -8  112.20    3.04 
   3  -2  -8  107.84    3.20 
   3   2  -8  111.21    3.22 
  -3  -2   7  140.32    3.48 
  -3   2   7  142.70    3.38 
   3   2  -7  147.31    3.30 
   3  -2  -7  133.60    3.14 
   3   2  -7  139.82    3.52 
  -3   2   7  147.13    3.70 
   3  -2  -7  139.91    3.45 
   3  -2  -7  144.54    3.71 
   3   2  -7  137.33    3.64 
  -3  -2   6   55.20    2.19 
  -3   2   6   55.64    2.07 
   3   2  -6   54.65    1.93 
   3  -2  -6   54.71    1.94 
   3   2  -6   51.21    2.15 
  -3   2   6   56.30    2.29 
   3  -2  -6   56.98    2.19 
   3  -2  -6   52.95    2.25 
   3   2  -6   58.56    2.34 
  -3   2   5  277.89    4.92 
  -3  -2   5  285.61    5.12 
   3   2  -5  263.25    4.72 
   3  -2  -5  273.96    4.72 
   3   2  -5  282.36    5.05 
  -3   2   5  276.65    5.09 
   3  -2  -5  286.03    5.00 
   3  -2  -5  279.48    5.24 
   3   2  -5  276.13    5.21 
  -3  -2   4   63.74    2.23 
   3   2  -4   59.33    2.06 
   3  -2  -4   62.02    2.07 
   3  -2  -4   63.66    2.23 
   3   2  -4   61.80    2.27 
  -3   2   4   63.98    2.39 
   3  -2  -4   63.87    2.22 
   3  -2  -4   64.11    2.43 
   3   2  -4   61.91    2.40 
   3   2  -3  498.49    6.99 
   3  -2  -3  515.77    6.91 
   3  -2  -3  520.35    7.40 
   3   2  -3  523.96    7.64 
   3   2  -3  521.69    7.50 
  -3   2   3  514.97    7.57 
   3  -2  -3  502.61    7.47 
   3  -2  -3  514.75    7.69 
   3   2  -3  513.83    7.65 
   3   2  -2  149.13    3.38 
   3  -2  -2  152.54    3.24 
   3  -2  -2  160.66    3.44 
   3   2  -2  155.01    3.61 
   3   2  -2  156.54    3.58 
  -3   2   2  155.31    3.66 
   3  -2  -2  159.33    3.52 
  -3  -2   2  158.49    3.97 
   3  -2  -2  159.52    3.88 
   3   2  -2  154.72    3.70 
   3   2  -1  247.24    4.53 
   3  -2  -1  235.81    4.35 
   3  -2  -1  253.56    4.44 
   3   2  -1  247.79    4.71 
   3   2  -1  241.54    4.59 
  -3   2   1  240.94    4.69 
   3  -2  -1  246.62    4.51 
   3  -2  -1  238.90    4.79 
   3   2  -1  239.19    4.67 
   3   2   0    4.47    0.98 
   3  -2   0    3.88    0.80 
   3  -2   0    4.33    0.85 
   3   2   0    4.10    0.89 
   3   2   0    4.10    0.92 
  -3   2   0    5.32    1.02 
   3  -2   0    3.95    0.92 
  -3  -2   0    3.94    1.07 
   3  -2   0    4.83    1.11 
   3   2   0    4.53    0.89 
   3  -2   1    0.08    0.65 
   3   2   1    0.88    0.75 
   3  -2   1    0.28    0.74 
   3   2   1    0.21    0.86 
   3   2   1    0.14    0.71 
  -3   2  -1    0.26    0.80 
   3  -2   1    0.28    0.83 
  -3  -2  -1    0.83    0.94 
   3  -2   1   -0.38    0.99 
   3   2   1    0.27    0.78 
   3   2   2  195.07    3.92 
   3  -2   2  203.02    3.85 
   3   2   2  197.53    4.04 
  -3   2  -2  200.95    4.06 
  -3   2  -2  200.07    4.35 
   3  -2   2  200.56    3.92 
   3   2   2  200.73    3.94 
  -3  -2  -2  202.91    4.50 
   3  -2   2  196.55    4.22 
   3   2   2  209.45    4.12 
   3  -2   3  186.15    3.74 
   3   2   3  192.20    3.95 
  -3   2  -3  190.02    3.87 
  -3  -2  -3  191.86    4.03 
   3   2   3  185.58    3.92 
  -3   2  -3  189.61    4.04 
   3  -2   3  193.13    3.84 
   3   2   3  190.79    3.78 
  -3  -2  -3  198.20    4.44 
   3  -2   3  191.59    4.13 
   3   2   3  185.89    3.78 
   3  -2   4  111.71    2.78 
   3   2   4  108.18    2.87 
  -3   2  -4  108.42    2.82 
  -3  -2  -4  109.63    2.97 
   3   2   4  107.38    3.01 
  -3   2  -4  111.47    2.99 
   3  -2   4  109.93    2.81 
   3   2   4  107.38    2.82 
  -3  -2  -4  114.54    3.33 
   3  -2   4  116.70    3.14 
   3   2   4  109.50    2.79 
   3  -2   5  455.15    6.86 
   3   2   5  469.11    7.30 
  -3   2  -5  454.12    7.15 
  -3  -2  -5  468.30    7.32 
  -3   2  -5  468.67    7.43 
   3  -2   5  450.83    6.94 
  -3  -2  -5  475.15    7.84 
   3  -2   5  461.17    7.37 
   3   2   5  453.73    6.89 
   3  -2   6  102.72    2.73 
   3   2   6  101.80    2.85 
  -3   2  -6   95.07    2.66 
  -3  -2  -6   96.17    2.75 
  -3   2  -6   98.74    2.86 
   3  -2   6   93.37    2.64 
  -3  -2  -6   95.89    3.06 
   3  -2   6   92.70    2.80 
   3   2   6   95.98    2.60 
   3  -2   7   55.94    2.10 
   3   2   7   52.35    2.01 
  -3   2  -7   50.38    1.92 
  -3  -2  -7   54.43    2.10 
  -3   2  -7   49.37    2.07 
   3  -2   7   52.05    1.96 
  -3   2  -7   47.58    2.27 
  -3  -2  -7   54.00    2.37 
   3   2   7   55.61    2.00 
   3  -2   8  474.04    7.51 
   3   2   8  443.09    7.48 
  -3   2  -8  451.42    7.24 
  -3  -2  -8  475.37    7.81 
  -3   2  -8  460.92    7.62 
   3  -2   8  445.18    7.58 
  -3   2  -8  441.92    7.98 
  -3  -2  -8  459.52    7.90 
   3   2   8  434.80    6.92 
   3  -2   9   56.01    2.07 
   3   2   9   57.51    2.16 
  -3   2  -9   52.84    1.95 
  -3   2  -9   55.80    2.10 
  -3   2  -9   53.35    2.48 
  -3  -2  -9   55.80    2.36 
   3   2   9   53.18    1.86 
   3  -2  10  303.90    4.91 
   3   2  10  292.63    4.96 
  -3   2 -10  293.95    4.81 
  -3   2 -10  290.44    5.04 
  -3   2 -10  291.65    5.55 
  -3  -2 -10  293.01    5.30 
   3  -2  11   10.65    1.24 
   3   2  11    9.66    1.28 
  -3   2 -11    6.53    0.96 
  -3   2 -11    6.93    1.05 
  -3   2 -11    7.30    1.42 
  -3  -2 -11    8.74    1.31 
   3  -2  12   74.73    2.36 
   3   2  12   73.97    2.48 
  -3   2 -12   71.60    2.29 
  -3   2 -12   69.70    2.34 
  -3   2 -12   69.38    2.67 
  -3  -2 -12   70.55    2.68 
   3  -2  13    5.53    1.26 
   3   2  13    6.53    1.19 
  -3   2 -13    5.17    1.03 
  -3   2 -13    5.75    1.38 
  -3  -2 -13    6.59    1.50 
   3  -2  14  300.25    5.02 
   3   2  14  287.23    4.97 
  -3   2 -14  280.59    5.16 
  -3   2 -14  283.11    5.47 
  -3  -2 -14  276.45    5.27 
   3  -2  15   13.50    1.49 
   3   2  15   15.58    1.60 
  -3   2 -15   13.06    1.23 
  -3   2 -15   13.86    1.30 
  -3   2 -15   14.34    1.89 
  -3  -2 -15   13.86    1.64 
   3  -2  16  244.58    4.04 
   3   2  16  243.83    4.00 
  -3   2 -16  242.34    3.95 
  -3   2 -16  233.17    4.35 
  -3  -2 -16  233.56    4.27 
   3  -2  17   20.09    1.70 
   3   2  17   20.13    1.68 
  -3   2 -17   19.97    1.46 
  -3   2 -17   20.49    2.05 
  -3  -2 -17   20.81    2.02 
   3  -2  18   -0.06    1.36 
   3   2  18    0.60    1.49 
  -3   2 -18    1.78    1.01 
  -3   2 -18    0.11    1.70 
  -3  -2 -18    0.86    1.42 
   3  -2  19  102.34    2.59 
   3   2  19  102.02    3.04 
  -3   2 -19   98.83    2.67 
  -3   2 -19  109.46    3.32 
  -3  -2 -19  106.91    3.12 
   3  -2  20   17.06    1.59 
   3   2  20   16.28    2.10 
  -3   2 -20   17.50    2.12 
  -3  -2 -20   15.40    1.88 
   3  -2  21  190.39    4.33 
   3   2  21  180.73    4.56 
  -3   2 -21  192.57    4.98 
  -3  -2 -21  188.09    4.70 
   3  -2  22   64.74    2.37 
   3   2  22   61.59    2.70 
  -3   2 -22   67.66    2.87 
  -3  -2 -22   65.73    2.83 
   3  -2  23   30.56    1.91 
   3   2  23   32.08    3.98 
  -3   2 -23   29.78    2.31 
  -3  -2 -23   31.53    2.28 
   3  -2  24   11.14    1.61 
   3   2  24    5.98    2.13 
  -3   2 -24    8.08    1.97 
  -3  -2 -24    9.97    1.98 
   3  -2  25   43.70    2.19 
   3   2  25   46.23    2.50 
  -3   2 -25   47.71    2.58 
  -3  -2 -25   48.75    2.72 
  -3  -3  26   36.55    2.24 
  -3   3  26   35.39    2.08 
  -3   3  26   36.50    2.35 
  -3  -3  25   39.88    2.14 
  -3   3  25   38.47    1.95 
  -3   3  25   37.59    2.33 
  -3  -3  24   80.87    2.63 
  -3   3  24   74.37    2.35 
  -3   3  24   76.92    2.88 
  -3  -3  23   37.16    2.08 
  -3   3  23   36.16    1.97 
  -3   3  23   39.85    2.47 
   3   3 -23   40.44    1.80 
  -3  -3  22   26.02    1.98 
  -3   3  22   23.73    1.68 
  -3   3  22   26.07    2.19 
   3   3 -22   29.58    1.70 
  -3  -3  21   19.82    1.81 
  -3   3  21   21.65    1.53 
  -3   3  21   21.18    1.93 
  -3  -3  20   29.40    2.02 
  -3   3  20   27.55    1.65 
  -3   3  20   32.07    2.33 
  -3  -3  19    1.77    1.29 
  -3   3  19    1.52    1.19 
  -3   3  19    1.64    1.57 
  -3  -3  18   15.55    1.56 
  -3   3  18   11.87    1.32 
  -3   3  18   13.32    1.78 
  -3  -3  17   47.44    2.05 
  -3   3  17   49.78    1.99 
  -3   3  17   49.21    2.38 
  -3  -3  16    3.68    1.34 
  -3   3  16    3.63    0.98 
  -3   3  16    4.38    1.48 
  -3  -3  15   89.52    2.71 
  -3   3  15   89.35    2.53 
  -3   3  15   93.64    3.08 
  -3  -3  14  303.55    5.27 
  -3   3  14  275.59    4.75 
  -3   3  14  284.37    5.29 
  -3  -3  13   17.74    1.61 
  -3   3  13   16.32    1.23 
   3  -3 -13   17.09    1.23 
  -3  -3  12  211.05    4.70 
  -3   3  12  214.33    4.50 
   3  -3 -12  214.09    4.42 
  -3  -3  11  161.64    3.91 
  -3   3  11  174.84    3.94 
   3  -3 -11  176.69    3.90 
  -3  -3  10    6.16    1.11 
  -3   3  10    5.85    0.93 
   3  -3 -10    6.21    0.91 
   3   3 -10    6.63    1.09 
  -3  -3   9    0.39    1.11 
  -3   3   9    1.06    0.76 
   3   3  -9    1.14    0.76 
   3  -3  -9    1.23    0.72 
   3   3  -9    0.89    0.85 
  -3   3   9    0.48    0.98 
   3   3  -9    0.15    0.83 
  -3  -3   8   19.66    1.55 
  -3   3   8   18.28    1.29 
   3   3  -8   17.61    1.32 
   3  -3  -8   18.21    1.18 
   3   3  -8   19.49    1.51 
  -3   3   8   20.57    1.68 
   3   3  -8   18.18    1.47 
  -3  -3   7  330.47    6.06 
  -3   3   7  331.59    5.89 
   3   3  -7  341.75    5.87 
   3  -3  -7  324.50    5.71 
   3   3  -7  340.30    6.11 
  -3   3   7  330.01    6.19 
   3  -3  -7  329.71    5.97 
   3   3  -7  332.53    6.31 
  -3  -3   6   42.27    1.97 
  -3   3   6   38.09    1.96 
   3   3  -6   39.13    1.74 
   3  -3  -6   35.61    1.80 
   3   3  -6   38.74    1.85 
  -3   3   6   37.85    1.89 
   3  -3  -6   38.54    1.88 
   3  -3  -6   39.24    2.10 
   3   3  -6   39.12    1.95 
  -3  -3   5  164.62    3.77 
   3   3  -5  171.12    3.66 
   3   3  -5  171.53    3.80 
  -3   3   5  170.25    4.01 
   3  -3  -5  174.50    3.84 
   3  -3  -5  172.26    4.11 
   3   3  -5  168.66    4.06 
  -3  -3   4   94.56    2.80 
   3   3  -4  101.25    2.74 
   3   3  -4   95.90    2.78 
  -3   3   4  100.28    2.94 
   3  -3  -4   96.12    2.72 
   3  -3  -4   91.60    2.90 
   3   3  -4  100.05    3.04 
   3   3  -3   40.03    1.81 
   3   3  -3   39.36    1.92 
   3   3  -3   39.68    1.81 
  -3   3   3   40.46    1.95 
   3  -3  -3   41.69    1.87 
   3  -3  -3   39.33    2.04 
   3   3  -3   41.22    1.92 
   3   3  -2   58.24    2.14 
   3   3  -2   59.42    2.24 
   3   3  -2   53.82    2.17 
  -3   3   2   58.55    2.29 
   3  -3  -2   55.29    2.09 
   3   3  -2   59.92    2.16 
  -3  -3   2   58.00    2.39 
  -3   3   2   55.66    2.35 
   3  -3  -2   59.01    2.33 
   3   3  -2   57.11    2.21 
   3   3  -1  577.72    8.42 
   3   3  -1  579.25    8.63 
   3   3  -1  572.12    8.49 
  -3   3   1  598.00    8.97 
   3  -3  -1  602.46    8.70 
   3   3  -1  595.29    8.62 
  -3   3   1  575.53    9.14 
  -3  -3   1  596.09    9.34 
   3  -3  -1  602.43    9.17 
   3   3  -1  591.39    8.87 
   3   3   0    6.00    1.00 
   3   3   0    6.28    1.03 
   3   3   0    4.83    0.94 
  -3   3   0    5.32    1.12 
   3  -3   0    6.02    1.01 
   3   3   0    5.96    0.89 
  -3   3   0    6.15    1.24 
  -3  -3   0    5.76    1.18 
   3  -3   0    6.95    1.11 
   3   3   0    6.02    0.89 
   3   3   1  464.13    7.18 
   3  -3   1  454.32    7.34 
   3   3   1  474.34    7.58 
   3   3   1  437.32    7.08 
  -3   3  -1  460.30    7.42 
   3  -3   1  470.23    7.16 
   3   3   1  467.16    7.18 
  -3   3  -1  464.69    7.88 
  -3  -3  -1  480.29    7.93 
   3  -3   1  468.22    7.65 
   3   3   1  464.59    7.16 
   3   3   2   31.07    1.68 
   3  -3   2   29.75    1.45 
   3   3   2   28.83    1.67 
   3   3   2   28.59    1.55 
  -3   3  -2   29.21    1.68 
   3  -3   2   29.75    1.56 
   3   3   2   28.73    1.50 
  -3   3  -2   28.92    1.92 
  -3  -3  -2   27.06    1.74 
   3  -3   2   27.75    1.78 
   3   3   2   29.62    1.50 
   3  -3   3   65.19    2.08 
  -3   3  -3   64.81    2.21 
   3   3   3   64.86    2.35 
   3   3   3   62.21    2.22 
  -3   3  -3   64.49    2.36 
   3  -3   3   65.10    2.19 
   3   3   3   63.39    2.11 
  -3   3  -3   67.70    2.70 
  -3  -3  -3   67.96    2.58 
   3  -3   3   67.10    2.51 
   3   3   3   63.18    2.09 
   3  -3   4   55.78    1.93 
  -3   3  -4   49.29    1.99 
   3   3   4   56.27    2.21 
  -3  -3  -4   54.88    2.19 
   3   3   4   50.23    1.99 
  -3   3  -4   55.09    2.17 
   3   3   4   57.53    2.07 
   3  -3   4   54.55    2.03 
  -3   3  -4   52.41    2.37 
  -3  -3  -4   53.95    2.31 
   3  -3   4   54.57    2.17 
   3   3   4   54.54    1.91 
   3  -3   5   21.28    1.28 
  -3   3  -5   20.65    1.34 
   3   3   5   21.22    1.57 
  -3  -3  -5   19.29    1.48 
   3   3   5   20.04    1.36 
  -3   3  -5   22.37    1.48 
   3   3   5   20.19    1.34 
   3  -3   5   21.05    1.34 
  -3   3  -5   19.26    1.74 
  -3  -3  -5   21.17    1.55 
   3   3   5   21.53    1.29 
   3  -3   6   18.89    1.28 
  -3   3  -6   20.01    1.30 
   3   3   6   21.85    1.51 
  -3  -3  -6   20.53    1.41 
   3   3   6   17.73    1.26 
   3   3   6   21.37    1.34 
  -3   3  -6   20.39    1.42 
   3  -3   6   19.24    1.35 
  -3   3  -6   20.40    1.75 
  -3  -3  -6   19.92    1.59 
   3   3   6   19.66    1.23 
   3  -3   7  247.54    4.40 
  -3   3  -7  243.68    4.28 
   3   3   7  246.91    4.49 
  -3   3  -7  250.01    4.61 
   3  -3   7  249.16    4.41 
  -3   3  -7  247.10    5.06 
  -3  -3  -7  244.66    4.84 
   3   3   7  242.01    4.12 
   3  -3   8   26.28    1.42 
  -3   3  -8   25.04    1.39 
   3   3   8   25.43    1.58 
  -3   3  -8   26.27    1.59 
   3  -3   8   24.03    1.42 
  -3   3  -8   23.73    1.88 
  -3  -3  -8   24.81    1.72 
   3   3   8   24.91    1.35 
   3  -3   9   12.91    1.16 
  -3   3  -9   11.12    1.07 
   3   3   9   10.33    1.17 
  -3   3  -9   11.90    1.20 
   3  -3   9   11.05    1.06 
  -3   3  -9   11.97    1.70 
  -3  -3  -9   11.52    1.36 
   3  -3  10  470.20    7.89 
   3   3  10  420.40    7.66 
  -3   3 -10  442.21    7.53 
  -3   3 -10  443.92    8.41 
   3  -3  10  425.34    8.09 
  -3   3 -10  459.48    8.53 
  -3  -3 -10  438.73    8.01 
   3  -3  11   97.08    2.74 
   3   3  11   91.87    2.77 
  -3   3 -11   93.08    2.65 
  -3   3 -11   99.17    2.87 
  -3   3 -11   94.40    3.16 
  -3  -3 -11   94.31    3.09 
   3  -3  12  243.68    4.41 
   3   3  12  255.14    4.60 
  -3   3 -12  235.58    4.25 
  -3   3 -12  246.13    4.59 
  -3   3 -12  235.68    4.93 
  -3  -3 -12  244.21    4.88 
   3  -3  13   27.81    1.57 
   3   3  13   28.54    1.78 
  -3   3 -13   30.78    1.66 
  -3   3 -13   31.15    1.98 
  -3  -3 -13   29.01    1.97 
   3  -3  14  171.85    3.23 
   3   3  14  167.75    3.40 
  -3   3 -14  178.39    3.43 
  -3   3 -14  177.42    3.93 
  -3  -3 -14  168.89    3.59 
   3  -3  15  133.23    2.94 
   3   3  15  134.76    3.04 
  -3   3 -15  131.76    2.98 
  -3   3 -15  122.98    3.42 
  -3  -3 -15  134.00    3.34 
   3  -3  16   76.96    2.41 
   3   3  16   75.13    2.65 
  -3   3 -16   83.43    2.56 
  -3   3 -16   81.35    3.08 
  -3  -3 -16   80.42    2.84 
   3  -3  17  188.97    3.80 
   3   3  17  198.74    4.06 
  -3   3 -17  197.52    3.91 
  -3   3 -17  196.19    4.43 
  -3  -3 -17  190.32    4.10 
   3  -3  18   43.67    1.98 
   3   3  18   48.62    2.14 
  -3   3 -18   45.18    1.98 
  -3   3 -18   47.32    2.55 
  -3  -3 -18   50.40    2.40 
   3  -3  19   10.59    1.48 
   3   3  19   12.48    1.87 
  -3   3 -19    9.83    1.30 
  -3   3 -19   14.02    1.95 
  -3  -3 -19   10.94    1.81 
   3  -3  20   19.29    1.62 
   3   3  20   20.29    2.06 
  -3   3 -20   19.24    2.06 
  -3  -3 -20   16.07    1.97 
   3  -3  21   17.23    1.69 
   3   3  21   15.59    1.98 
  -3   3 -21   18.06    2.24 
  -3  -3 -21   16.47    1.90 
   3  -3  22    4.62    1.54 
   3   3  22    5.00    2.13 
  -3   3 -22    2.02    1.92 
  -3  -3 -22    4.01    1.69 
   3  -3  23   80.71    2.79 
   3   3  23   77.89    3.09 
  -3   3 -23   81.02    3.40 
  -3  -3 -23   81.51    3.20 
   3  -3  24    2.48    1.66 
   3   3  24   -2.24    2.12 
  -3   3 -24    1.43    1.93 
  -3  -3 -24    1.56    1.61 
  -3  -4  25   32.99    2.17 
  -3   4  25   31.53    1.85 
  -3   4  25   34.51    2.48 
  -3  -4  24   91.15    3.35 
  -3   4  24   92.86    2.95 
  -3   4  24   90.95    3.36 
  -3  -4  23    0.47    1.58 
  -3   4  23    0.13    1.18 
  -3   4  23   -0.36    1.81 
  -3  -4  22  303.39    5.07 
  -3   4  22  301.72    5.46 
  -3   4  22  319.25    5.15 
  -3  -4  21   62.63    2.64 
  -3   4  21   58.31    2.34 
  -3   4  21   66.52    2.78 
  -3  -4  20  206.41    3.96 
  -3   4  20  199.87    3.52 
  -3   4  20  207.21    4.17 
  -3  -4  19   64.70    2.41 
  -3   4  19   64.38    2.17 
  -3   4  19   71.60    2.88 
  -3  -4  18    4.61    1.38 
  -3   4  18    3.88    1.11 
  -3   4  18    7.14    1.65 
   3   4 -18    4.80    1.05 
  -3  -4  17   91.40    2.75 
  -3   4  17   85.30    2.45 
  -3   4  17   86.54    3.03 
   3   4 -17   87.29    2.31 
  -3  -4  16  133.79    3.18 
  -3   4  16  123.20    2.76 
  -3   4  16  127.99    3.36 
  -3  -4  15   36.96    1.96 
  -3   4  15   35.10    1.69 
  -3   4  15   38.30    2.20 
  -3  -4  14  631.94    6.52 
  -3   4  14  605.49    5.89 
  -3   4  14  624.04    6.83 
  -3  -4  13    5.48    1.49 
  -3   4  13    5.42    1.02 
  -3   4  13    5.32    1.57 
  -3  -4  12    0.31    1.08 
  -3   4  12    0.83    0.85 
  -3  -4  11  180.62    4.19 
  -3   4  11  178.25    3.82 
  -3  -4  10  146.59    3.74 
  -3   4  10  140.74    3.38 
   3  -4 -10  146.02    3.52 
   3   4 -10  133.48    3.69 
  -3  -4   9    0.88    1.02 
  -3   4   9    0.59    0.73 
   3  -4  -9    1.79    0.77 
   3   4  -9    0.91    0.90 
  -3  -4   8  184.55    3.97 
  -3   4   8  185.33    3.66 
   3  -4  -8  183.84    3.74 
  -3   4   8  178.85    3.98 
   3   4  -8  186.37    4.14 
  -3  -4   7   68.27    2.46 
  -3   4   7   69.22    2.20 
   3  -4  -7   64.76    2.36 
   3   4  -7   69.28    2.29 
  -3   4   7   68.98    2.50 
   3   4  -7   65.26    2.44 
  -3  -4   6   18.09    1.47 
   3   4  -6   19.52    1.43 
  -3   4   6   18.52    1.55 
   3   4  -6   17.99    1.35 
   3   4  -6   19.08    1.46 
  -3  -4   5    5.91    1.02 
   3   4  -5    6.24    1.11 
   3   4  -5    7.16    1.12 
  -3   4   5    5.77    1.17 
   3  -4  -5    5.49    1.14 
   3   4  -5    4.76    1.03 
   3   4  -5    5.46    1.02 
   3   4  -4   10.11    1.21 
   3   4  -4    8.45    1.07 
  -3   4   4    9.58    1.29 
   3  -4  -4    8.78    1.06 
   3   4  -4   10.09    1.23 
   3   4  -4    9.31    1.08 
   3   4  -3   39.38    1.76 
   3   4  -3   39.94    1.91 
   3   4  -3   39.47    1.75 
  -3   4   3   39.20    1.99 
   3  -4  -3   39.61    1.78 
   3   4  -3   38.32    1.77 
   3   4  -3   39.02    1.81 
   3   4  -2    4.94    0.98 
   3   4  -2    6.21    1.20 
  -3   4   2    6.17    1.15 
   3  -4  -2    6.21    1.10 
   3   4  -2    4.80    0.94 
  -3   4   2    5.27    1.15 
   3   4  -2    6.58    0.91 
   3   4  -1  111.19    2.98 
   3   4  -1  114.56    3.24 
  -3   4   1  116.29    3.31 
   3  -4  -1  110.72    2.95 
   3   4  -1  110.04    2.94 
  -3   4   1  113.67    3.50 
  -3  -4   1  102.56    3.19 
   3   4  -1  108.99    2.83 
   3   4   0   21.97    1.45 
   3   4   0   22.27    1.57 
  -3   4   0   22.34    1.62 
   3  -4   0   21.02    1.41 
   3   4   0   21.65    1.36 
  -3   4   0   20.21    1.70 
  -3  -4   0   22.37    1.62 
   3   4   0   19.16    1.19 
   3   4   1    3.09    1.08 
   3   4   1    3.43    1.06 
  -3   4  -1    4.12    1.09 
   3  -4   1    3.59    0.96 
   3   4   1    3.31    0.81 
  -3   4  -1    2.50    1.15 
  -3  -4  -1    2.59    1.00 
   3   4   1    3.45    0.76 
   3   4   2  234.20    4.67 
   3  -4   2  243.05    4.90 
   3   4   2  224.28    4.77 
  -3   4  -2  234.49    4.88 
   3  -4   2  225.99    4.51 
   3   4   2  231.25    4.56 
  -3   4  -2  218.54    5.29 
  -3  -4  -2  231.86    5.11 
   3   4   2  223.55    4.26 
   3  -4   3   24.68    1.39 
  -3   4  -3   23.76    1.37 
   3   4   3   25.66    1.69 
  -3   4  -3   24.24    1.56 
   3  -4   3   24.33    1.39 
   3   4   3   24.54    1.43 
  -3   4  -3   25.39    1.90 
  -3  -4  -3   24.02    1.68 
   3   4   3   23.94    1.28 
   3  -4   4   94.25    2.65 
  -3   4  -4   95.01    2.64 
   3   4   4   96.60    2.92 
  -3   4  -4  100.73    2.91 
   3   4   4   95.82    2.73 
   3  -4   4   95.33    2.69 
  -3   4  -4   92.23    3.12 
  -3  -4  -4   96.93    3.05 
   3  -4   5  201.13    3.87 
  -3   4  -5  199.39    3.78 
   3   4   5  202.20    4.13 
  -3   4  -5  204.11    4.10 
   3   4   5  196.97    3.96 
   3  -4   5  204.29    3.92 
  -3   4  -5  199.92    4.51 
  -3  -4  -5  201.74    4.34 
   3  -4   6    6.36    0.96 
  -3   4  -6    7.61    0.96 
   3   4   6    7.16    1.28 
   3   4   6    7.85    1.04 
  -3   4  -6    6.60    1.11 
   3  -4   6    7.92    1.06 
  -3   4  -6    7.55    1.50 
  -3  -4  -6    8.68    1.22 
   3  -4   7   38.29    1.62 
  -3   4  -7   36.55    1.58 
   3   4   7   37.68    1.87 
   3   4   7   36.65    1.74 
  -3   4  -7   39.58    1.92 
   3  -4   7   39.44    1.77 
  -3   4  -7   39.33    2.31 
  -3  -4  -7   40.06    2.03 
   3  -4   8  607.58    9.68 
  -3   4  -8  600.39    9.55 
   3   4   8  612.57   10.00 
   3   4   8  641.63   10.43 
  -3   4  -8  633.56   10.33 
   3  -4   8  631.04   10.16 
  -3   4  -8  615.14   10.65 
  -3  -4  -8  617.44   10.39 
   3  -4   9   80.31    2.46 
  -3   4  -9   82.40    2.41 
   3   4   9   84.18    2.70 
   3   4   9   79.09    2.78 
  -3   4  -9   80.23    2.64 
   3  -4   9   80.46    2.50 
  -3   4  -9   81.58    3.04 
  -3  -4  -9   80.84    2.80 
   3  -4  10  306.70    5.54 
  -3   4 -10  290.52    5.24 
   3   4  10  298.97    5.58 
  -3   4 -10  297.56    5.65 
   3  -4  10  302.67    5.58 
  -3   4 -10  283.60    5.96 
  -3  -4 -10  299.83    5.83 
   3  -4  11  154.61    3.36 
  -3   4 -11  144.40    3.15 
   3   4  11  149.47    3.49 
  -3   4 -11  147.89    3.45 
   3  -4  11  142.33    3.25 
  -3   4 -11  147.66    3.96 
  -3  -4 -11  155.77    3.78 
   3  -4  12    5.43    1.09 
  -3   4 -12    6.60    1.02 
   3   4  12    6.45    1.22 
  -3   4 -12    7.03    1.17 
  -3   4 -12    7.10    1.54 
  -3  -4 -12    6.46    1.29 
   3  -4  13    4.51    1.00 
   3   4  13    2.63    1.26 
  -3   4 -13    2.89    1.08 
  -3   4 -13    3.34    1.50 
  -3  -4 -13    3.12    1.37 
   3  -4  14  201.78    3.55 
   3   4  14  197.78    3.64 
  -3   4 -14  194.36    3.63 
  -3   4 -14  197.61    4.21 
  -3  -4 -14  207.72    3.97 
   3  -4  15    0.54    1.01 
   3   4  15    0.08    1.31 
  -3   4 -15    1.37    1.02 
  -3   4 -15    2.46    1.63 
  -3  -4 -15    1.14    1.22 
   3  -4  16    3.12    1.13 
   3   4  16    2.89    1.44 
  -3   4 -16    2.79    1.08 
  -3   4 -16    4.75    1.67 
  -3  -4 -16    2.66    1.29 
   3  -4  17    1.44    1.28 
   3   4  17   -0.06    1.47 
  -3   4 -17    1.98    1.08 
  -3   4 -17    0.27    1.63 
  -3  -4 -17    0.46    1.43 
   3  -4  18    1.86    1.24 
   3   4  18    0.90    1.47 
  -3   4 -18    1.32    1.07 
  -3   4 -18    2.98    1.65 
  -3  -4 -18    3.63    1.54 
   3  -4  19   77.34    2.59 
   3   4  19   73.33    2.83 
  -3   4 -19   76.83    2.61 
  -3   4 -19   78.37    3.24 
  -3  -4 -19   67.30    2.65 
   3  -4  20   86.43    2.57 
   3   4  20   85.75    3.06 
  -3   4 -20   83.70    2.55 
  -3   4 -20   86.03    3.15 
  -3  -4 -20   75.79    2.77 
   3  -4  21   30.23    1.83 
   3   4  21   32.16    2.39 
  -3   4 -21   32.60    2.40 
  -3  -4 -21   29.35    2.17 
   3  -4  22   78.38    2.77 
   3   4  22   79.22    3.12 
  -3   4 -22   79.64    3.38 
  -3  -4 -22   70.70    2.84 
   3  -4  23    3.25    1.50 
   3   4  23    5.57    2.09 
  -3   4 -23    2.31    1.99 
  -3  -4 -23    4.40    1.94 
  -3  -5  24    1.23    1.89 
  -3   5  24    1.37    1.36 
  -3   5  24   -0.28    1.90 
   3   5 -24    0.96    1.81 
  -3  -5  23    1.76    1.79 
  -3   5  23    3.11    1.30 
  -3   5  23    3.31    1.60 
   3   5 -23    0.44    1.73 
  -3  -5  22    3.18    1.79 
  -3   5  22    0.64    1.22 
  -3   5  22    1.36    1.73 
   3   5 -22    1.25    1.64 
  -3  -5  21    4.28    1.76 
  -3   5  21    0.64    1.24 
  -3   5  21    2.01    1.96 
   3   5 -21    0.14    1.78 
  -3  -5  20   28.58    2.02 
  -3   5  20   26.10    1.62 
  -3   5  20   26.01    2.06 
   3   5 -20   23.65    2.09 
  -3  -5  19    3.72    1.69 
  -3   5  19    4.22    1.21 
  -3   5  19    5.03    1.80 
   3   5 -19    3.00    1.60 
  -3  -5  18   15.81    1.86 
  -3   5  18   13.57    1.39 
  -3   5  18   17.17    2.08 
   3   5 -18   14.53    1.69 
  -3  -5  17   13.40    1.77 
  -3   5  17   11.95    1.25 
  -3   5  17   10.48    1.79 
   3   5 -17   10.76    1.61 
  -3  -5  16   10.14    1.53 
  -3   5  16   10.11    1.22 
  -3   5  16   10.86    1.77 
   3   5 -16   12.42    1.82 
  -3  -5  15    6.97    1.57 
  -3   5  15    5.64    1.06 
  -3   5  15    6.48    1.68 
   3   5 -15    5.25    1.26 
  -3  -5  14    5.73    1.55 
  -3   5  14    5.01    0.98 
  -3   5  14    4.51    1.54 
   3   5 -14    6.73    1.43 
  -3  -5  13  200.22    3.78 
  -3   5  13  197.56    3.37 
  -3   5  13  210.41    4.08 
   3   5 -13  202.77    3.78 
  -3  -5  12   15.89    1.61 
  -3   5  12   12.97    1.13 
  -3   5  12   12.34    1.49 
   3   5 -12   16.20    1.52 
  -3  -5  11  141.42    3.51 
  -3   5  11  129.21    2.97 
   3   5 -11  142.72    3.49 
  -3  -5  10    2.04    1.21 
  -3   5  10    2.18    0.83 
   3   5 -10    1.74    1.21 
   3   5 -10    2.57    0.76 
  -3  -5   9    1.63    1.33 
  -3   5   9    1.01    0.78 
   3   5  -9    1.24    1.22 
   3   5  -9    0.64    0.70 
  -3  -5   8   54.26    2.23 
  -3   5   8   55.83    1.97 
   3   5  -8   56.19    2.15 
   3   5  -8   55.44    1.89 
  -3  -5   7  717.18    7.02 
  -3   5   7  697.17   10.99 
  -3   5   7  678.69   11.12 
   3   5  -7  714.81    6.72 
  -3  -5   6   49.19    2.15 
  -3   5   6   43.84    2.14 
   3   5  -6   44.13    1.95 
  -3  -5   5  638.49   10.58 
  -3   5   5  647.57   10.72 
   3   5  -5  669.07   10.67 
   3   5  -4    6.45    1.18 
  -3   5   4    6.14    1.26 
   3   5  -4    5.84    1.07 
   3   5  -3   47.41    2.09 
  -3   5   3   45.87    2.11 
   3   5  -3   43.33    1.82 
   3   5  -2   13.06    1.38 
  -3   5   2   16.91    1.48 
   3   5  -2   13.78    1.32 
   3   5  -1  912.28   11.20 
  -3   5   1  917.47   12.06 
   3   5  -1  909.33   10.67 
  -3   5   1  934.39    8.88 
   3   5   0    6.12    1.25 
  -3   5   0    9.24    1.37 
   3  -5   0    7.26    1.18 
   3   5   0    8.52    1.08 
  -3   5   0    8.27    1.38 
  -3  -5   0    6.95    1.15 
   3   5   1  665.56    8.84 
  -3   5  -1  672.35    8.98 
   3  -5   1  675.41    8.52 
   3   5   1  662.81    8.49 
  -3   5  -1  653.76    9.25 
  -3  -5  -1  702.97    9.62 
   3   5   2    7.35    1.25 
  -3   5  -2    9.19    1.32 
   3  -5   2    8.71    1.07 
   3   5   2    9.28    1.16 
  -3   5  -2   11.39    1.44 
  -3  -5  -2    8.98    1.24 
   3  -5   3   12.24    1.15 
  -3   5  -3   12.65    1.09 
   3   5   3   10.00    1.28 
  -3   5  -3   12.26    1.37 
   3   5   3   12.08    1.17 
   3  -5   3   11.95    1.13 
  -3   5  -3   13.95    1.74 
  -3  -5  -3   12.75    1.36 
   3  -5   4  111.30    3.04 
  -3   5  -4  109.70    2.88 
   3   5   4  112.63    3.23 
  -3   5  -4  113.37    3.21 
   3   5   4  113.51    3.09 
   3  -5   4  106.79    2.95 
  -3   5  -4  112.93    3.53 
  -3  -5  -4  111.05    3.38 
   3  -5   5  216.17    4.57 
  -3   5  -5  215.67    4.42 
   3   5   5  220.87    4.88 
  -3   5  -5  228.01    4.88 
   3  -5   5  225.32    4.67 
  -3   5  -5  219.26    5.21 
  -3  -5  -5  221.99    5.06 
   3  -5   6  201.56    4.22 
  -3   5  -6  204.79    4.12 
   3   5   6  207.20    4.50 
   3   5   6  212.76    4.50 
  -3   5  -6  213.73    4.57 
   3  -5   6  213.05    4.34 
  -3   5  -6  207.92    4.89 
  -3  -5  -6  210.91    4.73 
   3  -5   7  145.88    3.45 
  -3   5  -7  143.44    3.29 
   3   5   7  144.14    3.60 
   3   5   7  145.49    3.57 
  -3   5  -7  148.29    3.62 
   3  -5   7  148.49    3.48 
  -3   5  -7  140.48    3.91 
  -3  -5  -7  150.31    3.86 
   3  -5   8    1.10    0.88 
  -3   5  -8    1.82    0.82 
   3   5   8    2.48    1.24 
   3   5   8    1.30    0.93 
  -3   5  -8    0.71    1.08 
   3  -5   8    1.71    0.92 
  -3   5  -8    0.66    1.32 
  -3  -5  -8    0.83    1.01 
   3  -5   9    1.61    0.87 
  -3   5  -9    1.94    0.80 
   3   5   9    1.33    1.24 
  -3   5  -9    1.46    0.95 
   3  -5   9    1.41    0.84 
  -3   5  -9    0.76    1.22 
  -3  -5  -9    1.32    0.93 
   3  -5  10   -0.14    0.95 
  -3   5 -10    0.76    0.77 
   3   5  10    1.73    1.15 
  -3   5 -10    0.53    1.05 
   3  -5  10    0.41    0.97 
  -3   5 -10    0.68    1.25 
  -3  -5 -10    0.52    1.10 
   3  -5  11   14.81    1.35 
  -3   5 -11   15.27    1.12 
   3   5  11   15.21    1.44 
  -3   5 -11   14.14    1.43 
  -3  -5 -11   13.12    1.16 
  -3   5 -11   16.26    1.85 
  -3  -5 -11   16.20    1.48 
   3  -5  12    7.60    1.23 
  -3   5 -12    7.47    1.04 
   3   5  12    8.29    1.42 
  -3   5 -12    7.82    1.17 
  -3   5 -12    9.46    1.58 
  -3  -5 -12    8.83    1.30 
   3  -5  13   44.38    1.89 
   3   5  13   45.76    2.13 
  -3   5 -13   45.31    2.01 
  -3   5 -13   41.64    2.44 
  -3  -5 -13   46.56    2.12 
   3  -5  14  119.61    3.00 
   3   5  14  116.78    3.03 
  -3   5 -14  116.16    3.06 
  -3   5 -14  112.24    3.38 
  -3  -5 -14  117.84    3.19 
   3  -5  15   45.80    2.00 
   3   5  15   46.21    2.17 
  -3   5 -15   44.87    2.02 
  -3   5 -15   46.48    2.52 
  -3  -5 -15   42.30    2.04 
   3  -5  16   -0.04    1.17 
   3   5  16    1.08    1.55 
  -3   5 -16    0.51    1.23 
  -3   5 -16    0.96    1.70 
  -3  -5 -16   -0.26    1.40 
   3  -5  17  330.00    4.68 
   3   5  17  324.55    4.59 
  -3   5 -17  321.58    4.62 
  -3   5 -17  324.29    5.32 
   3  -5  18   14.43    1.58 
   3   5  18   14.68    1.90 
  -3   5 -18   12.82    1.55 
  -3   5 -18   13.19    1.86 
  -3  -5 -18   13.41    1.75 
   3  -5  19   59.94    2.35 
   3   5  19   58.06    2.32 
  -3   5 -19   61.29    2.39 
  -3   5 -19   57.18    2.74 
  -3  -5 -19   50.43    2.38 
   3  -5  20    2.00    1.32 
   3   5  20    3.19    1.74 
  -3   5 -20    1.25    1.23 
  -3   5 -20    0.56    1.81 
  -3  -5 -20    3.03    1.43 
   3  -5  21    1.22    1.51 
   3   5  21    2.15    1.82 
  -3   5 -21   -0.77    1.80 
  -3  -5 -21   -0.24    1.50 
   3  -5  22    2.92    1.46 
   3   5  22    4.63    1.92 
  -3   5 -22    1.69    1.91 
  -3  -5 -22    2.27    1.66 
   3  -5  23  130.87    3.04 
   3   5  23  126.34    3.31 
  -3   5 -23  129.90    3.73 
  -3  -5 -23  122.80    3.16 
  -3  -6  23    0.73    1.86 
  -3   6  23    2.11    2.01 
   3   6 -23    2.20    1.97 
  -3  -6  22   74.32    3.09 
  -3   6  22   77.48    3.15 
   3   6 -22   78.88    3.03 
  -3  -6  21   -0.25    1.75 
  -3   6  21    1.60    1.20 
  -3   6  21    2.31    1.79 
   3   6 -21   -0.36    1.73 
  -3  -6  20  275.80    4.92 
  -3   6  20  261.61    4.31 
  -3   6  20  257.66    4.96 
   3   6 -20  273.19    4.79 
  -3  -6  19    3.28    1.70 
  -3   6  19    3.36    1.27 
  -3   6  19    2.80    1.92 
   3   6 -19    2.20    1.62 
  -3  -6  18   14.43    1.73 
  -3   6  18   12.15    1.33 
  -3   6  18   12.87    2.11 
   3   6 -18   11.97    1.72 
  -3  -6  17    7.58    1.70 
  -3   6  17    6.61    1.10 
  -3   6  17    6.91    1.87 
   3   6 -17   10.60    1.61 
  -3  -6  16   91.51    2.87 
  -3   6  16   88.50    2.39 
  -3   6  16   84.47    2.95 
   3   6 -16   90.03    2.71 
  -3  -6  15   14.56    1.72 
  -3   6  15   13.98    1.29 
  -3   6  15   14.49    1.89 
   3   6 -15   12.32    1.60 
  -3  -6  14  204.19    4.18 
  -3   6  14  214.70    3.89 
  -3   6  14  234.33    4.77 
   3   6 -14  233.90    4.39 
  -3  -6  13    6.03    1.52 
  -3   6  13    7.66    1.06 
  -3   6  13    6.71    1.56 
   3   6 -13    6.71    1.50 
  -3  -6  12   17.11    1.57 
  -3   6  12   19.15    1.30 
  -3   6  12   20.59    1.73 
   3   6 -12   19.58    1.64 
  -3  -6  11    1.36    1.36 
  -3   6  11    2.49    0.88 
  -3   6  11    1.77    1.41 
   3   6 -11    1.97    1.17 
  -3   6  10   26.26    1.41 
   3   6 -10   27.33    1.63 
  -3   6   9    7.54    1.00 
   3   6  -9    8.14    1.45 
  -3   6   8  372.24    5.61 
   3   6  -8  380.53    6.03 
  -3   6   7   47.70    1.82 
   3   6  -7   48.47    1.98 
  -3   6   6   82.46    2.84 
   3   6  -6   79.20    2.51 
   3   6  -5   50.35    2.12 
  -3   6   5   55.76    2.37 
   3   6  -5   51.56    1.96 
   3   6  -4   93.18    3.09 
  -3   6   4   93.28    2.99 
   3   6  -4   94.52    2.75 
   3   6  -3    9.21    1.39 
  -3   6   3    9.85    1.54 
   3   6  -3    8.73    1.27 
   3   6  -2   30.70    1.96 
  -3   6   2   33.54    1.98 
   3   6  -2   30.87    1.67 
   3   6  -1   12.42    1.53 
  -3   6   1   14.07    1.56 
   3   6  -1   12.24    1.31 
   3   6   0   14.08    1.43 
  -3   6   0   16.59    1.58 
   3   6   0   15.27    1.32 
  -3   6   0   17.39    1.68 
  -3   6  -1    2.33    0.87 
  -3   6  -1    2.99    0.94 
   3   6   1    2.48    1.26 
  -3   6  -1    2.60    1.10 
   3   6   1    2.65    0.99 
  -3   6  -1    2.56    1.26 
  -3  -6  -1    2.82    1.05 
   3   6   2  262.45    5.31 
  -3   6  -2  249.84    5.07 
  -3   6  -2  260.15    5.25 
   3   6   2  265.32    5.11 
  -3   6  -2  262.64    5.63 
  -3   6  -3   46.42    1.73 
   3   6   3   48.65    2.11 
  -3   6  -3   48.52    2.13 
   3   6   3   46.72    1.87 
  -3   6  -3   45.65    2.27 
  -3  -6  -3   44.26    2.04 
   3  -6   4   71.26    2.40 
  -3   6  -4   68.86    2.16 
   3   6   4   72.09    2.61 
  -3   6  -4   70.52    2.61 
   3   6   4   73.84    2.40 
  -3   6  -4   66.70    2.79 
  -3  -6  -4   75.92    2.62 
   3  -6   5   34.68    1.69 
  -3   6  -5   32.90    1.54 
   3   6   5   38.42    2.02 
  -3   6  -5   38.15    1.89 
   3   6   5   33.43    1.66 
  -3   6  -5   37.11    2.17 
  -3  -6  -5   33.04    1.78 
   3  -6   6   49.47    1.98 
  -3   6  -6   48.50    1.82 
   3   6   6   46.21    2.03 
   3   6   6   51.08    2.08 
  -3   6  -6   49.42    2.10 
  -3   6  -6   47.02    2.35 
  -3  -6  -6   51.03    2.21 
   3  -6   7   35.68    1.70 
  -3   6  -7   31.28    1.55 
   3   6   7   36.41    1.88 
   3   6   7   34.35    1.74 
  -3   6  -7   34.67    1.88 
  -3   6  -7   35.69    2.17 
  -3  -6  -7   36.99    1.87 
   3  -6   8  410.06    4.97 
  -3   6  -8  401.17    4.66 
   3   6   8  415.96    5.20 
  -3   6  -8  414.76    5.30 
  -3  -6  -8  394.07    5.65 
  -3   6  -8  393.84    5.77 
  -3  -6  -8  415.39    5.54 
   3  -6   9    8.65    1.21 
  -3   6  -9   10.38    1.08 
   3   6   9   10.61    1.59 
  -3   6  -9   12.38    1.49 
  -3  -6  -9    8.57    1.10 
  -3   6  -9   11.79    1.76 
  -3  -6  -9    9.82    1.37 
   3  -6  10   26.19    1.60 
  -3   6 -10   26.53    1.42 
   3   6  10   26.86    1.85 
  -3   6 -10   26.92    1.62 
  -3   6 -10   24.14    1.99 
  -3  -6 -10   25.95    1.76 
   3  -6  11    5.90    1.17 
  -3   6 -11    6.03    1.07 
   3   6  11    6.77    1.50 
  -3   6 -11    6.49    1.38 
  -3   6 -11    4.58    1.62 
  -3  -6 -11    4.93    1.36 
   3  -6  12    9.65    1.22 
   3   6  12    7.99    1.42 
  -3   6 -12   10.63    1.53 
  -3   6 -12   10.27    1.92 
  -3  -6 -12   10.77    1.53 
   3  -6  13    1.09    1.10 
   3   6  13    1.56    1.41 
  -3   6 -13    0.31    1.31 
  -3   6 -13   -0.54    1.71 
  -3  -6 -13    1.38    1.17 
   3  -6  14  188.34    3.44 
   3   6  14  185.55    3.68 
  -3   6 -14  189.63    3.60 
  -3   6 -14  196.87    4.32 
  -3  -6 -14  184.86    3.70 
   3  -6  15   53.03    2.07 
   3   6  15   50.21    2.30 
  -3   6 -15   51.58    2.06 
  -3   6 -15   51.73    2.63 
  -3  -6 -15   49.38    2.18 
   3  -6  16  107.01    3.07 
   3   6  16   98.21    3.03 
  -3   6 -16  107.10    3.19 
  -3   6 -16  101.37    3.51 
  -3  -6 -16  102.92    3.30 
   3  -6  17    0.72    1.20 
   3   6  17   -0.45    1.55 
  -3   6 -17    0.47    1.32 
  -3   6 -17   -1.79    1.72 
  -3  -6 -17   -0.21    1.27 
   3  -6  18    1.07    1.21 
   3   6  18    0.17    1.45 
  -3   6 -18    1.09    1.23 
  -3   6 -18   -1.67    1.67 
  -3  -6 -18    0.56    1.34 
   3  -6  19    2.90    1.52 
   3   6  19    2.59    1.54 
  -3   6 -19    1.95    1.26 
  -3   6 -19    2.77    1.98 
  -3  -6 -19    1.52    1.31 
   3   6  20   47.23    2.39 
  -3   6 -20   45.28    2.08 
  -3   6 -20   47.76    2.50 
  -3  -6 -20   41.39    2.16 
   3   6  21    7.11    2.11 
  -3   6 -21    6.07    1.87 
  -3  -6 -21    4.40    1.68 
  -3  -7  22    7.87    1.93 
  -3   7  22    1.27    2.02 
   3   7 -22    4.85    1.89 
  -3  -7  21    4.39    1.88 
  -3   7  21    7.46    1.89 
   3   7 -21    1.92    1.82 
  -3   7  20   53.46    2.60 
   3   7 -20   48.38    2.31 
  -3   7  19    6.89    1.83 
   3   7 -19    2.50    1.77 
  -3   7  18   81.58    2.99 
   3   7 -18   85.89    2.76 
  -3   7  17    5.68    1.79 
   3   7 -17    4.95    1.53 
  -3   7  16    0.19    1.55 
   3   7 -16   -2.65    1.59 
  -3   7  15   22.61    1.46 
  -3   7  15   24.99    1.97 
   3   7 -15   23.51    1.78 
  -3   7  14   40.49    1.72 
  -3   7  14   39.84    2.25 
   3   7 -14   40.06    2.02 
  -3   7  13   78.81    2.26 
  -3   7  13   77.17    2.87 
   3   7 -13   77.18    2.62 
  -3   7  12   14.02    1.22 
  -3   7  12   13.70    1.91 
   3   7 -12   13.22    1.69 
  -3   7  11   92.27    2.46 
  -3   7  11   96.61    3.06 
   3   7 -11  101.02    2.83 
  -3   7  10    7.94    1.05 
   3   7 -10    7.56    1.50 
  -3   7   9   19.01    1.29 
   3   7  -9   18.78    1.65 
  -3   7   8   39.44    1.62 
   3   7  -8   37.43    1.96 
  -3   7   7   73.92    2.10 
   3   7  -7   81.29    2.53 
   3   7  -6    0.15    1.39 
  -3   7   6    1.57    1.27 
   3   7  -6   -0.71    1.15 
  -3   7   5  111.21    2.52 
  -3   7   5  120.59    2.67 
   3   7  -5  124.45    3.19 
  -3   7   5  120.61    3.15 
   3   7  -5  125.04    2.88 
   3   7  -4    4.51    1.58 
  -3   7   4    4.05    1.35 
   3   7  -4    3.55    1.25 
   3   7  -3   39.01    1.98 
  -3   7   3   40.83    2.09 
   3   7  -3   39.61    1.79 
   3   7  -2    0.89    1.36 
  -3   7   2    0.68    1.30 
   3   7  -2    0.15    1.19 
   3   7  -1  500.66    7.66 
  -3   7   1  527.61    7.80 
   3   7  -1  520.96    7.46 
   3   7   0    3.88    1.52 
  -3   7   0    1.28    1.14 
   3   7   0    0.85    1.06 
  -3   7  -1  281.95    4.89 
   3   7   1  294.75    4.62 
  -3   7  -1  296.03    4.73 
   3   7   1  305.11    4.34 
  -3   7  -1  302.14    5.16 
  -3   7  -2    9.03    1.28 
   3   7   2    8.49    1.51 
  -3   7  -2    9.01    1.11 
  -3   7  -2   12.06    1.53 
   3   7   2    9.68    1.26 
  -3   7  -2    8.53    1.59 
  -3  -7  -2   10.48    1.65 
   3   7   3    2.80    1.27 
  -3   7  -3    3.41    0.98 
  -3   7  -3    4.17    1.26 
   3   7   3    2.76    1.07 
  -3   7  -3    4.91    1.63 
  -3  -7  -3    3.87    1.11 
  -3   7  -4   39.68    1.70 
   3   7   4   43.80    2.06 
  -3   7  -4   42.32    2.00 
   3   7   4   45.42    1.94 
  -3   7  -4   44.91    2.42 
  -3  -7  -4   43.49    2.09 
  -3   7  -5   19.06    1.35 
   3   7   5   20.70    1.67 
  -3   7  -5   21.20    1.58 
   3   7   5   19.86    1.41 
  -3   7  -5   17.87    1.88 
  -3  -7  -5   21.87    1.54 
   3   7   6   57.73    2.31 
   3   7   6   58.39    2.16 
  -3   7  -6   58.22    2.22 
  -3   7  -6   60.58    2.75 
  -3  -7  -6   57.24    2.22 
   3   7   7    7.13    1.48 
  -3   7  -7    7.87    1.44 
  -3  -7  -7    6.46    1.03 
  -3   7  -7    6.82    1.57 
  -3  -7  -7    6.72    1.24 
   3   7   8   11.84    1.45 
  -3   7  -8   11.01    1.58 
  -3   7  -8   11.07    1.87 
  -3  -7  -8   14.42    1.41 
   3   7   9    8.89    1.55 
  -3   7  -9    7.06    1.47 
  -3   7  -9    7.76    1.82 
  -3  -7  -9    7.72    1.41 
   3   7  10   43.57    2.23 
  -3   7 -10   43.91    1.98 
  -3   7 -10   42.31    2.38 
  -3  -7 -10   43.36    2.08 
   3   7  11   14.10    1.58 
  -3   7 -11   14.51    1.50 
  -3   7 -11   14.40    1.87 
  -3  -7 -11   14.22    1.53 
   3   7  12  167.36    3.43 
  -3   7 -12  165.36    3.47 
  -3   7 -12  161.04    3.91 
  -3  -7 -12  159.99    3.49 
   3   7  13    2.65    1.51 
  -3   7 -13    0.67    1.39 
  -3   7 -13    0.58    1.67 
  -3  -7 -13    2.62    1.24 
   3   7  14   18.12    1.72 
  -3   7 -14   21.26    1.68 
  -3   7 -14   20.16    2.24 
  -3  -7 -14   18.46    1.71 
   3   7  15   14.07    1.89 
  -3   7 -15   14.14    1.55 
  -3   7 -15   12.98    1.95 
  -3  -7 -15   13.85    1.50 
   3   7  16   39.63    2.18 
  -3   7 -16   40.74    1.99 
  -3   7 -16   41.31    2.42 
  -3  -7 -16   34.59    2.01 
   3   7  17   37.36    1.97 
  -3   7 -17   40.22    2.00 
  -3   7 -17   39.91    2.52 
  -3  -7 -17   28.12    1.80 
   3   7  18   49.30    2.33 
  -3   7 -18   47.69    2.13 
  -3   7 -18   47.37    2.52 
   3   7  19   15.64    1.94 
  -3   7 -19   13.93    1.66 
  -3   7 -19   16.96    2.16 
  -3  -7 -19    8.75    1.36 
   3   7  20    5.27    1.60 
  -3   7 -20    2.97    1.48 
  -3   7 -20    0.93    2.06 
  -3  -7 -20    0.21    1.40 
  -3   8  20   89.93    3.09 
   3   8 -20   96.46    3.01 
  -3   8  19    1.13    1.95 
   3   8 -19   -0.81    1.74 
  -3   8  18    7.81    2.06 
   3   8 -18   10.54    1.96 
  -3   8  17    6.00    1.98 
   3   8 -17    6.56    1.80 
  -3   8  16   26.44    2.29 
   3   8 -16   20.79    2.10 
  -3   8  15   15.97    2.16 
   3   8 -15   18.80    1.92 
  -3   8  14  107.91    3.57 
   3   8 -14  104.28    3.19 
  -3  -8  13    6.18    1.82 
  -3   8  13    7.95    1.78 
   3   8 -13    6.81    1.74 
  -3  -8  12    8.63    1.83 
  -3   8  12   10.06    1.86 
   3   8 -12    6.93    1.61 
  -3  -8  11   51.21    2.25 
  -3   8  11   51.14    2.45 
   3   8 -11   51.96    2.28 
  -3  -8  10   13.93    1.80 
  -3   8  10   14.16    1.72 
   3   8 -10   17.92    1.61 
  -3  -8   9  148.14    3.39 
   3   8  -9  141.90    3.13 
  -3  -8   8   22.03    1.95 
   3   8  -8   20.24    1.64 
   3   8  -7    1.35    1.33 
   3   8  -7   -0.35    1.37 
   3   8  -6   34.72    2.14 
   3   8  -6   38.41    1.86 
   3   8  -5  118.19    3.25 
  -3   8   5  120.37    3.36 
   3   8  -5  119.97    3.05 
   3   8  -4   22.01    1.96 
  -3   8   4   21.70    1.94 
   3   8  -4   19.09    1.63 
   3   8  -3  156.63    3.56 
  -3   8   3  160.13    3.51 
   3   8  -3  159.82    3.29 
   3   8  -2   12.55    1.67 
  -3   8   2   12.84    1.60 
   3   8  -2   11.39    1.39 
  -3   8   1   79.16    2.28 
   3   8  -1   72.18    2.51 
  -3   8   1   76.80    2.56 
   3   8  -1   80.15    2.41 
  -3   8   0    1.74    0.89 
   3   8   0    2.39    1.49 
  -3   8   0    0.95    1.30 
   3   8   0    1.59    1.29 
  -3   8  -1  128.49    2.91 
   3   8   1  127.15    3.14 
  -3   8  -1  125.64    3.11 
   3   8   1  130.03    3.01 
   3   8   2   70.16    2.60 
  -3   8  -2   62.71    2.14 
  -3   8  -2   70.26    2.48 
   3   8   2   69.04    2.30 
  -3   8  -2   66.01    2.79 
   3   8   3  111.89    3.16 
  -3   8  -3  109.42    2.94 
  -3   8  -3  111.91    3.08 
   3   8   3  116.14    3.05 
  -3   8  -3  107.00    3.35 
   3   8   4   22.04    1.96 
  -3   8  -4   19.50    1.48 
  -3   8  -4   23.98    1.82 
   3   8   4   21.35    1.52 
  -3   8  -4   21.72    1.97 
   3   8   5   66.08    2.40 
  -3   8  -5   62.76    2.47 
   3   8   5   62.41    2.21 
  -3   8  -5   65.03    2.67 
   3   8   6   63.76    2.42 
  -3   8  -6   63.68    2.39 
  -3   8  -6   61.23    2.66 
  -3  -8  -6   63.63    2.32 
   3   8   7    4.14    1.58 
  -3   8  -7    2.28    1.33 
  -3   8  -7    2.84    1.69 
  -3  -8  -7    2.21    1.07 
   3   8   8  201.02    3.77 
  -3   8  -8  206.82    3.94 
  -3   8  -8  208.16    4.34 
  -3  -8  -8  211.56    3.95 
   3   8   9   58.34    2.46 
  -3   8  -9   53.74    2.32 
  -3   8  -9   56.46    2.77 
  -3  -8  -9   58.25    2.30 
   3   8  10   83.00    2.68 
  -3   8 -10   78.37    2.64 
  -3   8 -10   86.70    3.11 
  -3  -8 -10   84.10    2.70 
   3   8  11    2.16    1.61 
  -3   8 -11    0.86    1.30 
  -3   8 -11    0.81    1.64 
  -3  -8 -11    2.63    1.27 
   3   8  12   20.84    1.87 
  -3   8 -12   20.43    1.84 
  -3   8 -12   21.88    2.00 
  -3  -8 -12   20.94    1.65 
   3   8  13    8.48    1.58 
  -3   8 -13    7.71    1.47 
  -3   8 -13    7.37    2.01 
  -3  -8 -13    5.65    1.44 
   3   8  14   73.60    2.62 
  -3   8 -14   75.93    2.57 
  -3   8 -14   72.20    2.89 
  -3  -8 -14   74.82    2.59 
   3   8  15   12.58    1.82 
  -3   8 -15   12.86    1.64 
  -3   8 -15   10.54    2.06 
  -3  -8 -15    9.41    1.59 
   3   8  16   59.28    2.49 
  -3   8 -16   58.32    2.49 
  -3   8 -16   60.78    2.91 
  -3  -8 -16   51.47    2.21 
   3   8  17    3.00    1.71 
  -3   8 -17    1.39    1.52 
  -3   8 -17    2.89    1.97 
  -3  -8 -17    1.24    1.39 
  -3   8 -18   -2.27    1.32 
  -3   8 -18    0.04    1.73 
  -3  -8 -18    0.99    1.27 
  -3   9  17   -0.14    1.91 
  -3  -9  16   32.59    2.18 
  -3   9  16   29.19    2.35 
   3   9 -16   31.59    2.20 
  -3  -9  15   10.29    2.03 
  -3   9  15    9.11    1.93 
   3   9 -15   13.78    1.72 
  -3  -9  14   25.16    2.11 
  -3   9  14   26.49    2.15 
   3   9 -14   28.09    2.10 
  -3  -9  13   45.03    2.39 
  -3   9  13   47.69    2.43 
   3   9 -13   48.62    2.27 
  -3  -9  12  159.16    3.76 
  -3   9  12  165.60    3.94 
   3   9 -12  164.04    3.54 
  -3  -9  11   29.12    1.99 
   3   9 -11   26.69    1.92 
  -3  -9  10   40.41    2.31 
  -3   9  10   38.39    2.35 
   3   9 -10   40.09    2.00 
  -3  -9   9    0.67    1.64 
  -3   9   9   -0.79    1.63 
   3   9  -9    0.42    1.59 
   3   9  -8    2.44    1.59 
   3   9  -8    6.12    1.50 
   3   9  -7   43.42    2.37 
   3   9  -7   48.12    2.02 
   3   9  -6   -2.99    1.66 
   3   9  -6    0.52    1.42 
   3   9  -5   52.76    2.49 
   3   9  -5   52.30    2.20 
   3   9  -4   58.70    2.44 
  -3   9   4   64.28    2.50 
   3   9  -4   57.13    2.23 
   3   9  -3    4.29    1.72 
  -3   9   3    5.16    1.60 
   3   9  -3    2.52    1.45 
   3   9  -2  130.61    3.29 
  -3   9   2  129.15    3.31 
   3   9  -2  125.52    3.03 
   3   9  -1   87.20    2.85 
  -3   9   1   88.60    2.96 
   3   9  -1   91.79    2.70 
   3   9   0   72.27    2.51 
  -3   9   0   71.27    2.67 
   3   9   0   73.01    2.40 
   3   9   1  158.13    3.59 
  -3   9  -1  160.75    3.53 
   3   9   1  159.69    3.30 
   3   9   2    5.78    1.77 
  -3   9  -2    4.00    1.72 
   3   9   2    6.88    1.40 
   3   9   3   18.37    1.96 
  -3   9  -3   18.65    1.82 
   3   9   3   18.18    1.56 
   3   9   4  123.18    3.26 
  -3   9  -4  139.90    3.38 
   3   9   4  137.99    3.16 
  -3   9  -4  139.44    3.75 
  -3   9  -5    3.52    1.55 
  -3   9  -5    3.67    1.57 
  -3   9  -6  256.46    4.33 
  -3   9  -6  255.43    4.80 
  -3   9  -7   22.76    1.84 
  -3   9  -7   23.99    2.18 
  -3   9  -8   59.96    2.56 
  -3   9  -8   66.02    2.94 
  -3   9  -9   42.95    2.43 
  -3   9  -9   41.73    2.53 
  -3   9 -10   73.72    2.58 
  -3   9 -10   77.05    3.08 
  -3   9 -11   29.37    2.17 
  -3   9 -11   30.27    2.40 
  -3   9 -12  404.60    5.19 
  -3   9 -12  395.55    5.80 
  -3   9 -13    7.52    1.64 
  -3   9 -13    5.00    1.85 
  -3   9 -14   31.72    1.98 
  -3   9 -14   29.05    2.35 
  -3   9 -15    6.64    1.57 
  -3   9 -15    6.63    1.96 
  -3   9 -16   28.62    2.03 
  -3   9 -16   24.05    2.24 
  -3 -10  14    9.72    2.52 
  -3  10  14   11.72    2.01 
   3  10 -14   11.95    2.03 
  -3 -10  13    7.69    1.97 
  -3  10  13    4.88    1.88 
   3  10 -13    5.85    1.66 
  -3 -10  12    2.82    1.89 
  -3  10  12   -0.98    1.75 
   3  10 -12   -0.60    1.48 
  -3 -10  11   90.58    3.26 
  -3  10  11   90.40    3.37 
   3  10 -11   87.54    2.98 
  -3  10  10    8.03    2.08 
   3  10 -10    7.56    1.75 
  -3  10   9  138.83    3.49 
   3  10  -9  140.42    3.19 
  -3  10   8   30.81    2.32 
   3  10  -8   34.04    2.03 
   3  10  -7    2.27    1.54 
   3  10  -6    6.49    1.45 
   3  10  -5  126.43    3.23 
  -3  10   4    6.55    1.92 
   3  10  -4    8.45    1.46 
  -3  10   3  176.54    4.46 
   3  10  -3  178.80    4.24 
  -3  10   2    1.20    1.68 
   3  10  -2   -0.08    1.27 
  -3  10   1   44.61    2.34 
   3  10  -1   52.55    2.36 
  -3  10   0    0.08    1.61 
   3  10   0    0.63    1.29 
  -3  10  -1   14.91    1.85 
   3  10   1   13.58    1.63 
  -3  10  -2    7.06    1.84 
   3  10   2    8.89    1.49 
  -3  10  -3  203.53    4.18 
  -3  10  -4    5.09    1.74 
  -3  10  -5   28.49    2.09 
  -3  10  -6    8.00    1.81 
  -3  10  -6    5.97    1.75 
  -3  10  -7    2.21    1.69 
  -3  10  -7    1.27    1.66 
  -3  10  -8    7.14    1.64 
  -3  10  -8    4.77    2.01 
  -3  10  -9   56.74    2.47 
  -3  10  -9   54.07    2.65 
  -3  10 -10   10.43    1.76 
  -3  10 -10    5.63    1.88 
  -3  10 -11   27.96    1.99 
  -3  10 -11   24.37    2.37 
   3  10  12    0.00    1.42 
  -3  10 -12    2.70    1.51 
  -3  10 -12   -2.00    1.74 
   3  10  13   19.87    1.93 
  -3  10 -13   21.87    1.97 
  -3  10 -13   20.08    2.20 
  -3  11  10   46.56    2.64 
   3  11 -10   47.28    2.52 
  -3  11   9   13.76    1.92 
   3  11  -9   16.04    1.88 
  -3  11   8    1.21    1.87 
   3  11  -8    2.07    1.73 
   3  11  -7    3.29    1.65 
   3  11  -6   10.56    1.76 
   3  11  -5    0.17    1.67 
   3  11  -4   45.72    2.18 
   3  11  -3    5.60    1.78 
  -3  11   3    6.51    1.92 
   3  11  -3    6.89    1.61 
   3  11  -2   25.45    2.13 
  -3  11   2   23.99    2.14 
   3  11  -2   26.35    1.94 
   3  11  -1    3.22    1.83 
  -3  11   1    1.62    1.66 
   3  11  -1    3.64    1.50 
   3  11   0    6.71    1.93 
  -3  11   0    6.41    1.90 
   3  11   0    7.03    1.47 
   3  11   1    1.32    1.52 
  -3  11  -1    1.01    1.81 
   3  11   2    4.94    1.75 
  -3  11  -2    2.45    1.85 
   3  11   3    3.05    1.87 
  -3  11  -3    1.04    1.80 
   3  11   4   96.42    3.32 
  -3  11  -4   92.90    3.28 
   3  11   5   20.30    2.11 
  -3  11  -5   23.16    2.01 
   3  11   6   76.88    2.68 
  -3  11  -6   74.30    2.69 
   3  11   7   19.30    2.09 
  -3  11  -7   20.83    2.06 
   3  11   8    3.67    1.87 
  -3  11  -8    7.38    1.81 
  -3  11  -8    5.38    1.96 
  -4   0  25    0.15    1.58 
  -4   0  24   12.31    1.66 
  -4   0  23   -1.05    1.30 
  -4   0  22  347.07    4.72 
  -4   0  21   -0.36    1.23 
  -4   0  20   51.57    2.27 
  -4   0  19   -1.14    1.31 
  -4   0  18    1.37    1.32 
  -4   0  17    0.61    1.08 
  -4   0  16   34.19    1.76 
  -4   0  16   33.60    2.03 
  -4   0  15    0.15    1.14 
  -4   0  15   -1.38    1.45 
  -4   0  14  171.47    3.44 
  -4   0  14  170.68    3.60 
  -4   0  13    0.06    1.04 
  -4   0  13   -0.11    1.26 
  -4   0  12    6.48    1.25 
  -4   0  12    5.69    1.35 
  -4   0  11    0.71    0.98 
   4   0 -11    0.31    0.79 
  -4   0  11    1.34    1.30 
  -4   0  10    8.55    1.18 
   4   0 -10    7.30    0.98 
  -4   0  10    8.52    1.33 
  -4   0   9   -0.15    0.88 
   4   0  -9    0.00    0.69 
  -4   0   9    0.01    1.20 
  -4   0   8  139.78    3.59 
   4   0  -8  143.20    3.33 
  -4   0   8  134.30    3.81 
  -4   0   7   -0.29    0.86 
   4   0  -7   -0.21    0.63 
  -4   0   7    0.98    0.99 
   4   0  -7    1.09    0.91 
   4   0  -7   -0.96    1.06 
   4   0  -6  256.98    5.06 
   4   0  -6  268.50    5.55 
  -4   0   6  266.74    5.53 
   4   0  -6  263.04    5.36 
   4   0  -6  268.71    5.70 
   4   0  -5   -0.18    0.68 
   4   0  -5   -0.02    0.97 
  -4   0   5    0.24    0.96 
   4   0  -5    0.34    0.94 
   4   0  -5   -0.02    0.95 
   4   0  -4   85.12    2.38 
   4   0  -4   91.91    2.74 
  -4   0   4   88.96    2.70 
   4   0  -4   81.50    2.53 
   4   0  -4   86.37    2.82 
   4   0  -3    0.27    0.70 
   4   0  -3    1.18    0.95 
  -4   0   3    0.95    0.98 
   4   0  -3    1.10    0.86 
  -4   0   3    0.21    1.11 
   4   0  -3    0.52    0.96 
   4   0  -2   51.69    1.92 
   4   0  -2   53.06    2.08 
  -4   0   2   54.47    2.19 
   4   0  -2   51.25    2.01 
  -4   0   2   52.15    2.37 
   4   0  -2   52.77    2.28 
   4   0  -1    0.06    0.67 
   4   0  -1    0.83    0.81 
  -4   0   1    0.63    0.85 
   4   0  -1    0.80    0.81 
  -4   0   1    0.55    1.03 
   4   0  -1    0.02    1.01 
   4   0   0  349.16    5.53 
   4   0   0  353.47    5.62 
  -4   0   0  354.60    5.83 
   4   0   0  341.73    5.58 
  -4   0   0  352.67    6.30 
   4   0   0  354.73    5.88 
   4   0   1    0.12    0.84 
   4   0   1    0.59    0.86 
  -4   0  -1    0.11    0.83 
   4   0   1    0.32    0.73 
  -4   0  -1    0.47    1.02 
   4   0   1    0.35    1.03 
   4   0   2  526.37    7.26 
   4   0   2  535.53    7.26 
  -4   0  -2  515.92    7.42 
   4   0   2  494.08    7.34 
  -4   0  -2  519.44    7.95 
   4   0   2  530.54    7.55 
   4   0   3   -0.32    0.82 
   4   0   3    1.21    0.89 
  -4   0  -3   -0.06    0.86 
   4   0   3   -0.03    0.69 
  -4   0  -3    1.35    1.30 
   4   0   4   70.48    2.35 
  -4   0  -4   71.78    2.46 
  -4   0  -4   70.60    2.47 
   4   0   4   69.79    2.32 
  -4   0  -4   72.81    2.87 
   4   0   5    1.60    0.89 
  -4   0  -5    0.62    0.92 
   4   0   5    0.32    0.72 
  -4   0  -5    0.65    1.28 
   4   0   6  216.64    4.54 
  -4   0  -6  218.10    4.71 
  -4   0  -6  217.95    5.17 
   4   0   7   -0.09    0.87 
  -4   0  -7   -0.04    0.99 
  -4   0  -7    0.23    1.18 
   4   0   8 1082.80   15.08 
  -4   0  -8 1111.42   15.42 
  -4   0  -8 1082.50   15.68 
   4   0   9   -0.31    1.06 
  -4   0  -9    0.98    0.88 
  -4   0  -9   -0.90    1.22 
   4   0  10   88.66    2.66 
  -4   0 -10   84.16    2.96 
   4   0  11    0.82    1.14 
  -4   0 -11   -0.12    1.25 
   4   0  12   70.44    2.42 
  -4   0 -12   72.14    2.85 
   4   0  13   -0.08    1.51 
  -4   0 -13   -0.27    1.40 
   4   0  14   74.42    2.53 
  -4   0 -14   74.22    2.88 
   4   0  15    5.47    1.44 
  -4   0 -15    0.84    1.70 
   4   0  16    0.96    1.78 
  -4   0 -16    2.00    1.56 
   4   0  17   -0.80    1.43 
  -4   0 -17    1.22    1.70 
   4   0  18    6.19    1.63 
  -4   0 -18    5.94    1.78 
   4   0  19    1.13    1.69 
  -4   0 -19   -0.59    1.72 
   4   0  20    0.22    1.79 
  -4   0 -20    3.19    1.71 
   4   0  21   -0.42    1.85 
  -4   0 -21   -1.94    1.92 
   4   0  22    3.91    1.86 
  -4   0 -22    4.05    2.00 
  -4  -1  25   -0.41    1.73 
  -4   1  25   -1.79    1.38 
  -4  -1  24    9.42    1.61 
  -4   1  24    9.65    1.59 
  -4  -1  23    0.62    1.65 
  -4   1  23    0.35    1.49 
  -4  -1  22    2.91    1.51 
  -4   1  22    1.50    1.25 
  -4  -1  21   85.32    2.67 
  -4   1  21   83.81    2.56 
  -4  -1  20   20.25    1.76 
  -4   1  20   24.18    1.79 
  -4  -1  19  171.81    3.55 
  -4   1  19  166.29    3.31 
  -4  -1  18    5.56    1.50 
  -4   1  18    7.51    1.37 
  -4  -1  17   -1.83    1.08 
  -4   1  17   -0.15    1.14 
  -4   1  17    0.18    1.44 
  -4  -1  16    6.08    1.26 
  -4   1  16    6.14    1.30 
  -4   1  16    5.33    1.41 
  -4  -1  15  247.05    4.15 
  -4   1  15  238.25    3.94 
  -4   1  15  241.94    4.38 
  -4  -1  14   61.92    2.31 
  -4   1  14   55.81    2.11 
  -4   1  14   62.18    2.50 
  -4  -1  13  329.45    4.73 
  -4   1  13  340.74    4.74 
  -4   1  13  320.26    4.89 
  -4  -1  12   19.50    1.56 
  -4   1  12   21.86    1.59 
  -4   1  12   17.48    1.50 
  -4  -1  11  123.26    3.16 
  -4   1  11  119.16    3.13 
   4   1 -11  123.93    2.79 
  -4   1  11  124.18    3.39 
  -4  -1  10    6.20    1.27 
  -4   1  10    5.86    1.09 
   4   1 -10    6.56    0.91 
  -4   1  10    6.08    1.45 
   4   1 -10    4.71    1.16 
  -4  -1   9   44.53    1.95 
  -4   1   9   42.27    1.84 
   4   1  -9   43.56    1.70 
   4  -1  -9   40.78    1.56 
  -4   1   9   41.55    2.02 
   4   1  -9   39.81    2.00 
  -4  -1   8    1.80    1.05 
  -4   1   8   -0.26    0.85 
   4   1  -8    0.55    0.77 
   4  -1  -8    1.00    0.75 
  -4   1   8    1.10    1.05 
   4   1  -8    1.12    0.92 
  -4   1   7  158.58    3.90 
  -4  -1   7  159.07    3.91 
   4   1  -7  163.04    3.71 
   4  -1  -7  166.76    3.65 
  -4   1   7  160.42    4.10 
   4   1  -7  161.15    3.91 
   4   1  -7  156.20    4.04 
   4   1  -6   -0.02    0.78 
   4  -1  -6    0.31    0.71 
   4  -1  -6    0.12    0.82 
   4   1  -6    0.77    1.01 
  -4   1   6    0.60    1.13 
   4   1  -6    0.04    0.89 
   4  -1  -6    0.82    1.08 
   4   1  -6   -0.28    0.78 
   4   1  -5  145.27    3.17 
   4  -1  -5  136.22    3.02 
   4  -1  -5  144.70    3.42 
   4   1  -5  149.46    3.54 
  -4   1   5  149.96    3.67 
   4   1  -5  139.03    3.25 
   4  -1  -5  145.05    3.36 
   4   1  -5  135.77    3.49 
   4   1  -4   77.91    2.31 
   4  -1  -4   79.18    2.26 
   4  -1  -4   77.75    2.44 
   4   1  -4   78.82    2.56 
  -4   1   4   78.28    2.64 
   4   1  -4   71.91    2.36 
   4  -1  -4   78.39    2.47 
   4   1  -4   75.81    2.57 
   4   1  -3   18.82    1.29 
   4  -1  -3   19.83    1.25 
   4  -1  -3   20.23    1.41 
   4   1  -3   18.43    1.39 
  -4   1   3   19.82    1.53 
   4   1  -3   19.44    1.39 
   4  -1  -3   19.79    1.40 
  -4   1   3   20.44    1.79 
   4   1  -3   20.14    1.54 
   4   1  -2    2.93    0.90 
   4  -1  -2    1.64    0.75 
   4  -1  -2    2.67    0.85 
   4   1  -2    2.42    0.93 
  -4   1   2    2.40    1.00 
   4   1  -2    2.72    0.86 
   4  -1  -2    2.96    0.94 
  -4   1   2    2.64    1.10 
  -4  -1   2    1.97    0.98 
   4   1  -2    2.32    1.00 
   4   1  -1  130.65    3.04 
   4  -1  -1  126.36    3.02 
   4  -1  -1  134.56    3.13 
   4   1  -1  134.16    3.23 
  -4   1   1  137.59    3.44 
   4   1  -1  119.43    3.04 
   4  -1  -1  129.74    3.15 
  -4   1   1  135.39    3.71 
  -4  -1   1  139.57    3.77 
   4   1  -1  130.70    3.32 
   4   1   0   15.46    1.27 
   4  -1   0   15.44    1.21 
   4  -1   0   14.66    1.20 
   4   1   0   12.56    1.26 
  -4   1   0   15.62    1.35 
   4   1   0   13.34    1.23 
   4  -1   0   12.76    1.15 
  -4   1   0   13.59    1.47 
  -4  -1   0   13.87    1.57 
   4   1   0   13.73    1.31 
   4   1   1   46.16    1.93 
   4  -1   1   48.08    1.91 
   4  -1   1   48.32    1.86 
   4   1   1   49.86    2.02 
  -4   1  -1   49.17    2.15 
   4   1   1   47.47    1.93 
   4  -1   1   45.22    1.87 
  -4   1  -1   47.22    2.34 
  -4  -1  -1   45.52    2.17 
   4   1   1   45.87    1.99 
   4   1   2  102.81    2.76 
   4  -1   2  103.30    2.76 
   4  -1   2  102.45    2.67 
   4   1   2  102.05    2.78 
  -4   1  -2  102.01    2.96 
   4   1   2   94.52    2.71 
   4  -1   2  101.81    2.72 
  -4   1  -2  100.47    3.25 
  -4  -1  -2   98.47    3.08 
   4   1   2  101.05    2.87 
   4   1   3   16.41    1.29 
   4  -1   3   19.81    1.28 
   4   1   3   16.83    1.35 
  -4   1  -3   17.71    1.35 
  -4   1  -3   17.52    1.38 
   4   1   3   16.41    1.26 
   4  -1   3   15.67    1.19 
  -4   1  -3   17.48    1.67 
  -4  -1  -3   18.27    1.69 
   4   1   3   18.54    1.40 
   4  -1   4  102.67    2.81 
   4   1   4   98.57    2.81 
  -4   1  -4  101.85    2.96 
  -4  -1  -4  101.06    2.99 
  -4   1  -4   98.93    3.07 
   4   1   4   95.01    2.74 
   4  -1   4   95.96    2.81 
  -4   1  -4  104.26    3.40 
  -4  -1  -4  101.29    3.33 
   4   1   4   98.31    2.88 
   4  -1   5    2.34    0.89 
   4   1   5    3.05    1.09 
  -4   1  -5    3.89    0.92 
  -4  -1  -5    4.00    0.94 
  -4   1  -5    3.01    0.93 
   4  -1   5    3.45    0.83 
  -4   1  -5    3.45    1.38 
  -4  -1  -5    3.22    1.30 
   4  -1   6   14.83    1.36 
   4   1   6   16.48    1.40 
  -4   1  -6   16.01    1.29 
  -4  -1  -6   15.97    1.29 
  -4   1  -6   15.50    1.34 
  -4   1  -6   16.09    1.56 
  -4  -1  -6   13.23    1.67 
   4  -1   7    1.90    1.08 
   4   1   7    1.41    1.04 
  -4   1  -7    1.58    0.90 
  -4  -1  -7    1.37    1.01 
  -4   1  -7    1.59    0.87 
  -4   1  -7    0.30    1.23 
  -4  -1  -7    2.05    1.43 
   4  -1   8    7.13    1.12 
   4   1   8    4.76    1.00 
  -4   1  -8    6.13    1.07 
  -4   1  -8    5.46    1.09 
  -4   1  -8    7.13    1.67 
  -4  -1  -8    6.76    1.48 
   4  -1   9    3.31    1.27 
   4   1   9    3.64    1.18 
  -4   1  -9    4.80    1.00 
  -4   1  -9    5.48    1.58 
  -4   1  -9    4.64    1.49 
  -4  -1  -9    3.44    1.38 
   4  -1  10  148.07    3.30 
   4   1  10  141.71    3.27 
  -4   1 -10  144.06    3.32 
  -4   1 -10  149.05    3.98 
  -4  -1 -10  145.41    3.88 
   4  -1  11  244.64    3.93 
   4   1  11  245.56    3.81 
  -4   1 -11  245.73    4.61 
  -4  -1 -11  249.68    4.55 
   4  -1  12   12.62    1.60 
   4   1  12   11.65    1.54 
  -4   1 -12   10.88    1.63 
  -4  -1 -12   12.57    1.64 
   4  -1  13    2.96    1.46 
   4   1  13    2.50    1.49 
  -4   1 -13    4.27    1.64 
  -4  -1 -13    2.90    1.53 
   4  -1  14   -0.60    1.50 
   4   1  14   -0.40    1.52 
  -4   1 -14   -0.25    1.57 
  -4  -1 -14    0.26    1.43 
   4  -1  15  168.16    3.40 
   4   1  15  174.97    3.40 
  -4   1 -15  166.26    3.82 
  -4  -1 -15  171.59    3.84 
   4  -1  16   15.52    1.79 
   4   1  16   13.13    1.78 
  -4   1 -16   14.67    1.88 
  -4  -1 -16   14.47    2.05 
   4  -1  17  392.17    5.01 
   4   1  17  400.84    5.01 
  -4   1 -17  391.80    5.85 
  -4  -1 -17  407.29    5.71 
   4  -1  18   48.64    2.35 
   4   1  18   43.60    2.34 
  -4   1 -18   45.25    2.64 
  -4  -1 -18   47.18    2.72 
   4  -1  19    3.53    1.45 
   4   1  19    9.04    1.93 
  -4   1 -19    3.36    1.89 
  -4  -1 -19    1.72    1.86 
   4  -1  20    3.65    1.41 
   4   1  20    2.43    1.82 
  -4  -1 -20    2.94    1.68 
   4  -1  21  158.85    4.06 
   4   1  21  149.28    4.07 
  -4  -1 -21  148.77    4.41 
   4  -1  22   -0.49    1.48 
   4   1  22    0.37    2.00 
  -4  -1 -22    0.78    1.99 
  -4  -2  24   33.54    1.97 
  -4   2  24   33.49    1.95 
  -4   2  24   29.78    2.43 
  -4  -2  23    1.71    1.68 
  -4   2  23    1.83    1.45 
  -4   2  23    0.25    1.69 
  -4  -2  22   59.31    2.33 
  -4   2  22   53.09    2.13 
  -4   2  22   50.77    2.55 
  -4  -2  21   24.78    1.81 
  -4   2  21   23.00    1.71 
  -4   2  21   21.63    2.10 
  -4  -2  20    3.43    1.51 
  -4   2  20    3.38    1.36 
  -4  -2  19    2.05    1.36 
  -4   2  19    0.01    1.13 
  -4  -2  18   43.11    1.98 
  -4   2  18   41.40    1.89 
  -4  -2  17   31.22    2.00 
  -4   2  17   29.06    1.63 
  -4  -2  16    9.10    1.45 
  -4   2  16   10.28    1.27 
  -4   2  16    8.27    1.75 
  -4  -2  15   55.22    2.26 
  -4   2  15   52.72    2.04 
  -4   2  15   47.46    2.36 
  -4  -2  14    7.20    1.27 
  -4   2  14    5.38    1.20 
  -4   2  14    6.06    1.39 
  -4  -2  13    2.27    1.02 
  -4   2  13    2.24    1.00 
  -4   2  13    3.05    1.37 
  -4  -2  12    1.83    1.25 
  -4   2  12    1.58    0.94 
  -4   2  12    1.14    1.34 
  -4  -2  11  125.85    3.27 
  -4   2  11  117.41    3.03 
  -4   2  11  122.41    3.42 
   4   2 -11  122.50    3.35 
  -4  -2  10   30.64    1.84 
  -4   2  10   28.56    1.56 
  -4   2  10   29.84    1.82 
   4   2 -10   29.24    1.76 
  -4  -2   9   93.52    2.89 
  -4   2   9   90.62    2.75 
  -4   2   9   95.50    3.07 
   4   2  -9   90.48    2.97 
  -4   2   8   17.25    1.31 
  -4  -2   8   17.55    1.48 
   4   2  -8   18.68    1.25 
  -4   2   8   16.62    1.49 
   4   2  -8   15.61    1.43 
  -4  -2   7    4.61    1.03 
   4   2  -7    2.89    0.82 
   4  -2  -7    3.89    0.93 
  -4   2   7    4.63    1.22 
   4   2  -7    4.35    1.09 
   4   2  -7    2.29    1.07 
   4   2  -6   30.97    1.56 
   4  -2  -6   29.27    1.42 
   4  -2  -6   29.74    1.56 
   4   2  -6   31.25    1.69 
  -4   2   6   32.87    1.85 
   4   2  -6   32.60    1.71 
   4   2  -6   30.72    1.78 
   4   2  -5  253.89    4.99 
   4  -2  -5  238.10    4.64 
   4  -2  -5  248.19    5.10 
   4   2  -5  245.94    5.20 
  -4   2   5  246.84    5.33 
   4   2  -5  242.31    5.04 
   4  -2  -5  239.35    4.98 
   4   2  -5  248.18    5.35 
   4   2  -4  109.85    2.94 
   4  -2  -4  105.51    2.74 
   4  -2  -4  111.53    3.03 
   4   2  -4  106.78    3.12 
  -4   2   4  110.43    3.26 
   4   2  -4  101.53    2.93 
   4  -2  -4  109.59    3.05 
   4   2  -4  104.36    3.18 
   4   2  -3  175.81    3.95 
   4  -2  -3  180.22    3.92 
   4  -2  -3  189.64    4.13 
   4   2  -3  180.42    4.30 
  -4   2   3  188.99    4.47 
   4   2  -3  175.44    4.11 
   4  -2  -3  181.43    4.13 
   4   2  -3  185.88    4.43 
   4   2  -2   32.58    1.54 
   4  -2  -2   35.45    1.52 
   4   2  -2   34.21    1.70 
  -4   2   2   36.19    1.90 
   4   2  -2   35.14    1.70 
   4  -2  -2   36.57    1.73 
  -4   2   2   36.50    2.00 
  -4  -2   2   36.46    2.04 
   4   2  -2   34.82    1.77 
   4   2  -1   11.15    1.08 
   4  -2  -1   11.33    1.04 
   4  -2  -1   10.97    1.05 
   4   2  -1   10.82    1.32 
  -4   2   1   12.81    1.38 
   4   2  -1   10.86    1.14 
   4  -2  -1   10.97    1.18 
  -4   2   1   11.02    1.61 
  -4  -2   1   10.66    1.40 
   4   2  -1   11.62    1.22 
   4   2   0  148.67    3.59 
   4  -2   0  141.73    3.45 
   4  -2   0  140.18    3.45 
   4   2   0  146.94    3.69 
  -4   2   0  149.99    3.88 
   4   2   0  146.37    3.66 
   4  -2   0  140.43    3.48 
  -4   2   0  146.46    4.06 
  -4  -2   0  139.36    3.91 
   4   2   0  148.88    3.77 
   4   2   1    7.06    1.16 
   4  -2   1    7.37    0.98 
   4  -2   1    7.78    1.04 
   4   2   1    7.57    1.23 
  -4   2  -1    6.68    1.13 
   4   2   1    6.39    0.94 
   4  -2   1    8.31    1.05 
  -4   2  -1    7.37    1.42 
  -4  -2  -1    7.62    1.38 
   4   2   1    8.77    1.20 
   4   2   2  310.98    5.96 
   4  -2   2  301.42    5.82 
   4  -2   2  316.03    5.86 
   4   2   2  322.02    6.21 
  -4   2  -2  305.51    6.14 
   4   2   2  299.37    5.93 
   4  -2   2  300.38    6.14 
   4   2   2  293.95    5.88 
  -4   2  -2  307.07    6.48 
  -4  -2  -2  310.19    6.47 
   4   2   2  312.04    5.97 
   4   2   3    0.33    0.95 
   4  -2   3    0.86    0.94 
   4   2   3    1.44    1.10 
  -4   2  -3    1.22    0.84 
  -4   2  -3    0.67    0.96 
   4   2   3    1.42    0.82 
   4  -2   3    1.31    0.87 
   4   2   3    1.30    0.76 
  -4   2  -3    1.42    1.41 
  -4  -2  -3    1.57    1.14 
   4   2   3    0.91    0.98 
   4   2   4   74.95    2.46 
   4  -2   4   78.09    2.48 
   4   2   4   80.42    2.65 
  -4   2  -4   78.24    2.58 
  -4   2  -4   78.51    2.65 
   4  -2   4   76.66    2.42 
   4   2   4   78.98    2.54 
  -4   2  -4   80.36    2.97 
  -4  -2  -4   83.84    3.06 
   4   2   4   79.49    2.55 
   4  -2   5   13.64    1.24 
   4   2   5   13.53    1.26 
  -4   2  -5   12.49    1.21 
  -4   2  -5   12.23    1.31 
   4  -2   5   12.68    1.16 
  -4   2  -5   11.26    1.64 
  -4  -2  -5   13.45    1.64 
   4   2   5   12.44    1.23 
   4  -2   6  110.21    2.91 
   4   2   6  112.66    3.07 
  -4   2  -6  108.27    2.99 
  -4   2  -6  101.54    3.36 
  -4  -2  -6  111.51    3.48 
   4  -2   7    5.86    1.15 
   4   2   7    5.24    1.09 
  -4   2  -7    5.20    1.00 
  -4   2  -7    5.53    1.03 
  -4  -2  -7    5.30    1.42 
   4  -2   8  534.70    7.42 
   4   2   8  517.43    7.33 
  -4   2  -8  500.43    7.24 
  -4  -2  -8  498.94    7.83 
   4  -2   9   10.36    1.35 
   4   2   9   10.34    1.35 
  -4   2  -9    9.85    1.10 
  -4   2  -9    9.48    1.20 
  -4  -2  -9   11.01    1.51 
   4  -2  10  248.02    3.86 
   4   2  10  232.55    3.85 
  -4   2 -10  240.20    3.84 
  -4   2 -10  241.07    4.09 
  -4  -2 -10  242.10    4.53 
   4  -2  11   14.37    1.32 
   4   2  11   13.18    1.38 
  -4   2 -11   14.00    1.20 
  -4   2 -11   13.55    1.30 
  -4  -2 -11   12.00    1.68 
   4  -2  12   25.19    1.68 
   4   2  12   22.16    1.57 
  -4   2 -12   25.22    1.60 
  -4  -2 -12   26.36    2.08 
   4  -2  13   38.96    1.91 
   4   2  13   38.94    1.82 
  -4   2 -13   38.12    1.94 
  -4  -2 -13   38.38    2.20 
   4  -2  14   97.88    2.71 
   4   2  14   97.51    2.89 
  -4  -2 -14   92.15    2.99 
   4  -2  15   72.06    2.25 
   4   2  15   72.08    2.35 
  -4  -2 -15   67.32    2.60 
   4  -2  16   34.38    1.86 
   4   2  16   31.21    1.88 
  -4  -2 -16   32.55    2.24 
   4  -2  17   12.60    1.57 
   4   2  17   14.66    1.82 
  -4  -2 -17   13.88    1.87 
   4  -2  18    2.97    1.28 
   4   2  18    5.56    1.65 
  -4  -2 -18    4.48    1.71 
   4  -2  19   50.51    2.11 
   4   2  19   47.53    2.33 
  -4  -2 -19   47.00    2.43 
   4  -2  20   32.42    2.03 
   4   2  20   27.57    2.24 
  -4  -2 -20   30.53    2.30 
   4  -2  21   99.29    3.09 
   4   2  21   94.34    3.23 
  -4   2 -21   91.45    3.65 
  -4  -2 -21   90.59    3.48 
   4  -2  22   31.66    1.99 
   4   2  22   33.38    2.42 
  -4   2 -22   25.98    2.38 
  -4  -2 -22   31.97    2.54 
  -4  -3  24   45.01    2.42 
  -4   3  24   44.72    2.32 
  -4  -3  23    3.42    1.65 
  -4   3  23    3.99    1.73 
  -4  -3  22    0.36    1.46 
  -4   3  22    1.91    1.32 
  -4   3  22    0.56    1.82 
  -4  -3  21   87.31    2.73 
  -4   3  21   77.90    2.44 
  -4   3  21   88.17    3.05 
  -4  -3  20   68.80    2.53 
  -4   3  20   74.09    2.46 
  -4   3  20   65.78    2.71 
  -4  -3  19  109.77    3.28 
  -4   3  19  109.05    3.11 
  -4  -3  18   45.25    2.15 
  -4   3  18   45.71    1.95 
  -4  -3  17   -0.81    1.44 
  -4   3  17   -0.10    0.93 
  -4  -3  16   -1.60    1.29 
  -4   3  16   -0.19    0.97 
  -4  -3  15  123.65    3.26 
  -4   3  15  114.01    2.93 
  -4   3  15  121.28    3.42 
  -4  -3  14    1.43    1.12 
  -4   3  14    1.07    0.96 
  -4   3  14    0.74    1.58 
  -4  -3  13  100.50    2.84 
  -4   3  13   98.44    2.61 
  -4   3  13  102.89    3.04 
  -4  -3  12   45.06    1.99 
  -4   3  12   44.54    1.87 
  -4   3  12   44.91    2.27 
  -4  -3  11   67.21    2.41 
  -4   3  11   68.28    2.19 
  -4   3  11   68.75    2.53 
  -4  -3  10   48.25    2.23 
  -4   3  10   48.10    1.93 
  -4   3  10   45.60    2.20 
  -4  -3   9  196.20    4.14 
  -4   3   9  185.50    4.13 
  -4   3   9  206.99    4.45 
  -4  -3   8   34.33    1.92 
  -4   3   8   36.62    2.01 
  -4  -3   7  174.99    4.06 
  -4   3   7  165.16    4.04 
   4   3  -6   82.93    2.75 
   4   3  -6   83.97    2.69 
  -4   3   6   84.71    2.88 
   4   3  -6   80.18    2.76 
   4   3  -5  414.79    7.28 
   4   3  -5  410.42    7.05 
  -4   3   5  408.06    7.21 
   4   3  -5  411.92    7.49 
   4   3  -4   11.54    1.34 
   4   3  -4   10.53    1.21 
  -4   3   4    9.36    1.47 
   4   3  -4   11.93    1.31 
   4   3  -3   45.82    2.19 
   4   3  -3   49.77    2.08 
  -4   3   3   50.31    2.28 
   4  -3  -3   47.84    2.03 
   4   3  -3   47.43    2.11 
   4   3  -2  454.00    8.09 
   4   3  -2  458.78    8.04 
  -4   3   2  474.29    8.44 
   4  -3  -2  483.26    8.21 
  -4  -3   2  461.26    8.50 
   4   3  -2  454.21    8.06 
   4   3  -1   64.18    2.48 
   4   3  -1   62.44    2.31 
  -4   3   1   67.12    2.54 
   4  -3  -1   64.60    2.24 
   4   3  -1   66.25    2.29 
  -4  -3   1   65.05    2.63 
   4   3  -1   62.45    2.30 
   4   3   0   32.32    1.68 
   4   3   0   29.99    1.57 
  -4   3   0   33.76    1.84 
   4  -3   0   35.14    1.66 
   4   3   0   32.59    1.63 
  -4  -3   0   31.09    1.92 
   4   3   0   33.08    1.62 
   4   3   1  147.78    3.81 
   4   3   1  135.66    3.48 
  -4   3  -1  153.78    3.93 
   4  -3   1  148.40    3.58 
   4   3   1  148.91    3.58 
  -4  -3  -1  154.46    4.18 
   4   3   1  148.30    3.63 
   4  -3   2  239.83    4.55 
   4   3   2  247.34    5.06 
  -4   3  -2  240.37    5.09 
   4  -3   2  237.74    4.70 
   4   3   2  248.49    4.84 
  -4  -3  -2  247.92    5.44 
   4   3   2  242.14    4.75 
   4  -3   3    4.66    0.87 
   4   3   3    5.34    1.09 
  -4   3  -3    4.25    1.13 
   4  -3   3    5.82    1.02 
   4   3   3    4.71    0.85 
  -4  -3  -3    3.98    1.24 
   4   3   3    3.44    0.98 
   4  -3   4  442.89    7.76 
   4   3   4  437.73    7.55 
  -4   3  -4  434.27    7.45 
  -4   3  -4  451.15    7.69 
   4  -3   4  409.80    7.95 
  -4  -3  -4  468.61    8.26 
   4   3   4  452.10    7.30 
   4  -3   5    0.01    0.72 
   4   3   5    0.91    1.18 
  -4   3  -5    0.09    0.80 
  -4   3  -5   -0.33    1.00 
  -4  -3  -5   -0.20    1.22 
   4   3   5   -0.22    0.89 
   4  -3   6   83.33    2.36 
   4   3   6   81.15    2.55 
  -4   3  -6   80.31    2.47 
  -4   3  -6   82.02    2.61 
  -4  -3  -6   84.53    2.93 
   4   3   6   79.63    2.26 
   4  -3   7    1.52    0.83 
   4   3   7    1.75    1.21 
  -4   3  -7    0.69    0.80 
  -4   3  -7    1.01    1.00 
  -4  -3  -7   -0.12    1.17 
   4  -3   8   19.75    1.30 
   4   3   8   20.45    1.64 
  -4   3  -8   20.57    1.40 
  -4   3  -8   20.39    1.52 
  -4  -3  -8   21.04    1.77 
   4  -3   9   11.14    1.23 
   4   3   9   12.42    1.50 
  -4   3  -9   11.45    1.20 
  -4   3  -9    9.96    1.25 
  -4   3  -9    9.38    1.66 
  -4  -3  -9   12.05    1.67 
   4  -3  10  133.31    2.83 
   4   3  10  137.42    3.01 
  -4   3 -10  134.11    2.92 
  -4   3 -10  128.60    3.13 
  -4   3 -10  131.74    3.60 
  -4  -3 -10  134.63    3.49 
   4  -3  11    2.03    1.03 
   4   3  11    1.74    1.25 
  -4   3 -11   -0.07    0.91 
  -4   3 -11    0.26    0.96 
  -4   3 -11   -0.16    1.54 
  -4  -3 -11    1.13    1.35 
   4  -3  12  125.39    2.93 
   4   3  12  122.50    3.08 
  -4   3 -12  125.87    3.19 
  -4   3 -12  114.54    3.47 
  -4  -3 -12  131.17    3.56 
   4  -3  13   27.62    1.61 
   4   3  13   29.28    1.72 
  -4   3 -13   29.71    1.66 
  -4   3 -13   27.82    2.50 
  -4  -3 -13   32.30    2.11 
   4  -3  14    7.03    1.32 
   4   3  14    7.41    1.43 
  -4   3 -14    4.99    1.09 
  -4   3 -14    5.41    1.65 
  -4  -3 -14    5.27    1.73 
   4  -3  15   80.49    2.30 
   4   3  15   80.26    2.57 
  -4   3 -15   83.41    3.01 
  -4  -3 -15   82.60    2.88 
   4  -3  16   42.33    2.00 
   4   3  16   42.67    2.09 
  -4   3 -16   42.12    2.48 
  -4  -3 -16   41.46    2.28 
   4  -3  17  163.99    3.91 
   4   3  17  156.15    3.93 
  -4   3 -17  160.95    4.46 
  -4  -3 -17  156.90    4.32 
   4  -3  18    0.67    1.31 
   4   3  18   -2.08    1.86 
  -4   3 -18    0.27    1.92 
  -4  -3 -18    1.15    1.77 
   4  -3  19   -0.93    1.16 
   4   3  19    1.93    1.83 
  -4   3 -19    0.25    1.83 
  -4  -3 -19   -1.30    1.74 
   4  -3  20    7.25    1.52 
   4   3  20    5.72    2.01 
  -4   3 -20    6.88    2.00 
  -4  -3 -20    5.22    1.72 
   4  -3  21   53.98    2.33 
   4   3  21   56.96    2.55 
  -4   3 -21   53.29    2.79 
  -4  -3 -21   48.65    2.59 
  -4  -4  23    1.84    1.62 
  -4   4  23    0.61    1.95 
  -4  -4  22    2.16    1.61 
  -4   4  22    2.03    1.95 
  -4  -4  21    0.50    1.63 
  -4   4  21    0.19    1.90 
  -4  -4  20    1.25    1.55 
  -4   4  20   -1.40    1.85 
  -4  -4  19   27.48    1.93 
  -4   4  19   26.54    2.09 
  -4  -4  18    0.36    1.46 
  -4   4  18    0.65    1.08 
  -4  -4  17  252.26    4.31 
  -4   4  17  239.56    3.86 
  -4  -4  16    0.31    1.42 
  -4   4  16   -0.12    0.97 
  -4  -4  15  150.09    3.42 
  -4   4  15  150.15    3.06 
  -4   4  15  141.96    3.58 
  -4  -4  14   16.88    1.74 
  -4   4  14   18.54    1.35 
  -4   4  14   20.22    2.02 
  -4  -4  13   14.07    1.57 
  -4   4  13   14.37    1.25 
  -4   4  13   16.63    1.76 
  -4  -4  12    0.92    1.23 
  -4   4  12    0.16    0.91 
  -4   4  12   -0.41    1.42 
  -4  -4  11  232.49    4.14 
  -4   4  11  217.23    3.70 
  -4   4  11  233.11    4.32 
  -4  -4  10   27.06    1.80 
  -4   4  10   23.19    1.42 
  -4   4  10   23.41    1.97 
  -4  -4   9  325.79    4.75 
  -4   4   9  328.25    4.99 
  -4  -4   8   17.24    1.49 
  -4   4   8   17.03    1.75 
  -4  -4   7   42.39    2.13 
  -4   4   7   43.91    2.13 
   4   4  -6  102.99    2.99 
  -4   4   6  111.78    3.19 
   4   4  -6  104.35    2.88 
   4   4  -5  627.90    6.63 
   4   4  -5  606.97    8.37 
  -4   4   5  630.84    6.87 
   4   4  -5  629.98    6.35 
   4   4  -4   19.95    1.71 
   4   4  -4   19.64    1.37 
  -4   4   4   18.70    1.66 
   4   4  -4   19.51    1.47 
   4   4  -3  174.98    4.13 
   4   4  -3  168.08    3.92 
  -4   4   3  177.88    4.25 
   4   4  -3  175.92    3.96 
   4   4  -2   13.94    1.55 
   4   4  -2   13.71    1.31 
  -4   4   2   14.49    1.60 
   4   4  -2   14.86    1.28 
   4   4  -1   39.01    1.91 
   4   4  -1   35.38    1.72 
  -4   4   1   39.50    2.02 
   4   4  -1   36.78    1.68 
  -4  -4   1   36.26    1.94 
  -4   4   1   34.62    2.15 
   4   4   0  129.93    3.43 
  -4   4   0  131.53    3.49 
   4  -4   0  126.69    3.18 
   4   4   0  130.72    3.23 
  -4   4   0  126.38    3.80 
  -4  -4   0  133.78    3.75 
   4   4   1  115.07    3.27 
  -4   4  -1  121.85    3.40 
   4  -4   1  114.90    2.97 
   4   4   1  117.79    3.02 
  -4   4  -1  129.27    3.76 
  -4  -4  -1  118.85    3.55 
   4   4   2   59.11    2.32 
  -4   4  -2   60.69    2.40 
   4  -4   2   58.78    2.11 
   4   4   2   56.62    2.02 
  -4   4  -2   55.04    2.61 
  -4  -4  -2   61.00    2.47 
   4   4   3  126.28    3.23 
  -4   4  -3  120.25    3.23 
   4  -4   3  124.25    3.01 
   4   4   3  120.01    2.96 
  -4   4  -3  121.32    3.57 
  -4  -4  -3  123.53    3.48 
   4   4   4    4.20    1.37 
  -4   4  -4    4.96    1.24 
   4  -4   4    4.43    0.97 
  -4   4  -4    3.83    1.66 
  -4  -4  -4    4.28    1.24 
   4   4   5  161.88    3.66 
  -4   4  -5  166.09    3.59 
  -4   4  -5  167.79    3.85 
  -4   4  -5  165.37    4.23 
  -4  -4  -5  164.60    4.05 
   4   4   6  185.57    3.75 
  -4   4  -6  182.21    3.39 
  -4   4  -6  186.58    3.67 
  -4   4  -6  180.77    4.05 
  -4  -4  -6  190.27    3.94 
   4   4   7   63.29    2.26 
  -4   4  -7   60.24    2.06 
  -4   4  -7   54.63    2.30 
  -4   4  -7   60.94    2.75 
  -4  -4  -7   58.10    2.42 
   4   4   8  240.56    4.00 
  -4   4  -8  240.54    3.83 
  -4   4  -8  238.08    4.18 
  -4   4  -8  247.30    4.74 
  -4  -4  -8  233.98    4.41 
   4   4   9   25.94    1.77 
  -4   4  -9   23.58    1.38 
  -4   4  -9   26.16    1.71 
  -4   4  -9   26.77    2.16 
  -4  -4  -9   25.39    1.93 
   4   4  10   18.62    1.56 
  -4   4 -10   18.38    1.54 
  -4   4 -10   18.14    1.98 
  -4  -4 -10   16.69    1.80 
   4   4  11   53.63    2.18 
  -4   4 -11   52.72    2.17 
  -4   4 -11   50.97    2.50 
  -4  -4 -11   53.38    2.39 
   4   4  12   14.85    1.64 
  -4   4 -12   12.98    1.46 
  -4   4 -12   11.44    1.81 
  -4  -4 -12   15.55    1.79 
   4   4  13  257.04    4.05 
  -4   4 -13  259.77    4.22 
  -4   4 -13  262.35    4.86 
  -4  -4 -13  253.97    4.54 
   4   4  14    7.91    1.55 
  -4   4 -14    7.18    1.23 
  -4   4 -14    8.09    2.11 
  -4  -4 -14    7.09    1.80 
   4   4  15   67.57    2.37 
  -4   4 -15   68.42    2.99 
  -4  -4 -15   77.08    2.73 
   4   4  16   29.80    1.97 
  -4   4 -16   26.49    2.42 
  -4  -4 -16   27.70    2.14 
   4   4  17   -0.42    1.66 
  -4   4 -17    2.02    1.85 
  -4  -4 -17    3.97    1.62 
   4   4  18    4.81    1.60 
  -4   4 -18    1.42    1.84 
  -4  -4 -18    5.71    1.72 
   4   4  19  222.73    5.14 
  -4   4 -19  228.85    5.82 
  -4  -4 -19  215.55    5.38 
   4   4  20    7.48    2.01 
  -4   4 -20    7.91    2.22 
  -4  -4 -20    5.84    1.87 
   4   4  21   20.40    2.17 
  -4   4 -21   27.92    2.42 
  -4  -4 -21   22.10    2.14 
  -4  -5  22    4.06    1.78 
  -4   5  22    1.11    1.94 
   4   5 -22    6.64    1.89 
  -4  -5  21    0.81    1.70 
  -4   5  21   -0.05    1.78 
   4   5 -21   -1.95    1.49 
  -4  -5  20   72.11    2.66 
  -4   5  20   70.46    2.95 
  -4  -5  19    6.11    1.73 
  -4   5  19    4.09    1.88 
  -4  -5  18  123.26    3.31 
  -4  -5  17   -1.00    1.64 
  -4  -5  16    0.24    1.45 
  -4  -5  15    0.72    1.46 
   4   5 -15    2.48    1.50 
  -4  -5  14   33.78    2.03 
  -4   5  14   30.19    2.13 
   4   5 -14   34.02    2.08 
  -4  -5  13   27.00    2.03 
  -4   5  13   27.50    1.97 
   4   5 -13   26.71    1.81 
  -4  -5  12   66.10    2.51 
  -4   5  12   70.72    2.75 
   4   5 -12   68.64    2.31 
  -4  -5  11   31.71    1.97 
  -4   5  11   32.98    2.01 
   4   5 -11   28.83    1.82 
  -4  -5  10    2.11    1.47 
  -4   5  10    1.11    1.36 
   4   5 -10    0.86    1.26 
  -4  -5   9    1.69    1.32 
  -4   5   9    1.05    1.48 
   4   5  -9    0.67    1.15 
  -4  -5   8  218.22    3.94 
  -4   5   8  230.13    4.29 
   4   5  -8  222.15    3.83 
   4   5  -7   38.79    2.15 
  -4   5   7   36.00    1.98 
   4   5  -7   36.45    1.84 
   4   5  -6   61.05    2.48 
  -4   5   6   62.31    2.42 
   4   5  -6   59.57    2.13 
   4   5  -5    0.45    1.31 
  -4   5   5    0.86    1.24 
   4   5  -5    0.85    0.98 
   4   5  -4   13.68    1.47 
  -4   5   4   15.19    1.68 
   4   5  -4   12.91    1.26 
   4   5  -3   18.50    1.67 
  -4   5   3   15.54    1.64 
   4   5  -3   15.97    1.36 
   4   5  -2  474.23    7.21 
  -4   5   2  481.67    7.32 
   4   5  -2  480.11    7.00 
   4   5  -1   24.88    1.87 
  -4   5   1   24.27    1.75 
   4   5  -1   22.23    1.42 
  -4   5   1   21.86    1.85 
   4   5   0  338.29    5.76 
  -4   5   0  337.82    5.79 
   4   5   0  340.39    5.55 
  -4   5   0  343.67    6.25 
  -4  -5   0  323.31    5.99 
   4   5   1   12.07    1.42 
  -4   5  -1   10.90    1.37 
   4   5   1   10.94    1.20 
  -4   5  -1    9.91    1.60 
  -4  -5  -1   10.92    1.41 
   4   5   2   11.28    1.41 
  -4   5  -2   11.36    1.34 
   4   5   2   10.08    1.12 
  -4   5  -2   12.20    1.81 
  -4  -5  -2   11.38    1.46 
   4   5   3    3.12    1.28 
  -4   5  -3    3.52    1.31 
  -4   5  -3    5.89    1.80 
  -4  -5  -3    4.53    1.13 
   4   5   4  228.81    3.97 
  -4   5  -4  221.39    4.06 
  -4   5  -4  222.27    4.52 
  -4  -5  -4  228.41    4.35 
   4   5   5    8.68    1.43 
  -4   5  -5    7.29    1.41 
  -4   5  -5    8.85    1.62 
  -4  -5  -5   10.95    1.51 
   4   5   6  154.87    3.28 
  -4   5  -6  167.88    3.59 
  -4   5  -6  168.88    3.95 
  -4  -5  -6  172.14    3.84 
   4   5   7    8.78    1.58 
  -4   5  -7    7.64    1.30 
  -4   5  -7    8.26    1.72 
  -4  -5  -7    6.56    1.48 
   4   5   8   23.96    1.74 
  -4   5  -8   24.38    1.71 
  -4   5  -8   24.35    2.12 
  -4  -5  -8   22.38    1.70 
   4   5   9    1.51    1.37 
  -4   5  -9    1.36    1.19 
  -4   5  -9    0.45    1.69 
  -4  -5  -9   -0.78    1.34 
   4   5  10  118.92    3.08 
  -4   5 -10  122.78    3.20 
  -4   5 -10  117.39    3.54 
  -4  -5 -10  122.52    3.43 
   4   5  11   37.18    1.97 
  -4   5 -11   38.61    2.01 
  -4   5 -11   38.17    2.52 
  -4  -5 -11   37.81    2.06 
   4   5  12   83.28    2.55 
  -4   5 -12   82.95    2.57 
  -4   5 -12   79.36    3.08 
  -4  -5 -12   79.53    2.81 
   4   5  13   27.33    1.88 
  -4   5 -13   29.42    1.77 
  -4   5 -13   28.22    2.28 
  -4  -5 -13   30.18    2.02 
   4   5  14   16.64    1.70 
  -4   5 -14   15.68    1.55 
  -4   5 -14   17.57    2.38 
  -4  -5 -14   18.21    1.78 
   4   5  15    8.22    1.85 
  -4   5 -15    8.50    1.99 
  -4  -5 -15    6.68    1.57 
   4   5  16   28.78    1.96 
  -4   5 -16   29.14    2.40 
  -4  -5 -16   30.92    2.30 
   4   5  17    3.83    1.66 
  -4   5 -17    4.59    1.92 
  -4  -5 -17    4.79    1.69 
   4   5  18   55.99    2.40 
  -4   5 -18   55.45    2.90 
  -4  -5 -18   53.34    2.50 
   4   5  19    1.57    1.51 
  -4   5 -19    0.05    2.04 
  -4  -5 -19    0.18    1.72 
   4   5  20   18.01    1.98 
  -4   5 -20   17.02    2.18 
  -4  -5 -20   16.45    1.91 
  -4  -6  21    2.24    1.61 
  -4   6  21    2.78    1.91 
   4   6 -21    1.55    1.70 
  -4  -6  20    3.71    1.85 
  -4   6  20    1.81    2.08 
   4   6 -20    2.70    1.71 
  -4  -6  19   -2.85    1.85 
  -4   6  19   -0.29    1.84 
   4   6 -19    2.36    1.65 
  -4  -6  18    3.53    1.92 
  -4   6  18    3.72    2.01 
   4   6 -18    7.18    1.69 
  -4  -6  17  107.14    3.05 
   4   6 -17  108.19    3.11 
  -4  -6  16    2.89    1.75 
   4   6 -16    0.78    1.56 
  -4  -6  15  101.90    3.25 
   4   6 -15  106.82    3.25 
  -4  -6  14    0.24    1.50 
   4   6 -14   -0.22    1.42 
  -4  -6  13    0.62    1.52 
  -4   6  13    4.53    1.69 
   4   6 -13   -0.69    1.32 
  -4  -6  12   13.91    1.82 
  -4   6  12   14.57    1.91 
   4   6 -12   18.79    1.80 
  -4  -6  11  325.44    4.84 
  -4   6  11  335.02    5.07 
   4   6 -11  327.00    4.68 
  -4  -6  10    2.07    1.45 
  -4   6  10   -0.89    1.55 
   4   6 -10    0.14    1.34 
  -4  -6   9   86.02    2.80 
  -4   6   9   85.45    2.92 
   4   6  -9   83.42    2.54 
  -4   6   8   23.59    1.76 
   4   6  -8   24.47    1.60 
   4   6  -7   66.68    2.45 
  -4   6   7   66.63    2.48 
   4   6  -7   63.88    2.17 
   4   6  -6    5.97    1.62 
  -4   6   6    5.36    1.37 
   4   6  -6    4.66    1.30 
   4   6  -5  212.43    4.08 
  -4   6   5  215.43    4.07 
   4   6  -5  213.96    3.68 
   4   6  -4   12.98    1.55 
  -4   6   4   11.70    1.82 
   4   6  -4   10.85    1.35 
   4   6  -3  188.41    3.81 
  -4   6   3  180.22    3.80 
   4   6  -3  186.05    3.45 
   4   6  -2    9.53    1.53 
  -4   6   2    8.39    1.63 
   4   6  -2    8.31    1.29 
   4   6  -1   12.53    1.57 
  -4   6   1   11.38    1.63 
   4   6  -1   15.10    1.35 
   4   6   0    1.54    1.46 
  -4   6   0    1.52    1.21 
   4   6   0    2.37    1.06 
  -4   6   0    1.90    1.48 
   4   6   1    2.93    1.36 
  -4   6  -1    0.99    1.16 
   4   6   1    1.84    1.07 
  -4   6  -1    2.70    1.55 
  -4  -6  -1    1.93    1.00 
   4   6   2    8.25    1.36 
  -4   6  -2    9.66    1.38 
  -4   6  -2   11.06    1.75 
  -4  -6  -2   10.67    1.39 
   4   6   3    3.02    1.47 
  -4   6  -3    5.24    1.32 
  -4   6  -3    4.67    1.62 
  -4  -6  -3    5.48    1.19 
   4   6   4    2.64    1.25 
  -4   6  -4    0.72    1.35 
  -4   6  -4    2.70    1.75 
  -4  -6  -4    2.20    1.11 
   4   6   5   10.07    1.58 
  -4   6  -5   11.15    1.54 
  -4   6  -5   10.65    1.92 
  -4  -6  -5   12.00    1.48 
   4   6   6    9.70    1.46 
  -4   6  -6    8.69    1.33 
  -4   6  -6    9.54    1.82 
  -4  -6  -6    9.06    1.43 
   4   6   7  122.88    3.24 
  -4   6  -7  127.18    3.27 
  -4   6  -7  123.98    3.57 
  -4  -6  -7  126.58    3.50 
   4   6   8    7.41    1.47 
  -4   6  -8   10.03    1.35 
  -4   6  -8    9.68    1.74 
  -4  -6  -8   10.19    1.49 
   4   6   9   10.40    1.62 
  -4   6  -9   12.42    1.61 
  -4   6  -9   12.75    2.06 
  -4  -6  -9    9.64    1.53 
   4   6  10   23.79    1.83 
  -4   6 -10   25.77    1.80 
  -4   6 -10   26.58    2.21 
  -4  -6 -10   25.57    1.89 
   4   6  11   63.62    2.41 
  -4   6 -11   65.09    2.43 
  -4   6 -11   66.45    2.81 
  -4  -6 -11   66.81    2.58 
   4   6  12   14.67    1.72 
  -4   6 -12   17.56    2.07 
  -4  -6 -12   15.59    1.71 
   4   6  13  280.69    5.81 
  -4   6 -13  286.91    6.48 
  -4   6 -13  310.26    6.76 
  -4  -6 -13  302.94    6.44 
   4   6  14    4.39    1.81 
  -4   6 -14    4.45    1.39 
  -4   6 -14    6.22    2.10 
  -4  -6 -14    4.47    1.66 
   4   6  15   38.34    2.10 
  -4   6 -15   37.51    1.97 
  -4   6 -15   36.82    2.55 
  -4  -6 -15   34.53    2.04 
   4   6  16    8.02    1.77 
  -4   6 -16    6.07    2.01 
  -4  -6 -16    7.46    1.69 
   4   6  17    5.48    1.69 
  -4   6 -17    5.64    2.02 
  -4  -6 -17    7.29    1.70 
   4   6  18    3.64    1.81 
  -4  -6 -18    5.45    1.64 
  -4  -7  19    9.84    2.02 
  -4   7  19   13.53    2.18 
   4   7 -19    7.96    1.98 
  -4  -7  18  205.28    5.12 
  -4   7  18  212.02    5.43 
   4   7 -18  211.12    5.00 
  -4  -7  17   11.54    1.94 
  -4   7  17   13.45    2.02 
   4   7 -17   18.12    1.92 
  -4  -7  16    2.62    1.69 
   4   7 -16    2.88    1.59 
  -4  -7  15   39.60    2.13 
   4   7 -15   39.78    2.30 
  -4  -7  14    8.32    1.84 
   4   7 -14    7.38    1.73 
  -4  -7  13   69.83    2.92 
   4   7 -13   65.24    2.53 
  -4  -7  12   43.81    2.31 
  -4   7  12   42.16    2.36 
   4   7 -12   40.47    1.99 
  -4  -7  11   20.53    1.91 
  -4   7  11   22.39    2.11 
   4   7 -11   23.19    1.67 
  -4  -7  10   56.03    2.41 
  -4   7  10   66.48    2.58 
   4   7 -10   63.62    2.29 
  -4   7   9   31.58    2.15 
   4   7  -9   31.69    1.92 
   4   7  -8  124.81    3.34 
  -4   7   8  130.67    3.39 
   4   7  -8  125.45    3.00 
   4   7  -7   73.82    2.69 
  -4   7   7   79.96    2.84 
   4   7  -7   76.47    2.42 
   4   7  -6   72.73    2.67 
  -4   7   6   70.23    2.58 
   4   7  -6   71.78    2.30 
   4   7  -5   17.83    1.90 
  -4   7   5   14.87    1.84 
   4   7  -5   15.86    1.43 
   4   7  -4   33.64    2.20 
  -4   7   4   33.19    2.14 
   4   7  -4   35.78    1.80 
   4   7  -3   30.97    2.04 
  -4   7   3   33.03    2.15 
   4   7  -3   34.50    1.82 
   4   7  -2  162.96    3.79 
  -4   7   2  169.49    3.87 
   4   7  -2  159.47    3.46 
   4   7  -1   69.23    2.55 
  -4   7   1   70.83    2.60 
   4   7  -1   72.00    2.37 
   4   7   0   28.87    1.96 
  -4   7   0   33.37    2.09 
   4   7   0   31.41    1.68 
   4   7   1   41.38    2.21 
  -4   7  -1   41.40    2.07 
  -4   7  -1   38.66    2.30 
   4   7   2   27.53    1.87 
  -4   7  -2   27.68    1.90 
  -4   7  -2   28.06    2.21 
   4   7   3   14.76    1.65 
  -4   7  -3   11.40    1.67 
  -4   7  -3   13.59    2.01 
   4   7   4  365.16    5.05 
  -4   7  -4  368.96    5.14 
  -4   7  -4  367.76    5.68 
   4   7   5    2.56    1.69 
  -4   7  -5    3.63    1.33 
  -4   7  -5    4.20    1.67 
   4   7   6   82.67    2.71 
  -4   7  -6   81.13    2.65 
  -4   7  -6   83.02    3.00 
   4   7   7    2.31    1.66 
  -4   7  -7    1.49    1.49 
  -4   7  -7   -1.19    1.52 
   4   7   8    5.27    1.43 
  -4   7  -8    7.94    1.62 
  -4   7  -8    6.91    1.82 
  -4  -7  -8    8.30    1.44 
   4   7   9    1.07    1.35 
  -4   7  -9    1.32    1.43 
  -4   7  -9    1.17    1.98 
  -4  -7  -9   -0.58    1.11 
   4   7  10  107.36    3.27 
  -4   7 -10  104.11    3.23 
  -4   7 -10  101.56    3.64 
  -4  -7 -10  104.47    3.35 
   4   7  11   24.60    2.05 
  -4   7 -11   27.81    1.89 
  -4   7 -11   26.19    2.29 
  -4  -7 -11   24.26    1.84 
   4   7  12   30.69    2.02 
  -4   7 -12   29.04    1.93 
  -4   7 -12   27.73    2.45 
  -4  -7 -12   30.14    1.98 
   4   7  13   18.67    1.77 
  -4   7 -13   18.01    1.73 
  -4   7 -13   22.33    2.42 
  -4  -7 -13   20.61    1.84 
   4   7  14    6.34    1.81 
  -4   7 -14    9.80    1.60 
  -4   7 -14    9.05    1.93 
  -4  -7 -14    8.95    1.66 
   4   7  15   16.54    1.88 
  -4   7 -15   16.18    1.71 
  -4   7 -15   17.45    2.08 
  -4  -7 -15   12.63    1.72 
   4   7  16   32.68    2.21 
  -4   7 -16   34.70    2.61 
  -4  -7 -16   31.41    2.04 
  -4   7 -17   23.98    2.39 
  -4  -7 -17   22.24    2.03 
  -4  -8  17   67.06    2.82 
  -4   8  17   74.32    2.97 
   4   8 -17   68.40    2.59 
  -4  -8  16   41.29    2.31 
  -4   8  16   38.63    2.48 
   4   8 -16   45.67    2.27 
  -4  -8  15  120.59    3.74 
   4   8 -15  117.05    3.48 
  -4  -8  14    4.68    1.75 
   4   8 -14    1.23    1.66 
  -4  -8  13    7.14    1.82 
   4   8 -13    4.50    1.64 
  -4  -8  12   -0.55    1.66 
  -4   8  12    2.43    1.56 
   4   8 -12   -1.05    1.41 
  -4  -8  11   65.83    2.71 
  -4   8  11   72.40    2.85 
   4   8 -11   67.70    2.45 
   4   8 -10    5.83    1.90 
  -4   8  10    4.06    1.84 
   4   8 -10    6.31    1.59 
   4   8  -9   73.96    2.93 
  -4   8   9   74.53    2.95 
   4   8  -9   69.14    2.68 
   4   8  -8   15.05    1.84 
  -4   8   8   13.95    1.95 
   4   8  -8   14.91    1.65 
   4   8  -7   -3.15    1.78 
  -4   8   7    1.49    1.52 
   4   8  -7    1.55    1.19 
   4   8  -6   26.98    1.99 
  -4   8   6   28.91    2.09 
   4   8  -6   27.03    1.74 
   4   8  -5   90.43    2.90 
  -4   8   5   88.63    2.94 
   4   8  -5   89.23    2.54 
   4   8  -4   70.21    2.71 
  -4   8   4   72.32    2.70 
   4   8  -4   70.96    2.42 
   4   8  -3   67.30    2.53 
  -4   8   3   67.93    2.71 
   4   8  -3   68.69    2.31 
   4   8  -2    1.25    1.71 
  -4   8   2   -2.07    1.42 
   4   8  -2    1.92    1.20 
   4   8  -1   30.10    2.06 
  -4   8   1   32.00    2.24 
   4   8   0   61.60    2.41 
  -4   8   0   66.04    2.53 
   4   8   1    0.81    1.75 
  -4   8  -1    2.80    1.59 
   4   8   2  111.86    3.12 
  -4   8  -2  111.17    3.00 
  -4   8  -2  108.74    3.34 
   4   8   3    5.07    1.67 
  -4   8  -3    2.37    1.41 
  -4   8  -3    5.68    1.91 
   4   8   4   34.79    2.20 
  -4   8  -4   39.73    2.22 
  -4   8  -4   37.31    2.36 
   4   8   5   30.69    2.06 
  -4   8  -5   29.85    1.98 
  -4   8  -5   26.66    2.44 
   4   8   6  213.55    4.94 
  -4   8  -6  212.95    4.96 
  -4   8  -6  214.30    5.28 
   4   8   7   65.86    2.56 
  -4   8  -7   65.22    2.58 
  -4   8  -7   67.34    2.93 
   4   8   8  157.46    3.65 
  -4   8  -8  157.48    3.62 
  -4   8  -8  162.58    4.21 
   4   8   9   12.59    1.85 
  -4   8  -9   11.47    1.64 
  -4   8  -9   12.61    2.03 
   4   8  10   21.34    1.86 
  -4   8 -10   18.85    1.80 
  -4   8 -10   19.68    2.09 
   4   8  11   28.59    2.13 
  -4   8 -11   30.27    1.94 
  -4   8 -11   28.23    2.20 
   4   8  12   69.28    2.83 
  -4   8 -12   61.50    2.67 
  -4   8 -12   64.41    2.95 
   4   8  13   29.85    2.02 
  -4   8 -13   32.17    2.12 
  -4   8 -13   30.70    2.53 
   4   8  14   81.72    2.76 
  -4   8 -14   78.91    2.77 
  -4   8 -14   86.42    3.61 
  -4  -9  14    2.37    1.84 
  -4  -9  13   74.04    2.70 
   4   9 -13   72.04    2.44 
   4   9 -12    3.25    1.75 
   4   9 -11   -0.24    1.78 
  -4   9  11    2.82    1.83 
   4   9 -11    1.99    1.54 
   4   9 -10    5.94    1.94 
  -4   9  10    6.90    2.02 
   4   9 -10    7.00    1.62 
   4   9  -9   16.36    1.92 
  -4   9   9   22.77    2.04 
   4   9  -9   19.04    1.74 
   4   9  -8   49.90    2.56 
  -4   9   8   52.80    2.58 
   4   9  -8   54.46    2.25 
   4   9  -7  199.41    4.00 
  -4   9   7  200.43    4.01 
   4   9  -7  198.24    3.65 
   4   9  -6    6.44    1.77 
  -4   9   6    7.85    1.94 
   4   9  -6    7.04    1.68 
   4   9  -5   10.19    1.98 
  -4   9   5   10.73    1.87 
   4   9  -5    8.62    1.52 
   4   9  -4   -2.06    1.56 
  -4   9   4    2.64    1.56 
   4   9  -4    1.39    1.32 
   4   9  -3   34.26    2.18 
  -4   9   3   32.34    2.32 
   4   9  -2   27.40    2.07 
  -4   9   2   26.83    2.08 
   4   9  -1  106.95    3.22 
  -4   9   1  115.31    3.25 
   4   9   0   10.86    1.88 
  -4   9   0   15.39    1.87 
   4   9   1   55.00    2.59 
  -4   9  -1   55.34    2.54 
   4   9   2    9.53    1.82 
  -4   9  -2    8.34    1.66 
   4   9   3    3.80    1.82 
  -4   9  -3    2.20    1.58 
   4   9   4   43.21    2.29 
  -4   9  -4   39.53    2.19 
  -4   9  -4   41.51    2.59 
   4   9   5    0.21    1.76 
  -4   9  -5    0.14    1.48 
  -4   9  -5    1.04    1.70 
   4   9   6   16.94    2.00 
  -4   9  -6   20.20    1.92 
  -4   9  -6   20.21    2.13 
   4   9   7    3.99    1.64 
  -4   9  -7    4.52    1.56 
  -4   9  -7    2.74    1.96 
   4   9   8   -1.01    1.74 
  -4   9  -8    0.28    1.66 
  -4   9  -8    0.30    1.76 
   4   9   9   28.72    2.11 
  -4   9  -9   24.81    1.91 
  -4   9  -9   29.58    2.39 
   4   9  10   11.07    1.89 
  -4   9 -10    9.29    1.79 
  -4   9 -10    9.38    2.19 
   4   9  11   41.91    2.16 
  -4   9 -11   39.28    2.25 
  -4   9 -11   42.18    2.72 
   4  10  -9    1.77    1.98 
  -4  10   9    0.65    1.91 
   4  10  -9    1.41    1.67 
   4  10  -8   40.16    2.44 
  -4  10   8   38.20    2.54 
   4  10  -8   34.46    2.18 
   4  10  -7    6.17    2.04 
  -4  10   7   12.90    2.07 
   4  10  -7    9.92    1.70 
   4  10  -6   88.17    3.27 
  -4  10   6   85.97    3.26 
   4  10  -6   94.46    3.05 
   4  10  -5    6.54    2.02 
  -4  10   5    4.83    1.72 
   4  10  -4   89.70    3.32 
  -4  10   4   88.37    3.29 
   4  10  -3   28.67    2.21 
  -4  10   3   26.16    2.31 
   4  10  -2   -0.82    1.77 
  -4  10   2    2.03    1.86 
   4  10  -1   10.66    2.03 
  -4  10   1    7.57    1.80 
   4  10   0   51.35    2.56 
  -4  10   0   55.49    2.52 
   4  10   1   19.77    2.11 
  -4  10  -1   16.89    1.98 
   4  10   2  210.41    5.13 
  -4  10  -2  207.42    5.10 
   4  10   3   34.33    2.19 
  -4  10  -3   35.66    2.30 
   4  10   4    9.23    1.92 
  -4  10  -4   13.00    1.94 
   4  10   5   32.28    2.10 
  -4  10  -5   32.07    2.11 
   4  10   6   87.55    2.91 
  -4  10  -6   93.27    2.94 
  -4  10  -6   93.14    3.34 
   4  10   7    1.47    1.90 
  -4  10  -7    0.49    1.93 
  -5   0  21    1.82    1.43 
  -5   0  20   -0.32    1.44 
  -5   0  19  136.14    3.17 
  -5   0  18    1.53    1.31 
  -5   0  17  370.65    5.00 
  -5   0  16   -0.54    1.20 
  -5   0  15   74.81    2.46 
  -5   0  14    1.68    1.35 
  -5   0  13    6.87    1.28 
  -5   0  12    0.30    1.12 
  -5   0  12   -0.93    1.39 
  -5   0  11  141.99    3.39 
  -5   0  11  139.00    3.51 
  -5   0  10   -0.18    1.01 
  -5   0  10    0.23    1.33 
  -5   0   9  205.46    3.95 
  -5   0   8    0.49    1.20 
  -5   0   7   17.74    1.67 
   5   0  -6    1.19    1.07 
  -5   0   6   -0.30    1.17 
   5   0  -5   76.14    2.36 
  -5   0   5   75.47    2.52 
   5   0  -4    0.13    1.00 
  -5   0   4   -0.93    1.06 
   5   0  -3   90.03    2.49 
  -5   0   3   91.51    2.68 
   5   0  -2   -0.06    0.96 
  -5   0   2   -0.77    0.98 
  -5   0   2    0.84    1.51 
   5   0  -1   91.21    2.48 
  -5   0   1   96.14    2.74 
  -5   0   1   89.54    3.09 
   5   0   0    0.94    0.99 
  -5   0   0    0.83    1.01 
  -5   0   0   -0.76    1.29 
   5   0   1   90.65    2.51 
  -5   0  -1   90.18    2.97 
   5   0   2    0.35    0.92 
  -5   0  -2    0.98    1.49 
   5   0   3    3.80    1.04 
  -5   0  -3    3.30    1.34 
   5   0   4    0.76    1.04 
  -5   0  -4    1.11    1.62 
   5   0   5  294.91    4.16 
  -5   0  -5  301.49    5.15 
   5   0   6    0.55    1.04 
  -5   0  -6    0.55    1.01 
  -5   0  -6    1.16    1.70 
   5   0   7  338.73    5.19 
  -5   0  -7  336.01    5.98 
   5   0   8    0.37    1.06 
  -5   0  -8    0.65    1.62 
   5   0   9    1.11    1.24 
  -5   0  -9    0.55    1.40 
   5   0  10    0.79    1.38 
  -5   0 -10    0.95    1.70 
   5   0  11  235.50    3.81 
  -5   0 -11  237.46    4.67 
   5   0  12   -0.77    1.42 
  -5   0 -12    1.17    1.76 
   5   0  13  582.55    6.17 
  -5   0 -13  581.45   10.58 
   5   0  14    2.44    1.62 
  -5   0 -14    1.33    1.75 
   5   0  15    1.81    1.60 
  -5   0 -15    3.21    1.99 
   5   0  16   -2.01    1.56 
  -5   0 -16   -0.79    1.64 
   5   0  17  113.89    3.47 
  -5   0 -17  105.41    3.68 
   5   0  18   -1.14    1.82 
  -5   0 -18   -1.44    2.10 
  -5   0 -19  168.80    4.03 
  -5  -1  21    4.48    1.46 
  -5  -1  20    8.29    1.54 
  -5  -1  19   47.06    2.26 
  -5  -1  18    1.05    1.35 
  -5   1  18    0.59    1.18 
  -5   1  18    2.24    1.76 
  -5  -1  17   -0.46    1.27 
  -5   1  17    0.33    1.33 
  -5   1  17    1.03    1.79 
  -5  -1  16   13.66    1.55 
  -5   1  16   14.20    1.44 
  -5   1  16   14.20    1.87 
  -5  -1  15   16.96    1.59 
  -5   1  15   17.34    1.58 
  -5   1  15   17.50    1.76 
  -5  -1  14   14.48    1.63 
  -5   1  14   14.43    1.39 
  -5   1  14   14.04    1.77 
  -5   1  13   16.22    1.46 
  -5  -1  13   16.91    1.58 
  -5   1  13   16.96    1.79 
  -5  -1  12   18.67    1.58 
  -5   1  12   19.39    1.54 
  -5   1  12   17.82    1.87 
  -5   1  11    4.66    1.17 
  -5  -1  11    3.82    1.23 
  -5   1  11    4.63    1.33 
  -5  -1  10   73.29    2.52 
  -5   1  10   74.91    2.74 
   5   1  -9   46.09    2.08 
  -5   1   9   49.38    2.26 
   5   1  -8  310.40    4.75 
  -5   1   8  309.23    4.82 
   5   1  -7   24.98    1.61 
  -5   1   7   23.72    1.83 
   5   1  -6   47.46    2.03 
  -5   1   6   44.92    2.14 
   5   1  -5   16.61    1.40 
  -5   1   5   18.66    1.66 
   5   1  -4   54.21    2.15 
  -5   1   4   55.00    2.26 
   5   1  -3    1.49    1.08 
  -5   1   3    0.01    1.20 
   5   1  -2  485.18    5.63 
  -5   1   2  496.01    5.94 
  -5   1   2  484.92    6.41 
  -5  -1   2  509.25    6.58 
   5   1  -1    8.10    1.15 
  -5   1   1    7.68    1.31 
  -5  -1   1    6.93    1.46 
  -5   1   1    5.85    1.72 
   5   1   0   40.10    1.86 
  -5   1   0   38.07    1.89 
  -5   1   0   44.36    2.36 
  -5  -1   0   37.03    2.13 
   5   1   1   25.76    1.63 
  -5   1  -1   24.98    1.62 
  -5   1  -1   26.16    2.08 
  -5  -1  -1   24.83    1.91 
   5   1   2  322.38    4.51 
  -5   1  -2  309.78    4.73 
  -5   1  -2  323.44    5.39 
  -5  -1  -2  316.35    5.26 
   5   1   3    1.87    1.15 
  -5   1  -3    0.62    0.93 
  -5   1  -3    1.71    1.49 
  -5  -1  -3    1.35    1.44 
   5   1   4  403.49    4.89 
  -5   1  -4  394.57    5.25 
  -5   1  -4  407.28    5.92 
  -5  -1  -4  408.98    5.94 
   5   1   5    1.95    1.17 
  -5   1  -5    1.51    0.91 
  -5   1  -5    0.05    1.50 
  -5  -1  -5    2.29    1.45 
   5   1   6   59.32    2.06 
  -5   1  -6   54.59    2.04 
  -5   1  -6   58.42    2.73 
  -5  -1  -6   58.77    2.50 
   5   1   7    5.91    1.25 
  -5   1  -7    5.22    1.65 
  -5  -1  -7    2.46    1.47 
   5   1   8    5.94    1.19 
  -5   1  -8    4.95    1.60 
  -5  -1  -8    4.89    1.75 
   5   1   9    3.90    1.11 
  -5   1  -9    1.29    1.68 
  -5  -1  -9    2.08    1.62 
   5   1  10   35.64    1.85 
  -5   1 -10   36.11    2.36 
  -5  -1 -10   35.19    2.20 
   5   1  11    2.91    1.47 
  -5   1 -11    4.07    1.70 
  -5  -1 -11    7.02    1.85 
   5   1  12    2.38    1.60 
  -5   1 -12    0.25    1.70 
  -5  -1 -12    2.04    1.77 
   5   1  13    1.28    1.36 
  -5   1 -13    0.75    1.70 
  -5  -1 -13   -1.13    1.47 
   5   1  14   16.65    1.76 
  -5   1 -14   17.41    2.13 
  -5  -1 -14   15.99    2.19 
   5   1  15   53.14    2.36 
  -5   1 -15   53.55    2.64 
  -5  -1 -15   54.26    2.74 
   5   1  16   37.73    2.24 
  -5   1 -16   34.65    2.33 
  -5  -1 -16   34.64    2.45 
   5   1  17   23.55    2.15 
  -5   1 -17   20.71    2.31 
  -5  -1 -17   24.28    2.31 
   5   1  18    6.36    1.75 
  -5   1 -18    8.78    2.22 
  -5  -1 -18    7.59    1.99 
  -5  -2  21   30.92    2.01 
  -5   2  21   31.09    2.26 
  -5  -2  20    1.82    1.44 
  -5   2  20    0.06    1.67 
  -5  -2  19   93.22    2.91 
  -5   2  19   89.42    3.06 
  -5  -2  18   11.70    1.57 
  -5   2  18   12.21    1.85 
  -5  -2  17  142.04    3.37 
  -5   2  17  151.64    3.72 
  -5  -2  16   -0.12    1.24 
  -5   2  16    1.36    1.49 
  -5  -2  15   36.96    2.08 
  -5   2  15   45.13    2.50 
  -5  -2  14    0.11    1.34 
  -5   2  14    0.31    1.72 
  -5  -2  13   22.71    1.66 
  -5   2  13   24.06    1.91 
  -5  -2  12    4.02    1.41 
  -5   2  12    4.30    1.46 
  -5  -2  11  164.32    3.51 
  -5   2  11  162.62    3.61 
  -5  -2  10    1.99    1.35 
  -5   2  10    3.16    1.36 
   5   2  -9   83.99    2.64 
  -5   2   9   82.48    2.75 
   5   2  -8   12.91    1.39 
  -5   2   8   12.94    1.54 
   5   2  -7    1.72    1.26 
  -5   2   7   -1.03    1.03 
   5   2  -6   30.42    1.84 
  -5   2   6   29.94    1.86 
   5   2  -5   57.51    2.17 
  -5   2   5   59.41    2.32 
   5   2  -4    4.64    1.11 
  -5   2   4    3.72    1.21 
   5   2  -3  158.45    3.38 
  -5   2   3  161.43    3.59 
   5   2  -2   79.40    2.50 
  -5   2   2   75.43    2.59 
  -5   2   2   80.51    2.98 
   5   2  -1    3.06    1.22 
  -5   2   1    2.63    1.28 
  -5   2   1    3.16    1.38 
  -5  -2   1    3.56    1.23 
   5   2   0   91.34    2.65 
  -5   2   0   94.57    2.82 
  -5   2   0   94.25    3.11 
  -5  -2   0   97.93    3.11 
   5   2   1  139.82    3.13 
  -5   2  -1  139.61    3.36 
  -5   2  -1  142.91    3.74 
  -5  -2  -1  140.36    3.60 
   5   2   2   32.41    1.82 
  -5   2  -2   30.03    1.82 
  -5   2  -2   30.58    2.22 
  -5  -2  -2   30.64    2.09 
   5   2   3   21.47    1.66 
  -5   2  -3   21.71    1.61 
  -5   2  -3   22.62    2.04 
  -5  -2  -3   20.70    1.74 
   5   2   4    6.94    1.21 
  -5   2  -4    7.48    1.23 
  -5   2  -4    5.25    1.67 
  -5  -2  -4    6.32    1.59 
   5   2   5   16.29    1.54 
  -5   2  -5   15.95    1.46 
  -5   2  -5   16.42    1.94 
  -5  -2  -5   14.96    1.80 
   5   2   6    4.32    1.16 
  -5   2  -6    4.66    1.15 
  -5   2  -6    6.05    1.60 
  -5  -2  -6    7.48    1.43 
   5   2   7   66.58    2.31 
  -5   2  -7   68.67    2.37 
  -5   2  -7   66.50    2.83 
  -5  -2  -7   64.26    2.60 
   5   2   8    6.79    1.28 
  -5   2  -8    5.40    1.81 
  -5  -2  -8    8.52    1.76 
   5   2   9    1.14    1.32 
  -5   2  -9    2.34    1.88 
  -5  -2  -9    0.47    1.36 
   5   2  10    1.89    1.37 
  -5   2 -10    1.57    1.73 
  -5  -2 -10    0.66    1.65 
   5   2  11  112.29    2.76 
  -5   2 -11  111.40    3.40 
  -5  -2 -11  112.10    3.30 
   5   2  12   26.19    1.82 
  -5   2 -12   32.02    2.57 
  -5  -2 -12   28.47    2.09 
   5   2  13  104.04    3.03 
  -5   2 -13  101.47    3.56 
  -5  -2 -13  104.35    3.53 
   5   2  14    0.16    1.64 
  -5   2 -14   -0.55    2.11 
  -5  -2 -14   -0.14    1.71 
   5   2  15   -0.13    1.64 
  -5   2 -15    2.56    1.91 
  -5  -2 -15    0.12    1.75 
   5   2  16    2.30    1.79 
  -5   2 -16    3.41    2.12 
  -5  -2 -16   -1.35    1.81 
   5   2  17   19.38    2.07 
  -5   2 -17   20.87    2.47 
  -5  -2 -17   19.90    2.27 
   5   2  18    3.73    1.81 
  -5   2 -18    2.95    2.09 
  -5  -2 -18    3.61    1.97 
  -5  -3  20    2.93    1.79 
  -5   3  20    3.70    1.89 
  -5  -3  19   83.89    3.04 
  -5   3  19   72.68    3.11 
  -5  -3  18    1.50    1.49 
  -5   3  18    0.63    1.84 
  -5  -3  17   15.40    1.75 
  -5   3  17   16.67    2.04 
  -5  -3  16    1.80    1.39 
  -5   3  16    4.07    1.60 
  -5  -3  15  194.39    4.66 
  -5   3  15  186.85    4.69 
  -5  -3  14    5.63    1.38 
  -5   3  14    5.12    1.57 
  -5  -3  13   31.60    1.85 
  -5   3  13   31.13    2.16 
  -5  -3  12    4.59    1.40 
  -5   3  12    3.87    1.51 
  -5  -3  11   40.72    2.12 
  -5   3  11   43.08    2.32 
  -5  -3  10   25.36    1.84 
  -5   3  10   23.92    1.88 
   5   3  -9   54.58    2.31 
  -5   3   9   53.41    2.48 
   5   3  -8   17.74    1.60 
  -5   3   8   18.63    1.76 
   5   3  -7    8.99    1.55 
  -5   3   7   10.57    1.59 
   5   3  -6    4.56    1.38 
  -5   3   6    5.13    1.38 
   5   3  -5    0.23    1.33 
  -5   3   5    1.69    1.43 
   5   3  -4  162.02    3.40 
  -5   3   4  161.05    3.54 
   5   3  -3   25.15    1.78 
  -5   3   3   24.95    1.83 
   5   3  -2  149.58    3.28 
  -5   3   2  157.17    3.55 
   5   3  -1    2.51    1.14 
  -5   3   1    1.75    1.09 
  -5  -3   1    2.49    1.45 
  -5   3   1    3.32    1.51 
   5   3   0   71.10    2.44 
  -5   3   0   66.17    2.47 
  -5   3   0   67.86    2.74 
  -5  -3   0   69.26    2.61 
   5   3   1    0.72    1.18 
  -5   3  -1    0.47    1.16 
  -5   3  -1    1.08    1.61 
  -5  -3  -1    0.96    1.42 
   5   3   2  231.67    4.33 
  -5   3  -2  235.38    4.59 
  -5   3  -2  236.93    5.01 
  -5  -3  -2  231.74    4.85 
   5   3   3   87.25    2.75 
  -5   3  -3   83.23    2.74 
  -5   3  -3   81.96    2.97 
  -5  -3  -3   78.96    2.89 
   5   3   4  212.92    4.17 
  -5   3  -4  209.52    4.25 
  -5   3  -4  204.02    4.63 
  -5  -3  -4  207.78    4.56 
   5   3   5   16.97    1.54 
  -5   3  -5   15.31    1.44 
  -5   3  -5   14.83    1.82 
  -5  -3  -5   12.32    1.78 
   5   3   6   79.24    2.38 
  -5   3  -6   81.48    2.53 
  -5   3  -6   82.35    3.08 
  -5  -3  -6   76.36    2.85 
   5   3   7   52.70    2.19 
  -5   3  -7   49.33    2.07 
  -5   3  -7   48.58    2.64 
  -5  -3  -7   49.53    2.30 
   5   3   8    2.26    1.43 
  -5   3  -8    0.66    1.53 
  -5  -3  -8    1.59    1.38 
   5   3   9  140.79    3.10 
  -5   3  -9  136.97    3.75 
  -5  -3  -9  141.19    3.62 
   5   3  10   16.22    1.54 
  -5  -3 -10   16.04    1.90 
   5   3  11  115.44    3.31 
  -5  -3 -11  110.05    3.55 
   5   3  12   12.85    1.73 
  -5  -3 -12   13.44    1.99 
   5   3  13    2.48    1.42 
  -5  -3 -13    2.78    1.63 
   5   3  14   21.39    1.98 
  -5  -3 -14   25.18    2.30 
   5   3  15  146.71    3.20 
  -5  -3 -15  153.08    3.76 
   5   3  16    0.98    1.87 
  -5  -3 -16   -0.95    1.68 
   5   3  17  165.21    3.48 
  -5  -3 -17  161.05    3.94 
  -5  -4  20   10.26    1.71 
  -5   4  20    7.35    2.14 
  -5  -4  19   41.46    2.18 
  -5   4  19   39.60    2.31 
  -5  -4  18    0.64    1.61 
  -5   4  18    4.53    1.85 
  -5  -4  17   23.71    1.88 
  -5   4  17   20.33    2.17 
  -5  -4  16    0.73    1.41 
  -5   4  16    1.91    1.81 
  -5  -4  15    7.38    1.58 
  -5   4  15    6.80    1.87 
  -5  -4  14   46.56    2.24 
  -5   4  14   47.96    2.48 
  -5  -4  13    6.12    1.55 
  -5   4  13    7.09    1.95 
  -5  -4  12  284.57    5.92 
  -5   4  12  279.83    6.04 
  -5  -4  11   19.10    1.73 
  -5   4  11   21.18    1.98 
   5   4 -10  120.81    3.22 
  -5   4  10  112.78    3.31 
   5   4  -9   18.70    1.71 
  -5   4   9   19.39    1.89 
   5   4  -8   22.51    1.79 
  -5   4   8   22.36    2.03 
   5   4  -7   25.96    1.81 
  -5   4   7   24.44    1.89 
   5   4  -7   25.33    1.62 
   5   4  -6  287.24    4.56 
  -5   4   6  278.91    4.60 
   5   4  -6  282.30    4.24 
   5   4  -5   29.13    1.99 
  -5   4   5   29.53    1.96 
   5   4  -5   27.77    1.63 
   5   4  -4  157.81    3.71 
  -5   4   4  159.04    3.79 
   5   4  -4  148.35    3.37 
   5   4  -3   -1.43    1.22 
  -5   4   3    0.44    1.19 
   5   4  -2    7.01    1.39 
  -5   4   2    6.39    1.32 
   5   4  -1    1.65    1.42 
  -5   4   1    2.17    1.38 
   5   4   0  311.89    5.28 
  -5   4   0  298.49    5.24 
  -5  -4   0  302.82    5.52 
   5   4   1   18.61    1.65 
  -5   4  -1   16.82    1.68 
  -5  -4  -1   15.16    1.64 
   5   4   2   69.23    2.49 
  -5   4  -2   66.19    2.49 
  -5  -4  -2   67.07    2.61 
   5   4   3   13.78    1.52 
  -5   4  -3   15.81    1.60 
  -5  -4  -3   13.28    1.68 
   5   4   4    1.81    1.45 
  -5   4  -4    1.77    1.20 
  -5  -4  -4    1.08    1.28 
   5   4   5    4.82    1.37 
  -5  -4  -5    4.38    1.43 
   5   4   6  134.39    3.10 
  -5   4  -6  134.12    3.35 
  -5  -4  -6  138.27    3.53 
   5   4   7   26.51    1.78 
  -5   4  -7   24.13    1.68 
  -5  -4  -7   27.24    1.99 
   5   4   8  101.83    2.79 
  -5   4  -8  100.37    2.82 
  -5  -4  -8   98.26    3.09 
   5   4   9    3.37    1.63 
  -5  -4  -9    2.78    1.58 
   5   4  10   45.06    2.17 
  -5  -4 -10   44.22    2.49 
   5   4  11   24.06    1.81 
  -5  -4 -11   29.49    2.22 
   5   4  12    2.84    1.35 
  -5   4 -12   -0.95    1.84 
  -5  -4 -12   -0.15    1.55 
   5   4  13   66.70    2.38 
  -5   4 -13   54.98    2.76 
  -5  -4 -13   58.43    2.67 
   5   4  14   11.45    1.60 
  -5   4 -14   11.91    2.28 
  -5  -4 -14   14.86    1.95 
   5   4  15    0.02    1.42 
  -5   4 -15    0.51    2.12 
  -5  -4 -15   -1.27    1.70 
   5   4  16   -0.76    1.67 
  -5   4 -16   -1.03    2.16 
  -5  -4 -16   -0.98    1.71 
   5   4  17    6.89    1.92 
  -5   4 -17    8.80    2.03 
  -5  -4 -17    8.75    1.84 
  -5  -5  18    1.97    1.58 
  -5   5  18    2.30    1.99 
   5   5 -18    0.62    1.73 
  -5  -5  17   -0.06    1.57 
  -5   5  17    3.94    1.77 
   5   5 -17    0.64    1.64 
  -5  -5  16    1.32    1.58 
  -5   5  16   -1.07    1.86 
   5   5 -16   -1.09    1.61 
  -5  -5  15  140.46    3.32 
  -5   5  15  126.18    3.47 
   5   5 -15  141.26    3.24 
  -5  -5  14   19.67    2.06 
  -5   5  14   17.85    1.97 
   5   5 -14   20.24    1.83 
  -5  -5  13   32.28    2.13 
  -5   5  13   33.58    2.30 
   5   5 -13   29.78    1.98 
  -5  -5  12    5.08    1.74 
  -5   5  12    6.13    1.74 
   5   5 -12    3.67    1.46 
  -5  -5  11   17.81    1.78 
  -5   5  11   20.50    1.93 
   5   5 -11   21.03    1.81 
   5   5 -10   12.92    1.70 
  -5   5  10   12.02    1.79 
   5   5 -10   14.45    1.63 
   5   5  -9  134.70    3.33 
  -5   5   9  134.93    3.43 
   5   5  -9  136.00    3.14 
   5   5  -8    6.71    1.62 
  -5   5   8    5.21    1.59 
   5   5  -8    4.78    1.30 
   5   5  -7  110.12    3.05 
  -5   5   7  114.50    3.19 
   5   5  -7  113.52    2.83 
   5   5  -6    4.38    1.47 
  -5   5   6    0.69    1.59 
   5   5  -6    4.02    1.34 
   5   5  -5    1.91    1.40 
  -5   5   5   -0.26    1.56 
   5   5  -5    0.84    1.10 
   5   5  -4    1.75    1.40 
  -5   5   4    3.61    1.58 
   5   5  -3   -0.28    1.48 
  -5   5   3    0.50    1.48 
   5   5  -2   34.04    2.11 
  -5   5   2   36.47    2.05 
   5   5  -1   71.80    2.44 
  -5   5   1   74.67    2.66 
   5   5   0   29.48    1.95 
  -5   5   0   31.41    2.00 
   5   5   1  102.29    2.80 
  -5   5  -1  106.01    2.95 
  -5   5  -1   96.26    3.31 
  -5  -5  -1  108.93    3.12 
   5   5   2   -0.14    1.43 
  -5   5  -2    0.58    1.83 
  -5  -5  -2    0.72    1.17 
   5   5   3  118.75    3.06 
  -5   5  -3  108.30    3.11 
  -5   5  -3  117.01    3.49 
  -5  -5  -3  118.68    3.29 
   5   5   4   -1.16    1.29 
  -5   5  -4    0.17    1.39 
  -5   5  -4   -1.17    1.77 
  -5  -5  -4    0.66    1.26 
   5   5   5    3.83    1.39 
  -5   5  -5    5.01    1.33 
  -5   5  -5    6.71    2.00 
  -5  -5  -5    2.99    1.40 
   5   5   6    7.54    1.64 
  -5   5  -6    8.24    1.43 
  -5   5  -6    9.84    1.94 
  -5  -5  -6    7.91    1.57 
   5   5   7   40.17    2.08 
  -5   5  -7   39.45    2.02 
  -5   5  -7   38.98    2.62 
  -5  -5  -7   41.62    2.25 
   5   5   8    3.27    1.54 
  -5   5  -8    2.30    1.40 
  -5   5  -8    3.45    1.94 
  -5  -5  -8    2.35    1.42 
   5   5   9  139.55    3.43 
  -5   5  -9  146.51    3.98 
  -5  -5  -9  143.46    3.72 
   5   5  10    0.90    1.44 
  -5   5 -10    1.60    1.74 
  -5  -5 -10    1.03    1.55 
   5   5  11   36.19    2.00 
  -5   5 -11   38.37    2.44 
  -5  -5 -11   41.39    2.27 
   5   5  12    0.69    1.48 
  -5   5 -12   -0.47    1.94 
  -5  -5 -12   -0.08    1.51 
   5   5  13    1.79    1.50 
  -5   5 -13   -1.56    2.03 
  -5  -5 -13    0.71    1.43 
   5   5  14   19.17    1.94 
  -5   5 -14   21.00    2.43 
  -5  -5 -14   16.82    1.95 
   5   5  15  226.86    3.79 
  -5   5 -15  222.46    4.61 
  -5  -5 -15  223.38    4.45 
  -5  -6  17    8.15    1.80 
  -5   6  17    4.92    2.13 
   5   6 -17    9.11    1.77 
  -5  -6  16    4.43    1.90 
  -5   6  16    6.94    1.93 
   5   6 -16    5.76    1.68 
  -5  -6  15    5.29    1.76 
  -5   6  15    3.55    2.01 
   5   6 -15    3.30    1.73 
  -5  -6  14    9.82    1.81 
  -5   6  14   12.18    2.14 
   5   6 -14   13.31    1.87 
  -5  -6  13   30.06    2.15 
  -5   6  13   30.36    2.31 
   5   6 -13   29.28    1.96 
  -5  -6  12  181.35    3.76 
  -5   6  12  182.10    3.95 
   5   6 -12  192.73    3.67 
   5   6 -11    2.17    1.60 
  -5   6  11    0.59    1.76 
   5   6 -11   -1.28    1.59 
   5   6 -10   61.34    2.47 
  -5   6  10   56.29    2.68 
   5   6 -10   60.71    2.33 
   5   6  -9    3.28    1.51 
  -5   6   9    2.79    1.71 
   5   6  -9    1.03    1.20 
   5   6  -8   10.70    1.65 
  -5   6   8    5.81    1.77 
   5   6  -8    5.96    1.48 
   5   6  -7    0.61    1.57 
  -5   6   7    2.16    1.61 
   5   6  -7    1.00    1.25 
   5   6  -6  513.58    9.29 
  -5   6   6  510.10    9.27 
   5   6  -5    0.35    1.40 
  -5   6   5    1.71    1.53 
   5   6  -4  157.60    3.46 
  -5   6   4  160.07    3.58 
   5   6  -3   33.74    2.08 
  -5   6   3   33.51    2.06 
   5   6  -2   12.46    1.73 
  -5   6   2   12.47    1.61 
   5   6  -1    7.28    1.76 
  -5   6   1   10.21    1.61 
   5   6   0  213.57    4.05 
  -5   6   0  220.13    4.10 
   5   6   1    8.44    1.78 
  -5   6  -1    6.99    1.55 
  -5   6  -1    7.42    2.26 
   5   6   2  136.05    3.77 
  -5   6  -2  134.60    3.74 
  -5   6  -2  139.49    4.17 
   5   6   3   17.31    1.86 
  -5   6  -3   15.91    1.64 
  -5   6  -3   18.73    2.12 
   5   6   4   17.37    1.86 
  -5   6  -4   19.07    1.75 
  -5   6  -4   19.32    2.22 
   5   6   5    2.29    1.75 
  -5   6  -5    2.41    1.39 
  -5   6  -5    2.07    2.05 
   5   6   6   59.51    2.55 
  -5   6  -6   62.03    2.51 
  -5   6  -6   60.30    2.92 
   5   6   7   26.01    1.90 
  -5   6  -7   22.67    1.81 
  -5   6  -7   26.67    2.37 
   5   6   8   45.93    2.19 
  -5   6  -8   46.24    2.19 
  -5   6  -8   46.16    2.83 
   5   6   9    0.33    1.37 
  -5   6  -9    0.30    2.11 
   5   6  10    2.19    1.62 
  -5   6 -10    0.46    2.08 
   5   6  11   -0.57    1.47 
  -5   6 -11    3.48    1.85 
   5   6  12   30.33    2.03 
  -5   6 -12   25.12    2.49 
   5   6  13   12.81    1.77 
  -5   6 -13   11.00    2.31 
   5   6  14   -1.45    1.57 
  -5   7  14    0.88    1.85 
   5   7 -14    2.72    1.61 
  -5   7  13  103.01    3.26 
   5   7 -13  103.12    2.89 
   5   7 -12    0.84    1.76 
  -5   7  12    0.59    1.82 
   5   7 -12   -0.04    1.47 
   5   7 -11   -2.42    1.81 
  -5   7  11    2.15    1.74 
   5   7 -11    0.59    1.58 
   5   7 -10   12.48    1.97 
  -5   7  10   16.21    1.94 
   5   7 -10   14.32    1.76 
   5   7  -9   66.03    2.54 
  -5   7   9   64.68    2.62 
   5   7  -9   65.13    2.46 
   5   7  -8    3.58    1.81 
  -5   7   8    4.87    1.87 
   5   7  -8    2.44    1.46 
   5   7  -7   21.69    2.06 
  -5   7   7   19.14    2.10 
   5   7  -6   24.56    2.11 
  -5   7   6   24.96    2.06 
   5   7  -5   80.75    2.80 
  -5   7   5   85.56    2.97 
   5   7  -4   39.71    2.24 
  -5   7   4   38.75    2.32 
   5   7  -3   21.14    1.96 
  -5   7   3   21.69    2.00 
   5   7  -2   39.32    2.14 
  -5   7   2   36.86    2.17 
   5   7  -1   -0.75    1.65 
  -5   7   1    2.47    1.54 
   5   7   0    1.02    1.55 
  -5   7   0   -0.18    1.51 
   5   7   1  102.30    2.97 
  -5   7  -1  107.94    3.22 
   5   7   2   52.42    2.49 
  -5   7  -2   52.29    2.37 
  -5   7  -2   51.62    2.71 
   5   7   3  112.49    3.19 
  -5   7  -3  116.49    3.18 
  -5   7  -3  107.98    3.52 
   5   7   4   67.70    2.59 
  -5   7  -4   69.81    2.70 
  -5   7  -4   71.14    3.16 
   5   7   5    5.78    1.53 
  -5   7  -5    1.83    1.35 
  -5   7  -5    5.29    1.86 
   5   7   6   15.69    1.81 
  -5   7  -6   14.66    1.72 
  -5   7  -6   16.52    2.21 
   5   7   7   35.37    2.13 
  -5   7  -7   34.68    2.05 
  -5   7  -7   36.27    2.46 
   5   7   8   10.24    1.61 
  -5   7  -8    6.62    1.65 
  -5   7  -8   10.02    2.31 
   5   7   9  246.60    5.55 
  -5   7  -9  240.17    5.60 
  -5   7  -9  257.73    6.33 
   5   7  10    0.89    1.45 
  -5   7 -10    1.03    2.15 
   5   7  11  105.45    2.94 
  -5   7 -11  113.82    3.67 
   5   8 -11   44.17    2.52 
  -5   8  11   50.38    2.66 
   5   8 -11   44.91    2.44 
   5   8 -10   38.76    2.24 
  -5   8  10   39.12    2.49 
   5   8 -10   38.77    2.00 
   5   8  -9   14.85    2.09 
  -5   8   9   10.66    2.09 
   5   8  -8   12.83    1.85 
  -5   8   8   12.42    2.02 
   5   8  -7   30.26    2.18 
  -5   8   7   28.87    2.36 
   5   8  -6   72.51    2.95 
  -5   8   6   81.63    3.19 
   5   8  -5   70.24    2.90 
  -5   8   5   73.02    2.94 
   5   8  -4    8.39    1.83 
  -5   8   4   12.36    1.87 
   5   8  -3    1.90    1.72 
  -5   8   3    4.42    1.74 
   5   8  -2    4.23    1.79 
  -5   8   2    3.78    1.74 
   5   8  -1    0.39    1.48 
  -5   8   1    2.01    1.71 
   5   8   0   65.55    2.53 
  -5   8   0   64.79    2.72 
   5   8   1    2.97    1.76 
  -5   8  -1    1.66    1.58 
   5   8   2   59.43    2.59 
  -5   8  -2   57.46    2.65 
   5   8   3    1.33    1.82 
  -5   8  -3    2.13    1.71 
  -5   8  -3    0.47    1.69 
   5   8   4    8.56    1.90 
  -5   8  -4    9.68    1.68 
  -5   8  -4    7.32    2.03 
   5   8   5   20.52    2.02 
  -5   8  -5   21.95    1.97 
  -5   8  -5   21.42    2.50 
   5   8   6   24.98    2.07 
  -5   8  -6   24.60    1.86 
  -5   8  -6   29.61    2.46 
   5   8   7   58.12    2.45 
  -5   8  -7   57.05    2.52 
  -5   8  -7   54.54    2.85 
   5   8   8   29.14    2.20 
  -5   8  -8   26.34    2.03 
  -5   8  -8   31.84    2.46 
   5   9  -5    3.79    1.83 
  -5   9   5    4.30    1.96 
   5   9  -4   13.41    2.03 
  -5   9   4   12.51    1.99 
   5   9  -3   -1.55    1.86 
  -5   9   3    2.29    1.81 
   5   9  -2  112.58    3.17 
  -5   9   2  106.88    3.28 
   5   9  -1   16.40    2.02 
  -5   9   1   15.43    2.00 
   5   9   0    2.28    1.84 
  -5   9   0    1.03    1.73 
   5   9   1   29.76    2.31 
  -5   9  -1   26.20    2.12 
   5   9   2   46.95    2.48 
  -5   9  -2   48.73    2.40 
  -6   0   1    0.27    1.74 
  -6   0   0  365.26    7.45 
  -6   0  -1   -0.12    1.63 
  -6   0  -2    6.42    1.76 
  -6   0  -3   -1.21    1.63 
  -6   0  -4   -0.13    1.49 
  -6   0  -5   -0.84    1.58 
  -6   0  -6   -0.36    1.61 
  -6   0  -7    1.72    1.70 
  -6   0  -8    9.94    1.94 
  -6   0  -9    0.91    1.99 
  -6   0 -10  129.69    3.70 
  -6   0 -11   -0.49    1.93 
  -6   0 -12   85.44    3.21 
  -6   0 -13   -2.77    1.88 
  -6   1  14    2.86    1.78 
  -6   1  13   26.12    2.04 
  -6   1  12    1.05    1.47 
  -6   1  11    5.82    1.77 
  -6   1  10    2.69    1.64 
  -6   1   9   46.31    2.20 
  -6   1   8    0.08    1.31 
  -6   1   7   59.30    2.53 
  -6   1   6    7.16    1.52 
  -6   1   5   56.63    2.54 
  -6   1   4   10.02    1.49 
  -6   1   3  117.48    3.44 
  -6   1   2   38.40    1.94 
  -6   1   1    2.30    1.14 
  -6   1   1    2.35    1.87 
  -6   1   0   16.35    1.99 
  -6  -1   0   19.16    1.89 
  -6  -1  -1   48.58    2.48 
  -6   1  -1   55.03    2.75 
  -6  -1  -2    2.11    1.72 
  -6   1  -2    1.61    1.74 
  -6   1  -3  282.60    6.30 
  -6  -1  -3  273.22    6.14 
  -6   1  -4    1.93    1.79 
  -6  -1  -4    0.90    1.55 
  -6   1  -5    1.89    1.64 
  -6  -1  -5    3.36    1.66 
  -6   1  -6    7.59    1.98 
  -6  -1  -6    8.51    1.95 
  -6   1  -7  187.03    4.47 
  -6  -1  -7  178.19    4.27 
  -6   1  -8   10.53    2.15 
  -6  -1  -8    5.80    1.99 
  -6   1  -9  144.11    3.85 
  -6  -1  -9  142.41    3.70 
  -6   1 -10   -1.74    1.76 
  -6  -1 -10   -0.19    1.84 
  -6   1 -11    6.04    1.95 
  -6  -1 -11    5.64    1.95 
  -6   1 -12    7.50    2.04 
  -6  -1 -12    9.66    2.22 
  -6   1 -13   23.66    2.42 
  -6  -1 -13   21.81    2.34 
  -6   2  16    2.68    1.74 
  -6   2  15   -0.93    1.64 
  -6   2  14   26.44    2.12 
  -6   2  13   -1.64    1.51 
  -6   2  12   68.44    2.75 
  -6   2  11   11.14    1.63 
  -6   2  10    1.84    1.68 
  -6   2   9    0.80    1.51 
  -6   2   8   78.38    2.77 
  -6   2   7    1.94    1.42 
  -6   2   6  215.56    5.02 
  -6   2   5    2.11    1.39 
  -6   2   4    1.29    1.38 
  -6   2   3    5.90    1.55 
  -6   2   2   67.38    2.65 
  -6   2   1    4.90    1.29 
  -6   2   1    4.52    1.91 
  -6   2   0  135.82    3.73 
  -6   2   0  143.82    4.28 
  -6  -2   0  134.70    4.01 
  -6  -2  -1   49.97    2.63 
  -6   2  -1   52.83    2.84 
  -6   2  -2   72.17    3.13 
  -6  -2  -2   67.64    2.92 
  -6   2  -3   26.85    2.16 
  -6  -2  -3   24.33    2.06 
  -6   2  -4    2.19    1.90 
  -6  -2  -4    4.95    1.55 
  -6   2  -5   49.45    2.70 
  -6  -2  -5   52.06    2.49 
  -6   2  -6    5.01    1.99 
  -6  -2  -6    5.92    1.83 
  -6   2  -7   30.69    2.41 
  -6  -2  -7   30.57    2.39 
  -6   2  -8   15.40    2.25 
  -6  -2  -8   12.17    1.94 
  -6   2  -9   25.13    2.31 
  -6  -2  -9   25.31    2.24 
  -6   2 -10   44.12    2.66 
  -6  -2 -10   45.50    2.48 
  -6   2 -11   28.95    2.50 
  -6  -2 -11   35.35    2.44 
  -6   2 -12   10.35    2.06 
  -6  -2 -12   12.50    2.11 
  -6  -3  15    0.71    1.45 
  -6   3  15    0.70    1.78 
  -6   3  14   62.64    2.60 
  -6   3  13   13.76    1.93 
  -6   3  12   15.87    2.11 
  -6   3  11    0.23    1.66 
  -6   3  10  155.42    3.57 
  -6   3   9    8.63    1.85 
  -6   3   8   85.07    2.90 
  -6   3   7   11.80    1.63 
  -6   3   6    1.97    1.49 
  -6   3   5   29.23    2.02 
  -6   3   4   49.75    2.41 
  -6   3   3  113.67    3.53 
  -6   3   2   49.04    2.42 
  -6   3   1   12.14    1.57 
  -6   3   0    1.37    1.40 
  -6  -3   0    2.02    1.50 
  -6   3   0    3.87    1.94 
  -6   3  -1   18.40    1.99 
  -6  -3  -1   18.52    1.78 
   6   3   2   97.04    2.78 
  -6   3  -2   99.99    3.42 
  -6  -3  -2   90.52    3.09 
   6   3   3  143.00    3.34 
  -6   3  -3  141.67    3.97 
  -6  -3  -3  140.08    3.73 
   6   3   4   34.37    1.95 
  -6   3  -4   36.80    2.52 
  -6  -3  -4   31.37    2.17 
   6   3   5   14.43    1.59 
  -6   3  -5   16.44    2.26 
  -6  -3  -5   13.25    1.83 
   6   3   6   -0.19    1.37 
  -6   3  -6    2.91    1.76 
  -6  -3  -6    1.27    1.67 
   6   3   7   21.15    1.70 
  -6   3  -7   20.01    2.28 
  -6  -3  -7   17.06    1.81 
  -6   3  -8   -0.52    1.95 
  -6  -3  -8    2.14    1.64 
  -6   3  -9   52.28    2.76 
  -6  -3  -9   52.79    2.59 
  -6   3 -10    2.13    2.02 
  -6  -3 -10   -0.36    1.60 
  -6   3 -11    1.09    2.04 
  -6  -3 -11    0.10    1.71 
  -6   3 -12    2.21    2.20 
  -6  -3 -12    0.79    1.72 
  -6   4  14    0.34    1.88 
  -6   4  13   37.87    2.32 
  -6   4  12    6.24    1.74 
  -6   4  11    2.77    1.75 
  -6   4  10   10.38    1.84 
  -6   4   9   17.76    1.93 
   6   4  -8    6.14    1.46 
  -6   4   8    8.77    1.70 
   6   4  -7   17.77    1.75 
  -6   4   7   17.55    1.90 
   6   4  -6   37.82    2.16 
  -6   4   6   35.86    2.11 
   6   4  -5    0.41    1.43 
  -6   4   5   -0.06    1.45 
   6   4  -4    1.12    1.54 
  -6   4   4    0.10    1.57 
   6   4  -3   36.11    2.13 
  -6   4   3   30.67    1.98 
   6   4  -2   31.78    1.88 
  -6   4   2   34.10    2.13 
   6   4  -1   91.52    2.77 
  -6   4   1   95.17    2.96 
   6   4   0   30.47    1.85 
  -6   4   0   26.12    1.86 
  -6   4   0   28.57    2.56 
   6   4   1   25.90    1.98 
  -6   4  -1   26.64    1.85 
  -6   4  -1   30.08    2.43 
   6   4   2    4.72    1.53 
  -6   4  -2    0.88    2.14 
   6   4   3    0.40    1.38 
  -6   4  -3   -1.08    1.93 
   6   4   4    1.60    1.54 
  -6   4  -4    3.22    2.04 
   6   4   5  203.39    3.70 
  -6   4  -5  198.07    4.36 
  -6  -4  -5  195.35    4.19 
   6   4   6    8.77    1.64 
  -6   4  -6    8.85    2.21 
  -6  -4  -6    6.07    1.66 
   6   4   7   78.17    2.79 
  -6   4  -7   74.68    3.33 
  -6  -4  -7   80.51    3.17 
   6   4   8   34.58    2.02 
  -6   4  -8   29.22    2.48 
  -6  -4  -8   33.29    2.17 
   6   4   9   16.28    1.75 
  -6   4  -9   14.04    2.11 
  -6  -4  -9   17.56    1.88 
   6   4  10    2.12    1.54 
  -6   4 -10   -1.12    1.95 
  -6  -4 -10   -0.14    1.77 
   6   5 -12   13.71    1.91 
  -6   5  12   12.53    2.08 
   6   5 -11   10.82    1.84 
  -6   5  11   12.34    2.03 
   6   5 -10  217.09    4.06 
  -6   5  10  215.83    4.20 
   6   5  -9    1.88    1.54 
  -6   5   9    1.35    1.67 
   6   5  -8   41.69    2.16 
  -6   5   8   39.53    2.34 
   6   5  -7   -1.92    1.50 
  -6   5   7   -2.20    1.78 
   6   5  -6    1.29    1.50 
  -6   5   6    1.35    1.52 
   6   5  -5    1.63    1.55 
  -6   5   5    0.93    1.49 
   6   5  -4   80.25    2.62 
  -6   5   4   78.96    2.69 
   6   5  -3   24.43    2.03 
  -6   5   3   27.53    2.06 
   6   5  -2   68.85    2.52 
  -6   5   2   67.07    2.57 
   6   5  -1   -0.75    1.69 
  -6   5   1    0.97    1.55 
   6   5   0   -0.32    1.40 
  -6   5   0   -0.32    1.30 
   6   5   1    2.99    1.51 
  -6   5  -1   -0.85    1.41 
  -6   5  -1    1.78    2.07 
   6   5   2   37.22    2.09 
  -6   5  -2   33.65    2.45 
   6   5   3   -0.28    1.47 
   6   5   4   20.16    1.75 
   6   5   5   22.63    1.81 
   6   5   6   19.06    1.80 
   6   5   7   -0.26    1.44 
   6   5   8    5.18    1.63 
   6   6  -9    5.87    1.79 
  -6   6   9    9.89    1.88 
   6   6  -8   76.02    2.70 
  -6   6   8   70.93    2.79 
   6   6  -7   -1.01    1.60 
  -6   6   7    1.98    1.62 
   6   6  -6   13.98    1.78 
  -6   6   6   16.39    1.89 
   6   6  -5   27.19    2.07 
  -6   6   5   29.08    2.22 
   6   6  -4   19.47    2.02 
  -6   6   4   18.71    2.08 
   6   6  -3   63.29    2.66 
  -6   6   3   62.23    2.69 
   6   6  -2   53.36    2.52 
  -6   6   2   47.39    2.22 
   6   6  -1  108.49    3.36 
  -6   6   1  107.21    3.50 
   6   6   0   16.17    1.84 
  -6   6   0   15.67    1.85 
   6   6   1   39.09    2.27 
  -6   6  -1   37.82    2.20 
   6   6   2    0.90    1.61 
   6   6   3   30.36    1.97 
   6   6   4   24.09    1.96 
  -6   6  -4   26.33    2.55 
   6   6   5  149.02    3.27 
  -6   6  -5  148.73    3.99 
  -7   0  -1    2.84    1.94 
   0   0   0    0.00    0.00 
;
_shelx_hkl_checksum              95095
loop_
_space_group_symop_operation_xyz
'x, y, z'
'-x+1/2, y+1/2, -z+1/2'
'-x, -y, -z'
'x-1/2, -y-1/2, z-1/2'
loop_
_atom_site_label
_atom_site_type_symbol
_atom_site_fract_x
_atom_site_fract_y
_atom_site_fract_z
_atom_site_U_iso_or_equiv
_atom_site_adp_type
_atom_site_occupancy
_atom_site_site_symmetry_order
_atom_site_calc_flag
_atom_site_refinement_flags_posn
_atom_site_refinement_flags_adp
_atom_site_refinement_flags_occupancy
_atom_site_disorder_assembly
_atom_site_disorder_group
Br1 Br 0.7308(9) 0.5498(4) 1.0676(2) 0.0141(3) Uani 0.5 1 d D . P A 1
Cl1 Cl 0.743(2) 0.5338(9) 1.0677(6) 0.0169(8) Uani 0.5 1 d D . P A 2
S1 S 0.55300(7) 0.05192(4) 0.89994(2) 0.01370(9) Uani 1 1 d . . . . .
O1 O 0.4756(2) 0.17272(11) 0.92648(5) 0.0182(2) Uani 1 1 d . . . . .
O2 O 0.3768(2) -0.04415(11) 0.87709(5) 0.0185(2) Uani 1 1 d . . . . .
N1 N 0.7304(2) -0.02585(13) 0.95329(6) 0.0133(3) Uani 1 1 d . . . . .
C1 C 0.9043(3) 0.04202(15) 0.99174(6) 0.0130(3) Uani 1 1 d . . . . .
C2 C 0.9406(3) 0.16866(15) 1.02150(6) 0.0129(3) Uani 1 1 d . . . . .
C3 C 0.8073(3) 0.28793(15) 1.02424(7) 0.0145(3) Uani 1 1 d . . . . .
H3 H 0.6539 0.2995 1.0018 0.017 Uiso 1 1 calc R U . . .
C4 C 0.9066(3) 0.38786(15) 1.06059(7) 0.0145(3) Uani 1 1 d D . . . .
C5 C 1.1336(3) 0.37586(16) 1.09316(7) 0.0161(3) Uani 1 1 d . . . . .
H5 H 1.1965 0.4483 1.1169 0.019 Uiso 1 1 calc R U . . .
C6 C 1.2669(3) 0.25897(16) 1.09091(7) 0.0165(3) Uani 1 1 d . . . . .
H6 H 1.4217 0.2494 1.1129 0.020 Uiso 1 1 calc R U . . .
C7 C 1.1684(3) 0.15547(15) 1.05550(7) 0.0135(3) Uani 1 1 d . . . . .
C8 C 0.7535(3) 0.09042(16) 0.84465(7) 0.0151(3) Uani 1 1 d . . . . .
C9 C 0.8864(3) 0.20909(17) 0.84897(7) 0.0206(3) Uani 1 1 d . . . . .
H9 H 0.8653 0.2697 0.8806 0.025 Uiso 1 1 calc R U . . .
C10 C 1.0508(3) 0.23775(18) 0.80619(7) 0.0233(4) Uani 1 1 d . . . . .
H10 H 1.1419 0.3188 0.8088 0.028 Uiso 1 1 calc R U . . .
C11 C 1.0845(3) 0.14968(17) 0.75952(7) 0.0207(3) Uani 1 1 d . . . . .
C12 C 0.9473(3) 0.03196(17) 0.75597(7) 0.0216(4) Uani 1 1 d . . . . .
H12 H 0.9666 -0.0282 0.7240 0.026 Uiso 1 1 calc R U . . .
C13 C 0.7825(3) 0.00090(17) 0.79833(7) 0.0196(3) Uani 1 1 d . . . . .
H13 H 0.6912 -0.0800 0.7957 0.024 Uiso 1 1 calc R U . . .
C14 C 1.2709(3) 0.1805(2) 0.71498(8) 0.0272(4) Uani 1 1 d . . . . .
H14A H 1.4377 0.1730 0.7343 0.041 Uiso 1 1 calc R U . . .
H14B H 1.2444 0.2714 0.6998 0.041 Uiso 1 1 calc R U . . .
H14C H 1.2515 0.1169 0.6819 0.041 Uiso 1 1 calc R U . . .
loop_
_atom_site_aniso_label
_atom_site_aniso_U_11
_atom_site_aniso_U_22
_atom_site_aniso_U_33
_atom_site_aniso_U_23
_atom_site_aniso_U_13
_atom_site_aniso_U_12
Br1 0.0173(5) 0.0073(7) 0.0176(4) -0.0020(5) -0.0001(3) 0.0045(5)
Cl1 0.0203(14) 0.0067(16) 0.0233(10) -0.0037(10) -0.0006(8) 0.0049(10)
S1 0.01309(19) 0.01445(18) 0.01314(17) -0.00112(13) -0.00199(14) 0.00175(14)
O1 0.0182(6) 0.0171(5) 0.0188(5) -0.0031(4) -0.0022(4) 0.0050(4)
O2 0.0158(6) 0.0187(6) 0.0204(6) -0.0018(4) -0.0034(5) -0.0004(4)
N1 0.0132(6) 0.0134(6) 0.0130(6) -0.0013(5) -0.0015(5) 0.0011(5)
C1 0.0129(8) 0.0147(7) 0.0115(6) 0.0001(5) 0.0019(6) 0.0000(6)
C2 0.0140(7) 0.0137(7) 0.0110(7) -0.0004(5) 0.0021(6) -0.0011(6)
C3 0.0142(8) 0.0156(7) 0.0138(7) -0.0002(6) 0.0007(6) 0.0005(6)
C4 0.0174(8) 0.0122(7) 0.0144(7) 0.0002(5) 0.0044(6) 0.0026(6)
C5 0.0173(8) 0.0162(7) 0.0147(7) -0.0030(6) 0.0016(6) -0.0025(6)
C6 0.0148(8) 0.0184(8) 0.0160(7) -0.0018(6) -0.0012(6) -0.0015(6)
C7 0.0147(7) 0.0128(7) 0.0131(7) 0.0010(5) 0.0026(6) 0.0007(6)
C8 0.0154(8) 0.0165(7) 0.0131(7) 0.0013(6) -0.0014(6) 0.0015(6)
C9 0.0257(9) 0.0186(8) 0.0173(7) -0.0021(6) 0.0001(7) -0.0022(7)
C10 0.0274(10) 0.0221(9) 0.0200(8) 0.0020(7) -0.0003(7) -0.0049(7)
C11 0.0205(9) 0.0256(9) 0.0157(7) 0.0060(6) -0.0005(6) 0.0058(7)
C12 0.0268(9) 0.0224(9) 0.0157(7) -0.0014(6) 0.0014(7) 0.0060(7)
C13 0.0231(9) 0.0172(8) 0.0182(8) -0.0016(6) -0.0015(6) 0.0009(7)
C14 0.0263(10) 0.0348(10) 0.0209(8) 0.0075(7) 0.0039(7) 0.0033(8)
loop_
_atom_type_symbol
_atom_type_description
_atom_type_scat_dispersion_real
_atom_type_scat_dispersion_imag
_atom_type_scat_source
C C 0.0033 0.0016 'International Tables Vol C Tables 4.2.6.8 and 6.1.1.4'
H H 0.0000 0.0000 'International Tables Vol C Tables 4.2.6.8 and 6.1.1.4'
N N 0.0061 0.0033 'International Tables Vol C Tables 4.2.6.8 and 6.1.1.4'
O O 0.0106 0.0060 'International Tables Vol C Tables 4.2.6.8 and 6.1.1.4'
S S 0.1246 0.1234 'International Tables Vol C Tables 4.2.6.8 and 6.1.1.4'
Cl Cl 0.1484 0.1585 'International Tables Vol C Tables 4.2.6.8 and 6.1.1.4'
Br Br -0.2901 2.4595 'International Tables Vol C Tables 4.2.6.8 and 6.1.1.4'
loop_
_geom_angle_atom_site_label_1
_geom_angle_atom_site_label_2
_geom_angle_atom_site_label_3
_geom_angle
_geom_angle_site_symmetry_1
_geom_angle_site_symmetry_3
O1 S1 O2 120.80(7) . .
O1 S1 N1 105.34(7) . .
O2 S1 N1 106.37(7) . .
O1 S1 C8 109.18(8) . .
O2 S1 C8 109.08(7) . .
N1 S1 C8 104.85(7) . .
C1 N1 C7 105.96(12) . 3_757
C1 N1 S1 122.82(10) . .
C7 N1 S1 121.95(10) 3_757 .
C1 C1 N1 109.50(16) 3_757 .
C1 C1 C2 109.80(17) 3_757 .
N1 C1 C2 140.61(14) . .
C3 C2 C7 119.42(14) . .
C3 C2 C1 135.80(14) . .
C7 C2 C1 104.76(13) . .
C4 C3 C2 117.60(14) . .
C4 C3 H3 121.2 . .
C2 C3 H3 121.2 . .
C3 C4 C5 122.96(14) . .
C3 C4 Cl1 119.3(5) . .
C5 C4 Cl1 117.8(5) . .
C3 C4 Br1 119.5(2) . .
C5 C4 Br1 117.6(2) . .
C6 C5 C4 120.07(14) . .
C6 C5 H5 120.0 . .
C4 C5 H5 120.0 . .
C5 C6 C7 118.13(15) . .
C5 C6 H6 120.9 . .
C7 C6 H6 120.9 . .
C6 C7 C2 121.79(14) . .
C6 C7 N1 128.30(14) . 3_757
C2 C7 N1 109.91(13) . 3_757
C9 C8 C13 121.01(15) . .
C9 C8 S1 118.95(12) . .
C13 C8 S1 120.01(13) . .
C8 C9 C10 118.99(15) . .
C8 C9 H9 120.5 . .
C10 C9 H9 120.5 . .
C9 C10 C11 121.22(16) . .
C9 C10 H10 119.4 . .
C11 C10 H10 119.4 . .
C12 C11 C10 118.59(16) . .
C12 C11 C14 121.13(16) . .
C10 C11 C14 120.26(17) . .
C13 C12 C11 121.23(16) . .
C13 C12 H12 119.4 . .
C11 C12 H12 119.4 . .
C12 C13 C8 118.95(16) . .
C12 C13 H13 120.5 . .
C8 C13 H13 120.5 . .
C11 C14 H14A 109.5 . .
C11 C14 H14B 109.5 . .
H14A C14 H14B 109.5 . .
C11 C14 H14C 109.5 . .
H14A C14 H14C 109.5 . .
H14B C14 H14C 109.5 . .
loop_
_geom_bond_atom_site_label_1
_geom_bond_atom_site_label_2
_geom_bond_distance
_geom_bond_site_symmetry_2
Br1 C4 1.894(3) .
Cl1 C4 1.723(8) .
S1 O1 1.4263(12) .
S1 O2 1.4271(12) .
S1 N1 1.6776(13) .
S1 C8 1.7571(17) .
N1 C1 1.4099(19) .
N1 C7 1.4291(19) 3_757
C1 C1 1.368(3) 3_757
C1 C2 1.441(2) .
C2 C3 1.401(2) .
C2 C7 1.415(2) .
C3 C4 1.378(2) .
C3 H3 0.9500 .
C4 C5 1.395(2) .
C5 C6 1.379(2) .
C5 H5 0.9500 .
C6 C7 1.391(2) .
C6 H6 0.9500 .
C7 N1 1.4291(19) 3_757
C8 C9 1.390(2) .
C8 C13 1.394(2) .
C9 C10 1.392(2) .
C9 H9 0.9500 .
C10 C11 1.395(2) .
C10 H10 0.9500 .
C11 C12 1.394(2) .
C11 C14 1.509(2) .
C12 C13 1.391(2) .
C12 H12 0.9500 .
C13 H13 0.9500 .
C14 H14A 0.9800 .
C14 H14B 0.9800 .
C14 H14C 0.9800 .
loop_
_geom_torsion_atom_site_label_1
_geom_torsion_atom_site_label_2
_geom_torsion_atom_site_label_3
_geom_torsion_atom_site_label_4
_geom_torsion
_geom_torsion_site_symmetry_1
_geom_torsion_site_symmetry_4
O1 S1 N1 C1 -41.74(14) . .
O2 S1 N1 C1 -171.08(12) . .
C8 S1 N1 C1 73.42(13) . .
O1 S1 N1 C7 176.27(12) . 3_757
O2 S1 N1 C7 46.93(14) . 3_757
C8 S1 N1 C7 -68.56(13) . 3_757
C7 N1 C1 C1 -2.9(2) 3_757 3_757
S1 N1 C1 C1 -149.94(14) . 3_757
C7 N1 C1 C2 -178.81(19) 3_757 .
S1 N1 C1 C2 34.1(3) . .
C1 C1 C2 C3 -176.93(18) 3_757 .
N1 C1 C2 C3 -1.0(3) . .
C1 C1 C2 C7 1.4(2) 3_757 .
N1 C1 C2 C7 177.37(18) . .
C7 C2 C3 C4 -0.1(2) . .
C1 C2 C3 C4 178.11(17) . .
C2 C3 C4 C5 1.4(2) . .
C2 C3 C4 Cl1 -177.4(5) . .
C2 C3 C4 Br1 -178.5(2) . .
C3 C4 C5 C6 -1.5(2) . .
Cl1 C4 C5 C6 177.3(5) . .
Br1 C4 C5 C6 178.4(2) . .
C4 C5 C6 C7 0.1(2) . .
C5 C6 C7 C2 1.2(2) . .
C5 C6 C7 N1 -179.16(15) . 3_757
C3 C2 C7 C6 -1.3(2) . .
C1 C2 C7 C6 -179.95(14) . .
C3 C2 C7 N1 179.07(13) . 3_757
C1 C2 C7 N1 0.38(16) . 3_757
O1 S1 C8 C9 25.62(15) . .
O2 S1 C8 C9 159.56(12) . .
N1 S1 C8 C9 -86.84(14) . .
O1 S1 C8 C13 -156.17(12) . .
O2 S1 C8 C13 -22.23(15) . .
N1 S1 C8 C13 91.36(13) . .
C13 C8 C9 C10 -0.1(2) . .
S1 C8 C9 C10 178.06(13) . .
C8 C9 C10 C11 -0.2(3) . .
C9 C10 C11 C12 0.7(3) . .
C9 C10 C11 C14 -177.68(16) . .
C10 C11 C12 C13 -1.0(2) . .
C14 C11 C12 C13 177.42(16) . .
C11 C12 C13 C8 0.7(2) . .
C9 C8 C13 C12 -0.1(2) . .
S1 C8 C13 C12 -178.28(12) . .
