#------------------------------------------------------------------------------
#$Date: 2016-04-28 05:14:46 +0300 (Thu, 28 Apr 2016) $
#$Revision: 182306 $
#$URL: svn://www.crystallography.net/cod/cif/1/54/31/1543166.cif $
#------------------------------------------------------------------------------
#
# This file is available in the Crystallography Open Database (COD),
# http://www.crystallography.net/. The original data for this entry
# were provided by IUCr Journals, http://journals.iucr.org/.
#
# The file may be used within the scientific community so long as
# proper attribution is given to the journal article from which the
# data were obtained.
#
data_1543166
loop_
_publ_author_name
'Moreno-Fuquen, Rodolfo'
'Castillo, Juan C.'
'Abonia, Rodrigo'
'Tenorio, Juan C.'
'Ellena, Javier'
_publ_section_title
;
 3-<i>tert</i>-Butyl-4-(4-chlorophenyl)-1-phenyl-1<i>H</i>-pyrazolo[3,4-<i>e</i>][1,4]thiazepin-7(4<i>H</i>,6<i>H</i>,8<i>H</i>)-one
;
_journal_coeditor_code           HG4005
_journal_issue                   4
_journal_name_full               IUCrData
_journal_page_first              x160608
_journal_paper_doi               10.1107/S2414314616006088
_journal_volume                  1
_journal_year                    2016
_chemical_formula_iupac          'C22 H22 Cl N3 O S'
_chemical_formula_moiety         'C22 H22 Cl N3 O S'
_chemical_formula_sum            'C22 H22 Cl N3 O S'
_chemical_formula_weight         411.94
_chemical_melting_point          518.0(10)
_chemical_name_common
(+-)-3-<i>tert</i>-Butyl-4-(4-chlorophenyl)-1-phenyl-1<i>H</i>-pyrazolo[3,4-<i>e</i>][1,4]thiazepin-7(4<i>H</i>,6<i>H</i>,8<i>H</i>)-one
_space_group_IT_number           14
_space_group_name_Hall           '-P 2ybc'
_space_group_name_H-M_alt        'P 1 21/c 1'
_symmetry_cell_setting           monoclinic
_symmetry_space_group_name_Hall  '-P 2ybc'
_symmetry_space_group_name_H-M   'P 1 21/c 1'
_atom_sites_solution_hydrogens   mixed
_atom_sites_solution_primary     direct
_atom_sites_solution_secondary   difmap
_audit_creation_method           SHELXL-2014/7
_cell_angle_alpha                90
_cell_angle_beta                 101.733(2)
_cell_angle_gamma                90
_cell_formula_units_Z            4
_cell_length_a                   9.7478(3)
_cell_length_b                   25.2229(8)
_cell_length_c                   8.6354(2)
_cell_measurement_reflns_used    7625
_cell_measurement_temperature    295
_cell_measurement_theta_max      26.378
_cell_measurement_theta_min      3.229
_cell_volume                     2078.80(10)
_computing_cell_refinement
;
SCALEPACK (Otwinowski & Minor, 1997)
;
_computing_data_collection
;
COLLECT (Nonius, 2000)
;
_computing_data_reduction
;
DENZO and SCALEPACK (Otwinowski & Minor, 1997
;
_computing_molecular_graphics
;
ORTEP-3 for Windows (Farrugia, 2012) and Mercury (Macrae <i>et al.</i>,
2006)
;
_computing_publication_material
;
SHELXL2014 (Sheldrick, 2015)
;
_computing_structure_refinement
;
SHELXL2014 (Sheldrick, 2015)
;
_computing_structure_solution
;
SHELXS97 (Sheldrick, 2008)
;
_diffrn_ambient_temperature      295
_diffrn_measured_fraction_theta_full 0.998
_diffrn_measured_fraction_theta_max 0.998
_diffrn_measurement_device_type  'Oxford Diffraction Gemini S'
_diffrn_measurement_method       'omega scans'
_diffrn_radiation_monochromator  graphite
_diffrn_radiation_source         'fine-focus sealed tube'
_diffrn_radiation_type           MoK\a
_diffrn_radiation_wavelength     0.71073
_diffrn_reflns_av_R_equivalents  0
_diffrn_reflns_av_sigmaI/netI    0.1152
_diffrn_reflns_limit_h_max       12
_diffrn_reflns_limit_h_min       0
_diffrn_reflns_limit_k_max       0
_diffrn_reflns_limit_k_min       -31
_diffrn_reflns_limit_l_max       10
_diffrn_reflns_limit_l_min       -10
_diffrn_reflns_number            4362
_diffrn_reflns_theta_full        25.242
_diffrn_reflns_theta_max         26.378
_diffrn_reflns_theta_min         3.229
_diffrn_standards_decay_%        0
_diffrn_standards_interval_time  120
_diffrn_standards_number         0
_exptl_absorpt_coefficient_mu    0.302
_exptl_absorpt_correction_type   none
_exptl_crystal_colour            yellow
_exptl_crystal_density_diffrn    1.313
_exptl_crystal_density_method    'not measured'
_exptl_crystal_description       block
_exptl_crystal_F_000             864
_exptl_crystal_size_max          0.46
_exptl_crystal_size_mid          0.45
_exptl_crystal_size_min          0.20
_refine_diff_density_max         0.396
_refine_diff_density_min         -0.379
_refine_ls_extinction_method     none
_refine_ls_goodness_of_fit_ref   0.945
_refine_ls_hydrogen_treatment    mixed
_refine_ls_matrix_type           full
_refine_ls_number_parameters     257
_refine_ls_number_reflns         4251
_refine_ls_number_restraints     0
_refine_ls_restrained_S_all      0.945
_refine_ls_R_factor_all          0.1080
_refine_ls_R_factor_gt           0.0483
_refine_ls_shift/su_max          0.000
_refine_ls_shift/su_mean         0.000
_refine_ls_structure_factor_coef Fsqd
_refine_ls_weighting_details
'calc w=1/[\s^2^(Fo^2^)+(0.0442P)^2^] where P=(Fo^2^+2Fc^2^)/3'
_refine_ls_weighting_scheme      calc
_refine_ls_wR_factor_gt          0.1037
_refine_ls_wR_factor_ref         0.1146
_reflns_number_gt                2417
_reflns_number_total             4251
_reflns_threshold_expression     I>2\s(I)
_cod_data_source_file            hg4005sup1.cif
_cod_data_source_block           I
_cod_database_code               1543166
_shelx_hkl_file
;
   1   0 -10 -260.90 103.075   1
   2   0 -10  757.10 98.6632   1
   3   0 -10   47.80 66.1233   1
   4   0 -10 1249.00  243.97   1
   5   0 -10   38.40 194.116   1
   6   0 -10  -31.40 204.535   1
   1  -1 -10   68.10 127.849   1
   2  -1 -10   20.80 76.4121   1
   3  -1 -10  110.70 114.282   1
   4  -1 -10   33.00  149.20   1
   5  -1 -10  117.15 137.146   1
   6  -1 -10  -80.50 179.151   1
   1  -2 -10   19.65 147.998   1
   2  -2 -10  209.60 148.247   1
   3  -2 -10  116.30 76.5246   1
   4  -2 -10  169.20 146.254   1
   5  -2 -10  -98.40  193.20   1
   6  -2 -10 -167.90  240.00   1
   1  -3 -10  199.40 72.4763   1
   2  -3 -10  177.05 79.6867   1
   3  -3 -10  264.55  102.58   1
   4  -3 -10  -63.45 141.957   1
   5  -3 -10  348.35 105.654   1
   6  -3 -10   34.80 174.373   1
   1  -4 -10  131.40 76.1937   1
   2  -4 -10   31.00 74.0418   1
   3  -4 -10  207.30 104.811   1
   4  -4 -10   31.95 118.017   1
   5  -4 -10   -2.05  128.70   1
   6  -4 -10   82.65 145.449   1
   1  -5 -10  258.25 145.792   1
   2  -5 -10   67.05 207.821   1
   3  -5 -10  418.00 106.891   1
   4  -5 -10  161.40 237.036   1
   5  -5 -10  -10.10  218.40   1
   6  -5 -10  319.40 136.863   1
   1  -6 -10   32.60 75.3143   1
   2  -6 -10   61.80 99.5236   1
   3  -6 -10  162.80 106.545   1
   4  -6 -10  149.95 110.965   1
   5  -6 -10    3.15 125.706   1
   6  -6 -10  -75.40 132.966   1
   1  -7 -10  106.70 118.806   1
   2  -7 -10  133.80 92.8148   1
   3  -7 -10  153.20 108.475   1
   4  -7 -10  106.40 113.563   1
   5  -7 -10  -39.60 164.498   1
   1  -8 -10  -67.55  149.70   1
   2  -8 -10  186.75 89.3985   1
   3  -8 -10  305.60 107.871   1
   4  -8 -10  588.15 723.359   1
   5  -8 -10 -123.15 157.505   1
   1  -9 -10    8.30 90.5641   1
   2  -9 -10  -43.60 120.656   1
   3  -9 -10  157.80 123.345   1
   4  -9 -10  223.70  285.41   1
   5  -9 -10   -0.25 178.113   1
   1 -10 -10   76.55 90.4881   1
   2 -10 -10  -97.60 127.087   1
   3 -10 -10  156.90 98.0364   1
   4 -10 -10  517.15 104.459   1
   1 -11 -10    3.30 91.2693   1
   2 -11 -10   26.45 97.2731   1
   3 -11 -10  286.40 112.806   1
   4 -11 -10   61.20 100.979   1
   1   0  -9  -81.10 54.6827   1
   2   0  -9   -6.70 59.6659   1
   3   0  -9   20.40 61.1943   1
   4   0  -9    1.40 52.8325   1
   5   0  -9  -95.90 56.4006   1
   6   0  -9 -108.40 78.0873   1
   7   0  -9   69.10 95.5943   1
   8   0  -9    0.80 105.684   1
   1  -1  -9   57.10 42.8081   1
   2  -1  -9  367.30 45.2389   1
   3  -1  -9   57.30 70.8783   1
   4  -1  -9   35.85 43.5492   1
   5  -1  -9 1885.00 116.329   1
   6  -1  -9  -41.65 76.9977   1
   7  -1  -9  220.05 187.486   1
   8  -1  -9   -5.05 102.309   1
   1  -2  -9   83.60 43.3586   1
   2  -2  -9   47.05 37.5843   1
   3  -2  -9   70.85 41.0696   1
   4  -2  -9   25.25 44.2144   1
   5  -2  -9   41.20 50.5709   1
   6  -2  -9  198.95  60.355   1
   7  -2  -9  -78.45  124.30   1
   8  -2  -9  -57.40  258.00   1
   1  -3  -9   61.30 68.5962   1
   2  -3  -9  390.90 45.4342   1
   3  -3  -9  -61.80  55.384   1
   4  -3  -9 1044.90 109.803   1
   5  -3  -9  116.35 59.6375   1
   6  -3  -9  381.00 62.7477   1
   7  -3  -9  -63.35  91.483   1
   8  -3  -9  214.70 97.7811   1
   1  -4  -9   44.10 43.7798   1
   2  -4  -9  681.35 53.3039   1
   3  -4  -9  627.95 72.9909   1
   4  -4  -9   80.00 98.4374   1
   5  -4  -9  229.95 65.0314   1
   6  -4  -9  118.15 140.514   1
   7  -4  -9   50.95  75.594   1
   8  -4  -9  163.15 73.8526   1
   1  -5  -9  585.10 76.4803   1
   2  -5  -9  121.80 63.8101   1
   3  -5  -9    5.25 51.2653   1
   4  -5  -9    4.15 85.3478   1
   5  -5  -9  -31.75 89.1154   1
   6  -5  -9  243.10 201.138   1
   7  -5  -9  -96.80 136.907   1
   8  -5  -9   63.65 98.0809   1
   1  -6  -9  166.50 64.0561   1
   2  -6  -9  834.70 72.2388   1
   3  -6  -9  -12.20 72.5298   1
   4  -6  -9   59.40 59.7263   1
   5  -6  -9  243.10 76.0405   1
   6  -6  -9  -38.95  264.30   1
   7  -6  -9  397.80 117.313   1
   8  -6  -9  173.65  154.81   1
   1  -7  -9 1127.85 132.235   1
   2  -7  -9   78.55 56.5034   1
   3  -7  -9  248.95 75.5509   1
   4  -7  -9  115.25 64.6707   1
   5  -7  -9   14.80 89.0958   1
   6  -7  -9  118.70 81.0266   1
   7  -7  -9  431.40 139.043   1
   8  -7  -9  -77.90  284.40   1
   1  -8  -9  519.20 87.2199   1
   2  -8  -9   37.20 92.9157   1
   3  -8  -9    9.00 108.753   1
   4  -8  -9  -42.70  120.60   1
   5  -8  -9  -44.35 128.529   1
   6  -8  -9 -108.30  152.80   1
   7  -8  -9  512.70 129.466   1
   1  -9  -9  123.15 57.4564   1
   2  -9  -9  489.65 67.2982   1
   3  -9  -9  165.15 71.4902   1
   4  -9  -9   11.80 70.7666   1
   5  -9  -9  450.90 153.325   1
   6  -9  -9   61.75 236.529   1
   7  -9  -9   92.75 115.713   1
   1 -10  -9  174.20 67.6555   1
   2 -10  -9   44.65 82.9466   1
   3 -10  -9  248.40 78.5287   1
   4 -10  -9   53.50 76.8894   1
   5 -10  -9  209.55  240.51   1
   6 -10  -9  106.40 125.717   1
   7 -10  -9  -58.65 155.733   1
   1 -11  -9  -42.40  188.60   1
   2 -11  -9  100.05 69.9406   1
   3 -11  -9  112.05 75.0471   1
   4 -11  -9  -37.90  229.40   1
   5 -11  -9 1075.20 145.019   1
   6 -11  -9  -38.70  218.00   1
   7 -11  -9  267.35  139.32   1
   1 -12  -9  -62.15 92.2828   1
   2 -12  -9   63.70 79.3162   1
   3 -12  -9   44.50 94.2204   1
   4 -12  -9   43.25 79.7725   1
   5 -12  -9   56.60 110.521   1
   6 -12  -9   57.05 123.102   1
   1 -13  -9   13.30 67.5235   1
   2 -13  -9   63.70 89.9496   1
   3 -13  -9  459.60 89.8199   1
   4 -13  -9  -39.90 130.568   1
   5 -13  -9  553.45 115.392   1
   6 -13  -9  423.75  190.40   1
   1 -14  -9  136.35 89.4378   1
   2 -14  -9   83.90 160.801   1
   3 -14  -9  228.20 86.4506   1
   4 -14  -9  174.75 121.324   1
   5 -14  -9  -23.50 210.012   1
   1 -15  -9   53.10 80.2212   1
   2 -15  -9  144.00 69.0823   1
   3 -15  -9  405.75 326.534   1
   4 -15  -9  -21.40 172.131   1
   5 -15  -9  162.45 130.595   1
   1 -16  -9   38.95 85.3795   1
   2 -16  -9  230.20 87.2647   1
   3 -16  -9  -46.50  200.40   1
   4 -16  -9 -119.45  446.30   1
   1 -17  -9   28.40 92.1679   1
   2 -17  -9   42.00 108.755   1
   3 -17  -9  -90.50 129.729   1
   1   0  -8  411.90 82.2731   1
   2   0  -8  -13.90 54.5354   1
   3   0  -8  829.40 70.5649   1
   4   0  -8  307.50 52.3055   1
   5   0  -8   51.90  67.685   1
   6   0  -8  589.80 83.0573   1
   7   0  -8  601.30 99.4367   1
   8   0  -8  174.40 68.0658   1
   9   0  -8  371.40 96.5112   1
   1  -1  -8   29.25 66.3989   1
   2  -1  -8 1275.35   60.73   1
   3  -1  -8   95.05 31.0187   1
   4  -1  -8  403.05 84.1752   1
   5  -1  -8  -32.90 39.3433   1
   6  -1  -8   -5.20 61.6759   1
   7  -1  -8   31.65 51.2966   1
   8  -1  -8   47.25 63.8561   1
   9  -1  -8  -59.00  223.40   1
   1  -2  -8   30.15 27.3387   1
   2  -2  -8   92.90 28.6694   1
   3  -2  -8   -4.45   78.30   1
   4  -2  -8   10.70 27.0823   1
   5  -2  -8   78.65 137.396   1
   6  -2  -8  583.50 67.2453   1
   7  -2  -8  257.70 57.2947   1
   8  -2  -8  200.55 91.7665   1
   9  -2  -8  584.00 93.2541   1
   1  -3  -8  -16.85   38.90   1
   2  -3  -8 1415.65 64.4187   1
   3  -3  -8   47.80 43.7057   1
   4  -3  -8 1377.45 133.243   1
   5  -3  -8   57.10 78.6355   1
   6  -3  -8   37.80  49.499   1
   7  -3  -8   36.35  71.915   1
   8  -3  -8  177.55 69.6071   1
   9  -3  -8  272.70 83.3836   1
   1  -4  -8   44.20 57.4213   1
   2  -4  -8   29.50 26.8416   1
   3  -4  -8   -1.80 33.8767   1
   4  -4  -8  -14.60 36.9848   1
   5  -4  -8  -18.15   77.90   1
   6  -4  -8  101.35 52.6658   1
   7  -4  -8  193.95 57.8978   1
   8  -4  -8  -57.10 92.6495   1
   9  -4  -8  396.55 92.7724   1
   1  -5  -8  712.20 85.4566   1
   2  -5  -8  -19.55   41.90   1
   3  -5  -8  241.05 37.9478   1
   4  -5  -8  364.65 41.4855   1
   5  -5  -8   30.45 29.5723   1
   6  -5  -8   27.70 90.3693   1
   7  -5  -8  553.70 73.7657   1
   8  -5  -8 -115.90  268.80   1
   9  -5  -8    9.00 65.0692   1
   1  -6  -8  116.95 36.9916   1
   2  -6  -8    9.40 27.2947   1
   3  -6  -8   89.95 21.0572   1
   4  -6  -8  180.20 27.6158   1
   5  -6  -8  212.80 49.8678   1
   6  -6  -8   40.35 71.6328   1
   7  -6  -8  503.95 117.438   1
   8  -6  -8   14.70 76.7922   1
   9  -6  -8  -47.50 110.219   1
   1  -7  -8  444.35 35.8148   1
   2  -7  -8  446.30  45.662   1
   3  -7  -8  862.70 164.333   1
   4  -7  -8  285.65 51.8767   1
   5  -7  -8  503.35  108.55   1
   6  -7  -8  119.85 59.3565   1
   7  -7  -8  687.05 154.884   1
   8  -7  -8  119.95 81.9756   1
   9  -7  -8  155.55 86.3987   1
   1  -8  -8  -21.55   66.30   1
   2  -8  -8  348.40 103.949   1
   3  -8  -8   57.70 41.2522   1
   4  -8  -8  226.90 45.0832   1
   5  -8  -8  434.50 127.323   1
   6  -8  -8   35.75 69.2281   1
   7  -8  -8  390.75 72.6799   1
   8  -8  -8   10.85 74.7996   1
   9  -8  -8  153.70 76.0465   1
   1  -9  -8  116.35  36.604   1
   2  -9  -8 1593.30  141.56   1
   3  -9  -8   52.10 48.3102   1
   4  -9  -8  463.25 58.2706   1
   5  -9  -8  -73.55   82.10   1
   6  -9  -8   39.75 50.5677   1
   7  -9  -8  145.95 58.6743   1
   8  -9  -8 -129.20 104.017   1
   9  -9  -8  340.95 83.0697   1
   1 -10  -8  437.80 60.9703   1
   2 -10  -8  632.50 89.3739   1
   3 -10  -8  -41.95 72.5654   1
   4 -10  -8  -37.20 75.1643   1
   5 -10  -8  234.75 60.6487   1
   6 -10  -8  -48.25 67.4575   1
   7 -10  -8  506.90  87.939   1
   8 -10  -8  595.20 90.3584   1
   1 -11  -8    3.35 58.1949   1
   2 -11  -8   -5.45 80.2319   1
   3 -11  -8   -0.65 91.8417   1
   4 -11  -8   95.20  78.949   1
   5 -11  -8  -42.55  193.70   1
   6 -11  -8   63.30 63.5538   1
   7 -11  -8  287.75 188.216   1
   8 -11  -8   97.85 207.683   1
   1 -12  -8   70.35 60.0083   1
   2 -12  -8  623.35 75.8632   1
   3 -12  -8  612.10 67.3872   1
   4 -12  -8   72.35 84.3172   1
   5 -12  -8  177.00 91.6944   1
   6 -12  -8  498.40 75.6377   1
   7 -12  -8   59.15 79.7689   1
   8 -12  -8  467.20 105.894   1
   1 -13  -8   30.35 57.8993   1
   2 -13  -8  752.60 90.7626   1
   3 -13  -8  485.10  93.782   1
   4 -13  -8  124.40 88.5106   1
   5 -13  -8  485.15 95.9497   1
   6 -13  -8   31.20 126.573   1
   7 -13  -8  175.85 108.576   1
   8 -13  -8  -10.20 112.052   1
   1 -14  -8  164.65 71.8907   1
   2 -14  -8  107.85 61.0337   1
   3 -14  -8  -22.40  170.00   1
   4 -14  -8  200.00  103.71   1
   5 -14  -8  248.70 103.085   1
   6 -14  -8  761.00  125.51   1
   7 -14  -8  264.35 102.246   1
   1 -15  -8  261.65 84.4007   1
   2 -15  -8   64.80 75.4936   1
   3 -15  -8  508.10 127.533   1
   4 -15  -8   82.35 103.966   1
   5 -15  -8   21.15 97.7925   1
   6 -15  -8   45.50 99.5984   1
   7 -15  -8   -2.20 143.535   1
   1 -16  -8  127.90 70.3292   1
   2 -16  -8  -24.95 99.1232   1
   3 -16  -8    4.55 209.657   1
   4 -16  -8   73.65 89.9524   1
   5 -16  -8  267.45 121.816   1
   6 -16  -8    9.60 115.384   1
   7 -16  -8  158.40 132.175   1
   1 -17  -8  -62.35 100.069   1
   2 -17  -8  -51.35 98.6001   1
   3 -17  -8  178.35 105.891   1
   4 -17  -8   79.35 115.705   1
   5 -17  -8  767.85 152.745   1
   6 -17  -8  -21.25 179.932   1
   1 -18  -8  -29.80 104.353   1
   2 -18  -8   57.85 87.0943   1
   3 -18  -8  -70.10 156.259   1
   4 -18  -8  145.00 149.924   1
   5 -18  -8  753.80 1046.87   1
   6 -18  -8  120.05  136.06   1
   1 -19  -8  113.70 141.433   1
   2 -19  -8  182.95 111.893   1
   3 -19  -8  170.90 128.665   1
   4 -19  -8  187.00 144.846   1
   5 -19  -8  230.85  134.99   1
   1 -20  -8   38.65  98.219   1
   2 -20  -8   60.95 130.606   1
   3 -20  -8 -123.55 156.082   1
   4 -20  -8   71.55 101.677   1
   1 -21  -8   48.95 148.707   1
   2 -21  -8 -117.75  153.66   1
   1   0  -7  -19.40  17.888   1
   2   0  -7    2.10 31.2696   1
   3   0  -7  -11.90 32.4504   1
   4   0  -7   24.50 34.1171   1
   5   0  -7   43.80 44.6763   1
   6   0  -7   44.80 59.0975   1
   7   0  -7   -2.10 66.6862   1
   8   0  -7  -49.10 70.9349   1
   9   0  -7   60.90 89.9786   1
  10   0  -7   16.50 109.857   1
   1  -1  -7  179.60 21.9795   1
   2  -1  -7 1090.00 49.2714   1
   3  -1  -7  -41.55 31.2082   1
   4  -1  -7  171.80  31.766   1
   5  -1  -7    6.80 36.6618   1
   6  -1  -7  651.35 57.8479   1
   7  -1  -7   67.80 45.8043   1
   8  -1  -7  151.85 102.488   1
   9  -1  -7  509.10 72.0984   1
  10  -1  -7  291.65 77.7661   1
   1  -2  -7  150.40 18.5493   1
   2  -2  -7  252.55 34.8077   1
   3  -2  -7  245.15 49.5785   1
   4  -2  -7  502.95 37.1958   1
   5  -2  -7  959.00 67.1574   1
   6  -2  -7  643.80 57.8947   1
   7  -2  -7  953.20 75.4915   1
   8  -2  -7   62.20 58.6981   1
   9  -2  -7  635.35 82.5048   1
  10  -2  -7   10.55 202.586   1
   1  -3  -7 1931.95  67.843   1
   2  -3  -7   -4.45 28.1504   1
   3  -3  -7  115.65 23.9645   1
   4  -3  -7   18.40 24.4752   1
   5  -3  -7   36.45 25.5449   1
   6  -3  -7  410.60 63.5478   1
   7  -3  -7  131.50 45.7366   1
   8  -3  -7  486.55 63.5434   1
   9  -3  -7   -6.25 79.6047   1
  10  -3  -7   58.80 71.2651   1
   1  -4  -7    0.70 21.3426   1
   2  -4  -7 2810.95 102.585   1
   3  -4  -7   45.55 19.3652   1
   4  -4  -7  151.05 33.9545   1
   5  -4  -7  512.20 37.7387   1
   6  -4  -7  711.05 63.1304   1
   7  -4  -7  238.95 52.7844   1
   8  -4  -7  450.45 140.824   1
   9  -4  -7  284.00 66.3492   1
  10  -4  -7   60.45 72.8782   1
   1  -5  -7   53.00  99.847   1
   2  -5  -7  969.05 63.6035   1
   3  -5  -7  167.05 56.8421   1
   4  -5  -7   16.05 32.9564   1
   5  -5  -7   39.10 98.5726   1
   6  -5  -7   42.85 41.3713   1
   7  -5  -7  150.85 56.2593   1
   8  -5  -7  294.10 59.5162   1
   9  -5  -7   21.00 149.483   1
  10  -5  -7   95.50 105.228   1
   1  -6  -7  163.45 24.2165   1
   2  -6  -7  893.15 46.0652   1
   3  -6  -7   13.35  52.397   1
   4  -6  -7 2868.80 147.671   1
   5  -6  -7   69.50 24.3036   1
   6  -6  -7 1391.70 70.0158   1
   7  -6  -7  311.60 82.5957   1
   8  -6  -7  932.60 74.8376   1
   9  -6  -7   48.75 49.2508   1
  10  -6  -7   17.40 78.1404   1
   1  -7  -7 1264.20  71.222   1
   2  -7  -7 1887.75 91.6973   1
   3  -7  -7   36.45 31.8188   1
   4  -7  -7   29.85 69.9345   1
   5  -7  -7   53.15 46.3231   1
   6  -7  -7   12.95 42.3562   1
   7  -7  -7   27.00  57.374   1
   8  -7  -7  159.40 87.0106   1
   9  -7  -7   77.90 106.389   1
  10  -7  -7   36.90 84.2394   1
   1  -8  -7  490.00 36.2575   1
   2  -8  -7  654.95  42.368   1
   3  -8  -7  471.95 48.7287   1
   4  -8  -7  885.45 53.5373   1
   5  -8  -7   84.00  50.929   1
   6  -8  -7  323.15 100.892   1
   7  -8  -7 1159.30 92.4457   1
   8  -8  -7  617.30 269.019   1
   9  -8  -7  224.05 77.5217   1
  10  -8  -7   12.50 191.626   1
   1  -9  -7 2195.05 95.3816   1
   2  -9  -7  507.40 43.7342   1
   3  -9  -7   43.70 38.7041   1
   4  -9  -7  402.85 51.5178   1
   5  -9  -7   16.35 27.0312   1
   6  -9  -7  957.20 57.1129   1
   7  -9  -7  -57.75 70.6952   1
   8  -9  -7  375.10  69.543   1
   9  -9  -7   45.80 71.9967   1
  10  -9  -7   82.05  74.855   1
   1 -10  -7  443.40 44.2497   1
   2 -10  -7  452.80 118.445   1
   3 -10  -7  594.10 33.4876   1
   4 -10  -7  210.10 24.3595   1
   5 -10  -7  688.30 52.3609   1
   6 -10  -7  236.65 56.6216   1
   7 -10  -7  203.10 64.3869   1
   8 -10  -7  -23.95  110.10   1
   9 -10  -7   42.60 135.766   1
   1 -11  -7 2702.10 127.833   1
   2 -11  -7  113.85 104.738   1
   3 -11  -7  351.65 39.4963   1
   4 -11  -7 1679.30 97.9005   1
   5 -11  -7  213.10 35.2234   1
   6 -11  -7   30.15 61.1666   1
   7 -11  -7  -38.75  146.70   1
   8 -11  -7  315.10 77.8426   1
   9 -11  -7  268.65 80.9654   1
   1 -12  -7  347.65 58.5947   1
   2 -12  -7  251.35 61.4091   1
   3 -12  -7  113.90 25.8318   1
   4 -12  -7   12.25 54.9425   1
   5 -12  -7   28.70 45.9225   1
   6 -12  -7  899.75 83.3877   1
   7 -12  -7  350.00 76.7001   1
   8 -12  -7   48.40 87.1189   1
   9 -12  -7  -59.55 124.363   1
   1 -13  -7 1390.90 77.7839   1
   2 -13  -7  777.20 76.4739   1
   3 -13  -7   40.25 44.3352   1
   4 -13  -7  674.40 168.347   1
   5 -13  -7  -22.65 82.0224   1
   6 -13  -7   14.80 50.3696   1
   7 -13  -7  102.05 66.0162   1
   8 -13  -7  340.35 90.5989   1
   9 -13  -7  244.95 303.868   1
   1 -14  -7  805.65 66.0978   1
   2 -14  -7    6.85 27.6481   1
   3 -14  -7   51.65  82.382   1
   4 -14  -7   -7.00  84.977   1
   5 -14  -7  -64.80 86.9601   1
   6 -14  -7   34.20 66.7968   1
   7 -14  -7  840.90  102.08   1
   8 -14  -7  -16.70 111.626   1
   1 -15  -7  885.00 65.5704   1
   2 -15  -7  307.85 38.2055   1
   3 -15  -7   51.55 57.8821   1
   4 -15  -7  488.95 59.5266   1
   5 -15  -7  221.75 95.5945   1
   6 -15  -7  163.80 62.8977   1
   7 -15  -7   97.95 76.1149   1
   8 -15  -7  201.95 135.307   1
   1 -16  -7  407.60 57.6859   1
   2 -16  -7  321.00 83.8357   1
   3 -16  -7   90.70  226.42   1
   4 -16  -7  329.55 84.4919   1
   5 -16  -7  -31.65  142.50   1
   6 -16  -7  436.40 91.7744   1
   7 -16  -7  141.70 90.1133   1
   8 -16  -7   46.00 98.7148   1
   1 -17  -7   42.55 119.149   1
   2 -17  -7  -63.25 102.555   1
   3 -17  -7   63.60  101.97   1
   4 -17  -7  131.10 90.9576   1
   5 -17  -7   26.25 96.4038   1
   6 -17  -7   -3.70 138.694   1
   7 -17  -7  -13.25 119.241   1
   8 -17  -7  -77.00 134.316   1
   1 -18  -7   47.60 79.9066   1
   2 -18  -7  523.95 146.252   1
   3 -18  -7  116.90 98.2644   1
   4 -18  -7  384.65 81.3857   1
   5 -18  -7  274.00 131.169   1
   6 -18  -7  426.60 123.723   1
   7 -18  -7  397.55 232.794   1
   1 -19  -7   45.15 149.838   1
   2 -19  -7  429.20 163.483   1
   3 -19  -7  295.65 130.404   1
   4 -19  -7  148.75 338.924   1
   5 -19  -7  -25.30 165.933   1
   6 -19  -7   -3.00  315.00   1
   7 -19  -7   50.40  134.42   1
   1 -20  -7   27.90 63.4039   1
   2 -20  -7 -139.20 140.474   1
   3 -20  -7  116.25 113.246   1
   4 -20  -7   91.15 189.015   1
   5 -20  -7  654.25 206.805   1
   6 -20  -7  229.60 123.373   1
   1 -21  -7  110.05 79.8513   1
   2 -21  -7  131.70 249.759   1
   3 -21  -7 -189.85 140.301   1
   4 -21  -7  -76.40 164.981   1
   5 -21  -7  -23.35  199.50   1
   6 -21  -7 -149.80  334.80   1
   1 -22  -7  235.85 87.8421   1
   2 -22  -7  142.85 118.301   1
   3 -22  -7  -47.35  163.79   1
   4 -22  -7 -152.50  234.60   1
   5 -22  -7  454.65 156.172   1
   1 -23  -7  -10.45 129.595   1
   2 -23  -7   39.10 106.517   1
   3 -23  -7   71.00 124.709   1
   4 -23  -7   -9.15 150.465   1
   1   0  -6 4592.40 190.025   1
   2   0  -6 1571.30 66.0169   1
   3   0  -6  320.40 30.8742   1
   4   0  -6 1598.20 93.5126   1
   5   0  -6  510.00 54.4473   1
   6   0  -6   41.30 41.8713   1
   7   0  -6  805.70 89.3957   1
   8   0  -6  -12.70 53.8214   1
   9   0  -6  -16.50 81.1981   1
  10   0  -6  199.70  87.411   1
  11   0  -6   86.60 109.004   1
   1  -1  -6  160.45  20.031   1
   2  -1  -6  361.65 24.6115   1
   3  -1  -6  233.05 22.1311   1
   4  -1  -6  953.45 77.0783   1
   5  -1  -6   34.85  68.238   1
   6  -1  -6  249.05 92.3614   1
   7  -1  -6   -2.90 57.5958   1
   8  -1  -6  156.40 55.7749   1
   9  -1  -6   -3.15 69.6893   1
  10  -1  -6  208.65 64.9235   1
  11  -1  -6  -15.20  127.20   1
   1  -2  -6 1965.75 65.4938   1
   2  -2  -6  806.45 40.4578   1
   3  -2  -6  321.95 23.8785   1
   4  -2  -6 1394.50 60.5577   1
   5  -2  -6  615.30 48.9924   1
   6  -2  -6  678.00 52.5597   1
   7  -2  -6  237.45 55.4936   1
   8  -2  -6   42.00 117.382   1
   9  -2  -6  -31.40  148.80   1
  10  -2  -6   71.05 58.7705   1
  11  -2  -6   20.30 128.694   1
   1  -3  -6  829.70 33.5455   1
   2  -3  -6  320.55 40.5523   1
   3  -3  -6    8.90 17.0642   1
   4  -3  -6  411.80 27.8591   1
   5  -3  -6   91.15 58.2127   1
   6  -3  -6  771.05 58.4953   1
   7  -3  -6  193.65 45.8934   1
   8  -3  -6  308.65 52.4023   1
   9  -3  -6   89.25 99.3585   1
  10  -3  -6  341.80 81.6378   1
  11  -3  -6    9.40   82.36   1
   1  -4  -6   24.20 29.1353   1
   2  -4  -6   48.20 34.3738   1
   3  -4  -6  122.30 31.8785   1
   4  -4  -6 1049.90 43.1553   1
   5  -4  -6  -33.95 48.4501   1
   6  -4  -6   93.65 40.6317   1
   7  -4  -6  272.70 59.5533   1
   8  -4  -6  361.00 56.7151   1
   9  -4  -6   39.45   49.03   1
  10  -4  -6   98.45 161.299   1
  11  -4  -6  -40.05  112.38   1
   1  -5  -6   65.70 19.4575   1
   2  -5  -6  148.80 25.2993   1
   3  -5  -6   22.65 16.1805   1
   4  -5  -6  344.90 27.4179   1
   5  -5  -6   -1.50 37.3282   1
   6  -5  -6   99.30 46.4128   1
   7  -5  -6  943.10 53.8698   1
   8  -5  -6  124.70 41.0596   1
   9  -5  -6 1068.55 77.4694   1
  10  -5  -6  196.85 71.2859   1
  11  -5  -6  175.40 86.3881   1
   1  -6  -6  379.85 62.8665   1
   2  -6  -6  159.60 15.2805   1
   3  -6  -6   78.90 37.3561   1
   4  -6  -6  426.30 41.4828   1
   5  -6  -6  424.50 35.0147   1
   6  -6  -6 2995.95 154.293   1
   7  -6  -6   33.05 34.7566   1
   8  -6  -6   64.95  39.224   1
   9  -6  -6   32.35 66.8235   1
  10  -6  -6  261.80 80.3123   1
  11  -6  -6  205.20 95.5145   1
   1  -7  -6  363.30 29.4163   1
   2  -7  -6   16.65  13.836   1
   3  -7  -6  388.35 51.2104   1
   4  -7  -6  184.70 25.9038   1
   5  -7  -6 5868.95 254.264   1
   6  -7  -6  821.85 45.3093   1
   7  -7  -6  769.05 46.1674   1
   8  -7  -6  472.55 48.6654   1
   9  -7  -6  408.00 70.8635   1
  10  -7  -6  407.25   94.35   1
   1  -8  -6 3073.50 113.753   1
   2  -8  -6   13.35 15.8926   1
   3  -8  -6  140.60 17.6847   1
   4  -8  -6   14.35 30.9014   1
   5  -8  -6 1037.50 61.7569   1
   6  -8  -6 1573.30 183.281   1
   7  -8  -6  146.30 47.2913   1
   8  -8  -6   29.80 69.5809   1
   9  -8  -6  -62.40   95.20   1
  10  -8  -6    1.00 71.9339   1
   1  -9  -6  204.85  57.579   1
   2  -9  -6  199.20 63.8587   1
   3  -9  -6 2429.40 126.196   1
   4  -9  -6 1801.80 120.101   1
   5  -9  -6  750.30 47.1945   1
   6  -9  -6  126.05  39.295   1
   7  -9  -6   12.80  51.902   1
   8  -9  -6  662.10  65.161   1
   9  -9  -6   37.00 57.7201   1
  10  -9  -6 1111.30 114.464   1
   1 -10  -6  735.25 41.1257   1
   2 -10  -6 1494.95 56.2623   1
   3 -10  -6  585.15 66.0585   1
   4 -10  -6   37.65 33.3608   1
   5 -10  -6  214.30 43.7459   1
   6 -10  -6   98.55 35.7429   1
   7 -10  -6  329.40 71.0433   1
   8 -10  -6  -73.90  71.494   1
   9 -10  -6    1.70 49.8244   1
  10 -10  -6  151.00 74.5683   1
   1 -11  -6  211.25  86.261   1
   2 -11  -6  266.80 35.6418   1
   3 -11  -6  615.20  104.54   1
   4 -11  -6  104.15 41.1507   1
   5 -11  -6  467.85 55.3924   1
   6 -11  -6  723.65 54.8763   1
   7 -11  -6    0.35 32.1585   1
   8 -11  -6  214.95  52.546   1
   9 -11  -6    4.95 69.7915   1
  10 -11  -6   11.40 102.314   1
   1 -12  -6   11.15 28.6794   1
   2 -12  -6 2989.70 145.488   1
   3 -12  -6 3212.15 162.962   1
   4 -12  -6   58.40 99.2821   1
   5 -12  -6  156.95 46.4085   1
   6 -12  -6 1425.80 88.2186   1
   7 -12  -6  307.95 41.8528   1
   8 -12  -6  112.40 150.624   1
   9 -12  -6 -108.60 85.2206   1
  10 -12  -6  289.70 91.8033   1
   1 -13  -6  634.20 40.7955   1
   2 -13  -6 2108.15 123.156   1
   3 -13  -6 1928.70 108.677   1
   4 -13  -6  422.45 46.3319   1
   5 -13  -6   73.95 51.5005   1
   6 -13  -6   74.60  87.265   1
   7 -13  -6  219.20 60.3451   1
   8 -13  -6  209.70 53.8382   1
   9 -13  -6   48.20 96.7352   1
   1 -14  -6 1096.05 91.5289   1
   2 -14  -6  112.60  43.939   1
   3 -14  -6 2192.80 140.246   1
   4 -14  -6  136.55 50.8704   1
   5 -14  -6  -46.25 57.8578   1
   6 -14  -6 1714.95 106.689   1
   7 -14  -6  -83.10 114.229   1
   8 -14  -6  -74.30  201.40   1
   9 -14  -6  123.10 77.0641   1
   1 -15  -6  126.35 49.2596   1
   2 -15  -6  880.15 76.7368   1
   3 -15  -6  480.20 127.647   1
   4 -15  -6  473.25 66.1654   1
   5 -15  -6  150.30 60.5545   1
   6 -15  -6  325.90 76.7576   1
   7 -15  -6  204.95 174.191   1
   8 -15  -6  290.75 106.059   1
   9 -15  -6  -65.10  186.00   1
   1 -16  -6    8.45 81.8124   1
   2 -16  -6  314.65 189.358   1
   3 -16  -6  424.05 95.7651   1
   4 -16  -6  216.85 69.1462   1
   5 -16  -6  301.55 99.8866   1
   6 -16  -6  405.10 105.695   1
   7 -16  -6   56.10 100.284   1
   8 -16  -6  -28.50 148.644   1
   9 -16  -6  -97.75 125.202   1
   1 -17  -6  449.45 93.6787   1
   2 -17  -6  322.30 103.646   1
   3 -17  -6  220.75 62.5446   1
   4 -17  -6   -5.45 77.3923   1
   5 -17  -6  691.40 85.0552   1
   6 -17  -6   43.05 88.8533   1
   7 -17  -6  391.50 115.713   1
   8 -17  -6 -138.90  196.20   1
   1 -18  -6   21.05 68.4708   1
   2 -18  -6  100.15 55.8219   1
   3 -18  -6  400.10 68.2477   1
   4 -18  -6   -9.85  145.90   1
   5 -18  -6   23.80 123.886   1
   6 -18  -6  -76.65 141.536   1
   7 -18  -6  151.20 99.5389   1
   8 -18  -6  139.50 113.803   1
   1 -19  -6  -20.90 113.074   1
   2 -19  -6  215.40 71.9852   1
   3 -19  -6   34.25  81.452   1
   4 -19  -6 -133.10  111.40   1
   5 -19  -6   11.30 169.989   1
   6 -19  -6  230.55 104.299   1
   7 -19  -6   91.30 117.806   1
   8 -19  -6   31.80 118.339   1
   1 -20  -6  208.20  109.51   1
   2 -20  -6  547.00 95.0054   1
   3 -20  -6   13.55 125.229   1
   4 -20  -6  -64.45  158.30   1
   5 -20  -6  608.70 125.337   1
   6 -20  -6   -6.70  221.60   1
   7 -20  -6  -29.65  175.84   1
   1 -21  -6  -14.50 109.599   1
   2 -21  -6    1.55 79.8305   1
   3 -21  -6  402.35 132.355   1
   4 -21  -6  742.35 121.257   1
   5 -21  -6  -77.05 139.771   1
   6 -21  -6  109.90 124.116   1
   7 -21  -6  -35.05 135.637   1
   1 -22  -6  404.60 132.242   1
   2 -22  -6   10.45 126.502   1
   3 -22  -6   56.30 198.558   1
   4 -22  -6   98.25 99.5228   1
   5 -22  -6  192.20 102.422   1
   6 -22  -6  148.00 114.854   1
   1 -23  -6  -14.85 107.369   1
   2 -23  -6   65.10 184.133   1
   3 -23  -6   13.70 101.094   1
   4 -23  -6  -20.75  248.50   1
   5 -23  -6   63.25 108.396   1
   6 -23  -6   32.05 100.243   1
   1 -24  -6  341.75 224.854   1
   2 -24  -6   -1.55 147.231   1
   3 -24  -6  447.45 109.447   1
   4 -24  -6  374.90 207.267   1
   5 -24  -6  127.20 154.304   1
   1 -25  -6  -41.20 166.248   1
   2 -25  -6  126.35  156.92   1
   3 -25  -6  -53.65 185.468   1
   4 -25  -6  175.80 135.175   1
   1 -26  -6   29.70 79.1989   1
   2 -26  -6   67.60 125.162   1
   1   0  -5   -0.40 15.5111   1
   2   0  -5   -4.70 18.3002   1
   3   0  -5   -9.40 22.8376   1
   4   0  -5   -2.90  27.282   1
   5   0  -5   19.60 34.4685   1
   6   0  -5    8.00 30.2981   1
   7   0  -5   91.70 53.0414   1
   8   0  -5   30.20 64.7833   1
   9   0  -5 -123.10  71.205   1
  10   0  -5   39.20 76.0778   1
  11   0  -5  -33.60 78.1384   1
   1  -1  -5 1145.80 37.1554   1
   2  -1  -5 3168.15 110.217   1
   3  -1  -5   42.70 20.2054   1
   4  -1  -5  733.00 40.5811   1
   5  -1  -5 1767.75 78.6055   1
   6  -1  -5 1428.05 65.0361   1
   7  -1  -5 3670.70 195.866   1
   8  -1  -5  -21.50 55.1771   1
   9  -1  -5   -1.40 71.0046   1
  10  -1  -5  584.60 74.0822   1
  11  -1  -5  110.55 88.1434   1
   1  -2  -5 2454.90 79.2262   1
   2  -2  -5 4099.10 146.509   1
   3  -2  -5  434.20 28.2168   1
   4  -2  -5 1697.35 67.4481   1
   5  -2  -5   93.15 48.8833   1
   6  -2  -5 2199.65 94.1505   1
   7  -2  -5 2197.15 109.357   1
   8  -2  -5  242.00 38.3271   1
   9  -2  -5  313.80 48.3755   1
  10  -2  -5  263.15 291.711   1
  11  -2  -5   -1.25 100.626   1
   1  -3  -5  203.65 17.6626   1
   2  -3  -5  936.70 39.5718   1
   3  -3  -5  198.85 16.0313   1
   4  -3  -5 2553.05  89.749   1
   5  -3  -5  910.05 43.6634   1
   6  -3  -5 1074.00 103.648   1
   7  -3  -5 1100.85 63.2802   1
   8  -3  -5  233.65 116.378   1
   9  -3  -5  556.45 63.0544   1
  10  -3  -5  146.20 54.0866   1
  11  -3  -5   35.90 104.088   1
   1  -4  -5 1695.00 60.2722   1
   2  -4  -5  186.45 17.4745   1
   3  -4  -5 3223.85 119.917   1
   4  -4  -5  619.30 31.7668   1
   5  -4  -5  138.25 18.5012   1
   6  -4  -5  243.95  37.745   1
   7  -4  -5 1143.85 114.643   1
   8  -4  -5  -44.65 52.5431   1
   9  -4  -5   11.85 46.1552   1
  10  -4  -5  645.20 159.708   1
  11  -4  -5    6.70  72.125   1
   1  -5  -5  518.10 29.7185   1
   2  -5  -5  541.55 34.2509   1
   3  -5  -5  381.75 32.1789   1
   4  -5  -5 1921.05 67.7787   1
   5  -5  -5  504.50 25.6732   1
   6  -5  -5  148.75 22.4381   1
   7  -5  -5  177.85 41.7434   1
   8  -5  -5  -25.60  46.731   1
   9  -5  -5  -12.80 75.1814   1
  10  -5  -5  162.95 58.0069   1
  11  -5  -5   38.60 105.361   1
   1  -6  -513753.50 617.233   1
   2  -6  -5  555.95 25.8707   1
   3  -6  -5 7233.65 300.797   1
   4  -6  -5   24.20 18.5059   1
   5  -6  -5  464.70 29.3536   1
   6  -6  -5 1733.15 77.8567   1
   7  -6  -5   28.75 30.2537   1
   8  -6  -5  474.40 63.5184   1
   9  -6  -5   26.50 51.9033   1
  10  -6  -5  521.10 62.6568   1
  11  -6  -5  163.60 179.482   1
   1  -7  -5 2871.10  100.29   1
   2  -7  -5  742.90 37.1534   1
   3  -7  -5 1063.50 47.4835   1
   4  -7  -5 1431.35 57.1649   1
   5  -7  -5  376.40 49.9944   1
   6  -7  -5   99.45 23.3933   1
   7  -7  -5   25.50 40.5899   1
   8  -7  -5   34.80 41.8992   1
   9  -7  -5  139.40 52.3638   1
  10  -7  -5  552.75 112.276   1
  11  -7  -5  155.90  64.738   1
   1  -8  -5   63.55 18.2004   1
   2  -8  -5 3104.35 184.487   1
   3  -8  -5  151.00 33.1786   1
   4  -8  -5 5411.45 255.788   1
   5  -8  -5   49.65 24.1897   1
   6  -8  -5  -10.45 37.8923   1
   7  -8  -5   44.25 55.7951   1
   8  -8  -5  -24.10 54.3901   1
   9  -8  -5  398.10 141.703   1
  10  -8  -5  -11.55 87.8995   1
  11  -8  -5  771.60 115.621   1
   1  -9  -5  508.45 51.4727   1
   2  -9  -5  575.20 31.5647   1
   3  -9  -5   45.45 26.5262   1
   4  -9  -5 1895.45 78.7684   1
   5  -9  -5 1800.40 118.585   1
   6  -9  -5  329.80 49.4901   1
   7  -9  -5  432.65 53.9633   1
   8  -9  -5  516.35 69.0033   1
   9  -9  -5   -1.05 74.1792   1
  10  -9  -5  121.60 56.9421   1
  11  -9  -5   -8.40 96.0961   1
   1 -10  -5  914.00 43.3956   1
   2 -10  -5 3746.40 147.575   1
   3 -10  -5  263.50 50.2362   1
   4 -10  -5  327.70 32.7121   1
   5 -10  -5   76.55 37.7082   1
   6 -10  -5   36.85 35.9706   1
   7 -10  -5  136.05 36.6425   1
   8 -10  -5  105.85 46.7815   1
   9 -10  -5  -12.35 64.3967   1
  10 -10  -5   58.40 58.1754   1
  11 -10  -5  455.05 90.4341   1
   1 -11  -5    8.20 30.5473   1
   2 -11  -5   96.30 29.3411   1
   3 -11  -5 1207.80 54.5858   1
   4 -11  -5 2498.60 196.626   1
   5 -11  -5  -27.10   70.20   1
   6 -11  -5  214.95 57.1646   1
   7 -11  -5  480.50 58.7588   1
   8 -11  -5  115.80 43.3136   1
   9 -11  -5   80.55 57.6494   1
  10 -11  -5  292.30  68.741   1
   1 -12  -5 1073.20 77.5399   1
   2 -12  -5  -12.50 37.3727   1
   3 -12  -5   61.30 42.7202   1
   4 -12  -5  278.40 57.0215   1
   5 -12  -5   11.50 49.4786   1
   6 -12  -5   -7.25 60.3974   1
   7 -12  -5  224.55 119.766   1
   8 -12  -5  138.55 76.7523   1
   9 -12  -5  281.90 57.3197   1
  10 -12  -5  -75.10 101.207   1
   1 -13  -5  101.60 87.4132   1
   2 -13  -5 1532.20 71.6561   1
   3 -13  -5 4598.80 243.602   1
   4 -13  -5 2226.45 123.759   1
   5 -13  -5  384.55 54.2112   1
   6 -13  -5   84.00 42.6553   1
   7 -13  -5  703.40 73.5057   1
   8 -13  -5  454.35 80.8713   1
   9 -13  -5  919.60 255.256   1
  10 -13  -5  113.65 72.3593   1
   1 -14  -5   80.45 37.5689   1
   2 -14  -5   82.50  62.946   1
   3 -14  -5   77.00 78.7811   1
   4 -14  -5 2209.15 204.739   1
   5 -14  -5  656.55 85.4153   1
   6 -14  -5  -17.10  111.40   1
   7 -14  -5   71.40 73.5478   1
   8 -14  -5  157.70 85.3246   1
   9 -14  -5  -72.00  116.20   1
  10 -14  -5   31.35 65.7725   1
   1 -15  -5   -3.50   40.80   1
   2 -15  -5  364.10  56.185   1
   3 -15  -5 3748.80  210.50   1
   4 -15  -5  942.90 70.6278   1
   5 -15  -5  349.75 58.1656   1
   6 -15  -5  379.30  148.19   1
   7 -15  -5  273.30 72.7358   1
   8 -15  -5  315.85 78.4579   1
   9 -15  -5   45.75 92.6636   1
  10 -15  -5   21.40 120.633   1
   1 -16  -5 2955.95 194.016   1
   2 -16  -5  480.05 60.9625   1
   3 -16  -5 1023.75 113.939   1
   4 -16  -5   51.30  49.902   1
   5 -16  -5  -45.80   72.20   1
   6 -16  -5  111.50 139.594   1
   7 -16  -5   58.55 178.688   1
   8 -16  -5  132.90 103.247   1
   9 -16  -5  100.45 109.401   1
   1 -17  -5  503.60 64.8375   1
   2 -17  -5   26.05 56.7822   1
   3 -17  -5  299.40  62.537   1
   4 -17  -5  109.30 91.2331   1
   5 -17  -5   66.05  57.003   1
   6 -17  -5  -29.80  168.80   1
   7 -17  -5   50.50 166.313   1
   8 -17  -5  576.50 229.143   1
   9 -17  -5   94.55 110.811   1
   1 -18  -5   83.50  41.436   1
   2 -18  -5  687.85 72.1699   1
   3 -18  -5  694.45 138.816   1
   4 -18  -5  494.15  108.54   1
   5 -18  -5 1577.80 140.283   1
   6 -18  -5  395.50 99.7016   1
   7 -18  -5  -47.90  245.20   1
   8 -18  -5   51.25 103.257   1
   9 -18  -5   91.55 125.773   1
   1 -19  -5  -45.70 72.5288   1
   2 -19  -5  150.40 142.007   1
   3 -19  -5   86.70 60.6412   1
   4 -19  -5   60.15 93.9793   1
   5 -19  -5  107.70 89.2883   1
   6 -19  -5  613.25 136.463   1
   7 -19  -5  113.45 96.3133   1
   8 -19  -5  364.00 100.785   1
   1 -20  -5   83.70 85.1459   1
   2 -20  -5 1347.50  118.88   1
   3 -20  -5   97.90 74.2551   1
   4 -20  -5   42.35 90.5829   1
   5 -20  -5   27.40 80.0076   1
   6 -20  -5  -61.70  174.60   1
   7 -20  -5  228.50 101.771   1
   8 -20  -5   53.50 175.223   1
   1 -21  -5   56.05 98.3625   1
   2 -21  -5  399.15  82.463   1
   3 -21  -5   17.80  66.516   1
   4 -21  -5   27.70 112.007   1
   5 -21  -5  -37.20  173.20   1
   6 -21  -5  187.80 92.4189   1
   7 -21  -5  -50.75  201.70   1
   8 -21  -5   85.20 219.914   1
   1 -22  -5  -81.50 113.269   1
   2 -22  -5   91.30 119.368   1
   3 -22  -5  365.70 85.9946   1
   4 -22  -5  196.15 143.223   1
   5 -22  -5  140.55  105.29   1
   6 -22  -5  266.05 183.684   1
   7 -22  -5   28.10 160.797   1
   1 -23  -5   -9.55 113.532   1
   2 -23  -5    8.85 77.4406   1
   3 -23  -5  236.65 88.1185   1
   4 -23  -5  250.80  106.38   1
   5 -23  -5  272.75 107.797   1
   6 -23  -5   53.85 115.422   1
   7 -23  -5  254.35 107.315   1
   1 -24  -5   -3.55  383.90   1
   2 -24  -5   30.50  79.056   1
   3 -24  -5   94.20  134.50   1
   4 -24  -5   41.95  95.074   1
   5 -24  -5  -29.10  233.00   1
   6 -24  -5  185.05 153.824   1
   1 -25  -5  126.75 123.831   1
   2 -25  -5  -71.30 135.134   1
   3 -25  -5   39.75 101.699   1
   4 -25  -5   50.30 121.829   1
   5 -25  -5  522.95 220.136   1
   1 -26  -5  -40.85 106.306   1
   2 -26  -5  298.55 111.988   1
   3 -26  -5  139.70 125.543   1
   4 -26  -5   37.90 114.679   1
   5 -26  -5  166.40 120.237   1
   1 -27  -5   58.70 92.7606   1
   2 -27  -5   14.65 121.976   1
   3 -27  -5  161.75 227.208   1
   1   0  -4 6661.10 238.678   1
   2   0  -4 9535.40 428.191   1
   3   0  -4  113.10 22.5219   1
   4   0  -4 1661.60 86.5034   1
   5   0  -4 2236.90 114.568   1
   6   0  -4  332.70 36.0509   1
   7   0  -4 1371.10  67.093   1
   8   0  -4  836.80 58.8288   1
   9   0  -4 1527.30  103.07   1
  10   0  -4   14.90 66.6999   1
  11   0  -4 -180.40 82.1882   1
  12   0  -4 1017.50 228.559   1
   1  -1  -4 2081.20 62.4169   1
   2  -1  -4   15.50 16.9325   1
   3  -1  -4 2512.75 94.0072   1
   4  -1  -4 2636.25 96.6813   1
   5  -1  -4 3996.30 144.579   1
   6  -1  -4   27.35 22.5858   1
   7  -1  -4  276.20 31.0209   1
   8  -1  -4  262.25 53.6884   1
   9  -1  -4   34.60 42.4797   1
  10  -1  -4  213.30 69.5197   1
  11  -1  -4   58.80 52.0305   1
   1  -2  -4  442.20 21.0725   1
   2  -2  -4 8674.60 308.315   1
   3  -2  -4  124.70   14.62   1
   4  -2  -4 5495.55 186.974   1
   5  -2  -4  164.80 21.5214   1
   6  -2  -4  992.60 47.2357   1
   7  -2  -4 2196.80 85.9812   1
   8  -2  -4  226.35 30.2475   1
   9  -2  -4  322.45 47.4388   1
  10  -2  -4  120.95 51.0366   1
  11  -2  -4  -16.55 76.1428   1
   1  -3  -4 5972.90 200.922   1
   2  -3  -4  156.35 19.5223   1
   3  -3  -410773.70 411.214   1
   4  -3  -4 1248.70 47.0628   1
   5  -3  -4  234.90 23.1572   1
   6  -3  -4  957.50 41.3904   1
   7  -3  -4  344.60 31.3259   1
   8  -3  -4  732.05 111.266   1
   9  -3  -4  311.75 44.3457   1
  10  -3  -4   36.95  60.319   1
  11  -3  -4  -31.15 92.7165   1
   1  -4  -4 1264.65  48.338   1
   2  -4  -4  303.00 17.7762   1
   3  -4  -4  535.15 28.9692   1
   4  -4  -4  240.20 19.0182   1
   5  -4  -4  -18.05 25.6279   1
   6  -4  -4   85.65  20.081   1
   7  -4  -4 1372.35 59.4402   1
   8  -4  -4  291.15 33.4369   1
   9  -4  -4  139.95 39.0803   1
  10  -4  -4  -21.60   96.20   1
  11  -4  -4  183.90 65.3353   1
   1  -5  -4 1006.10 33.8393   1
   2  -5  -4  883.25 34.1913   1
   3  -5  -4 2043.45 77.7134   1
   4  -5  -419664.80 1064.24   1
   5  -5  -4   43.95 17.3959   1
   6  -5  -4 7828.00 325.313   1
   7  -5  -4  256.00 64.7562   1
   8  -5  -4   -2.20   60.80   1
   9  -5  -4 1195.40 146.885   1
  10  -5  -4   15.90 85.2775   1
  11  -5  -4  126.85 66.6568   1
   1  -6  -4 1916.30 68.0682   1
   2  -6  -4   62.90 21.5082   1
   3  -6  -4 1789.80 74.2238   1
   4  -6  -4  162.20 18.0244   1
   5  -6  -4  148.90 38.5386   1
   6  -6  -4 1252.45 47.0105   1
   7  -6  -4   13.45 23.0957   1
   8  -6  -4   27.90 31.1158   1
   9  -6  -4   17.10 37.9716   1
  10  -6  -4  -50.70  114.60   1
  11  -6  -4   41.45 64.2956   1
   1  -7  -4 3542.25 202.156   1
   2  -7  -4 5610.85  202.60   1
   3  -7  -4  116.00 34.4143   1
   4  -7  -4 1995.25 75.9608   1
   5  -7  -4 2351.35 81.6898   1
   6  -7  -4 2137.10 82.7935   1
   7  -7  -4  389.90  59.294   1
   8  -7  -4  284.60 34.5259   1
   9  -7  -4  -69.55 63.0774   1
  10  -7  -4  175.70 61.4735   1
  11  -7  -4   31.75 150.402   1
   1  -8  -4  628.25 34.5472   1
   2  -8  -4  581.10 57.1703   1
   3  -8  -4    3.05 21.1592   1
   4  -8  -4 3275.20  124.04   1
   5  -8  -4 1307.30 54.4824   1
   6  -8  -4  492.50  92.394   1
   7  -8  -4  115.10 43.8784   1
   8  -8  -4  241.45 66.0834   1
   9  -8  -4  794.20 74.9322   1
  10  -8  -4  120.55 63.7244   1
  11  -8  -4  146.20 60.6685   1
   1  -9  -4 2642.05 136.313   1
   2  -9  -4 1660.10 102.006   1
   3  -9  -4 6430.95 262.803   1
   4  -9  -4 1358.90 77.4285   1
   5  -9  -4 5339.80 227.645   1
   6  -9  -4   17.70  30.578   1
   7  -9  -4  593.30 41.6579   1
   8  -9  -4   29.45 97.5111   1
   9  -9  -4   15.05 50.6351   1
  10  -9  -4   58.85 68.3836   1
  11  -9  -4   26.45 100.057   1
   1 -10  -4  234.45 24.5216   1
   2 -10  -4  269.05   25.34   1
   3 -10  -4  727.80  43.141   1
   4 -10  -4 1715.65 72.5111   1
   5 -10  -4 1923.10 86.6839   1
   6 -10  -4  467.90 52.5663   1
   7 -10  -4  241.35 72.8613   1
   8 -10  -4  140.20 100.575   1
   9 -10  -4  -12.35 88.4411   1
  10 -10  -4  367.65 135.394   1
  11 -10  -4  283.35 136.333   1
   1 -11  -4   -0.80  31.927   1
   2 -11  -4  554.80 34.8789   1
   3 -11  -4 3006.25 147.789   1
   4 -11  -4   -1.15 32.2671   1
   5 -11  -4  279.75 49.7651   1
   6 -11  -4   92.75 81.2598   1
   7 -11  -4  229.30 40.5246   1
   8 -11  -4  -25.75   81.30   1
   9 -11  -4  589.45 106.545   1
  10 -11  -4  301.60 62.6899   1
  11 -11  -4 -125.45  138.50   1
   1 -12  -410168.50 645.018   1
   2 -12  -4   52.40 25.6689   1
   3 -12  -4 1284.15  83.608   1
   4 -12  -4 1027.35 49.9749   1
   5 -12  -4  644.95 49.3738   1
   6 -12  -4 1492.30  80.158   1
   7 -12  -4  442.35 56.7847   1
   8 -12  -4 1058.20 104.686   1
   9 -12  -4   17.90 67.7939   1
  10 -12  -4  554.65  90.436   1
  11 -12  -4  107.25 131.321   1
   1 -13  -4 1248.70 120.563   1
   2 -13  -4 1050.25 126.044   1
   3 -13  -4  924.75 47.7238   1
   4 -13  -4   67.95 29.0681   1
   5 -13  -4 3889.85 310.422   1
   6 -13  -4  725.20 62.9087   1
   7 -13  -4  145.90 61.7029   1
   8 -13  -4  673.15 90.3304   1
   9 -13  -4  225.30 74.3983   1
  10 -13  -4  -43.20 111.032   1
   1 -14  -4  739.75 66.0274   1
   2 -14  -4 1439.90 185.252   1
   3 -14  -4  171.70 27.6723   1
   4 -14  -4  875.95 80.7462   1
   5 -14  -4  606.40 65.0571   1
   6 -14  -4  127.85 38.5128   1
   7 -14  -4  331.95 63.8195   1
   8 -14  -4  112.25 69.8902   1
   9 -14  -4  874.35 95.2658   1
  10 -14  -4  570.65 97.3347   1
   1 -15  -4  662.40  84.795   1
   2 -15  -4  -14.95 38.0336   1
   3 -15  -4  277.40 64.2139   1
   4 -15  -4  582.75 77.2724   1
   5 -15  -4  744.35 66.6828   1
   6 -15  -4  476.05 178.703   1
   7 -15  -4  435.15  102.69   1
   8 -15  -4   76.35  76.213   1
   9 -15  -4  439.80 97.5186   1
  10 -15  -4  167.10 178.635   1
   1 -16  -4   15.90 29.3885   1
   2 -16  -4 1749.65 172.993   1
   3 -16  -4 1225.65 85.5152   1
   4 -16  -4  423.20 54.2964   1
   5 -16  -4   40.25 47.5285   1
   6 -16  -4  -31.80  109.60   1
   7 -16  -4   78.30 70.7578   1
   8 -16  -4   14.75  109.39   1
   9 -16  -4  339.60 125.548   1
  10 -16  -4   79.15 75.5657   1
   1 -17  -4  255.35 48.7457   1
   2 -17  -4 1386.05 87.8018   1
   3 -17  -4  843.50 70.8379   1
   4 -17  -4  314.90 49.9204   1
   5 -17  -4   37.35 52.8925   1
   6 -17  -4 2600.15 273.715   1
   7 -17  -4   60.05 95.6762   1
   8 -17  -4  241.45 91.3269   1
   9 -17  -4   26.95 95.3953   1
   1 -18  -4  489.90  63.329   1
   2 -18  -4  103.25 44.8563   1
   3 -18  -4  926.65 76.3748   1
   4 -18  -4  -49.95 74.6279   1
   5 -18  -4   68.15 76.4458   1
   6 -18  -4  594.70  67.465   1
   7 -18  -4   75.25 89.4932   1
   8 -18  -4   19.40 88.9142   1
   9 -18  -4  115.45 101.631   1
   1 -19  -4 -138.80  155.40   1
   2 -19  -4 1713.65 305.472   1
   3 -19  -4 1677.15 223.961   1
   4 -19  -4   45.00 68.8025   1
   5 -19  -4  426.10 64.5994   1
   6 -19  -4  302.95  83.223   1
   7 -19  -4  167.20 93.5184   1
   8 -19  -4   13.70 93.5293   1
   9 -19  -4   83.25 110.422   1
   1 -20  -4   35.95 145.877   1
   2 -20  -4 1505.40  149.69   1
   3 -20  -4  211.30  60.473   1
   4 -20  -4 1184.35 92.5316   1
   5 -20  -4  157.65 93.0179   1
   6 -20  -4  315.15 98.9408   1
   7 -20  -4  558.05 151.648   1
   8 -20  -4  172.90 108.789   1
   9 -20  -4  -28.35  214.10   1
   1 -21  -4  463.80 69.5428   1
   2 -21  -4  -23.45  130.30   1
   3 -21  -4  749.75 197.568   1
   4 -21  -4   46.60 52.0541   1
   5 -21  -4  960.90  149.69   1
   6 -21  -4   18.45 98.8648   1
   7 -21  -4  368.20 113.137   1
   8 -21  -4  -56.00 121.714   1
   1 -22  -4  720.80 90.6103   1
   2 -22  -4  401.85 156.329   1
   3 -22  -4   72.30 70.2501   1
   4 -22  -4  143.40 92.8053   1
   5 -22  -4  -37.10 120.094   1
   6 -22  -4  -60.05 125.433   1
   7 -22  -4  243.25 112.789   1
   8 -22  -4  206.95 120.019   1
   1 -23  -4  485.65 89.8102   1
   2 -23  -4  -32.30 102.607   1
   3 -23  -4    2.50  75.766   1
   4 -23  -4   19.15 88.5018   1
   5 -23  -4  -23.90  310.80   1
   6 -23  -4  -72.50  160.40   1
   7 -23  -4  -12.15  146.92   1
   1 -24  -4  394.30 92.2697   1
   2 -24  -4  390.10 104.568   1
   3 -24  -4  -18.90  174.60   1
   4 -24  -4   -0.50 137.971   1
   5 -24  -4   54.25 105.415   1
   6 -24  -4 -128.50 141.795   1
   7 -24  -4  227.85 122.226   1
   1 -25  -4  533.15 102.166   1
   2 -25  -4  350.20 142.095   1
   3 -25  -4  247.40 144.868   1
   4 -25  -4   46.80 86.3135   1
   5 -25  -4   14.80 96.7726   1
   6 -25  -4  130.45 94.2501   1
   1 -26  -4  -69.05  165.30   1
   2 -26  -4  277.85  103.58   1
   3 -26  -4  -17.85  318.50   1
   4 -26  -4   25.70 221.325   1
   5 -26  -4   23.20 120.159   1
   6 -26  -4  142.75  103.50   1
   1 -27  -4  -87.70  118.20   1
   2 -27  -4   25.55 221.961   1
   3 -27  -4 -147.45  185.90   1
   4 -27  -4  215.75 113.347   1
   5 -27  -4 -225.90 160.409   1
   1 -28  -4  -32.65 111.411   1
   2 -28  -4  -30.65 139.939   1
   3 -28  -4  202.80 144.599   1
   4 -28  -4 -232.70  265.80   1
   1 -29  -4   59.75 89.0299   1
   2 -29  -4  512.00 89.6033   1
   1   0  -3   11.40 8.43366   1
   2   0  -3   15.80 13.8899   1
   3   0  -3   33.00  22.886   1
   4   0  -3    9.50 18.7761   1
   5   0  -3  -25.80 23.9508   1
   6   0  -3    4.90 25.2474   1
   7   0  -3    5.40 24.5692   1
   8   0  -3  -12.60 33.0563   1
   9   0  -3   34.60 38.7427   1
  10   0  -3   15.70 62.3614   1
  11   0  -3  -39.30 59.5271   1
  12   0  -3 -123.40 114.856   1
   1  -1  -316518.10 521.746   1
   2  -1  -326678.10 917.262   1
   3  -1  -317468.60 623.349   1
   4  -1  -3  215.05 23.3711   1
   5  -1  -3  297.75 26.9312   1
   6  -1  -3  309.45 23.9123   1
   7  -1  -3  827.75 38.3857   1
   8  -1  -3 2889.10 111.887   1
   9  -1  -3 1947.15 81.1245   1
  10  -1  -3 1515.85 76.8257   1
  11  -1  -3  122.70  50.751   1
  12  -1  -3  -23.50  226.00   1
   1  -2  -3 8485.45 263.101   1
   2  -2  -3  260.20 19.6229   1
   3  -2  -3  579.00 24.4354   1
   4  -2  -3 1333.55 47.3523   1
   5  -2  -3   -6.20 24.3942   1
   6  -2  -3 1574.30 55.5427   1
   7  -2  -3  311.65 26.2178   1
   8  -2  -3 1490.10 57.5059   1
   9  -2  -3   14.80 55.8619   1
  10  -2  -3  640.75 51.8702   1
  11  -2  -3   20.75 50.2179   1
  12  -2  -3  141.00 284.124   1
   1  -3  -3 4687.25 151.962   1
   2  -3  -3 1709.95 63.5137   1
   3  -3  -313741.10 559.315   1
   4  -3  -3 5502.30 177.662   1
   5  -3  -3 4334.15 142.343   1
   6  -3  -3   83.10 70.5815   1
   7  -3  -3  232.55 23.9937   1
   8  -3  -3  101.95 35.4627   1
   9  -3  -3   35.45 35.1477   1
  10  -3  -3  409.40 48.3516   1
  11  -3  -3   14.20 56.2348   1
  12  -3  -3  686.20 129.697   1
   1  -4  -3  721.65 31.8313   1
   2  -4  -3  136.75 17.8724   1
   3  -4  -3 1574.20 64.8736   1
   4  -4  -3 5325.00 185.872   1
   5  -4  -3 1220.40 46.9003   1
   6  -4  -3 1301.20 49.0866   1
   7  -4  -3 1734.75 84.6805   1
   8  -4  -3  559.05 36.4513   1
   9  -4  -3  442.15 39.0617   1
  10  -4  -3  -15.05 54.6789   1
  11  -4  -3  186.55  54.271   1
  12  -4  -3   12.05 84.4879   1
   1  -5  -3 9815.75 362.056   1
   2  -5  -3 2123.80 82.3303   1
   3  -5  -3  818.25  40.383   1
   4  -5  -3  939.55 37.0496   1
   5  -5  -3  741.55 30.8761   1
   6  -5  -3 1216.00 54.2889   1
   7  -5  -3  459.80 30.2072   1
   8  -5  -3   36.00 45.9655   1
   9  -5  -3  539.65 62.3173   1
  10  -5  -3   63.50 44.4929   1
  11  -5  -3   83.30 118.236   1
   1  -6  -3 1158.40  44.588   1
   2  -6  -3  269.15 32.1732   1
   3  -6  -3 3057.50 110.411   1
   4  -6  -3 1086.65 72.8369   1
   5  -6  -3 8899.60 361.642   1
   6  -6  -3 2129.75  83.844   1
   7  -6  -3 2212.40 126.961   1
   8  -6  -3  190.65 48.2482   1
   9  -6  -3 1899.90 87.5325   1
  10  -6  -3  -29.45   75.90   1
  11  -6  -3  497.55 71.0828   1
   1  -7  -324435.70 1044.36   1
   2  -7  -314240.00 585.942   1
   3  -7  -3 5684.25 278.309   1
   4  -7  -3  177.50   19.85   1
   5  -7  -3  150.40  39.387   1
   6  -7  -3  584.25 57.6668   1
   7  -7  -3  520.55 31.9764   1
   8  -7  -3  142.80 34.9416   1
   9  -7  -3  832.65 118.608   1
  10  -7  -3   -9.40 67.6075   1
  11  -7  -3   -8.45 77.7194   1
   1  -8  -3 4798.35  219.11   1
   2  -8  -3 4275.55 234.057   1
   3  -8  -3   22.45 21.2708   1
   4  -8  -3  530.50 32.9913   1
   5  -8  -3  660.50 43.6928   1
   6  -8  -3 4783.85  182.59   1
   7  -8  -3  638.40 71.9876   1
   8  -8  -3 1709.50 81.8179   1
   9  -8  -3   17.50 48.2255   1
  10  -8  -3  441.25 104.249   1
  11  -8  -3  259.20 84.8105   1
   1  -9  -3  271.85  25.779   1
   2  -9  -3 3033.60 106.551   1
   3  -9  -3 3438.75 248.488   1
   4  -9  -3  667.70 35.2876   1
   5  -9  -3  436.85 28.7826   1
   6  -9  -3   44.85 38.2611   1
   7  -9  -3  641.95 48.3821   1
   8  -9  -3   48.90 54.8769   1
   9  -9  -3  167.10 44.6202   1
  10  -9  -3  116.65  52.798   1
  11  -9  -3   -5.40  91.453   1
   1 -10  -3  902.30 62.1869   1
   2 -10  -3 3383.75 156.441   1
   3 -10  -3  745.85 39.4696   1
   4 -10  -3  697.95 62.4307   1
   5 -10  -3  181.70 23.8868   1
   6 -10  -3  397.05 40.1624   1
   7 -10  -3    8.50 39.5982   1
   8 -10  -3 1227.80 89.1144   1
   9 -10  -3   -6.70   76.60   1
  10 -10  -3  181.35 74.0039   1
  11 -10  -3  -63.40 146.966   1
   1 -11  -3   32.90  19.964   1
   2 -11  -3   77.80 19.3256   1
   3 -11  -3  591.10 35.8469   1
   4 -11  -3 3595.05 169.148   1
   5 -11  -3  970.80 53.1443   1
   6 -11  -3  819.10 41.9339   1
   7 -11  -3  236.60 37.0303   1
   8 -11  -3   51.60 38.2788   1
   9 -11  -3  109.65 46.8752   1
  10 -11  -3  -12.20  145.20   1
  11 -11  -3  549.30 101.525   1
   1 -12  -3  155.45 45.3921   1
   2 -12  -3  124.80 20.3638   1
   3 -12  -3  822.10 38.0796   1
   4 -12  -3    1.45   22.40   1
   5 -12  -3  542.45 39.2042   1
   6 -12  -3   36.00 36.8564   1
   7 -12  -3   46.45 33.1334   1
   8 -12  -3  344.85 55.9158   1
   9 -12  -3  186.80  54.704   1
  10 -12  -3   36.25 67.8206   1
  11 -12  -3   25.10 80.5065   1
   1 -13  -3  333.85 37.9166   1
   2 -13  -3 1444.55 55.9008   1
   3 -13  -3  561.50 46.3951   1
   4 -13  -3 3599.95 209.206   1
   5 -13  -3 1077.30 71.2219   1
   6 -13  -3  659.20 56.6865   1
   7 -13  -3  427.00 71.4546   1
   8 -13  -3  169.70  45.487   1
   9 -13  -3  -13.95  203.10   1
  10 -13  -3   15.80 72.9079   1
  11 -13  -3  286.10 110.773   1
   1 -14  -3 2094.45 138.577   1
   2 -14  -3 1053.60 77.4727   1
   3 -14  -3 3228.20 192.847   1
   4 -14  -3  862.90 49.8454   1
   5 -14  -3  -10.00 38.2137   1
   6 -14  -3 1945.95  145.49   1
   7 -14  -3  151.25 100.226   1
   8 -14  -3   70.20 114.557   1
   9 -14  -3   83.35 67.2278   1
  10 -14  -3   -5.90  149.40   1
   1 -15  -3 1419.80 56.9561   1
   2 -15  -3  751.90 94.3728   1
   3 -15  -3  815.05 58.3627   1
   4 -15  -3    1.15  27.365   1
   5 -15  -3   63.95 44.0644   1
   6 -15  -3   69.10 34.5183   1
   7 -15  -3   33.40 61.4562   1
   8 -15  -3   54.35 64.8107   1
   9 -15  -3  -62.95  131.10   1
  10 -15  -3  131.95 92.7085   1
   1 -16  -3   -2.65 32.0481   1
   2 -16  -3  -48.15   57.10   1
   3 -16  -3 1954.20  215.77   1
   4 -16  -3  226.50 47.2293   1
   5 -16  -3  236.35 29.7785   1
   6 -16  -3 1571.30 93.3217   1
   7 -16  -3  698.80 79.5156   1
   8 -16  -3  118.90 69.2086   1
   9 -16  -3  551.75 219.306   1
  10 -16  -3   26.25 96.0554   1
   1 -17  -3   11.35 25.8933   1
   2 -17  -3  400.25 48.8485   1
   3 -17  -3  392.35 31.5469   1
   4 -17  -3  493.80 42.0266   1
   5 -17  -3 1300.60  150.05   1
   6 -17  -3    8.60  35.639   1
   7 -17  -3  297.65 65.5593   1
   8 -17  -3  167.25 137.275   1
   9 -17  -3   -0.50 124.818   1
  10 -17  -3  168.50 99.6985   1
   1 -18  -3   -5.40   66.20   1
   2 -18  -3  573.85 46.7526   1
   3 -18  -3  554.45 51.6708   1
   4 -18  -3   14.70 68.8726   1
   5 -18  -3 1220.60 96.5592   1
   6 -18  -3   17.65 50.1282   1
   7 -18  -3 1808.50 278.094   1
   8 -18  -3  556.70 91.7748   1
   9 -18  -3  220.10 99.9269   1
   1 -19  -3   27.60 48.9337   1
   2 -19  -3   22.35 39.0649   1
   3 -19  -3 2298.80 159.753   1
   4 -19  -3  301.15 37.7057   1
   5 -19  -3   11.40 61.3771   1
   6 -19  -3   72.85 61.5998   1
   7 -19  -3  242.45 73.4547   1
   8 -19  -3  109.80 76.6357   1
   9 -19  -3  332.40 206.825   1
   1 -20  -3 1279.75 85.3761   1
   2 -20  -3 1691.00 94.5659   1
   3 -20  -3  -15.80  68.368   1
   4 -20  -3   42.05 32.2323   1
   5 -20  -3   35.75 35.8548   1
   6 -20  -3  419.10 52.2159   1
   7 -20  -3   69.75 158.467   1
   8 -20  -3 1213.55 144.833   1
   9 -20  -3  -72.70 141.897   1
   1 -21  -3 1084.60 136.843   1
   2 -21  -3  542.90 51.1758   1
   3 -21  -3  947.70 88.3949   1
   4 -21  -3   13.15 55.2254   1
   5 -21  -3  935.95 67.9996   1
   6 -21  -3  -45.70   82.20   1
   7 -21  -3  863.85 118.382   1
   8 -21  -3  -70.65 117.621   1
   1 -22  -3  123.85 47.9112   1
   2 -22  -3 1148.10 157.462   1
   3 -22  -3   -3.30 45.0994   1
   4 -22  -3   35.95 47.8745   1
   5 -22  -3  522.90 75.9702   1
   6 -22  -3  158.55 61.5979   1
   7 -22  -3   17.75 191.273   1
   8 -22  -3  105.30 92.5107   1
   1 -23  -3   58.45 56.1247   1
   2 -23  -3 1431.15 139.242   1
   3 -23  -3  -27.75  83.841   1
   4 -23  -3  325.55 48.1949   1
   5 -23  -3  140.90 56.7986   1
   6 -23  -3   72.25 85.6047   1
   7 -23  -3  189.65 90.7219   1
   8 -23  -3  106.65 97.6409   1
   1 -24  -3   27.10 38.2652   1
   2 -24  -3   69.20 64.3279   1
   3 -24  -3  216.00 49.4741   1
   4 -24  -3   75.20 70.7207   1
   5 -24  -3  149.90 85.1646   1
   6 -24  -3   46.65 93.6945   1
   7 -24  -3   66.95 117.224   1
   1 -25  -3  382.45 80.6375   1
   2 -25  -3  629.25 143.534   1
   3 -25  -3   56.00   41.57   1
   4 -25  -3  200.10 103.539   1
   5 -25  -3 -124.85 117.492   1
   6 -25  -3 -119.25 132.095   1
   7 -25  -3   21.15 91.0918   1
   1 -26  -3   66.00 52.3182   1
   2 -26  -3   16.70  64.647   1
   3 -26  -3  254.85 207.151   1
   4 -26  -3   23.00 131.062   1
   5 -26  -3  -35.30 161.835   1
   6 -26  -3   99.15 144.753   1
   1 -27  -3  140.00 85.4706   1
   2 -27  -3  156.45 82.6506   1
   3 -27  -3  255.95 75.4121   1
   4 -27  -3  170.75 89.0657   1
   5 -27  -3  590.90 130.628   1
   1 -28  -3   66.90 81.9426   1
   2 -28  -3   99.40 117.249   1
   3 -28  -3  179.60 105.754   1
   4 -28  -3  407.00 137.047   1
   5 -28  -3  313.60 146.031   1
   1 -29  -3  -66.80 133.058   1
   2 -29  -3  171.45 107.725   1
   3 -29  -3  103.90 81.2855   1
   1 -30  -3  -41.10 127.449   1
   2 -30  -3   79.30  109.85   1
   1   0  -2  540.90 29.2746   1
   2   0  -2 1167.80 47.2636   1
   3   0  -253372.80 2230.01   1
   4   0  -2 4874.20 204.596   1
   5   0  -218530.10 1030.25   1
   6   0  -2  882.40 46.4673   1
   7   0  -2 1233.10  59.262   1
   8   0  -2 1710.90 84.9091   1
   9   0  -2  737.10 54.9903   1
  10   0  -2  -21.90  41.281   1
  11   0  -2  666.90 74.6742   1
  12   0  -2   44.40 117.797   1
   1  -1  -225823.80 622.781   1
   2  -1  -236694.60 855.641   1
   3  -1  -2   22.85  9.8511   1
   4  -1  -2  176.10 15.7519   1
   5  -1  -2 2012.05 67.8117   1
   6  -1  -2  347.85 23.7319   1
   7  -1  -2 1215.90 46.2058   1
   8  -1  -2 1388.40 53.3048   1
   9  -1  -2  890.20  45.247   1
  10  -1  -2  118.30  64.798   1
  11  -1  -2   32.80 89.6626   1
  12  -1  -2  160.40 98.7446   1
   1  -2  -2   16.00 7.86149   1
   2  -2  -2 3521.45 118.022   1
   3  -2  -2 2936.60 100.398   1
   4  -2  -2 4673.85 146.087   1
   5  -2  -2 2780.65 89.4725   1
   6  -2  -2  208.45 42.3427   1
   7  -2  -2  287.65 31.9332   1
   8  -2  -2 1500.35 64.1562   1
   9  -2  -2  966.40 47.8129   1
  10  -2  -2   24.35 34.6591   1
  11  -2  -2   63.75 58.8342   1
  12  -2  -2  278.40 122.301   1
   1  -3  -2 1484.75 55.4622   1
   2  -3  -2  354.90 22.4332   1
   3  -3  -2 1470.50 54.1292   1
   4  -3  -2  554.05 25.5431   1
   5  -3  -2   58.80  18.267   1
   6  -3  -2   16.55 18.4416   1
   7  -3  -2   99.40 21.9766   1
   8  -3  -2   37.15 20.7265   1
   9  -3  -2 1372.50 63.9018   1
  10  -3  -2  313.70 54.6727   1
  11  -3  -2  314.30 69.5853   1
  12  -3  -2    7.35  149.27   1
   1  -4  -2 1092.50 48.3075   1
   2  -4  -213555.10 412.624   1
   3  -4  -216815.40 566.772   1
   4  -4  -2 4823.90  156.53   1
   5  -4  -2  165.55 18.5879   1
   6  -4  -2  445.15 27.0776   1
   7  -4  -2  165.55 23.9035   1
   8  -4  -2  100.10 49.6641   1
   9  -4  -2   79.30 43.0104   1
  10  -4  -2   78.35 39.8904   1
  11  -4  -2   34.45 131.594   1
  12  -4  -2   10.00  74.176   1
   1  -5  -255058.90 1611.06   1
   2  -5  -2  115.25 15.2017   1
   3  -5  -2 2036.25 69.5575   1
   4  -5  -2    6.40 18.8093   1
   5  -5  -2 5577.45 193.193   1
   6  -5  -2  896.90  40.676   1
   7  -5  -2   41.00 22.1597   1
   8  -5  -2 1365.55  60.221   1
   9  -5  -2 1406.50 68.2149   1
  10  -5  -2   37.30 41.3738   1
  11  -5  -2  164.95 68.6334   1
  12  -5  -2 1085.75 232.918   1
   1  -6  -211777.70 380.848   1
   2  -6  -2 8926.85 501.868   1
   3  -6  -2  366.35 21.0401   1
   4  -6  -2 1481.90 54.2118   1
   5  -6  -2 4016.85 136.858   1
   6  -6  -2   19.80 21.0454   1
   7  -6  -2   17.60 61.2361   1
   8  -6  -2 1079.55 72.8105   1
   9  -6  -2  568.25 37.8737   1
  10  -6  -2   78.60 48.1017   1
  11  -6  -2   61.55 63.2891   1
   1  -7  -2  781.05 31.1036   1
   2  -7  -2 2441.25 80.6916   1
   3  -7  -2  808.70 32.5123   1
   4  -7  -2  533.10 25.0523   1
   5  -7  -2 1869.20 64.8353   1
   6  -7  -2  513.95 27.7259   1
   7  -7  -2  516.25   36.63   1
   8  -7  -2  569.50 40.8429   1
   9  -7  -2  880.65 49.8523   1
  10  -7  -2  435.85 56.5612   1
  11  -7  -2  382.65 74.3536   1
   1  -8  -2  180.30 17.3913   1
   2  -8  -2    3.70 15.1322   1
   3  -8  -2  245.30 31.4939   1
   4  -8  -2 1545.70 54.3354   1
   5  -8  -2 2602.85 87.7233   1
   6  -8  -2 7889.50  327.22   1
   7  -8  -2  136.35 27.8728   1
   8  -8  -2  669.40 69.9603   1
   9  -8  -2   94.55 43.2301   1
  10  -8  -2   46.90 45.3762   1
  11  -8  -2   30.65 88.8846   1
   1  -9  -2 2107.85 106.937   1
   2  -9  -2 5740.55 330.279   1
   3  -9  -2 4071.95  160.10   1
   4  -9  -2 2252.40 141.179   1
   5  -9  -2   97.05 19.4741   1
   6  -9  -2  163.10 22.6522   1
   7  -9  -2  631.55 36.3863   1
   8  -9  -2  491.25 56.4689   1
   9  -9  -2  356.75 48.3636   1
  10  -9  -2  -57.40 93.3893   1
  11  -9  -2  213.90   74.02   1
   1 -10  -2 3745.45 238.071   1
   2 -10  -2  235.95 21.4691   1
   3 -10  -2 1607.65 156.859   1
   4 -10  -2 2958.80 237.157   1
   5 -10  -2 2113.15 156.001   1
   6 -10  -2  422.95 38.1383   1
   7 -10  -2  679.10 49.2676   1
   8 -10  -2 2642.75 128.533   1
   9 -10  -2  120.65  40.349   1
  10 -10  -2  -26.70 61.2586   1
  11 -10  -2  117.35 67.3266   1
   1 -11  -2 1942.85 95.1121   1
   2 -11  -2    1.50 13.8926   1
   3 -11  -2  178.10 17.9485   1
   4 -11  -2  966.25 70.2013   1
   5 -11  -2  281.50 24.1206   1
   6 -11  -2  287.20 26.8503   1
   7 -11  -2  186.45 53.7503   1
   8 -11  -2  148.70 41.7319   1
   9 -11  -2   43.05 168.222   1
  10 -11  -2   69.55 61.9342   1
  11 -11  -2   74.45 95.6788   1
   1 -12  -235120.70 2321.51   1
   2 -12  -2  700.30 34.8053   1
   3 -12  -2  904.90 81.0348   1
   4 -12  -2    1.70 15.8467   1
   5 -12  -2 4624.55 322.427   1
   6 -12  -2   23.95 24.3448   1
   7 -12  -2 1274.75 117.634   1
   8 -12  -2  -11.85 50.1799   1
   9 -12  -2   61.10 94.4744   1
  10 -12  -2   28.35 67.3544   1
  11 -12  -2  202.70 86.7499   1
   1 -13  -2  234.30 22.5101   1
   2 -13  -2  422.60 29.2916   1
   3 -13  -2  277.60 23.1796   1
   4 -13  -2   10.45 22.6753   1
   5 -13  -2  338.00 29.0627   1
   6 -13  -2  748.55  42.728   1
   7 -13  -2   17.30 68.8727   1
   8 -13  -2    3.35 39.7533   1
   9 -13  -2  397.35 113.382   1
  10 -13  -2  277.65 87.7316   1
  11 -13  -2  193.90 100.722   1
   1 -14  -2  145.45 31.5502   1
   2 -14  -2  206.85 25.6974   1
   3 -14  -2   69.10 19.7244   1
   4 -14  -2 3652.65 135.214   1
   5 -14  -2   77.60 22.4942   1
   6 -14  -2 3965.20 239.027   1
   7 -14  -2  982.10 135.245   1
   8 -14  -2   48.55 57.9171   1
   9 -14  -2  229.90 69.7723   1
  10 -14  -2 -125.75 117.142   1
   1 -15  -2 2244.80 216.336   1
   2 -15  -2   72.15 24.9512   1
   3 -15  -2  129.25 19.2481   1
   4 -15  -2  160.90 27.4126   1
   5 -15  -2 1392.60 118.593   1
   6 -15  -2  181.40  27.713   1
   7 -15  -2  499.20  69.885   1
   8 -15  -2  323.90 53.4286   1
   9 -15  -2  112.75 174.311   1
  10 -15  -2  209.30 102.496   1
   1 -16  -2   -4.20 31.3395   1
   2 -16  -2  220.10 42.8508   1
   3 -16  -2   -2.20   27.20   1
   4 -16  -2 2450.95 192.387   1
   5 -16  -2   80.45 35.5329   1
   6 -16  -2  492.40 91.9712   1
   7 -16  -2   53.60 38.1983   1
   8 -16  -2  259.15  66.875   1
   9 -16  -2   42.80 77.9261   1
  10 -16  -2   10.65 87.3936   1
   1 -17  -2  236.55 26.6372   1
   2 -17  -2  305.95  52.197   1
   3 -17  -2  498.90 65.9516   1
   4 -17  -2  143.30 27.6373   1
   5 -17  -2   86.25 37.9863   1
   6 -17  -2  354.75 44.2652   1
   7 -17  -2  -10.85  115.90   1
   8 -17  -2  415.60 122.506   1
   9 -17  -2  218.20 73.4032   1
  10 -17  -2  297.10 267.893   1
   1 -18  -2  640.40 56.2152   1
   2 -18  -2  236.15  60.714   1
   3 -18  -2   85.25 38.9849   1
   4 -18  -2  224.35 111.991   1
   5 -18  -2  152.50 71.0345   1
   6 -18  -2  392.20 112.177   1
   7 -18  -2   24.80 62.3615   1
   8 -18  -2  254.70 73.7083   1
   9 -18  -2   21.85 79.3644   1
  10 -18  -2   39.10 162.411   1
   1 -19  -2   71.00 32.3245   1
   2 -19  -2  132.10  30.904   1
   3 -19  -2  322.60 34.8067   1
   4 -19  -2   58.65  36.344   1
   5 -19  -2  -29.95 64.1423   1
   6 -19  -2  102.80 52.2098   1
   7 -19  -2   38.75 43.7206   1
   8 -19  -2  253.25 72.6679   1
   9 -19  -2  119.25 108.133   1
   1 -20  -2  423.35 54.0852   1
   2 -20  -2   61.90 42.2672   1
   3 -20  -2   75.50 33.2555   1
   4 -20  -2  179.70 50.7085   1
   5 -20  -2   80.20 96.0335   1
   6 -20  -2   12.75 41.7905   1
   7 -20  -2  142.95 46.5168   1
   8 -20  -2  862.65  132.86   1
   9 -20  -2 -145.70 116.378   1
   1 -21  -2  802.60 159.463   1
   2 -21  -2 1171.85 304.408   1
   3 -21  -2  763.55 152.295   1
   4 -21  -2  794.30  60.202   1
   5 -21  -2   74.40 65.0645   1
   6 -21  -2  -11.70  194.20   1
   7 -21  -2  729.55 70.9284   1
   8 -21  -2  251.75 187.496   1
   9 -21  -2  281.05 174.217   1
   1 -22  -2  -48.00 48.9714   1
   2 -22  -2   39.90 53.6939   1
   3 -22  -2  243.60 49.0832   1
   4 -22  -2  345.00 55.2827   1
   5 -22  -2 1276.90 133.482   1
   6 -22  -2   51.20 65.3417   1
   7 -22  -2  -63.65  179.10   1
   8 -22  -2   76.70 87.2041   1
   1 -23  -2  127.00 59.9963   1
   2 -23  -2  119.70 34.0827   1
   3 -23  -2   54.50 67.3221   1
   4 -23  -2  366.75 50.1417   1
   5 -23  -2   69.90 48.5561   1
   6 -23  -2   -2.90 60.6817   1
   7 -23  -2  119.80 73.3082   1
   8 -23  -2  201.30 101.663   1
   1 -24  -2  240.80 49.9257   1
   2 -24  -2  558.50 98.5429   1
   3 -24  -2  124.55 48.3254   1
   4 -24  -2    8.00 70.7108   1
   5 -24  -2 1371.15 303.488   1
   6 -24  -2   -4.60  240.40   1
   7 -24  -2 1259.45 201.311   1
   1 -25  -2  184.75 45.1373   1
   2 -25  -2  -38.65 59.6331   1
   3 -25  -2  107.25 46.2856   1
   4 -25  -2  730.90 152.184   1
   5 -25  -2   30.40 64.1468   1
   6 -25  -2  465.05 75.9465   1
   7 -25  -2  296.95 81.0997   1
   1 -26  -2   97.30 61.1134   1
   2 -26  -2 1310.25  168.93   1
   3 -26  -2   84.70 91.9336   1
   4 -26  -2  753.15 62.5636   1
   5 -26  -2  309.25 92.2657   1
   6 -26  -2  111.20 65.4168   1
   1 -27  -2  368.75 173.693   1
   2 -27  -2  100.45 57.0402   1
   3 -27  -2   -1.65  122.70   1
   4 -27  -2  159.30 58.0374   1
   5 -27  -2  377.15  76.069   1
   6 -27  -2  252.60  173.57   1
   1 -28  -2  -26.00  201.60   1
   2 -28  -2  322.80 132.768   1
   3 -28  -2   91.85 143.479   1
   4 -28  -2   92.60 79.3206   1
   5 -28  -2  139.80  86.134   1
   1 -29  -2  442.35 116.243   1
   2 -29  -2 -185.70  538.00   1
   3 -29  -2 -148.15  255.10   1
   4 -29  -2   16.40 122.936   1
   1 -30  -2   90.00 146.519   1
   2 -30  -2  143.40 141.157   1
   3 -30  -2   66.50 166.602   1
   2   0  -1    5.70 11.3877   1
   3   0  -1  -11.80 11.8656   1
   4   0  -1   -8.60 17.4477   1
   5   0  -1   20.40 21.6651   1
   6   0  -1   -5.00  21.522   1
   7   0  -1   -3.90  28.427   1
   8   0  -1    0.00  27.356   1
   9   0  -1   28.50 31.8801   1
  10   0  -1   18.70 45.0802   1
  11   0  -1    4.50 79.2071   1
  12   0  -1  -11.80 129.099   1
   2  -1  -1  925.60 34.3151   1
   3  -1  -1 8397.45 253.919   1
   4  -1  -1 2489.40  84.231   1
   5  -1  -1  438.50 21.3121   1
   6  -1  -1 1194.25 42.1894   1
   7  -1  -1   41.10 16.3525   1
   8  -1  -1 1361.70 51.4278   1
   9  -1  -1   66.45 24.1352   1
  10  -1  -1 2334.80 115.271   1
  11  -1  -1  686.05 152.767   1
  12  -1  -1   36.95 79.9015   1
   1  -2  -1 1259.50 73.2387   1
   2  -2  -110468.80 298.353   1
   3  -2  -114915.00  430.43   1
   4  -2  -1   50.40 12.3854   1
   5  -2  -1 1105.80 38.2157   1
   6  -2  -1  891.00 34.9632   1
   7  -2  -1   33.40 17.1681   1
   8  -2  -1 1515.00 57.3396   1
   9  -2  -1  153.55 25.2359   1
  10  -2  -1  239.05 39.8754   1
  11  -2  -1  337.15 74.1818   1
  12  -2  -1  143.85 98.2435   1
   1  -3  -111023.50 471.914   1
   2  -3  -1  281.35 15.0585   1
   3  -3  -1  673.35 28.9682   1
   4  -3  -1 1580.20 50.5909   1
   5  -3  -115231.30 644.258   1
   6  -3  -1   12.55 15.1523   1
   7  -3  -1 1329.50 66.7531   1
   8  -3  -1  702.35 34.6149   1
   9  -3  -1 2518.05 115.082   1
  10  -3  -1   32.65 38.1166   1
  11  -3  -1   67.45 64.9144   1
  12  -3  -1   10.85  74.862   1
   2  -4  -1  996.70 36.2697   1
   3  -4  -1 1295.55 45.2199   1
   4  -4  -1   36.95  13.989   1
   5  -4  -1   49.30 15.5213   1
   6  -4  -1  595.50 31.6951   1
   7  -4  -1  452.55 40.4481   1
   8  -4  -1  163.20 24.0563   1
   9  -4  -1   26.95 22.9569   1
  10  -4  -1  177.30 37.2788   1
  11  -4  -1 -101.20  229.60   1
  12  -4  -1  291.25 144.977   1
   1  -5  -110735.40 343.668   1
   2  -5  -1   18.60 8.59611   1
   3  -5  -1  101.75  15.569   1
   4  -5  -1 1978.15 65.3085   1
   5  -5  -1 1361.20  68.119   1
   6  -5  -1 1330.95 50.3082   1
   7  -5  -1 1905.80 90.1779   1
   8  -5  -1  -20.55   31.70   1
   9  -5  -1   76.85 36.8603   1
  10  -5  -1  -37.65  134.70   1
  11  -5  -1  204.50 94.2421   1
   1  -6  -113590.20 466.893   1
   2  -6  -114156.30 424.667   1
   3  -6  -1 2323.30 76.1971   1
   4  -6  -1 3484.60 145.471   1
   5  -6  -1 3278.60 113.504   1
   6  -6  -1 4795.30 172.415   1
   7  -6  -1 1293.35  96.312   1
   8  -6  -1  266.40 42.2128   1
   9  -6  -1  968.55 48.9433   1
  10  -6  -1  -13.20 57.0835   1
  11  -6  -1  259.70 305.639   1
   1  -7  -1 9443.30 465.545   1
   2  -7  -1 6183.15 198.297   1
   3  -7  -120558.50 969.154   1
   4  -7  -1 1570.85 100.898   1
   5  -7  -1  -12.50 23.7903   1
   6  -7  -1   -5.95   46.90   1
   7  -7  -1  637.75 32.8829   1
   8  -7  -1  -28.70 35.8373   1
   9  -7  -1 1353.40   62.52   1
  10  -7  -1  -23.60  93.947   1
  11  -7  -1   83.05 120.003   1
   1  -8  -1  571.10 27.2564   1
   2  -8  -1 1731.05 83.0574   1
   3  -8  -1 9803.00 322.451   1
   4  -8  -1  126.60 20.1814   1
   5  -8  -1 1508.30 56.5812   1
   6  -8  -1  303.10 22.8234   1
   7  -8  -1 1177.20 120.942   1
   8  -8  -1  -35.90 35.1315   1
   9  -8  -1   12.40 29.8008   1
  10  -8  -1   30.05 71.3487   1
  11  -8  -1  206.85 75.4138   1
   1  -9  -1 1212.40 61.4724   1
   2  -9  -1    2.90  13.672   1
   3  -9  -114730.20 670.708   1
   4  -9  -1 1204.30 56.0818   1
   5  -9  -1  115.10 16.3544   1
   6  -9  -1  119.20  20.181   1
   7  -9  -1  255.00 26.6377   1
   8  -9  -1  776.45  97.438   1
   9  -9  -1  531.80 128.403   1
  10  -9  -1  241.65  257.91   1
  11  -9  -1  360.60 112.009   1
   1 -10  -1    9.95 17.8905   1
   2 -10  -1   76.70 16.1676   1
   3 -10  -1  216.50 18.8442   1
   4 -10  -1   38.85 14.4664   1
   5 -10  -1 2928.70 154.735   1
   6 -10  -1  174.20 20.4616   1
   7 -10  -1  623.50 72.6554   1
   8 -10  -1  385.65 64.1422   1
   9 -10  -1   96.15 51.1649   1
  10 -10  -1   92.70 55.9453   1
  11 -10  -1  -68.15  123.50   1
   1 -11  -1 5561.30 299.709   1
   2 -11  -1 6905.85 315.426   1
   3 -11  -1 1041.75 40.6471   1
   4 -11  -1  150.20 29.9343   1
   5 -11  -1  171.75 19.0262   1
   6 -11  -1 2488.20 137.822   1
   7 -11  -1  368.25 31.8518   1
   8 -11  -1 4076.15 388.006   1
   9 -11  -1 1070.25 80.9235   1
  10 -11  -1   -6.40  157.20   1
  11 -11  -1  303.95 238.414   1
   1 -12  -1 1083.95  43.574   1
   2 -12  -1   19.90  25.882   1
   3 -12  -1   39.60 18.9499   1
   4 -12  -1 3946.40 268.967   1
   5 -12  -1 3092.25 118.319   1
   6 -12  -1  314.25 25.5577   1
   7 -12  -1  141.25 46.2281   1
   8 -12  -1  861.00 93.0664   1
   9 -12  -1  235.35 103.234   1
  10 -12  -1   38.60 159.383   1
  11 -12  -1   39.40 96.9134   1
   1 -13  -1 6528.60 250.253   1
   2 -13  -1 2293.15 165.454   1
   3 -13  -1  125.05 21.5296   1
   4 -13  -1  272.00 57.1548   1
   5 -13  -1  633.70 31.6408   1
   6 -13  -1 1105.80  47.856   1
   7 -13  -1  267.65 30.5557   1
   8 -13  -1  765.25 55.0456   1
   9 -13  -1  790.95 83.8132   1
  10 -13  -1  166.30 142.294   1
  11 -13  -1  110.25 291.263   1
   1 -14  -1 4383.85 160.741   1
   2 -14  -1  829.90 61.9344   1
   3 -14  -1 1939.95 147.959   1
   4 -14  -1 1607.60 90.2052   1
   5 -14  -1   28.85 67.2474   1
   6 -14  -1   57.60 24.2537   1
   7 -14  -1  745.75 99.2032   1
   8 -14  -1  138.85 54.2795   1
   9 -14  -1   41.35 82.6634   1
  10 -14  -1  113.35 78.2972   1
   1 -15  -1 5232.35 411.108   1
   2 -15  -1 1044.70 69.3136   1
   3 -15  -1  899.75 46.0238   1
   4 -15  -1  808.30 37.9188   1
   5 -15  -1  782.65  64.207   1
   6 -15  -1   -1.45 38.5138   1
   7 -15  -1  738.05 53.2072   1
   8 -15  -1    5.50 59.6799   1
   9 -15  -1  223.65 69.9182   1
  10 -15  -1  231.25 81.2425   1
   1 -16  -1  513.30  58.408   1
   2 -16  -1 1508.65 168.783   1
   3 -16  -1   25.25 21.9243   1
   4 -16  -1 1014.95 48.9609   1
   5 -16  -1  176.60 34.1601   1
   6 -16  -1 2128.90 240.381   1
   7 -16  -1  372.05 42.9875   1
   8 -16  -1  -17.30  75.378   1
   9 -16  -1  -82.45  125.90   1
  10 -16  -1  -10.05  122.50   1
   1 -17  -1  375.35 32.4787   1
   2 -17  -1  302.20  40.166   1
   3 -17  -1  509.55 34.6394   1
   4 -17  -1 1372.65 209.652   1
   5 -17  -1 1826.55 171.239   1
   6 -17  -1  857.40 142.914   1
   7 -17  -1   16.45 31.5717   1
   8 -17  -1  -14.50 81.5171   1
   9 -17  -1  -12.00 102.435   1
  10 -17  -1  -40.90  216.20   1
   1 -18  -1  402.40 66.3495   1
   2 -18  -1  285.15  113.58   1
   3 -18  -1  944.55  144.81   1
   4 -18  -1 2618.85 179.428   1
   5 -18  -1  215.75 32.5654   1
   6 -18  -1    3.90 39.2781   1
   7 -18  -1   40.95 40.4622   1
   8 -18  -1   81.40 64.1628   1
   9 -18  -1  -50.05 120.173   1
   1 -19  -1 4345.30 435.795   1
   2 -19  -1   54.15  38.971   1
   3 -19  -1  246.30 36.0426   1
   4 -19  -1  710.80 111.302   1
   5 -19  -1  460.35 82.1354   1
   6 -19  -1  -13.30 51.0781   1
   7 -19  -1  -42.70 65.1613   1
   8 -19  -1  387.40 153.706   1
   9 -19  -1   32.20 111.158   1
   1 -20  -1 1525.40 200.015   1
   2 -20  -1   90.25 38.8464   1
   3 -20  -1  372.55 60.0402   1
   4 -20  -1   74.30 39.4255   1
   5 -20  -1 1384.90  303.01   1
   6 -20  -1   24.10 42.9815   1
   7 -20  -1  348.70  56.282   1
   8 -20  -1  403.75 58.9593   1
   9 -20  -1  -59.50  213.80   1
   1 -21  -1  577.70 105.895   1
   2 -21  -1   28.90 50.0653   1
   3 -21  -1 2171.00 137.023   1
   4 -21  -1  209.90 46.3637   1
   5 -21  -1  518.65 105.325   1
   6 -21  -1  -10.40  123.20   1
   7 -21  -1  221.95 51.4609   1
   8 -21  -1  -43.50  75.706   1
   9 -21  -1  326.10 179.114   1
   1 -22  -1 1344.35 84.0476   1
   2 -22  -1  586.30 53.7556   1
   3 -22  -1   37.80 122.472   1
   4 -22  -1 1518.85 149.933   1
   5 -22  -1  563.65 54.5579   1
   6 -22  -1  319.75 64.3336   1
   7 -22  -1  116.50  47.266   1
   8 -22  -1   73.50 51.5337   1
   1 -23  -1  111.20 44.4275   1
   2 -23  -1  265.00 53.7622   1
   3 -23  -1  520.00 140.531   1
   4 -23  -1  148.85 102.345   1
   5 -23  -1   18.35 41.3878   1
   6 -23  -1   -3.10   65.20   1
   7 -23  -1   71.85 56.1787   1
   8 -23  -1   74.05 84.8485   1
   1 -24  -1  124.70 42.0815   1
   2 -24  -1  187.15 50.3181   1
   3 -24  -1  113.20 94.9106   1
   4 -24  -1  439.80 67.8154   1
   5 -24  -1   -0.60  71.519   1
   6 -24  -1   78.05 143.477   1
   7 -24  -1    7.20 59.6739   1
   1 -25  -1  263.05 126.711   1
   2 -25  -1  126.95 50.7195   1
   3 -25  -1   56.25 56.3073   1
   4 -25  -1  -39.60 88.7588   1
   5 -25  -1  529.55 137.363   1
   6 -25  -1  199.15   68.09   1
   7 -25  -1  120.55 185.342   1
   1 -26  -1  305.45  62.201   1
   2 -26  -1  354.55  74.387   1
   3 -26  -1   91.15 55.1963   1
   4 -26  -1  332.15 74.1441   1
   5 -26  -1  -15.45 97.6408   1
   6 -26  -1  -92.55  112.10   1
   1 -27  -1    4.20 65.9024   1
   2 -27  -1  459.70 89.3914   1
   3 -27  -1  118.40 169.857   1
   4 -27  -1   20.85 62.0141   1
   5 -27  -1  976.15 220.804   1
   6 -27  -1  -63.90  161.20   1
   1 -28  -1  128.45 56.0668   1
   2 -28  -1  227.95 72.5014   1
   3 -28  -1   26.80 138.876   1
   4 -28  -1  179.90 111.194   1
   5 -28  -1   47.65 157.192   1
   1 -29  -1   70.10 70.6003   1
   2 -29  -1  105.15 78.8866   1
   3 -29  -1   50.75 77.6921   1
   4 -29  -1   28.60 101.433   1
   1 -30  -1 -107.45  129.10   1
   2 -30  -1  149.60 104.591   1
   3 -30  -1  314.00  208.09   1
   1 -31  -1   72.60  83.281   1
   2 -31  -1  154.25 97.5403   1
   2   0   0  774.80 35.0484   1
   3   0   0 2304.10 85.9222   1
   4   0   0  220.00 17.3416   1
   5   0   0   14.70 14.9903   1
   6   0   0 2086.20 81.2471   1
   7   0   015416.50 1051.15   1
   8   0   0   -2.40 20.5225   1
   9   0   0   77.20 23.4705   1
  10   0   0  -26.20 82.9073   1
  11   0   0 1640.40 195.465   1
   2  -1   013907.70 341.763   1
   3  -1   0 2391.90 74.0752   1
   4  -1   0  773.40 28.6541   1
   5  -1   0  664.05 25.2816   1
   6  -1   0    4.60 11.6655   1
   7  -1   0  724.00  27.588   1
   8  -1   0  858.10  34.645   1
   9  -1   0 1277.35 49.2606   1
  10  -1   0  188.30 64.9806   1
  11  -1   0   32.90 59.2328   1
   2  -2   0 6678.80  184.88   1
   3  -2   013230.90 379.193   1
   4  -2   0  224.80 13.8652   1
   5  -2   0 4353.40 137.671   1
   6  -2   0   56.95 11.9602   1
   7  -2   0   67.35  13.864   1
   8  -2   0   -4.05 24.9997   1
   9  -2   0  594.10 29.5592   1
  10  -2   0  380.85 53.2883   1
  11  -2   0   84.95 58.2879   1
   1  -3   0 5378.85 6250.06   1
   2  -3   0 3866.95 116.109   1
   3  -3   0 1568.25 48.6195   1
   4  -3   0  337.00 16.6023   1
   5  -3   0 1314.15 44.1198   1
   6  -3   0 2410.75 77.5809   1
   7  -3   0  966.00 35.5285   1
   8  -3   0  226.30 18.7334   1
   9  -3   0   52.90 18.3619   1
  10  -3   0  130.15 52.0568   1
  11  -3   0   28.65 69.3979   1
   0  -4   0 1896.55 952.874   1
   1  -4   010582.70 959.886   1
   2  -4   0 9809.10 273.832   1
   3  -4   0 6348.75 189.694   1
   4  -4   0  662.50 31.4917   1
   5  -4   0  557.30 28.0094   1
   6  -4   0  263.75  16.541   1
   7  -4   0 1165.55 42.4585   1
   8  -4   0  -12.30  22.867   1
   9  -4   0   20.75 22.7005   1
  10  -4   0  577.50 92.9392   1
  11  -4   0   43.90 181.303   1
   0  -5   0    0.40 11.6365   1
   1  -5   0  126.80 11.1351   1
   2  -5   012293.70 345.802   1
   3  -5   0 7106.30 213.585   1
   4  -5   0  348.70 22.1918   1
   5  -5   0 2578.65 82.3993   1
   6  -5   0   10.00 14.4584   1
   7  -5   0 3155.65 105.293   1
   8  -5   0 1063.50 40.9483   1
   9  -5   0 1456.05 56.1493   1
  10  -5   0  130.10 49.9686   1
  11  -5   0  -41.90 107.107   1
   0  -6   018624.60 534.353   1
   1  -6   0   99.55 12.6287   1
   2  -6   0  298.15 16.7465   1
   3  -6   0  104.20 12.5957   1
   4  -6   0 3774.55 116.622   1
   5  -6   0  306.00 16.6749   1
   6  -6   0  387.25 21.6361   1
   7  -6   0 1175.10 44.1817   1
   8  -6   0  185.40 19.1705   1
   9  -6   0    0.70 50.6288   1
  10  -6   0   77.20 57.2674   1
  11  -6   0  -52.10  406.20   1
   0  -7   0    2.65 18.5572   1
   1  -7   0  492.55 23.3243   1
   2  -7   0  729.10 28.9451   1
   3  -7   0 5972.45 189.516   1
   4  -7   010397.00 365.976   1
   5  -7   0  314.40 18.5342   1
   6  -7   0    5.90 16.3501   1
   7  -7   0 1027.40 78.2145   1
   8  -7   0 2241.15 101.095   1
   9  -7   0   94.20 37.9302   1
  10  -7   0   64.50 63.7701   1
  11  -7   0   51.90 111.867   1
   0  -8   0   -2.65 33.0097   1
   1  -8   0 9665.65  306.06   1
   2  -8   0   87.25 12.5086   1
   3  -8   0 1412.70 46.6416   1
   4  -8   0  356.25 19.1111   1
   5  -8   0  663.75 26.8056   1
   6  -8   0  476.85 25.4045   1
   7  -8   0 1228.75   45.74   1
   8  -8   0  659.65 31.8615   1
   9  -8   0   10.35 32.1993   1
  10  -8   0  -42.60  78.086   1
  11  -8   0  252.85 79.2894   1
   0  -9   0   12.35 30.0527   1
   1  -9   0  370.45 23.0246   1
   2  -9   0 4409.20 212.976   1
   3  -9   0 2920.05  187.98   1
   4  -9   0  445.65  23.153   1
   5  -9   0 1837.35 59.0019   1
   6  -9   0  510.15 25.0925   1
   7  -9   0   17.30 19.1289   1
   8  -9   0 1036.95 44.1834   1
   9  -9   0  -72.25 49.1891   1
  10  -9   0   73.85 62.0677   1
  11  -9   0  307.00 114.748   1
   0 -10   024669.90 1099.02   1
   1 -10   0 4526.55 150.387   1
   2 -10   011095.40 472.204   1
   3 -10   0  110.00 16.4449   1
   4 -10   0  404.50   20.57   1
   5 -10   0   87.90 23.2347   1
   6 -10   0  158.55 19.4661   1
   7 -10   0  -10.65   42.70   1
   8 -10   0   28.40 20.8434   1
   9 -10   0  576.90  156.96   1
  10 -10   0  -17.60 88.9495   1
  11 -10   0  157.70  121.05   1
   0 -11   0   25.60 51.1961   1
   1 -11   0  344.00  24.109   1
   2 -11   0  352.45 28.2819   1
   3 -11   0  340.20 22.6734   1
   4 -11   0 3113.15 101.894   1
   5 -11   0  248.85 19.2984   1
   6 -11   0   48.10 19.3173   1
   7 -11   0 1058.15 121.437   1
   8 -11   0   41.65 27.4487   1
   9 -11   0  519.70 65.3142   1
  10 -11   0   76.80  90.942   1
  11 -11   0   -3.60 124.801   1
   0 -12   0  346.40 45.3337   1
   1 -12   0  164.25 23.6317   1
   2 -12   0 9969.70 687.658   1
   3 -12   0 2050.15 156.206   1
   4 -12   0 2952.10  99.502   1
   5 -12   0  819.85 59.0691   1
   6 -12   0  459.40  27.638   1
   7 -12   0  -19.85  34.182   1
   8 -12   0   57.35 32.3275   1
   9 -12   0  248.35 66.5133   1
  10 -12   0  138.85 64.7908   1
  11 -12   0  703.30 165.126   1
   0 -13   0   -7.00 52.9525   1
   1 -13   0  241.00 26.1432   1
   2 -13   0  469.60 32.6134   1
   3 -13   0 2397.25 141.569   1
   4 -13   0  192.60 26.9185   1
   5 -13   0   22.85 23.7794   1
   6 -13   0  303.30 26.8974   1
   7 -13   0   92.55 25.9617   1
   8 -13   0 1450.95 112.877   1
   9 -13   0  -45.55 73.1637   1
  10 -13   0 -100.00  157.80   1
   0 -14   0  737.80 67.2054   1
   1 -14   0 7585.70 528.287   1
   2 -14   0  260.25 33.6983   1
   3 -14   0 3797.85 268.501   1
   4 -14   0  348.60  32.918   1
   5 -14   0 1137.15  64.703   1
   6 -14   0  120.95 29.5324   1
   7 -14   0   25.15 31.0444   1
   8 -14   0  638.30  46.005   1
   9 -14   0   50.30 56.8101   1
  10 -14   0  537.25 88.0964   1
   0 -15   0   -9.30  82.453   1
   1 -15   0 1455.65 135.541   1
   2 -15   0  295.20 29.4324   1
   3 -15   0 1029.35 50.6961   1
   4 -15   0 1934.45 124.655   1
   5 -15   0  -24.20 42.3921   1
   6 -15   0  130.60 31.6452   1
   7 -15   0 1273.70 63.0299   1
   8 -15   0  -70.10  116.60   1
   9 -15   0  288.05 95.3561   1
  10 -15   0  234.50 179.219   1
   0 -16   0  720.35 80.6867   1
   1 -16   0 1478.55 170.258   1
   2 -16   0  148.80 35.4335   1
   3 -16   0 1489.30 65.5396   1
   4 -16   0   26.20 22.4918   1
   5 -16   0  303.55 30.6459   1
   6 -16   0  216.65 52.5085   1
   7 -16   0  202.45 97.4212   1
   8 -16   0  258.90  55.024   1
   9 -16   0  273.25 79.4009   1
  10 -16   0  383.25  99.392   1
   0 -17   0   54.05 78.7056   1
   1 -17   0  261.50 34.6695   1
   2 -17   0  163.65 39.6898   1
   3 -17   0 1089.95 151.948   1
   4 -17   0 1125.80 81.5858   1
   5 -17   0   33.25 27.4308   1
   6 -17   0  121.35 33.8487   1
   7 -17   0  191.95 36.5316   1
   8 -17   0    7.15 129.189   1
   9 -17   0  132.85 143.063   1
  10 -17   0  218.60 90.0563   1
   0 -18   0 1586.95 173.299   1
   1 -18   0  519.65 119.572   1
   2 -18   0  332.60 115.096   1
   3 -18   0  155.65 64.3231   1
   4 -18   0  -30.95   49.10   1
   5 -18   0   79.30 39.6178   1
   6 -18   0  264.15 36.4095   1
   7 -18   0   -4.10  111.00   1
   8 -18   0   16.80 49.9431   1
   9 -18   0   43.35 77.4893   1
   0 -19   0   39.35 42.6447   1
   1 -19   0   35.20 35.2736   1
   2 -19   0  413.50 56.8046   1
   3 -19   0  184.75 33.6976   1
   4 -19   0  297.00 115.637   1
   5 -19   0 1145.90 140.614   1
   6 -19   0  636.60  112.88   1
   7 -19   0  569.05 61.5403   1
   8 -19   0  224.70 57.6932   1
   9 -19   0  179.95 111.123   1
   0 -20   0 1583.25 102.096   1
   1 -20   0  634.25 63.6567   1
   2 -20   0 2658.65 278.188   1
   3 -20   0  235.60 52.4583   1
   4 -20   0   26.85 42.0857   1
   5 -20   0 2678.80 156.364   1
   6 -20   0  259.35 56.8476   1
   7 -20   0   35.90 103.805   1
   8 -20   0  -21.10 86.7605   1
   9 -20   0  239.85 158.084   1
   0 -21   0  -47.60 66.3449   1
   1 -21   0  409.15  116.64   1
   2 -21   0 1619.55 402.241   1
   3 -21   0  -33.10   44.00   1
   4 -21   0 1300.05 144.657   1
   5 -21   0  504.60 81.8485   1
   6 -21   0   16.00 38.8564   1
   7 -21   0  129.40  128.71   1
   8 -21   0   72.55 71.3974   1
   0 -22   0 7494.55 899.431   1
   1 -22   0   -9.15   84.10   1
   2 -22   0  -14.25   92.70   1
   3 -22   0  714.35 129.822   1
   4 -22   0  -12.95 58.7306   1
   5 -22   0  579.95 128.526   1
   6 -22   0  292.80 143.335   1
   7 -22   0  116.55 145.746   1
   8 -22   0  168.45 243.754   1
   0 -23   0   32.20 52.4453   1
   1 -23   0 1405.35 269.125   1
   2 -23   0   39.90 43.3008   1
   3 -23   0   25.25 51.6123   1
   4 -23   0  271.00 52.3601   1
   5 -23   0  -43.75   78.30   1
   6 -23   0   83.75 65.2558   1
   7 -23   0  298.90 100.238   1
   8 -23   0   82.30 149.488   1
   0 -24   0 2678.60 281.941   1
   1 -24   0    5.40 59.7072   1
   2 -24   0  499.05 76.7038   1
   3 -24   0  -35.55 70.6404   1
   4 -24   0 1657.10 279.125   1
   5 -24   0  331.25  113.47   1
   6 -24   0    5.20 69.4372   1
   7 -24   0  322.95 181.445   1
   0 -25   0  -41.10 79.1113   1
   1 -25   0  168.85 87.9339   1
   2 -25   0   33.25 51.6342   1
   3 -25   0   19.60 52.2646   1
   4 -25   0  475.50 243.644   1
   5 -25   0  297.20 62.1354   1
   6 -25   0  187.55 293.252   1
   7 -25   0  183.15 84.7113   1
   0 -26   0  121.75 66.2839   1
   1 -26   0  436.95 54.1667   1
   2 -26   0  363.35 68.7585   1
   3 -26   0 1063.40 172.929   1
   4 -26   0  161.55 87.1635   1
   5 -26   0  320.65 247.327   1
   6 -26   0   19.55 58.6031   1
   0 -27   0 -102.40  207.40   1
   1 -27   0  466.15 69.7577   1
   2 -27   0  244.30 107.974   1
   3 -27   0  151.75 74.7797   1
   4 -27   0  -77.50  159.40   1
   5 -27   0  277.15 84.7148   1
   6 -27   0  181.25  69.678   1
   0 -28   0  553.10 274.073   1
   1 -28   0  -11.35 82.0228   1
   2 -28   0  186.30 74.9324   1
   3 -28   0  324.50 130.633   1
   4 -28   0    9.85 97.3687   1
   5 -28   0   97.55 118.875   1
   0 -29   0   56.25 78.0568   1
   1 -29   0  -15.10  111.60   1
   2 -29   0   -1.50 87.0122   1
   3 -29   0  -28.80  101.23   1
   4 -29   0   90.95 205.137   1
   0 -30   0  517.75 318.091   1
   1 -30   0  -61.85 91.3772   1
   2 -30   0   27.60 61.8558   1
   3 -30   0   99.55 89.2278   1
   0 -31   0   99.15 134.006   1
   1 -31   0  -19.05   89.30   1
   2 -31   0  100.10 71.6755   1
   1   0   1    7.60 6.27041   1
   2   0   1    4.40 5.58774   1
   3   0   1    3.50 8.93894   1
   4   0   1  -10.30 12.0782   1
   5   0   1    6.30 13.4586   1
   6   0   1   -3.60 15.8912   1
   7   0   1   -4.90 17.3012   1
   8   0   1    7.90 23.3463   1
   9   0   1   -5.30 18.7006   1
  10   0   1  -26.70 79.6908   1
  11   0   1  -17.70 96.3301   1
   1  -1   128371.10  523.95   1
   2  -1   1  130.45  9.9057   1
   3  -1   1 3047.65 87.0353   1
   4  -1   1 1943.00 60.1965   1
   5  -1   1 8988.60 299.261   1
   6  -1   1 3847.50  123.77   1
   7  -1   1  408.40 19.0812   1
   8  -1   1   76.05 23.2949   1
   9  -1   1  -24.75  49.147   1
  10  -1   1   66.80 64.4968   1
  11  -1   1  131.35 70.5596   1
   1  -2   1  238.85 11.0426   1
   2  -2   1 6725.65 188.771   1
   3  -2   1  277.25 15.5734   1
   4  -2   1 1318.15 43.9453   1
   5  -2   1 2550.60 78.5654   1
   6  -2   1  503.75 21.6206   1
   7  -2   1  696.60 31.1454   1
   8  -2   1 3319.55 144.547   1
   9  -2   1    7.35 42.5979   1
  10  -2   1   26.65 185.616   1
  11  -2   1  172.80 91.6734   1
   0  -3   1 6837.40 860.719   1
   1  -3   1 6695.05 186.247   1
   2  -3   181473.80 2064.71   1
   3  -3   1 2990.70 95.0474   1
   4  -3   1    7.45 17.3245   1
   5  -3   1  276.55 21.7134   1
   6  -3   1  614.40  30.267   1
   7  -3   1   -3.00 32.0867   1
   8  -3   1  129.70 33.2972   1
   9  -3   1  -21.25 59.4845   1
  10  -3   1   38.70 77.0771   1
  11  -3   1   26.90 74.0748   1
   0  -4   1  151.85 21.2784   1
   1  -4   113174.00 353.606   1
   2  -4   115373.80 418.745   1
   3  -4   1 3355.25 105.217   1
   4  -4   1   44.80 12.9349   1
   5  -4   1  377.00 23.0765   1
   6  -4   1 1460.80 51.1992   1
   7  -4   1  442.40 28.5306   1
   8  -4   1  835.55 48.1481   1
   9  -4   1   36.65 82.9457   1
  10  -4   1  251.40 75.4676   1
  11  -4   1  364.20 91.8218   1
   0  -5   1 6194.90 212.192   1
   1  -5   123941.70 985.443   1
   2  -5   123741.00 636.173   1
   3  -5   1 2234.60 72.3138   1
   4  -5   1 2467.60 76.2825   1
   5  -5   1  459.55 23.9336   1
   6  -5   1  463.65 27.5388   1
   7  -5   1  739.20 39.6627   1
   8  -5   1  547.80 43.0364   1
   9  -5   1   93.05 33.5664   1
  10  -5   1   -7.30 109.046   1
  11  -5   1   26.80 113.704   1
   0  -6   1  779.85 38.0453   1
   1  -6   1 1006.00 56.9946   1
   2  -6   126131.70 783.074   1
   3  -6   1   17.25 9.97394   1
   4  -6   1 1331.15 47.9312   1
   5  -6   1 1240.05  45.692   1
   6  -6   1 1678.70  65.237   1
   7  -6   1   49.60 31.5467   1
   8  -6   1 1108.20 111.273   1
   9  -6   1  357.40 48.4872   1
  10  -6   1  198.80 96.3814   1
  11  -6   1   -1.90 130.798   1
   0  -7   123318.90 1098.24   1
   1  -7   1 3040.20 145.891   1
   2  -7   1  120.70 19.3277   1
   3  -7   1 3744.20 126.189   1
   4  -7   125532.10 1181.27   1
   5  -7   1 1140.05 43.5427   1
   6  -7   1  110.85  21.356   1
   7  -7   1  138.35  45.237   1
   8  -7   1  655.30 49.2097   1
   9  -7   1   -1.30  186.80   1
  10  -7   1  270.40  73.217   1
  11  -7   1  142.70 105.809   1
   0  -8   116097.40  815.31   1
   1  -8   1   32.15 20.7245   1
   2  -8   1 3588.40 144.928   1
   3  -8   1   37.85 13.8589   1
   4  -8   1 2887.00 89.3262   1
   5  -8   1  400.70 22.9564   1
   6  -8   1   -5.30 25.2703   1
   7  -8   1  655.05 44.5433   1
   8  -8   1  844.55 119.753   1
   9  -8   1 1008.45 129.888   1
  10  -8   1  196.70 71.6964   1
  11  -8   1  214.60 135.666   1
   0  -9   1 3116.85 158.001   1
   1  -9   1  108.35 26.2895   1
   2  -9   1    2.80 14.9122   1
   3  -9   1  151.40  25.794   1
   4  -9   1 6600.15 222.294   1
   5  -9   1  333.65 40.2983   1
   6  -9   1   -7.55   60.70   1
   7  -9   1   57.55  28.935   1
   8  -9   1 1090.35 89.9846   1
   9  -9   1   99.25 44.4172   1
  10  -9   1  341.80 73.9874   1
  11  -9   1   91.80  154.13   1
   0 -10   1 1759.75   86.95   1
   1 -10   1 3661.00 174.629   1
   2 -10   1   69.20 20.1128   1
   3 -10   1 1552.40 115.769   1
   4 -10   1 1158.95 45.0622   1
   5 -10   1   79.05 28.5238   1
   6 -10   1   32.95 18.6272   1
   7 -10   1  199.00 47.6216   1
   8 -10   1   45.35 37.5907   1
   9 -10   1   59.70 47.9153   1
  10 -10   1  294.60 85.4982   1
  11 -10   1 -129.30 97.2509   1
   0 -11   1 1266.95 48.6176   1
   1 -11   1  801.90 100.365   1
   2 -11   1   68.10 24.2496   1
   3 -11   118581.70 960.039   1
   4 -11   1  407.15 29.8102   1
   5 -11   1 4845.55 202.507   1
   6 -11   1   -1.30   31.80   1
   7 -11   1   65.30 30.7058   1
   8 -11   1  -37.25 65.3739   1
   9 -11   1  317.60 84.5778   1
  10 -11   1   50.50 78.1065   1
   0 -12   1  541.30 73.3332   1
   1 -12   1   11.30 24.4666   1
   2 -12   1 1459.85 81.4734   1
   3 -12   1  194.10 40.1397   1
   4 -12   1  332.35 50.4085   1
   5 -12   1   88.60 20.5111   1
   6 -12   1  217.25 23.3594   1
   7 -12   1  252.05 44.2327   1
   8 -12   1  112.65 62.7457   1
   9 -12   1   35.40 50.4905   1
  10 -12   1  517.20 114.656   1
   0 -13   1  229.60 28.2478   1
   1 -13   1 9756.00 472.765   1
   2 -13   1  920.10 133.449   1
   3 -13   1  762.95 57.6331   1
   4 -13   1 4930.75  218.79   1
   5 -13   1  378.55 40.6771   1
   6 -13   1  139.35 49.4758   1
   7 -13   1  565.25 135.847   1
   8 -13   1  219.70 38.7648   1
   9 -13   1  259.65 55.1412   1
  10 -13   1   56.40 148.495   1
   0 -14   1  169.00 34.4691   1
   1 -14   1  296.30 30.8007   1
   2 -14   1   41.65 30.0592   1
   3 -14   1  834.35 60.4992   1
   4 -14   1  339.60 69.2222   1
   5 -14   1  220.70 36.3027   1
   6 -14   1  142.90 40.0277   1
   7 -14   1  311.90 39.8323   1
   8 -14   1   64.75  45.543   1
   9 -14   1   71.00 211.994   1
  10 -14   1  -18.55 99.9986   1
   0 -15   1  561.30 73.5111   1
   1 -15   1   -9.05 32.7538   1
   2 -15   1  607.45 95.7303   1
   3 -15   1   28.00 32.9542   1
   4 -15   112212.30 746.186   1
   5 -15   1 1171.70 136.042   1
   6 -15   1 1619.20 234.464   1
   7 -15   1   -2.65 59.6556   1
   8 -15   1   13.50 52.3577   1
   9 -15   1   43.25 88.6031   1
  10 -15   1   40.45 200.466   1
   0 -16   1 3277.45 314.088   1
   1 -16   1  413.65 38.8282   1
   2 -16   1  613.65 70.6027   1
   3 -16   1 1049.25 212.991   1
   4 -16   1  184.75 39.0623   1
   5 -16   1 1182.00 120.814   1
   6 -16   1  285.80 38.4366   1
   7 -16   1  527.70  78.228   1
   8 -16   1  348.05 102.607   1
   9 -16   1  -61.30  177.40   1
   0 -17   1  337.30 32.3572   1
   1 -17   1 1737.60 155.047   1
   2 -17   1  -60.35   63.50   1
   3 -17   1   22.30 38.8962   1
   4 -17   1  250.65 66.2332   1
   5 -17   1  339.75 69.5749   1
   6 -17   1   68.90 183.285   1
   7 -17   1   12.40  43.916   1
   8 -17   1 -118.20  165.20   1
   9 -17   1   75.70 67.6769   1
   0 -18   1 2520.80 170.058   1
   1 -18   1    4.15 35.4261   1
   2 -18   1 1511.25 166.829   1
   3 -18   1  207.50 74.0361   1
   4 -18   1 3035.00 304.607   1
   5 -18   1  476.00 88.0036   1
   6 -18   1   20.25 79.1259   1
   7 -18   1  691.05 171.115   1
   8 -18   1 -138.40  450.60   1
   9 -18   1  194.45 85.2577   1
   0 -19   1 3943.90 339.113   1
   1 -19   1  965.75 126.998   1
   2 -19   1 3791.00 497.187   1
   3 -19   1  618.00 191.592   1
   4 -19   1  185.95 39.7016   1
   5 -19   1  -10.50  115.20   1
   6 -19   1  805.05  125.03   1
   7 -19   1  628.45 121.534   1
   8 -19   1   17.75 148.563   1
   9 -19   1  -80.55  108.90   1
   0 -20   1    0.65 30.1648   1
   1 -20   1   97.60  33.045   1
   2 -20   1  227.15 89.6624   1
   3 -20   1  116.35 48.7544   1
   4 -20   1  -83.75   84.30   1
   5 -20   1  329.85 70.6912   1
   6 -20   1  110.20 103.818   1
   7 -20   1  281.00 90.1949   1
   8 -20   1  -64.10  248.40   1
   0 -21   1  -10.95 48.0877   1
   1 -21   1 1525.05 210.477   1
   2 -21   1  852.95 140.866   1
   3 -21   1 1649.35 365.022   1
   4 -21   1  992.35 192.056   1
   5 -21   1  242.80  58.197   1
   6 -21   1  423.45 131.763   1
   7 -21   1   43.75 61.6692   1
   8 -21   1   41.85 142.484   1
   0 -22   1  484.05 148.901   1
   1 -22   1  132.60 58.4446   1
   2 -22   1  483.25 138.309   1
   3 -22   1  -28.65  107.50   1
   4 -22   1  127.90 54.7319   1
   5 -22   1   84.20 123.185   1
   6 -22   1  277.15 239.679   1
   7 -22   1  -58.80 104.229   1
   8 -22   1  273.10 109.678   1
   0 -23   1  998.40 64.3117   1
   1 -23   1 1269.00 180.301   1
   2 -23   1  496.00 88.0531   1
   3 -23   1   16.35 48.9521   1
   4 -23   1  570.05 164.508   1
   5 -23   1  273.95 65.5012   1
   6 -23   1  -28.15 93.8314   1
   7 -23   1  236.90  114.33   1
   0 -24   1    7.20 39.5482   1
   1 -24   1   60.20 41.5672   1
   2 -24   1   91.15 50.6872   1
   3 -24   1  192.05 143.363   1
   4 -24   1   68.15 65.9819   1
   5 -24   1   14.10 62.9329   1
   6 -24   1   11.45 114.622   1
   7 -24   1  -58.85  135.70   1
   0 -25   1  -33.65  168.50   1
   1 -25   1  178.30 98.4696   1
   2 -25   1  852.25 105.446   1
   3 -25   1   93.80 55.8081   1
   4 -25   1  211.45 172.496   1
   5 -25   1   27.10 136.331   1
   6 -25   1  101.05 81.6865   1
   0 -26   1  291.30 140.931   1
   1 -26   1  656.45  127.49   1
   2 -26   1  386.40 67.5949   1
   3 -26   1  156.95 68.9806   1
   4 -26   1  133.75 73.7815   1
   5 -26   1   59.30 76.5147   1
   6 -26   1 -108.15  232.70   1
   0 -27   1  131.00 56.8741   1
   1 -27   1  109.35  76.175   1
   2 -27   1 1022.10 146.979   1
   3 -27   1  370.45 211.011   1
   4 -27   1   61.30 92.7775   1
   5 -27   1  -32.20 113.501   1
   0 -28   1  -67.90 74.3891   1
   1 -28   1  218.25 56.8259   1
   2 -28   1  195.10 63.7143   1
   3 -28   1  114.55 122.131   1
   4 -28   1   -6.45  203.90   1
   5 -28   1   84.75 93.5854   1
   0 -29   1   46.90 54.4632   1
   1 -29   1  -14.50 71.2558   1
   2 -29   1  101.50 55.3093   1
   3 -29   1   46.10 67.0376   1
   4 -29   1   94.95 72.8646   1
   0 -30   1  163.85 69.4383   1
   1 -30   1  -24.55  154.30   1
   2 -30   1  234.45 91.3627   1
   3 -30   1   95.00 155.571   1
   0 -31   1   27.60 89.2143   1
   1 -31   1   -5.80 179.021   1
   0   0   248144.80 1169.22   1
   1   0   226064.90 591.745   1
   2   0   219903.50 640.844   1
   3   0   2  395.30 21.9677   1
   4   0   2 7761.30 324.185   1
   5   0   2  393.60 22.5399   1
   6   0   2 2944.20  155.52   1
   7   0   2  599.90 61.5022   1
   8   0   2 4252.00 344.025   1
   9   0   2   11.70 63.4509   1
  10   0   2  156.90 126.125   1
  11   0   2   37.90 117.466   1
   0  -1   2 5184.35 146.201   1
   1  -1   2   68.70  8.1927   1
   2  -1   2 1365.50 42.6951   1
   3  -1   2  157.80  10.466   1
   4  -1   2  746.95 31.3998   1
   5  -1   2  100.60 19.4399   1
   6  -1   2  556.40  29.447   1
   7  -1   2  339.30 28.1197   1
   8  -1   2  -21.85  118.90   1
   9  -1   2   57.80 80.8982   1
  10  -1   2   23.60 112.996   1
  11  -1   2   72.85 80.3717   1
   0  -2   2 4958.65 145.726   1
   1  -2   228593.10 653.544   1
   2  -2   2  865.35 29.1958   1
   3  -2   213309.30 438.329   1
   4  -2   2   77.20 16.0272   1
   5  -2   2 4450.55 148.257   1
   6  -2   2  295.55 27.1672   1
   7  -2   2 2820.60 113.818   1
   8  -2   2  221.95  56.889   1
   9  -2   2  154.95 41.3106   1
  10  -2   2  -12.10  146.00   1
  11  -2   2  164.95 105.603   1
   0  -3   230333.30 776.764   1
   1  -3   2 6569.05 187.233   1
   2  -3   210711.10 304.183   1
   3  -3   221264.40 786.303   1
   4  -3   2   59.35 24.9785   1
   5  -3   2    9.85 15.0833   1
   6  -3   2  295.90 36.2244   1
   7  -3   2 1918.25 84.5762   1
   8  -3   2  -10.70  38.501   1
   9  -3   2  -29.00   76.40   1
  10  -3   2  -35.25  263.30   1
  11  -3   2   56.90 89.0316   1
   0  -4   2 4446.85 138.494   1
   1  -4   2   10.70 9.33534   1
   2  -4   2 9543.90 284.786   1
   3  -4   2 4274.75 127.759   1
   4  -4   2 3097.85 97.0582   1
   5  -4   2  936.60 35.9755   1
   6  -4   2   69.65 20.5759   1
   7  -4   2 1566.60 116.922   1
   8  -4   2   35.10 31.1771   1
   9  -4   2  688.25 106.552   1
  10  -4   2  117.65 56.6121   1
  11  -4   2  -17.30 126.839   1
   0  -5   2 1151.95 51.7482   1
   1  -5   2    4.90 8.40298   1
   2  -5   2 1145.60 36.6793   1
   3  -5   2 6723.20 208.209   1
   4  -5   2 5702.85 197.399   1
   5  -5   2  858.70 33.0022   1
   6  -5   2  473.35 45.1023   1
   7  -5   2    2.30 25.3512   1
   8  -5   2  749.70 47.8581   1
   9  -5   2   88.45 64.9982   1
  10  -5   2  197.90 108.798   1
  11  -5   2  384.05 109.417   1
   0  -6   2 2547.25  128.99   1
   1  -6   2 3867.00 117.509   1
   2  -6   2 1693.20   63.48   1
   3  -6   2  649.10 24.0473   1
   4  -6   2 3245.05 112.746   1
   5  -6   2   40.60 38.1892   1
   6  -6   2  153.00 21.0956   1
   7  -6   2 1807.75 100.528   1
   8  -6   2 1117.35  66.168   1
   9  -6   2   -1.55  116.10   1
  10  -6   2   91.80 83.2778   1
  11  -6   2   24.75 107.243   1
   0  -7   2   94.10 19.1498   1
   1  -7   2 1132.45 39.6064   1
   2  -7   2 3474.10 138.886   1
   3  -7   2  979.20 33.5184   1
   4  -7   2 2496.90 80.1239   1
   5  -7   2  870.65 37.6774   1
   6  -7   2  610.25 58.4314   1
   7  -7   2  128.60 30.6151   1
   8  -7   2  107.80 42.1317   1
   9  -7   2   -3.65  123.90   1
  10  -7   2  -41.00 82.6476   1
   0  -8   2  890.30 40.5633   1
   1  -8   2 3541.30 148.821   1
   2  -8   2  878.85 31.1775   1
   3  -8   2   16.55 13.2401   1
   4  -8   2 3133.80 105.606   1
   5  -8   2 5884.10  229.07   1
   6  -8   2  637.35 45.0529   1
   7  -8   2   11.75 27.5071   1
   8  -8   2  119.05 38.1979   1
   9  -8   2   18.25 37.5662   1
  10  -8   2  -25.70 75.5014   1
   0  -9   2 5088.75 242.354   1
   1  -9   2  823.95 36.4215   1
   2  -9   2 2963.65 131.195   1
   3  -9   2 2507.50 87.3034   1
   4  -9   2 1409.05 88.3446   1
   5  -9   2  204.55 19.4373   1
   6  -9   2   -1.95 38.6598   1
   7  -9   2  183.85 31.1472   1
   8  -9   2   61.15 44.2048   1
   9  -9   2   93.20  56.305   1
  10  -9   2  323.30 103.223   1
   0 -10   2 1426.25 53.1691   1
   1 -10   2   27.10 15.9179   1
   2 -10   2 1813.50 118.772   1
   3 -10   2 5140.70  214.81   1
   4 -10   2  327.55 21.6927   1
   5 -10   2  244.40 24.0769   1
   6 -10   2 5545.25 253.454   1
   7 -10   2  331.80 33.4783   1
   8 -10   2  184.90 64.5544   1
   9 -10   2  137.05 50.1808   1
  10 -10   2   15.20  81.857   1
   0 -11   2  267.80 21.0575   1
   1 -11   2 5010.45 408.335   1
   2 -11   2  718.85 35.1066   1
   3 -11   2   51.20 15.0907   1
   4 -11   2   92.10 24.0857   1
   5 -11   2  524.40 32.1418   1
   6 -11   2  166.90 25.7204   1
   7 -11   2    3.40 48.0833   1
   8 -11   2  411.90 68.1939   1
   9 -11   2   -2.30  69.258   1
  10 -11   2  273.60 102.029   1
   0 -12   2  361.10 24.2977   1
   1 -12   2  414.20 24.5743   1
   2 -12   2   50.70 23.8298   1
   3 -12   2   17.95 21.0311   1
   4 -12   2  883.05  65.775   1
   5 -12   2   44.55 20.3213   1
   6 -12   2 7525.75 376.035   1
   7 -12   2  160.30 97.6136   1
   8 -12   2  134.05 42.9797   1
   9 -12   2  161.95 57.6861   1
  10 -12   2  247.30 92.2039   1
   0 -13   2 1145.75 48.4181   1
   1 -13   2 1381.35 115.434   1
   2 -13   2 2228.65 207.161   1
   3 -13   2 2069.30 104.933   1
   4 -13   2    1.50 32.2441   1
   5 -13   2   47.60 46.2509   1
   6 -13   2  918.25 121.854   1
   7 -13   2   52.00 27.0871   1
   8 -13   2  100.45 63.0232   1
   9 -13   2   35.45 65.1601   1
  10 -13   2   -8.70 92.9531   1
   0 -14   2 3621.35 245.697   1
   1 -14   2 2898.30 293.932   1
   2 -14   2  -11.05 29.7059   1
   3 -14   2  897.75 52.4869   1
   4 -14   2   12.45 19.7813   1
   5 -14   2   66.30 22.6917   1
   6 -14   2 1289.55 99.7574   1
   7 -14   2 1208.90 152.243   1
   8 -14   2  -16.60  124.00   1
   9 -14   2  366.90 80.3955   1
  10 -14   2  214.10 158.849   1
   0 -15   2  125.05 24.3932   1
   1 -15   2   77.20 23.6663   1
   2 -15   2  891.90 52.6924   1
   3 -15   2  437.65 40.0635   1
   4 -15   2 6412.95  334.57   1
   5 -15   2   27.25 33.7687   1
   6 -15   2  307.55 34.6898   1
   7 -15   2   -5.60 49.5087   1
   8 -15   2  -96.60   69.40   1
   9 -15   2  -41.05  103.25   1
   0 -16   2 1416.40 127.146   1
   1 -16   2 2346.95 199.422   1
   2 -16   2   64.45 41.2369   1
   3 -16   2 1128.85 214.361   1
   4 -16   2  237.50  61.774   1
   5 -16   2  158.85  52.033   1
   6 -16   2  129.15 103.187   1
   7 -16   2  245.00 46.2224   1
   8 -16   2   92.45 56.9705   1
   9 -16   2  636.25 175.298   1
   0 -17   2    1.20  24.926   1
   1 -17   2 1389.60 201.736   1
   2 -17   2  308.05  34.023   1
   3 -17   2  487.95 45.7702   1
   4 -17   2  137.00 63.5351   1
   5 -17   2  197.75  48.961   1
   6 -17   2  437.00 48.8481   1
   7 -17   2  171.45 63.4012   1
   8 -17   2   11.15 72.7615   1
   9 -17   2    7.65 68.2092   1
   0 -18   2  797.25 196.486   1
   1 -18   2  167.70  35.488   1
   2 -18   2  792.75 68.6822   1
   3 -18   2   89.20 43.3634   1
   4 -18   2   -2.75  44.133   1
   5 -18   2  109.60  100.99   1
   6 -18   2  196.95 56.0188   1
   7 -18   2   56.45 144.182   1
   8 -18   2  -84.30 84.0866   1
   9 -18   2   -6.20  197.40   1
   0 -19   2 1022.95 109.739   1
   1 -19   2 2013.45 172.179   1
   2 -19   2  973.55  187.38   1
   3 -19   2 6173.70 824.206   1
   4 -19   2  443.15 83.2391   1
   5 -19   2   -9.90  68.685   1
   6 -19   2  182.20 52.5463   1
   7 -19   2  386.15 74.3463   1
   8 -19   2   23.45 114.764   1
   0 -20   2 2308.45 227.454   1
   1 -20   2  216.90 62.7435   1
   2 -20   2 1467.05 213.467   1
   3 -20   2 1513.25 345.967   1
   4 -20   2  128.55  49.423   1
   5 -20   2  133.30 46.8789   1
   6 -20   2  -77.85  132.90   1
   7 -20   2  421.05 78.4958   1
   8 -20   2  166.15  81.289   1
   0 -21   2  779.05 110.221   1
   1 -21   2  300.05 39.3898   1
   2 -21   2  105.30  34.603   1
   3 -21   2   83.20 79.7725   1
   4 -21   2  479.40  65.494   1
   5 -21   2   -6.30   91.00   1
   6 -21   2   17.25 53.5136   1
   7 -21   2   66.25 71.0997   1
   8 -21   2   23.30 77.9362   1
   0 -22   2  276.50 86.9427   1
   1 -22   2 1456.10 200.026   1
   2 -22   2 1392.75 172.741   1
   3 -22   2  185.15 50.9302   1
   4 -22   2   93.55 52.1442   1
   5 -22   2   41.10 50.6578   1
   6 -22   2  224.40 139.911   1
   7 -22   2  143.05 115.351   1
   0 -23   2   10.80 56.8516   1
   1 -23   2  -47.55 52.5625   1
   2 -23   2  115.50 55.6086   1
   3 -23   2   23.35 114.198   1
   4 -23   2   -5.40 76.3574   1
   5 -23   2  166.50  58.513   1
   6 -23   2  139.00 73.0978   1
   7 -23   2   -6.60 121.497   1
   0 -24   2  513.75 140.454   1
   1 -24   2 1197.55 288.485   1
   2 -24   2 1300.45 109.777   1
   3 -24   2  137.90 47.0246   1
   4 -24   2  354.55 269.819   1
   5 -24   2  160.90 66.0928   1
   6 -24   2  314.85 94.0946   1
   0 -25   2   55.35  47.323   1
   1 -25   2  125.40 169.859   1
   2 -25   2  263.25 108.338   1
   3 -25   2  -10.40   94.20   1
   4 -25   2   -8.60 93.0899   1
   5 -25   2   14.70 79.9263   1
   6 -25   2  -39.00 119.673   1
   0 -26   2   34.75 58.9046   1
   1 -26   2  -28.95  123.10   1
   2 -26   2  453.75 67.6275   1
   3 -26   2 1277.70 110.556   1
   4 -26   2   40.55 83.5166   1
   5 -26   2  130.35 82.8795   1
   0 -27   2   -3.20 69.4161   1
   1 -27   2  -46.50 73.1665   1
   2 -27   2   85.55 77.1572   1
   3 -27   2  235.60 107.121   1
   4 -27   2   83.35 117.175   1
   5 -27   2  110.85 127.503   1
   0 -28   2  -51.75 96.3155   1
   1 -28   2  138.90 69.6975   1
   2 -28   2   43.85 75.5534   1
   3 -28   2  114.55 72.6428   1
   4 -28   2   10.15 71.3341   1
   0 -29   2  118.15 194.817   1
   1 -29   2   76.10 357.374   1
   2 -29   2  -65.30 105.449   1
   3 -29   2  930.65 344.463   1
   0 -30   2  788.55  450.67   1
   1 -30   2 -127.35  324.70   1
   2 -30   2  -14.65 106.896   1
   0   0   3   -4.90 9.91337   1
   1   0   3  -10.10 14.9909   1
   2   0   3   14.40 15.0181   1
   3   0   3   -9.50 14.3522   1
   4   0   3  -16.80 20.1346   1
   5   0   3  -11.30  10.419   1
   6   0   3    7.00 59.8351   1
   7   0   3   32.20 38.2349   1
   8   0   3 -111.00 39.0404   1
   9   0   3   16.70 62.3312   1
  10   0   3   93.50 86.5966   1
   0  -1   3 1672.05 49.6174   1
   1  -1   3 1881.75 55.4068   1
   2  -1   3 9224.10 296.652   1
   3  -1   3 3083.65 90.2963   1
   4  -1   3  779.95 26.2717   1
   5  -1   3 1664.40 63.8797   1
   6  -1   3  117.50 38.1888   1
   7  -1   3   -1.45  84.437   1
   8  -1   3  169.80 38.4022   1
   9  -1   3  582.00 71.2661   1
  10  -1   3  434.10 90.2169   1
   0  -2   3   30.85 11.3982   1
   1  -2   3   24.50 12.0271   1
   2  -2   3  347.85 17.5209   1
   3  -2   3 4044.00 123.534   1
   4  -2   3  631.15 24.2836   1
   5  -2   3 1195.35  43.955   1
   6  -2   3   37.70 18.8835   1
   7  -2   3   27.10 55.0328   1
   8  -2   3   70.10  54.166   1
   9  -2   3  -32.95 75.2825   1
  10  -2   3  138.70 86.9171   1
   0  -3   3  426.05 20.7964   1
   1  -3   3 2973.15 84.0788   1
   2  -3   3 2018.30  61.652   1
   3  -3   3  105.20 10.7841   1
   4  -3   3  449.10 20.0655   1
   5  -3   3  165.20 18.8495   1
   6  -3   3   29.80  55.722   1
   7  -3   3  447.85 31.1205   1
   8  -3   3  663.45 90.6527   1
   9  -3   3   27.25 88.6015   1
  10  -3   3  115.85 66.9873   1
   0  -4   3 1188.60 41.0423   1
   1  -4   3 2804.65 84.8685   1
   2  -4   3 1234.75 38.3807   1
   3  -4   3 1078.35 33.7878   1
   4  -4   3 3822.35 116.958   1
   5  -4   3 1123.85 40.7952   1
   6  -4   3   46.05  34.868   1
   7  -4   3 1999.00 87.3249   1
   8  -4   3  237.40 30.1048   1
   9  -4   3  166.50 71.1836   1
  10  -4   3  123.55 64.1437   1
   0  -5   3  141.85 19.0125   1
   1  -5   3 5424.35 160.209   1
   2  -5   3 3067.30 90.2862   1
   3  -5   3 3800.25 112.932   1
   4  -5   3  511.05 23.0545   1
   5  -5   3   66.20 17.1915   1
   6  -5   3 1457.30 85.3356   1
   7  -5   3   47.95 24.2656   1
   8  -5   3   70.05 27.4751   1
   9  -5   3 -102.10 64.3673   1
  10  -5   3  297.95 235.302   1
   0  -6   3 2493.05 132.771   1
   1  -6   3 2164.35 62.9122   1
   2  -6   321968.50 905.368   1
   3  -6   3   88.00 11.2132   1
   4  -6   3 2213.95 70.3567   1
   5  -6   3 5363.40 201.602   1
   6  -6   3  180.55 26.3683   1
   7  -6   3  114.95 30.2304   1
   8  -6   3   11.10 29.8423   1
   9  -6   3  -51.20 70.7645   1
  10  -6   3   14.70  83.343   1
   0  -7   3 7947.65 327.237   1
   1  -7   3 5266.70  162.85   1
   2  -7   3 1474.30 46.4059   1
   3  -7   3 3530.10 113.523   1
   4  -7   3  274.65 18.5468   1
   5  -7   3  972.00 42.0672   1
   6  -7   3 2330.55 122.286   1
   7  -7   3   54.40 23.9655   1
   8  -7   3  154.80 37.8793   1
   9  -7   3  105.40 61.6564   1
  10  -7   3  -75.10 64.4338   1
   0  -8   314087.50  550.38   1
   1  -8   3  142.30  13.238   1
   2  -8   3  577.60 24.1711   1
   3  -8   3  315.40 37.9472   1
   4  -8   3  112.30 15.8988   1
   5  -8   3 6761.00 290.822   1
   6  -8   3 1534.35 67.2035   1
   7  -8   3 2400.10 111.439   1
   8  -8   3 1258.30 79.1641   1
   9  -8   3   53.10 63.6803   1
  10  -8   3  128.10 102.586   1
   0  -9   3  476.90  24.414   1
   1  -9   3 3404.05 116.112   1
   2  -9   3 6224.75 227.904   1
   3  -9   3  846.80 30.5109   1
   4  -9   3  492.85 34.6175   1
   5  -9   3 1328.95 70.5873   1
   6  -9   3 1180.70 103.938   1
   7  -9   3   15.95 28.2773   1
   8  -9   3  659.50 60.4142   1
   9  -9   3   63.50 81.6191   1
  10  -9   3   70.20 88.0329   1
   0 -10   3 3159.85 210.304   1
   1 -10   3 1207.35 86.3529   1
   2 -10   3  716.90 29.9107   1
   3 -10   3 1765.35 80.3134   1
   4 -10   3  364.95 22.1492   1
   5 -10   3 1150.50 48.9962   1
   6 -10   3    5.40 30.8625   1
   7 -10   3  627.20 46.4342   1
   8 -10   3  168.85 91.3265   1
   9 -10   3  -23.70 73.4663   1
  10 -10   3   84.80  99.651   1
   0 -11   3 2540.35 149.261   1
   1 -11   3  201.15 17.3837   1
   2 -11   3 3531.65 259.989   1
   3 -11   3  -23.15   39.50   1
   4 -11   3  322.45   23.63   1
   5 -11   3  123.25 37.7391   1
   6 -11   3  -13.50 42.8272   1
   7 -11   3 1528.40 82.0984   1
   8 -11   3  -45.35 55.7289   1
   9 -11   3  256.70 75.8499   1
   0 -12   3   86.15  34.463   1
   1 -12   3  295.35 64.7275   1
   2 -12   3 2303.85 102.504   1
   3 -12   3  104.75 17.8411   1
   4 -12   3   26.45 21.3885   1
   5 -12   3  455.00 36.1057   1
   6 -12   3  149.75 65.5916   1
   7 -12   3  219.85 45.3331   1
   8 -12   3  114.90 139.312   1
   9 -12   3  -44.80 74.7375   1
   0 -13   3  785.40 37.6919   1
   1 -13   3 1992.10 131.393   1
   2 -13   3   43.30 15.9843   1
   3 -13   3  819.95 34.0135   1
   4 -13   3  476.70 30.0295   1
   5 -13   3  231.80 29.4565   1
   6 -13   3   32.40 32.7692   1
   7 -13   3 1080.75 79.1533   1
   8 -13   3  457.45 54.9091   1
   9 -13   3   67.20  87.871   1
   0 -14   3  112.65  19.105   1
   1 -14   3 1040.90 38.9381   1
   2 -14   3  127.60  19.276   1
   3 -14   3  333.95 30.0946   1
   4 -14   3 1318.55 103.174   1
   5 -14   3 2889.90  166.21   1
   6 -14   3   38.30  30.881   1
   7 -14   3  438.70 114.902   1
   8 -14   3  413.60 62.0055   1
   9 -14   3  -45.60 76.6982   1
   0 -15   3  832.80 102.391   1
   1 -15   3 8338.45 492.378   1
   2 -15   3  667.95 77.0243   1
   3 -15   3   53.40 52.8983   1
   4 -15   3 2397.70 209.231   1
   5 -15   3  953.15 53.6839   1
   6 -15   3  143.60 36.7427   1
   7 -15   3  136.20 102.129   1
   8 -15   3  390.60 88.1806   1
   9 -15   3  -21.80 101.248   1
   0 -16   3  968.40  81.218   1
   1 -16   3   14.40 55.5791   1
   2 -16   3 5507.80 457.935   1
   3 -16   3   23.75 23.1542   1
   4 -16   3 1539.70 185.172   1
   5 -16   3  875.00 100.657   1
   6 -16   3   16.70 42.5791   1
   7 -16   3   49.85 50.9922   1
   8 -16   3  -16.00  158.60   1
   9 -16   3   52.90 255.126   1
   0 -17   3   10.00 22.5778   1
   1 -17   3  -25.25 35.3189   1
   2 -17   3  269.75 49.8922   1
   3 -17   3  446.50 42.9616   1
   4 -17   3  114.85 29.0869   1
   5 -17   3  145.45   31.51   1
   6 -17   3   16.50 42.8559   1
   7 -17   3   21.55 61.6906   1
   8 -17   3   35.90 59.9394   1
   0 -18   3  815.65 58.5027   1
   1 -18   3   -1.50 50.8007   1
   2 -18   3   -7.10   45.80   1
   3 -18   3  600.35 121.076   1
   4 -18   3  458.55 97.7792   1
   5 -18   3   75.50 32.7876   1
   6 -18   3  897.85 206.046   1
   7 -18   3  166.05 55.2349   1
   8 -18   3   90.20 73.6986   1
   0 -19   3  202.70 44.0987   1
   1 -19   3   95.85 31.0524   1
   2 -19   3  412.75 106.478   1
   3 -19   3 4506.85  349.51   1
   4 -19   3  376.80 40.5283   1
   5 -19   3   99.65 51.5671   1
   6 -19   3   67.85 56.3158   1
   7 -19   3   66.80  74.817   1
   8 -19   3  259.35 125.861   1
   0 -20   3  471.70 60.2844   1
   1 -20   3  325.35 63.3538   1
   2 -20   3   -2.70 33.7579   1
   3 -20   3  310.55 35.5591   1
   4 -20   3  108.55 53.1157   1
   5 -20   3  200.85 60.2067   1
   6 -20   3  324.10 97.0091   1
   7 -20   3    2.05  87.731   1
   0 -21   3   57.15 35.6954   1
   1 -21   3   64.65 58.6281   1
   2 -21   3  -34.15 51.9891   1
   3 -21   3  230.20 63.0377   1
   4 -21   3   14.65 100.427   1
   5 -21   3   66.65 63.4321   1
   6 -21   3  284.65 97.7551   1
   7 -21   3  165.35 71.6279   1
   0 -22   3    5.30 42.6342   1
   1 -22   3  438.85 124.574   1
   2 -22   3 1565.20 134.247   1
   3 -22   3   72.10 44.5171   1
   4 -22   3  -21.25 69.9137   1
   5 -22   3  134.70 93.0796   1
   6 -22   3   -5.95  186.30   1
   7 -22   3  -57.85 106.915   1
   0 -23   3  439.80 59.8026   1
   1 -23   3  771.75 140.045   1
   2 -23   3  120.50 57.9787   1
   3 -23   3   54.50 67.1807   1
   4 -23   3  243.50 57.9004   1
   5 -23   3   36.40 87.5417   1
   6 -23   3  -26.55 99.0821   1
   0 -24   3   82.05 89.0342   1
   1 -24   3   10.05 61.0235   1
   2 -24   3   31.85  65.975   1
   3 -24   3  101.65 72.3549   1
   4 -24   3   46.55 54.4438   1
   5 -24   3   -2.65 109.904   1
   6 -24   3   35.65 113.209   1
   0 -25   3  435.05 61.2187   1
   1 -25   3  201.85 79.0483   1
   2 -25   3   62.35 55.4898   1
   3 -25   3   66.15 73.6768   1
   4 -25   3   46.40 61.3542   1
   5 -25   3  -33.85  240.50   1
   0 -26   3   85.00 59.9777   1
   1 -26   3  410.50 76.2201   1
   2 -26   3   65.10 60.2123   1
   3 -26   3  -18.20 92.6468   1
   4 -26   3  169.75 82.0474   1
   5 -26   3  -58.70 109.916   1
   0 -27   3   50.45 58.3392   1
   1 -27   3  169.65 59.6496   1
   2 -27   3  236.00 84.3821   1
   3 -27   3  419.25 91.7543   1
   4 -27   3   16.15 77.9793   1
   0 -28   3  130.15 204.011   1
   1 -28   3  175.50  72.532   1
   2 -28   3   94.60 100.562   1
   3 -28   3  -44.45 125.569   1
   0 -29   3  196.90 88.3976   1
   1 -29   3  -90.55 101.463   1
   2 -29   3 -135.90  159.80   1
   0 -30   3  -30.75 152.163   1
   0   0   4   69.90 14.2714   1
   1   0   4  259.90 21.6161   1
   2   0   4  646.30 30.7843   1
   3   0   410613.80 495.921   1
   4   0   4  257.10 22.8887   1
   5   0   4 2821.60 116.193   1
   6   0   4   85.80 50.8902   1
   7   0   4  107.00 54.9003   1
   8   0   4   10.60  54.424   1
   9   0   4  -53.10 60.4048   1
  10   0   4  944.60 131.744   1
   0  -1   4  410.45 19.2967   1
   1  -1   4 2821.70 81.3821   1
   2  -1   4  538.50 21.3514   1
   3  -1   4 4337.80 131.468   1
   4  -1   4  136.30  21.041   1
   5  -1   4   59.80 9.10022   1
   6  -1   4  852.05 73.4418   1
   7  -1   4  151.45 111.536   1
   8  -1   4  183.40 45.3912   1
   9  -1   4    9.85 66.3975   1
  10  -1   4  197.45 80.1116   1
   0  -2   4 1446.70 46.1407   1
   1  -2   4 3834.25 110.903   1
   2  -2   4 4109.85 122.785   1
   3  -2   4    6.75 14.7789   1
   4  -2   4 1503.35 47.3651   1
   5  -2   4   35.25 18.3846   1
   6  -2   4  137.85 28.2976   1
   7  -2   4  173.30 78.3953   1
   8  -2   4   44.90 38.2278   1
   9  -2   4   60.45  85.636   1
  10  -2   4    6.30 77.0536   1
   0  -3   4  288.50 16.8099   1
   1  -3   4  407.25 18.4821   1
   2  -3   4  648.60 24.0133   1
   3  -3   4  522.20 20.8352   1
   4  -3   4 1480.20 47.2117   1
   5  -3   4 1212.40 94.1783   1
   6  -3   4    2.90 23.7429   1
   7  -3   4   64.85 20.9664   1
   8  -3   4  584.80 95.3694   1
   9  -3   4  143.05 97.6776   1
  10  -3   4  311.70 78.9718   1
   0  -4   4  297.05 27.9046   1
   1  -4   4  673.55 29.1661   1
   2  -4   4 2214.65 65.7038   1
   3  -4   4  390.80  18.091   1
   4  -4   4 1328.05 42.8845   1
   5  -4   4 1317.40 50.1446   1
   6  -4   4   65.90 34.0985   1
   7  -4   4   35.20 60.5309   1
   8  -4   4  146.60  79.865   1
   9  -4   4  241.85 81.8843   1
  10  -4   4   -8.95 101.266   1
   0  -5   4 1353.55 51.6638   1
   1  -5   4  322.55 25.6151   1
   2  -5   4   88.80 12.4491   1
   3  -5   4  969.15  33.348   1
   4  -5   4  456.70 19.3501   1
   5  -5   4 2752.50 97.7167   1
   6  -5   4  723.95 43.0049   1
   7  -5   4 1254.85 63.0065   1
   8  -5   4  587.05  74.814   1
   9  -5   4  107.25 103.181   1
  10  -5   4  140.70 129.137   1
   0  -6   4 1815.00 59.6182   1
   1  -6   4  169.65 16.9353   1
   2  -6   4  820.80 35.5464   1
   3  -6   4    9.95 18.4562   1
   4  -6   4  525.90 28.1273   1
   5  -6   4  413.60 26.9128   1
   6  -6   4  145.85 25.7695   1
   7  -6   4 1013.15  57.411   1
   8  -6   4   68.80 57.6493   1
   9  -6   4  138.20 75.6086   1
   0  -7   4  240.40 27.5577   1
   1  -7   4   53.70 12.2225   1
   2  -7   4  314.05 17.7575   1
   3  -7   4  172.60 14.9316   1
   4  -7   4 1359.00 47.1547   1
   5  -7   4   29.60 27.5811   1
   6  -7   4 3025.70 145.281   1
   7  -7   4  142.70 37.4034   1
   8  -7   4  211.40  61.032   1
   9  -7   4  691.10 106.784   1
   0  -8   4 1242.75 46.6691   1
   1  -8   4 1842.10 79.6232   1
   2  -8   4 9016.45 338.362   1
   3  -8   4  826.85 33.7508   1
   4  -8   4  457.50 20.4428   1
   5  -8   4  -20.00 31.0166   1
   6  -8   4   54.00 30.1348   1
   7  -8   4  968.90 56.7017   1
   8  -8   4   -2.70  50.152   1
   9  -8   4   85.10 78.9041   1
   0  -9   4  186.85 21.4327   1
   1  -9   4  129.10 15.4195   1
   2  -9   4 1441.00 51.6799   1
   3  -9   4 1126.30 41.5676   1
   4  -9   4  571.40 28.7751   1
   5  -9   4  108.85 39.8473   1
   6  -9   4 2220.25 100.261   1
   7  -9   4   11.85 35.6143   1
   8  -9   4   36.80  63.087   1
   9  -9   4   32.00 83.2208   1
   0 -10   4  335.50 24.8536   1
   1 -10   4 1966.30 68.3835   1
   2 -10   4 2545.05 100.281   1
   3 -10   4   73.80 15.8976   1
   4 -10   4   60.50 20.1032   1
   5 -10   4  601.00 57.0822   1
   6 -10   4  158.45 33.1384   1
   7 -10   4  192.90 34.2895   1
   8 -10   4  119.85  88.338   1
   9 -10   4  368.10 99.7401   1
   0 -11   4  288.00  25.028   1
   1 -11   4  107.40 18.2301   1
   2 -11   4  377.95 20.4566   1
   3 -11   4  514.05 31.9516   1
   4 -11   4  140.45 30.9803   1
   5 -11   4   64.05 25.3437   1
   6 -11   4   30.35 35.8062   1
   7 -11   4  237.95 48.7237   1
   8 -11   4  -11.55 60.9163   1
   9 -11   4  135.10 96.8561   1
   0 -12   4  162.85 20.7512   1
   1 -12   4 5809.15 340.644   1
   2 -12   4  333.00  21.086   1
   3 -12   4  685.40 29.6301   1
   4 -12   4  877.25 39.1397   1
   5 -12   4  363.10 31.4184   1
   6 -12   4  249.10 42.4532   1
   7 -12   4 1295.05 86.6783   1
   8 -12   4   -9.50  61.817   1
   9 -12   4  203.10 71.2372   1
   0 -13   4  368.30 30.6005   1
   1 -13   4  162.40  20.489   1
   2 -13   4 1979.85 95.8371   1
   3 -13   4  256.55 20.5567   1
   4 -13   4  205.75 27.5577   1
   5 -13   4   51.55 40.9496   1
   6 -13   4   -7.80 53.6457   1
   7 -13   4   22.20 41.5441   1
   8 -13   4   21.40 57.7009   1
   9 -13   4  474.10 250.803   1
   0 -14   4  429.20 34.4502   1
   1 -14   4   -5.35 29.2445   1
   2 -14   4 6168.65 274.784   1
   3 -14   4  388.20 29.5704   1
   4 -14   4 1297.75 54.6908   1
   5 -14   4    1.55 45.0427   1
   6 -14   4  160.80 65.6687   1
   7 -14   4  637.60 125.422   1
   8 -14   4   63.80 88.1113   1
   0 -15   4  364.00 30.6006   1
   1 -15   4  415.05 29.3958   1
   2 -15   4   51.55 22.7128   1
   3 -15   4   61.35 43.6393   1
   4 -15   4   15.35  26.038   1
   5 -15   4   52.20 33.9197   1
   6 -15   4  223.90 56.1146   1
   7 -15   4   -6.10  71.945   1
   8 -15   4  197.35 55.9144   1
   0 -16   4   51.10 44.1309   1
   1 -16   4  261.00 24.4186   1
   2 -16   4   54.30 24.7636   1
   3 -16   4  192.20 29.0096   1
   4 -16   4  326.95 59.9737   1
   5 -16   4   45.60  44.693   1
   6 -16   4   93.85 56.0932   1
   7 -16   4   -9.90  216.60   1
   8 -16   4    5.20  61.172   1
   0 -17   4 1402.40 74.6458   1
   1 -17   4  957.85 139.769   1
   2 -17   4  574.95 38.9072   1
   3 -17   4 1086.50 51.9911   1
   4 -17   4   18.60 27.2699   1
   5 -17   4  204.95 44.4187   1
   6 -17   4   59.80 94.8984   1
   7 -17   4  344.75 71.7871   1
   8 -17   4  284.45 92.1045   1
   0 -18   4   33.30 31.6404   1
   1 -18   4 1447.50  79.317   1
   2 -18   4   47.25 36.2823   1
   3 -18   4  464.55 47.9026   1
   4 -18   4  -12.65 67.0758   1
   5 -18   4   71.60 93.7692   1
   6 -18   4  203.60 80.2505   1
   7 -18   4  157.85 70.4437   1
   0 -19   4 1369.65 145.517   1
   1 -19   4 1477.50 83.3839   1
   2 -19   4  217.95 30.3895   1
   3 -19   4  -20.95   79.70   1
   4 -19   4  350.65 57.4423   1
   5 -19   4  430.65  115.53   1
   6 -19   4   22.05 191.273   1
   7 -19   4   89.40 76.8048   1
   0 -20   4  853.25 86.4075   1
   1 -20   4  180.10 90.6958   1
   2 -20   4  281.45 27.3058   1
   3 -20   4  108.55 58.7856   1
   4 -20   4  306.70 59.2776   1
   5 -20   4  102.30 46.0679   1
   6 -20   4   34.00 71.1787   1
   7 -20   4  -73.10  138.60   1
   0 -21   4   40.15  46.857   1
   1 -21   4  574.60 57.0009   1
   2 -21   4  199.40 47.0378   1
   3 -21   4  237.65 51.5056   1
   4 -21   4  101.25 54.9655   1
   5 -21   4   -2.20 92.0902   1
   6 -21   4  264.35 81.8055   1
   0 -22   4   42.45 61.3098   1
   1 -22   4   38.50 46.5401   1
   2 -22   4    0.90 56.9928   1
   3 -22   4  511.45 71.5833   1
   4 -22   4  -56.20   88.00   1
   5 -22   4  694.70 188.128   1
   6 -22   4  249.50 73.2674   1
   0 -23   4  200.05 70.7107   1
   1 -23   4  -32.05 57.1039   1
   2 -23   4   43.35 69.2291   1
   3 -23   4   -9.35 79.0672   1
   4 -23   4  112.50 120.363   1
   5 -23   4   84.45 101.337   1
   0 -24   4   10.60 82.2414   1
   1 -24   4  349.70 73.9842   1
   2 -24   4  169.40  50.401   1
   3 -24   4  -18.05 100.404   1
   4 -24   4   49.40 64.1771   1
   5 -24   4  341.60 136.099   1
   0 -25   4  194.45 74.7229   1
   1 -25   4  310.45 60.7023   1
   2 -25   4   34.70  66.391   1
   3 -25   4  -38.90 86.3742   1
   4 -25   4   32.45 80.0959   1
   0 -26   4  242.55 147.057   1
   1 -26   4  183.50  60.212   1
   2 -26   4   66.80 68.5093   1
   3 -26   4  196.95 202.044   1
   4 -26   4   60.40 132.798   1
   0 -27   4   60.90   69.81   1
   1 -27   4  313.45 81.9622   1
   2 -27   4   24.95 76.6181   1
   3 -27   4  248.30  82.256   1
   0 -28   4    5.05  104.44   1
   1 -28   4  328.05 78.1051   1
   2 -28   4  150.50  77.592   1
   0 -29   4   46.45 84.4627   1
   0   0   5   21.60 16.0423   1
   1   0   5    2.90 17.8792   1
   2   0   5   -7.50  19.778   1
   3   0   5   11.20 19.9047   1
   4   0   5   -8.40  21.473   1
   5   0   5  -10.20 24.8205   1
   6   0   5    3.60 56.4745   1
   7   0   5  -82.50 50.8163   1
   8   0   5  -80.10 67.7646   1
   9   0   5   61.40 83.3734   1
   0  -1   5 4061.20 124.699   1
   1  -1   5   12.80 12.2219   1
   2  -1   5 1027.60 34.4932   1
   3  -1   5  202.80 18.6867   1
   4  -1   5  345.10 21.1495   1
   5  -1   5   37.90 27.3009   1
   6  -1   5  603.35 37.3835   1
   7  -1   5  773.25 53.1399   1
   8  -1   5  236.95 48.7145   1
   9  -1   5  194.60  64.844   1
   0  -2   5 5374.70  176.83   1
   1  -2   5  619.30  26.401   1
   2  -2   5  932.40 30.9704   1
   3  -2   5    9.60 15.1328   1
   4  -2   5  390.90 55.7806   1
   5  -2   5  223.45  17.491   1
   6  -2   5  878.70  47.537   1
   7  -2   5  -60.10  210.00   1
   8  -2   5 -111.25   90.50   1
   9  -2   5   29.20 65.0414   1
   0  -3   5  189.05 17.4404   1
   1  -3   5    1.45  36.416   1
   2  -3   5  216.20 14.9628   1
   3  -3   5  994.50 42.6058   1
   4  -3   5  175.50 16.5953   1
   5  -3   5 1529.15  53.506   1
   6  -3   5  215.55 57.3064   1
   7  -3   5  363.75  59.148   1
   8  -3   5   71.80 50.6485   1
   9  -3   5  189.55 82.7151   1
   0  -4   5 1983.20 63.7032   1
   1  -4   5 5420.55  176.81   1
   2  -4   5  362.85 18.6176   1
   3  -4   5   19.10 15.4579   1
   4  -4   5 2670.65 121.489   1
   5  -4   5  350.15 28.9567   1
   6  -4   5  103.20 29.2957   1
   7  -4   5  223.85 65.0794   1
   8  -4   5  360.70 79.8242   1
   9  -4   5  269.35 73.7329   1
   0  -5   5 2754.50 85.1423   1
   1  -5   5  128.45 20.0377   1
   2  -5   5   20.10 12.9168   1
   3  -5   5 2512.05 78.6063   1
   4  -5   5  800.65 29.7003   1
   5  -5   5   11.00 25.2843   1
   6  -5   5  216.90 57.3782   1
   7  -5   5  -36.20  97.507   1
   8  -5   5  -41.00 64.0045   1
   9  -5   5   76.90 70.6546   1
   0  -6   5  731.20 30.0881   1
   1  -6   5 7696.75 303.826   1
   2  -6   5   55.65 13.8626   1
   3  -6   5  168.25 16.9343   1
   4  -6   5   41.65 15.8297   1
   5  -6   5   40.30 40.5929   1
   6  -6   5    1.80 28.5831   1
   7  -6   5  138.80 59.3311   1
   8  -6   5  185.50 69.5279   1
   9  -6   5 -168.10 71.6327   1
   0  -7   5  193.90 24.0698   1
   1  -7   5   29.55 17.7232   1
   2  -7   5   22.35 20.5798   1
   3  -7   5  503.35 24.8632   1
   4  -7   5  335.75   20.73   1
   5  -7   5   63.70 21.6864   1
   6  -7   5 2363.25  116.89   1
   7  -7   5  221.65 82.0286   1
   8  -7   5  -38.80 61.1241   1
   9  -7   5  169.70 70.6941   1
   0  -8   5  578.75 32.3627   1
   1  -8   5  350.80 21.7633   1
   2  -8   5   -6.90   32.40   1
   3  -8   5  114.70 18.5998   1
   4  -8   5   11.50  16.624   1
   5  -8   5  239.60 26.2887   1
   6  -8   5   88.55 61.6049   1
   7  -8   5    0.40 35.5362   1
   8  -8   5   16.80 56.8063   1
   0  -9   5   18.70 19.8305   1
   1  -9   5   88.05 34.6055   1
   2  -9   5 2112.10  73.066   1
   3  -9   5   17.75 31.0433   1
   4  -9   5  317.35 31.0262   1
   5  -9   5  186.65 23.1295   1
   6  -9   5  521.95 44.2423   1
   7  -9   5  613.50 72.9144   1
   8  -9   5  -56.70 64.0992   1
   0 -10   5 3376.20  121.91   1
   1 -10   5  692.05 35.7268   1
   2 -10   5   49.15 19.0396   1
   3 -10   5   21.10 22.3696   1
   4 -10   5 1508.90 172.075   1
   5 -10   5  160.55  28.891   1
   6 -10   5  329.05 49.9811   1
   7 -10   5  379.70  45.585   1
   8 -10   5   -5.30 90.7147   1
   0 -11   5  411.10 27.7826   1
   1 -11   5  496.15 29.5565   1
   2 -11   5  932.15 44.0215   1
   3 -11   5   83.80 20.3941   1
   4 -11   5   -1.60  115.20   1
   5 -11   5  136.35 25.5568   1
   6 -11   5  101.45 57.8911   1
   7 -11   5   92.65 39.4277   1
   8 -11   5  914.20 130.296   1
   0 -12   5  419.95 29.8517   1
   1 -12   5  241.55 22.0167   1
   2 -12   5  304.85 25.7624   1
   3 -12   5  599.50 34.9173   1
   4 -12   5  -30.90 37.2896   1
   5 -12   5   12.05 26.3879   1
   6 -12   5  590.65 100.209   1
   7 -12   5    4.60 41.3558   1
   8 -12   5  -11.55 138.655   1
   0 -13   5   26.45 32.8831   1
   1 -13   5   64.35 28.2319   1
   2 -13   5  143.80 24.0174   1
   3 -13   5  239.60 77.7327   1
   4 -13   5 2140.90 224.178   1
   5 -13   5  332.25 39.4922   1
   6 -13   5  133.70 44.8997   1
   7 -13   5  238.45 101.116   1
   8 -13   5   23.50 109.149   1
   0 -14   5  896.25 76.2117   1
   1 -14   5   54.40 21.0538   1
   2 -14   5 1497.75 69.4296   1
   3 -14   5  638.95 64.0874   1
   4 -14   5  768.90 97.0723   1
   5 -14   5   83.70 31.7919   1
   6 -14   5  106.00 53.5756   1
   7 -14   5  197.25 61.9504   1
   8 -14   5   84.05  93.516   1
   0 -15   5   13.15 25.9743   1
   1 -15   5 1557.85  65.021   1
   2 -15   5   27.30 23.4085   1
   3 -15   5   73.00 26.9709   1
   4 -15   5  727.85 49.3494   1
   5 -15   5   44.00 68.3101   1
   6 -15   5   14.55 94.2576   1
   7 -15   5   43.75 94.8255   1
   0 -16   5  125.40 110.326   1
   1 -16   5   70.50   26.21   1
   2 -16   5  244.95 49.5783   1
   3 -16   5  182.35 70.2749   1
   4 -16   5   55.90 37.9909   1
   5 -16   5    5.20 55.7773   1
   6 -16   5   83.75 67.1175   1
   7 -16   5  305.85 93.5238   1
   0 -17   5 1644.15 88.4948   1
   1 -17   5  667.90 45.0946   1
   2 -17   5  625.00 51.8619   1
   3 -17   5    3.80 66.4681   1
   4 -17   5  686.95 80.3058   1
   5 -17   5  349.35 139.339   1
   6 -17   5  133.80 136.064   1
   7 -17   5   57.45 154.427   1
   0 -18   5  761.45 59.0835   1
   1 -18   5 1891.35 104.549   1
   2 -18   5  756.20  43.705   1
   3 -18   5  731.60 60.0276   1
   4 -18   5  379.25 52.8918   1
   5 -18   5  -70.65  115.10   1
   6 -18   5    1.25 91.4289   1
   0 -19   5   39.00 47.9419   1
   1 -19   5  495.25 57.2633   1
   2 -19   5  -23.50 53.4379   1
   3 -19   5   29.25 41.4564   1
   4 -19   5  -13.40 60.6423   1
   5 -19   5  153.70 100.197   1
   6 -19   5   30.30  137.83   1
   0 -20   5 1726.60 147.783   1
   1 -20   5   36.20 43.5391   1
   2 -20   5  -19.40 65.5659   1
   3 -20   5  395.15 53.6016   1
   4 -20   5  355.60 87.7202   1
   5 -20   5   67.25   94.01   1
   6 -20   5  -28.90 100.203   1
   0 -21   5  243.10 53.7363   1
   1 -21   5   10.65 61.5666   1
   2 -21   5   40.15 48.7356   1
   3 -21   5  -42.10  114.00   1
   4 -21   5   17.35 119.028   1
   5 -21   5   38.35 91.7755   1
   0 -22   5  172.50 95.9225   1
   1 -22   5  120.00 69.6052   1
   2 -22   5  354.20 89.5141   1
   3 -22   5   33.35 71.9112   1
   4 -22   5   17.70 134.418   1
   5 -22   5  -99.65  257.90   1
   0 -23   5  991.05 255.393   1
   1 -23   5   14.75 63.0103   1
   2 -23   5   38.80   47.77   1
   3 -23   5  345.40 192.269   1
   4 -23   5   -0.15  256.70   1
   0 -24   5  -62.30 101.199   1
   1 -24   5  386.20 121.211   1
   2 -24   5 -115.70  188.60   1
   3 -24   5   46.45 78.8269   1
   4 -24   5   35.70 108.566   1
   0 -25   5   12.45 78.8091   1
   1 -25   5  -20.95 96.3341   1
   2 -25   5  129.75 96.9295   1
   3 -25   5  152.20 104.384   1
   0 -26   5   -6.20  238.00   1
   1 -26   5  137.30 82.2649   1
   2 -26   5    2.00 72.9298   1
   0 -27   5   39.55 83.0874   1
   1 -27   5  407.30 203.607   1
   0   0   6 3450.50 130.268   1
   1   0   6 1175.70 49.8945   1
   2   0   6 1263.00 55.4498   1
   3   0   6  -11.80 26.9244   1
   4   0   6  765.00 44.2392   1
   5   0   6 1396.00 66.2411   1
   6   0   6  224.80 58.7355   1
   7   0   6  253.50 62.8848   1
   8   0   6  202.60 81.2187   1
   0  -1   6  -13.60   18.00   1
   1  -1   6 5130.05 177.048   1
   2  -1   6   -1.05   54.10   1
   3  -1   6 1721.85 56.4443   1
   4  -1   6  215.00 33.2667   1
   5  -1   6  177.55 29.1974   1
   6  -1   6  149.05 37.0337   1
   7  -1   6   90.25 92.8541   1
   8  -1   6  461.90 96.0204   1
   0  -2   6  551.20 27.4115   1
   1  -2   6  291.55  21.356   1
   2  -2   6 1200.80 38.8432   1
   3  -2   6   44.45 16.7752   1
   4  -2   6   34.80 19.5729   1
   5  -2   6  178.00 22.2975   1
   6  -2   6  290.40 78.1995   1
   7  -2   6  198.05 50.3934   1
   8  -2   6  365.45 100.222   1
   0  -3   6   17.20 20.2104   1
   1  -3   6 5588.10 202.989   1
   2  -3   6   85.85 13.7539   1
   3  -3   6   24.25 16.1741   1
   4  -3   6   26.20 19.1051   1
   5  -3   6   36.00 18.6255   1
   6  -3   6   22.30 45.8497   1
   7  -3   6  121.80 78.1849   1
   8  -3   6   68.00  172.82   1
   0  -4   6   17.95 19.1647   1
   1  -4   6  420.35 26.0607   1
   2  -4   6  451.45 27.6203   1
   3  -4   6  155.70 18.5131   1
   4  -4   6   83.80 17.3757   1
   5  -4   6  120.70 24.0464   1
   6  -4   6  -18.20 38.3526   1
   7  -4   6    3.50 100.126   1
   8  -4   6  250.60  95.259   1
   0  -5   6 1473.90 69.9014   1
   1  -5   6  161.40 23.7135   1
   2  -5   6 1071.45 55.7405   1
   3  -5   6  978.45 69.2781   1
   4  -5   6  938.50 85.0263   1
   5  -5   6  270.00  51.936   1
   6  -5   6  192.90 54.2502   1
   7  -5   6  -20.85 94.6694   1
   8  -5   6   92.20 94.4678   1
   0  -6   6  639.10 31.9745   1
   1  -6   6  416.40 27.7133   1
   2  -6   6  493.05 40.4274   1
   3  -6   6  -27.50   25.20   1
   4  -6   6  388.60 25.5264   1
   5  -6   6  125.30 24.6008   1
   6  -6   6  -36.90   88.60   1
   7  -6   6   53.30 59.9678   1
   8  -6   6  -51.30 137.001   1
   0  -7   6 3702.40 134.882   1
   1  -7   6  156.80 23.4847   1
   2  -7   6 2916.45  117.02   1
   3  -7   6 1067.60  38.353   1
   4  -7   6  148.10 37.4086   1
   5  -7   6   39.00 90.2289   1
   6  -7   6  459.55 45.6408   1
   7  -7   6   23.20 91.7034   1
   8  -7   6 -140.50  129.26   1
   0  -8   6   43.85 25.0349   1
   1  -8   6  244.90 29.9499   1
   2  -8   6  220.60  28.749   1
   3  -8   6  182.85 29.2055   1
   4  -8   6  540.20 70.3823   1
   5  -8   6   57.90 44.4858   1
   6  -8   6  102.65 33.4619   1
   7  -8   6   14.85 81.8578   1
   8  -8   6 -115.30 110.499   1
   0  -9   6   18.55 17.9542   1
   1  -9   6 1232.40 54.6454   1
   2  -9   6  298.20 25.5198   1
   3  -9   6 3248.35  129.03   1
   4  -9   6  200.05 26.1544   1
   5  -9   6    3.20 68.1651   1
   6  -9   6   54.85 50.1099   1
   7  -9   6   24.10 66.9937   1
   0 -10   6  247.60 25.1912   1
   1 -10   6  688.50 57.7453   1
   2 -10   6   74.10 27.7836   1
   3 -10   6   40.50 28.4694   1
   4 -10   6  669.50 75.8372   1
   5 -10   6   12.25 137.674   1
   6 -10   6   57.25 59.7824   1
   7 -10   6   53.35 350.372   1
   0 -11   6   82.30 24.1258   1
   1 -11   6    7.20  26.984   1
   2 -11   6  488.05 36.5545   1
   3 -11   6    3.50 34.1565   1
   4 -11   6  100.70 76.6669   1
   5 -11   6  512.75 46.4754   1
   6 -11   6   21.25 104.575   1
   7 -11   6 -158.50 133.434   1
   0 -12   6  475.85 31.3968   1
   1 -12   6    7.50 28.3979   1
   2 -12   6 1055.85   82.39   1
   3 -12   6   54.00 34.7626   1
   4 -12   6  207.35 45.0208   1
   5 -12   6  395.25 54.1474   1
   6 -12   6  209.20 172.283   1
   7 -12   6  101.80 101.274   1
   0 -13   6  548.05 37.4429   1
   1 -13   6  651.85 61.5279   1
   2 -13   6   26.45 30.7113   1
   3 -13   6  -15.45 52.7734   1
   4 -13   6  541.90 58.0612   1
   5 -13   6  -47.15 85.7582   1
   6 -13   6  177.20 57.4277   1
   7 -13   6 -128.00  415.40   1
   0 -14   6  361.40 76.8631   1
   1 -14   6  579.90  39.784   1
   2 -14   6  136.05 80.2855   1
   3 -14   6 1205.70 194.683   1
   4 -14   6  696.40 78.6477   1
   5 -14   6   52.00 61.3035   1
   6 -14   6  178.20 80.9537   1
   7 -14   6  149.80 211.297   1
   0 -15   6 1412.45 65.9254   1
   1 -15   6   13.45 52.2556   1
   2 -15   6  269.55 42.2616   1
   3 -15   6   63.00 66.2109   1
   4 -15   6  -22.60 99.2555   1
   5 -15   6  121.90 92.0855   1
   6 -15   6  -27.15 93.3837   1
   0 -16   6  167.55 32.2418   1
   1 -16   6   93.60 33.1257   1
   2 -16   6  234.80 37.4625   1
   3 -16   6  392.10 72.8429   1
   4 -16   6  146.80 76.4044   1
   5 -16   6   12.90 130.391   1
   6 -16   6  415.55 494.099   1
   0 -17   6  851.50 66.4474   1
   1 -17   6  119.20 49.5454   1
   2 -17   6  903.00 88.3428   1
   3 -17   6   44.65 79.6941   1
   4 -17   6  574.55  83.299   1
   5 -17   6  145.30 241.983   1
   6 -17   6  -15.35 151.483   1
   0 -18   6  -44.50 75.8251   1
   1 -18   6  102.05 69.3859   1
   2 -18   6  263.25 68.7736   1
   3 -18   6   49.90 89.5232   1
   4 -18   6    9.25 72.3372   1
   5 -18   6   37.50  185.97   1
   0 -19   6  219.35  55.874   1
   1 -19   6  470.35 124.602   1
   2 -19   6   13.95 76.9235   1
   3 -19   6   60.70 117.101   1
   4 -19   6    4.10 78.2895   1
   5 -19   6  189.15 233.011   1
   0 -20   6  203.60 68.8122   1
   1 -20   6   54.50 74.3342   1
   2 -20   6  232.90 151.648   1
   3 -20   6  124.30  94.533   1
   4 -20   6    0.60 88.1025   1
   5 -20   6   87.90 194.601   1
   0 -21   6   74.60 85.3253   1
   1 -21   6  150.15 65.0595   1
   2 -21   6   46.15 73.1427   1
   3 -21   6 1055.20 105.248   1
   4 -21   6   36.65  97.936   1
   0 -22   6  206.00 97.7764   1
   1 -22   6   75.65 71.4717   1
   2 -22   6 -120.75 120.736   1
   3 -22   6 -132.75  229.10   1
   4 -22   6   32.40 96.7336   1
   0 -23   6  126.65 102.621   1
   1 -23   6  124.85 165.546   1
   2 -23   6   37.55 187.596   1
   3 -23   6  -21.70  172.40   1
   0 -24   6  -18.25 99.8616   1
   1 -24   6   62.10 95.2124   1
   2 -24   6   97.10 73.9957   1
   0 -25   6   51.85 80.5606   1
   1 -25   6   46.10 172.536   1
   0   0   7    8.00 19.9372   1
   1   0   7   11.10 18.5026   1
   2   0   7   24.30 25.9686   1
   3   0   7   20.40 28.6113   1
   4   0   7   27.40 34.0187   1
   5   0   7   22.40 38.1368   1
   6   0   7   67.10 110.849   1
   7   0   7   15.90 80.2928   1
   0  -1   7  498.50  77.758   1
   1  -1   7  958.90 42.1898   1
   2  -1   7   28.55 16.6767   1
   3  -1   7 1362.85 47.9491   1
   4  -1   7  258.35 27.3461   1
   5  -1   7  147.35 43.1258   1
   6  -1   7  202.50 64.0767   1
   7  -1   7   55.15 110.524   1
   0  -2   7   -4.35   77.90   1
   1  -2   7  748.30 36.2963   1
   2  -2   7  756.75 46.7416   1
   3  -2   7 1724.65  59.325   1
   4  -2   7  297.05 65.4348   1
   5  -2   7  194.20 46.9111   1
   6  -2   7  152.35 54.1718   1
   7  -2   7  191.25 90.4895   1
   0  -3   7  194.05 22.7873   1
   1  -3   7  555.50 30.0944   1
   2  -3   7 1730.65 64.5069   1
   3  -3   7   45.80 23.7698   1
   4  -3   7  110.55 24.3787   1
   5  -3   7  -36.40 52.7969   1
   6  -3   7   -3.35  92.149   1
   7  -3   7  210.90 133.967   1
   0  -4   7  170.80 25.3844   1
   1  -4   7  122.90 24.3985   1
   2  -4   7 1135.00 49.7093   1
   3  -4   7  597.45 48.7943   1
   4  -4   7   80.95 40.2547   1
   5  -4   7  483.70 62.5601   1
   6  -4   7  247.45 97.1585   1
   7  -4   7  226.80 101.972   1
   0  -5   7  384.60 35.1778   1
   1  -5   7   75.75 36.7184   1
   2  -5   7  703.55 37.1005   1
   3  -5   7  138.40 27.0317   1
   4  -5   7   28.60 33.9441   1
   5  -5   7   69.60 55.0516   1
   6  -5   7   37.75 60.8881   1
   7  -5   7  198.60 88.5065   1
   0  -6   7  546.85  32.215   1
   1  -6   7 1065.45 57.1965   1
   2  -6   7   -3.75 35.2187   1
   3  -6   7  508.60 63.7248   1
   4  -6   7  227.55 62.6823   1
   5  -6   7  174.75 46.1133   1
   6  -6   7  153.75 115.496   1
   7  -6   7  168.80 101.016   1
   0  -7   7 1569.75 72.8346   1
   1  -7   7  157.50  26.617   1
   2  -7   7   96.95 22.9043   1
   3  -7   7  417.20 33.0505   1
   4  -7   7   95.70 37.6376   1
   5  -7   7   72.35 52.3455   1
   6  -7   7   29.25 130.886   1
   7  -7   7   90.10 102.484   1
   0  -8   7   10.85 60.8821   1
   1  -8   7  754.95 59.6836   1
   2  -8   7  118.35 47.3424   1
   3  -8   7  523.20 44.6143   1
   4  -8   7  853.85 82.3606   1
   5  -8   7  131.25 69.2296   1
   6  -8   7   68.45  173.74   1
   0  -9   7  609.15 76.3411   1
   1  -9   7   69.45 47.0354   1
   2  -9   7  -14.85   55.90   1
   3  -9   7 1361.30 110.724   1
   4  -9   7   77.85 44.0183   1
   5  -9   7   -0.95 114.367   1
   6  -9   7   77.35  103.15   1
   0 -10   7  326.15 55.7469   1
   1 -10   7  115.55 33.4055   1
   2 -10   7   72.65 37.9431   1
   3 -10   7  234.90  50.231   1
   4 -10   7  202.90 50.0201   1
   5 -10   7   14.40 143.967   1
   6 -10   7  192.15 98.1213   1
   0 -11   7   18.25 60.4583   1
   1 -11   7   64.80 33.0098   1
   2 -11   7  931.45 111.498   1
   3 -11   7   49.40 62.7959   1
   4 -11   7  -21.70  141.40   1
   5 -11   7   44.20 84.5348   1
   6 -11   7  -52.85 111.448   1
   0 -12   7  322.40 40.3528   1
   1 -12   7  520.55  51.675   1
   2 -12   7    6.50 38.0246   1
   3 -12   7  -23.85 72.3457   1
   4 -12   7  154.65  333.41   1
   5 -12   7  248.50 134.408   1
   6 -12   7  -32.30 125.297   1
   0 -13   7 1307.25 71.6623   1
   1 -13   7  128.75 44.4946   1
   2 -13   7  667.40 64.9982   1
   3 -13   7    9.25 73.7514   1
   4 -13   7  216.70 124.639   1
   5 -13   7   32.20 56.1446   1
   6 -13   7  156.70  272.19   1
   0 -14   7  246.90 47.8186   1
   1 -14   7  -14.40 60.0651   1
   2 -14   7   79.85 69.1218   1
   3 -14   7   68.10 66.2482   1
   4 -14   7  193.20 102.934   1
   5 -14   7   81.35 59.4963   1
   0 -15   7  873.90 69.5789   1
   1 -15   7   32.75 74.7874   1
   2 -15   7   32.80 72.9731   1
   3 -15   7   64.50 81.1651   1
   4 -15   7  193.25  113.25   1
   5 -15   7  402.40 72.5725   1
   0 -16   7  311.35 132.533   1
   1 -16   7   30.45 74.7668   1
   2 -16   7 -101.20  259.80   1
   3 -16   7   77.95 89.0333   1
   4 -16   7    2.60  147.52   1
   5 -16   7   18.25 83.7203   1
   0 -17   7  352.85 72.8953   1
   1 -17   7   38.05 77.3867   1
   2 -17   7   67.65 69.2807   1
   3 -17   7   81.85 84.5707   1
   4 -17   7   46.00 92.3428   1
   0 -18   7  496.85  79.184   1
   1 -18   7  107.70 87.5774   1
   2 -18   7  -65.95 115.096   1
   3 -18   7  323.00 128.066   1
   4 -18   7 -109.70 166.796   1
   0 -19   7  123.55 193.545   1
   1 -19   7  311.00  124.83   1
   2 -19   7  152.05 85.7578   1
   3 -19   7  -50.10  132.22   1
   0 -20   7  -18.65  109.70   1
   1 -20   7 -146.45 141.779   1
   2 -20   7  114.50 115.555   1
   3 -20   7  308.10 150.308   1
   0 -21   7   87.95 127.923   1
   1 -21   7  317.75 122.221   1
   2 -21   7    0.15 99.4401   1
   0 -22   7  173.25 199.777   1
   1 -22   7   97.70 94.1924   1
   2 -22   7   22.55 106.259   1
   0 -23   7  356.20 91.5026   1
   0   0   8   24.90 43.3317   1
   1   0   8  960.20 70.8702   1
   2   0   8   16.90 41.7959   1
   3   0   8  268.30 49.5217   1
   4   0   8 1834.30 141.794   1
   5   0   8   18.40 97.3876   1
   6   0   8 -124.10 110.707   1
   0  -1   8  101.00 28.9717   1
   1  -1   8   87.10 43.0141   1
   2  -1   8  470.30 35.7515   1
   3  -1   8   11.85 30.9056   1
   4  -1   8  -22.15 61.0773   1
   5  -1   8  227.00 65.0115   1
   6  -1   8   27.65 107.693   1
   0  -2   8  224.90 37.3634   1
   1  -2   8   29.00 75.0961   1
   2  -2   8  234.60 100.619   1
   3  -2   8  619.55 54.0506   1
   4  -2   8  630.25 61.5699   1
   5  -2   8  222.45  77.363   1
   6  -2   8  420.35 95.0679   1
   0  -3   8   17.85 23.2387   1
   1  -3   8  638.20 50.1523   1
   2  -3   8  181.15 62.0794   1
   3  -3   8   31.45 51.2677   1
   4  -3   8  128.10 87.2805   1
   5  -3   8  105.30 149.916   1
   6  -3   8   44.25 134.847   1
   0  -4   8  840.60 48.0406   1
   1  -4   8  627.30 44.1921   1
   2  -4   8   58.90  41.466   1
   3  -4   8  472.70 48.0866   1
   4  -4   8  -52.55   87.70   1
   5  -4   8   68.95 91.8116   1
   6  -4   8   -5.00  289.80   1
   0  -5   8  124.30 66.6384   1
   1  -5   8  609.95 65.2752   1
   2  -5   8 1286.80 96.0942   1
   3  -5   8   -8.40 60.0724   1
   4  -5   8  120.20 76.5289   1
   5  -5   8  237.10 105.708   1
   0  -6   8  733.15 64.2158   1
   1  -6   8  372.65 72.8585   1
   2  -6   8  484.70 78.4399   1
   3  -6   8  431.15 50.2037   1
   4  -6   8  -62.10 77.1294   1
   5  -6   8   28.65 87.6117   1
   0  -7   8  244.00 41.9076   1
   1  -7   8  611.00 41.7912   1
   2  -7   8   87.55 64.7151   1
   3  -7   8  151.25 45.4131   1
   4  -7   8    0.00   78.80   1
   5  -7   8   70.05 109.819   1
   0  -8   8  123.25 95.1258   1
   1  -8   8   38.15 34.8091   1
   2  -8   8   39.65 38.8319   1
   3  -8   8  190.90 47.4679   1
   4  -8   8   54.90 149.061   1
   5  -8   8   97.90 83.5886   1
   0  -9   8  249.90 35.4232   1
   1  -9   8  -31.40 69.1309   1
   2  -9   8  428.20 84.6582   1
   3  -9   8   16.85 80.6813   1
   4  -9   8   63.70 99.8486   1
   5  -9   8   73.20 135.204   1
   0 -10   8  128.50 60.6233   1
   1 -10   8   48.10 51.3416   1
   2 -10   8   15.45 65.5493   1
   3 -10   8  231.55 55.1329   1
   4 -10   8  366.75  99.094   1
   5 -10   8  177.75 109.301   1
   0 -11   8  393.45 108.578   1
   1 -11   8   12.40 65.2122   1
   2 -11   8  399.90 66.4386   1
   3 -11   8  120.50 76.5327   1
   4 -11   8  206.20 99.3687   1
   5 -11   8   54.45  118.75   1
   0 -12   8   88.25  129.62   1
   1 -12   8  -40.35  141.10   1
   2 -12   8  844.30 93.9747   1
   3 -12   8  341.15  121.53   1
   4 -12   8   15.60 95.6621   1
   0 -13   8   87.20 65.7189   1
   1 -13   8  -39.40 94.2765   1
   2 -13   8  378.30 81.3041   1
   3 -13   8  225.60 99.2005   1
   4 -13   8  -17.45  207.10   1
   0 -14   8  -50.65 89.9473   1
   1 -14   8  204.70 73.1442   1
   2 -14   8  473.50 81.2016   1
   3 -14   8   -9.35 129.832   1
   4 -14   8   17.00  81.444   1
   0 -15   8  151.30 64.0877   1
   1 -15   8   23.65 92.3232   1
   2 -15   8   47.05 197.921   1
   3 -15   8  -79.00 153.723   1
   0 -16   8   62.25 67.1956   1
   1 -16   8  113.05 202.735   1
   2 -16   8  315.45 103.945   1
   3 -16   8  198.00 269.567   1
   0 -17   8  -10.30 90.7419   1
   1 -17   8  713.00 99.3734   1
   2 -17   8  164.75 75.5474   1
   0 -18   8 -195.35 108.178   1
   1 -18   8  389.35  106.00   1
   2 -18   8  117.60 253.575   1
   0 -19   8   47.90 208.456   1
   1 -19   8  370.05 132.429   1
   0 -20   8  -46.70 113.478   1
   0   0   9  -16.20 64.7981   1
   1   0   9   52.60 67.2944   1
   2   0   9   40.70 66.5013   1
   3   0   9  -47.60 56.3754   1
   4   0   9  -64.10 90.4108   1
   0  -1   9   87.20 104.802   1
   1  -1   9  325.80 47.3362   1
   2  -1   9  535.95  82.672   1
   3  -1   9  321.00 54.9463   1
   4  -1   9   31.55 142.483   1
   0  -2   9  413.95 56.4137   1
   1  -2   9  591.40 50.5524   1
   2  -2   9  146.35 41.9939   1
   3  -2   9  197.00 58.9669   1
   4  -2   9   44.00 67.3238   1
   0  -3   9   41.00 44.0474   1
   1  -3   9  343.00 72.1875   1
   2  -3   9  146.90 115.706   1
   3  -3   9  -16.50   81.00   1
   4  -3   9  -63.00 117.852   1
   0  -4   9    4.45  54.518   1
   1  -4   9   90.80 66.2008   1
   2  -4   9  469.00 67.5857   1
   3  -4   9  188.00 121.376   1
   4  -4   9  148.65 97.2841   1
   0  -5   9  105.05 53.8578   1
   1  -5   9    7.65 52.6796   1
   2  -5   9  -26.70 78.2418   1
   3  -5   9   88.95 67.6251   1
   4  -5   9   80.60 145.387   1
   0  -6   9   92.80 62.0266   1
   1  -6   9   30.20 48.0143   1
   2  -6   9  684.05 72.3902   1
   3  -6   9  147.10  104.96   1
   4  -6   9   67.95 160.022   1
   0  -7   9  424.75 63.6414   1
   1  -7   9  197.45 52.1525   1
   2  -7   9   31.75 56.9498   1
   3  -7   9   -3.70 75.7947   1
   0  -8   9  -55.70 84.6673   1
   1  -8   9  444.30 59.4305   1
   2  -8   9  -35.35 71.0621   1
   3  -8   9  326.55 98.2881   1
   0  -9   9   28.20  106.35   1
   1  -9   9  -46.25  172.30   1
   2  -9   9  -14.75  110.04   1
   3  -9   9   99.70 75.8449   1
   0 -10   9  -60.40  217.60   1
   1 -10   9   19.55 54.9954   1
   2 -10   9   -0.90  102.80   1
   3 -10   9  -58.80 90.1968   1
   0 -11   9   88.30 55.1904   1
   1 -11   9    1.45 57.8449   1
   2 -11   9  207.20 82.6811   1
   3 -11   9  111.15 76.1729   1
   0 -12   9   23.60 88.5306   1
   1 -12   9   73.20 66.0539   1
   2 -12   9  487.50 132.453   1
   0 -13   9  106.15 80.9419   1
   1 -13   9   28.05 66.1261   1
   2 -13   9 -136.05 136.228   1
   0 -14   9  141.05 119.593   1
   1 -14   9   78.80 100.439   1
   0 -15   9  253.20 99.3771   1
   1 -15   9  177.85 104.204   1
   0 -16   9    8.35 94.8087   1
   0   0  10   57.70 63.2968   1
   1   0  10 1769.20 169.645   1
   2   0  10  -20.20 93.1936   1
   0  -1  10  -66.30 76.1259   1
   1  -1  10   -3.25 86.7515   1
   2  -1  10  -22.60 129.382   1
   0  -2  10  152.25 62.1747   1
   1  -2  10   79.75 65.7023   1
   2  -2  10   56.70 152.879   1
   0  -3  10  185.95  54.752   1
   1  -3  10   45.40 132.797   1
   2  -3  10  148.40 81.8031   1
   0  -4  10   63.80 73.9468   1
   1  -4  10   21.80 86.1263   1
   0  -5  10 -152.90  237.60   1
   1  -5  10   77.70 85.8366   1
   0  -6  10  -14.35 105.837   1
   1  -6  10  113.75 82.8083   1
   0  -7  10   35.50 79.8345   1
   1  -7  10   27.85 133.715   1
   0  -8  10  -17.25 131.213   1
   1  -8  10  -69.05  116.11   1
   0  -9  10  118.45 104.456   1
   0 -10  10  318.40 94.4623   1
   0   0   0    0.00    0.00   1
;
_shelx_hkl_checksum              39477
_shelx_res_file
;
TITL SIR92 run in space group P 21/a
CELL  0.71073   9.7478  25.2229   8.6354   90.000  101.733   90.000
ZERR     4.00   0.0003   0.0008   0.0002    0.000    0.002    0.000
LATT   1
SYMM  - X, 1/2 + Y, 1/2 - Z
SFAC  C    H    N    O    S    CL
UNIT  88 88 12 4 4 4
MERG   2
EQIV $1 -x,-y+1,-z
EQIV $2 x,+y,+z+1
HTAB N3 O1_$1
HTAB C15 O1_$2
FMAP   2
PLAN    5
ACTA
BOND   $H
CONF
L.S.  10
WGHT    0.044200
FVAR       1.63557
S1    5    0.458010    0.540577    0.145821    11.00000    0.03834    0.05226 =
         0.05032    0.00091    0.01561    0.00674
CL1   6    0.007593    0.369323    0.458969    11.00000    0.08953    0.06018 =
         0.07908    0.00310    0.03259   -0.02114
O1    4    0.139865    0.500333   -0.107092    11.00000    0.05845    0.05042 =
         0.04522   -0.01939    0.00982   -0.00223
N1    3    0.184276    0.679406    0.300622    11.00000    0.03308    0.03059 =
         0.03807   -0.00348    0.00204   -0.00081
N2    3    0.101337    0.648487    0.189833    11.00000    0.02983    0.03202 =
         0.03568   -0.00621   -0.00215    0.00467
N3    3    0.101212    0.561789    0.069491    11.00000    0.03212    0.03555 =
         0.03829   -0.00797    0.00439   -0.00001
C1    1   -0.029191    0.668668    0.101751    11.00000    0.03359    0.03207 =
         0.03542   -0.00815   -0.00014    0.00472
C2    1   -0.029533    0.712134    0.007587    11.00000    0.04745    0.03991 =
         0.07779    0.00991   -0.00974   -0.00540
AFIX  43
H2    2    0.054269    0.728654    0.000523    11.00000   -1.20000
AFIX   0
C3    1   -0.155518    0.731487   -0.077404    11.00000    0.06815    0.04310 =
         0.09464    0.01800   -0.02366    0.00403
AFIX  43
H3    2   -0.156706    0.761082   -0.141899    11.00000   -1.20000
AFIX   0
C4    1   -0.278311    0.706878   -0.066100    11.00000    0.05000    0.05034 =
         0.08364   -0.01617   -0.02170    0.01451
AFIX  43
H4    2   -0.362998    0.719955   -0.122671    11.00000   -1.20000
AFIX   0
C5    1   -0.277115    0.663303    0.027647    11.00000    0.03248    0.06593 =
         0.06274   -0.01876    0.00089    0.00409
AFIX  43
H5    2   -0.360940    0.646735    0.034351    11.00000   -1.20000
AFIX   0
C6    1   -0.151887    0.643634    0.112777    11.00000    0.04018    0.04784 =
         0.04270   -0.00385    0.00432   -0.00010
AFIX  43
H6    2   -0.150791    0.613873    0.176591    11.00000   -1.20000
AFIX   0
C7    1    0.157040    0.599747    0.183681    11.00000    0.03011    0.02861 =
         0.03313   -0.00469    0.00392    0.00187
C8    1    0.180773    0.538774   -0.023427    11.00000    0.04553    0.04372 =
         0.02970    0.00210    0.00379    0.00559
C9    1    0.320492    0.564099   -0.019974    11.00000    0.04245    0.05946 =
         0.03684   -0.00779    0.01303   -0.00266
AFIX  93
H91   2    0.379451    0.550688   -0.082714    11.00000   -1.20000
H92   2    0.348211    0.593221    0.044908    11.00000   -1.20000
AFIX   0
C10   1    0.371445    0.548977    0.315002    11.00000    0.03394    0.04064 =
         0.03242   -0.00184    0.00199    0.00474
AFIX  13
H101  2    0.445589    0.555417    0.408246    11.00000   -1.20000
AFIX   0
C11   1    0.290182    0.500204    0.351428    11.00000    0.03737    0.03541 =
         0.03050    0.00188    0.00508    0.00942
C12   1    0.265249    0.455697    0.257394    11.00000    0.05314    0.03898 =
         0.03445    0.00069    0.01336    0.00721
AFIX  43
H12   2    0.306668    0.452791    0.169789    11.00000   -1.20000
AFIX   0
C13   1    0.179751    0.415199    0.290698    11.00000    0.06202    0.03494 =
         0.03792   -0.00316    0.01055    0.00335
AFIX  43
H13   2    0.162721    0.385692    0.225012    11.00000   -1.20000
AFIX   0
C14   1    0.120812    0.418921    0.420381    11.00000    0.04913    0.03912 =
         0.04645    0.00666    0.00976   -0.00181
C15   1    0.147952    0.461672    0.521110    11.00000    0.07666    0.04509 =
         0.04057    0.00196    0.02623   -0.00135
AFIX  43
H15   2    0.110472    0.463270    0.611807    11.00000   -1.20000
AFIX   0
C16   1    0.231414    0.501989    0.485426    11.00000    0.06971    0.03706 =
         0.03839   -0.00740    0.01448   -0.00016
AFIX  43
H16   2    0.249008    0.531148    0.552446    11.00000   -1.20000
AFIX   0
C17   1    0.280181    0.597641    0.292029    11.00000    0.03160    0.02915 =
         0.03183    0.00147    0.00491    0.00172
C18   1    0.293932    0.648810    0.361218    11.00000    0.03177    0.03279 =
         0.03181    0.00005    0.00585    0.00023
C19   1    0.409507    0.670676    0.490439    11.00000    0.03560    0.03714 =
         0.03944   -0.00343   -0.00305   -0.00184
C20   1    0.383191    0.728861    0.522016    11.00000    0.05349    0.05113 =
         0.06121   -0.01783   -0.00620   -0.00430
AFIX  33
H201  2    0.457236    0.741915    0.603881    11.00000   -1.50000
H202  2    0.380460    0.749003    0.427110    11.00000   -1.50000
H203  2    0.295299    0.732319    0.554948    11.00000   -1.50000
AFIX   0
C21   1    0.413850    0.638990    0.642945    11.00000    0.06702    0.06574 =
         0.04088    0.00011   -0.00924   -0.01291
AFIX  33
H211  2    0.486777    0.652675    0.724989    11.00000   -1.50000
H212  2    0.325363    0.642094    0.674709    11.00000   -1.50000
H213  2    0.432130    0.602368    0.624598    11.00000   -1.50000
AFIX   0
C22   1    0.550991    0.665879    0.437991    11.00000    0.03790    0.05331 =
         0.06903   -0.00061    0.00056   -0.00646
AFIX  33
H221  2    0.624279    0.679669    0.519431    11.00000   -1.50000
H222  2    0.569447    0.629279    0.419539    11.00000   -1.50000
H223  2    0.547364    0.685700    0.342339    11.00000   -1.50000
AFIX   0
H31   2    0.028504    0.547979    0.079710    11.00000    0.02866
HKLF 4
REM  SIR92 run in space group P 21/a
REM R1 =  0.0483 for    2417 Fo > 4sig(Fo)  and  0.1080 for all    4251 data
REM    257 parameters refined using      0 restraints
END
WGHT      0.0446      0.0000
REM Highest difference peak  0.396,  deepest hole -0.379,  1-sigma level  0.045
Q1    1   0.3096  0.6090 -0.0337  11.00000  0.05    0.40
Q2    1   0.3278  0.5502 -0.1406  11.00000  0.05    0.26
Q3    1   0.3065  0.6241  0.3062  11.00000  0.05    0.19
Q4    1   0.0324  0.6588  0.1815  11.00000  0.05    0.19
Q5    1   0.4079  0.5573  0.3502  11.00000  0.05    0.18
;
_shelx_res_checksum              18602
_shelxl_version_number           2.014
loop_
_space_group_symop_operation_xyz
'x, y, z'
'-x, y+1/2, -z+1/2'
'-x, -y, -z'
'x, -y-1/2, z-1/2'
loop_
_atom_site_type_symbol
_atom_site_label
_atom_site_fract_x
_atom_site_fract_y
_atom_site_fract_z
_atom_site_U_iso_or_equiv
_atom_site_adp_type
_atom_site_calc_flag
_atom_site_occupancy
S S1 0.45801(6) 0.54058(3) 0.14582(7) 0.0460(2) Uani d 1
Cl Cl1 0.00759(8) 0.36932(3) 0.45897(8) 0.0741(3) Uani d 1
O O1 0.13987(16) 0.50033(7) -0.10709(18) 0.0515(5) Uani d 1
N N1 0.18428(17) 0.67941(8) 0.30062(19) 0.0346(5) Uani d 1
N N2 0.10134(17) 0.64849(8) 0.18983(19) 0.0338(5) Uani d 1
N N3 0.1012(2) 0.56179(8) 0.0695(2) 0.0357(5) Uani d 1
C C1 -0.0292(2) 0.66867(10) 0.1018(2) 0.0347(6) Uani d 1
C C2 -0.0295(3) 0.71213(11) 0.0076(3) 0.0582(8) Uani d 1
H H2 0.0543 0.7287 0.0005 0.070 Uiso calc 1
C C3 -0.1555(3) 0.73149(12) -0.0774(4) 0.0743(9) Uani d 1
H H3 -0.1567 0.7611 -0.1419 0.089 Uiso calc 1
C C4 -0.2783(3) 0.70688(12) -0.0661(3) 0.0663(9) Uani d 1
H H4 -0.3630 0.7200 -0.1227 0.080 Uiso calc 1
C C5 -0.2771(2) 0.66330(12) 0.0276(3) 0.0550(8) Uani d 1
H H5 -0.3609 0.6467 0.0344 0.066 Uiso calc 1
C C6 -0.1519(2) 0.64363(10) 0.1128(3) 0.0442(6) Uani d 1
H H6 -0.1508 0.6139 0.1766 0.053 Uiso calc 1
C C7 0.1570(2) 0.59975(9) 0.1837(2) 0.0310(5) Uani d 1
C C8 0.1808(2) 0.53877(11) -0.0234(2) 0.0402(6) Uani d 1
C C9 0.3205(2) 0.56410(10) -0.0200(2) 0.0455(7) Uani d 1
H H91 0.3795 0.5507 -0.0827 0.055 Uiso calc 1
H H92 0.3482 0.5932 0.0449 0.055 Uiso calc 1
C C10 0.3714(2) 0.54898(10) 0.3150(2) 0.0363(6) Uani d 1
H H101 0.4456 0.5554 0.4082 0.044 Uiso calc 1
C C11 0.2902(2) 0.50020(9) 0.3514(2) 0.0347(6) Uani d 1
C C12 0.2652(2) 0.45570(10) 0.2574(2) 0.0416(6) Uani d 1
H H12 0.3067 0.4528 0.1698 0.050 Uiso calc 1
C C13 0.1798(2) 0.41520(10) 0.2907(3) 0.0449(6) Uani d 1
H H13 0.1627 0.3857 0.2250 0.054 Uiso calc 1
C C14 0.1208(2) 0.41892(10) 0.4204(3) 0.0449(6) Uani d 1
C C15 0.1480(3) 0.46167(11) 0.5211(3) 0.0521(7) Uani d 1
H H15 0.1105 0.4633 0.6118 0.063 Uiso calc 1
C C16 0.2314(3) 0.50199(10) 0.4854(3) 0.0479(7) Uani d 1
H H16 0.2490 0.5311 0.5524 0.057 Uiso calc 1
C C17 0.2802(2) 0.59764(9) 0.2920(2) 0.0311(5) Uani d 1
C C18 0.2939(2) 0.64881(9) 0.3612(2) 0.0322(5) Uani d 1
C C19 0.4095(2) 0.67068(10) 0.4904(2) 0.0389(6) Uani d 1
C C20 0.3832(3) 0.72886(10) 0.5220(3) 0.0578(8) Uani d 1
H H201 0.4572 0.7419 0.6039 0.087 Uiso calc 1
H H202 0.3805 0.7490 0.4271 0.087 Uiso calc 1
H H203 0.2953 0.7323 0.5549 0.087 Uiso calc 1
C C21 0.4139(3) 0.63899(11) 0.6429(3) 0.0607(8) Uani d 1
H H211 0.4868 0.6527 0.7250 0.091 Uiso calc 1
H H212 0.3254 0.6421 0.6747 0.091 Uiso calc 1
H H213 0.4321 0.6024 0.6246 0.091 Uiso calc 1
C C22 0.5510(2) 0.66588(11) 0.4380(3) 0.0549(7) Uani d 1
H H221 0.6243 0.6797 0.5194 0.082 Uiso calc 1
H H222 0.5694 0.6293 0.4195 0.082 Uiso calc 1
H H223 0.5474 0.6857 0.3423 0.082 Uiso calc 1
H H31 0.029(2) 0.5480(9) 0.080(2) 0.029(7) Uiso d 1
loop_
_atom_site_aniso_label
_atom_site_aniso_U_11
_atom_site_aniso_U_22
_atom_site_aniso_U_33
_atom_site_aniso_U_12
_atom_site_aniso_U_13
_atom_site_aniso_U_23
S1 0.0383(3) 0.0523(5) 0.0503(4) 0.0067(3) 0.0156(3) 0.0009(3)
Cl1 0.0895(6) 0.0602(6) 0.0791(5) -0.0211(4) 0.0326(4) 0.0031(4)
O1 0.0585(11) 0.0504(13) 0.0452(9) -0.0022(9) 0.0098(8) -0.0194(9)
N1 0.0331(10) 0.0306(12) 0.0381(10) -0.0008(9) 0.0020(8) -0.0035(9)
N2 0.0298(10) 0.0320(13) 0.0357(10) 0.0047(9) -0.0022(8) -0.0062(9)
N3 0.0321(11) 0.0355(13) 0.0383(11) 0.0000(10) 0.0044(9) -0.0080(10)
C1 0.0336(13) 0.0321(15) 0.0354(12) 0.0047(11) -0.0001(10) -0.0082(11)
C2 0.0475(16) 0.0399(19) 0.0778(18) -0.0054(13) -0.0097(14) 0.0099(15)
C3 0.068(2) 0.043(2) 0.095(2) 0.0040(16) -0.0237(17) 0.0180(16)
C4 0.0500(18) 0.050(2) 0.084(2) 0.0145(15) -0.0217(15) -0.0162(18)
C5 0.0325(14) 0.066(2) 0.0627(16) 0.0041(14) 0.0009(12) -0.0188(16)
C6 0.0402(14) 0.0478(18) 0.0427(13) -0.0001(13) 0.0043(11) -0.0038(12)
C7 0.0301(12) 0.0286(15) 0.0331(12) 0.0019(11) 0.0039(10) -0.0047(11)
C8 0.0455(14) 0.0437(17) 0.0297(12) 0.0056(13) 0.0038(11) 0.0021(13)
C9 0.0425(14) 0.0595(19) 0.0368(13) -0.0027(13) 0.0130(11) -0.0078(12)
C10 0.0339(12) 0.0406(16) 0.0324(12) 0.0047(11) 0.0020(9) -0.0018(11)
C11 0.0374(13) 0.0354(16) 0.0305(12) 0.0094(11) 0.0051(10) 0.0019(11)
C12 0.0531(15) 0.0390(17) 0.0345(12) 0.0072(13) 0.0134(11) 0.0007(12)
C13 0.0620(16) 0.0349(17) 0.0379(13) 0.0033(13) 0.0105(12) -0.0032(12)
C14 0.0491(14) 0.0391(17) 0.0465(14) -0.0018(13) 0.0098(12) 0.0067(13)
C15 0.0767(18) 0.0451(19) 0.0406(14) -0.0013(15) 0.0262(13) 0.0020(14)
C16 0.0697(17) 0.0371(17) 0.0384(13) -0.0002(14) 0.0145(12) -0.0074(12)
C17 0.0316(12) 0.0292(15) 0.0318(11) 0.0017(11) 0.0049(10) 0.0015(11)
C18 0.0318(12) 0.0328(15) 0.0318(11) 0.0002(11) 0.0058(9) 0.0000(11)
C19 0.0356(13) 0.0371(16) 0.0394(12) -0.0018(11) -0.0031(10) -0.0034(12)
C20 0.0535(16) 0.051(2) 0.0612(16) -0.0043(14) -0.0062(13) -0.0178(14)
C21 0.0670(17) 0.066(2) 0.0409(14) -0.0129(15) -0.0092(12) 0.0001(14)
C22 0.0379(14) 0.053(2) 0.0690(17) -0.0065(13) 0.0006(12) -0.0006(15)
loop_
_atom_type_symbol
_atom_type_description
_atom_type_scat_dispersion_real
_atom_type_scat_dispersion_imag
_atom_type_scat_source
C C 0.0033 0.0016 'International Tables Vol C Tables 4.2.6.8 and 6.1.1.4'
H H 0.0000 0.0000 'International Tables Vol C Tables 4.2.6.8 and 6.1.1.4'
N N 0.0061 0.0033 'International Tables Vol C Tables 4.2.6.8 and 6.1.1.4'
O O 0.0106 0.0060 'International Tables Vol C Tables 4.2.6.8 and 6.1.1.4'
S S 0.1246 0.1234 'International Tables Vol C Tables 4.2.6.8 and 6.1.1.4'
Cl Cl 0.1484 0.1585 'International Tables Vol C Tables 4.2.6.8 and 6.1.1.4'
loop_
_geom_angle_atom_site_label_1
_geom_angle_atom_site_label_2
_geom_angle_atom_site_label_3
_geom_angle
C10 S1 C9 101.56(10)
C18 N1 N2 104.91(17)
C7 N2 N1 111.25(16)
C7 N2 C1 128.48(17)
N1 N2 C1 120.23(18)
C8 N3 C7 121.5(2)
C8 N3 H31 119.9(15)
C7 N3 H31 116.1(15)
C2 C1 C6 121.0(2)
C2 C1 N2 119.7(2)
C6 C1 N2 119.4(2)
C1 C2 C3 119.6(2)
C1 C2 H2 120.2
C3 C2 H2 120.2
C4 C3 C2 119.7(3)
C4 C3 H3 120.1
C2 C3 H3 120.1
C5 C4 C3 120.4(2)
C5 C4 H4 119.8
C3 C4 H4 119.8
C4 C5 C6 120.3(3)
C4 C5 H5 119.8
C6 C5 H5 119.8
C1 C6 C5 119.0(2)
C1 C6 H6 120.5
C5 C6 H6 120.5
N2 C7 C17 108.26(18)
N2 C7 N3 123.23(17)
C17 C7 N3 128.1(2)
O1 C8 N3 122.1(2)
O1 C8 C9 122.3(2)
N3 C8 C9 115.6(2)
C8 C9 S1 113.04(16)
C8 C9 H91 120.0
S1 C9 H91 84.1
C8 C9 H92 120.0
S1 C9 H92 73.2
H91 C9 H92 120.0
C17 C10 C11 111.46(17)
C17 C10 S1 110.06(14)
C11 C10 S1 114.23(15)
C17 C10 H101 106.9
C11 C10 H101 106.9
S1 C10 H101 106.9
C12 C11 C16 117.6(2)
C12 C11 C10 124.8(2)
C16 C11 C10 117.6(2)
C11 C12 C13 121.3(2)
C11 C12 H12 119.3
C13 C12 H12 119.3
C14 C13 C12 119.5(2)
C14 C13 H13 120.3
C12 C13 H13 120.3
C13 C14 C15 121.0(2)
C13 C14 Cl1 119.8(2)
C15 C14 Cl1 119.25(19)
C16 C15 C14 118.9(2)
C16 C15 H15 120.5
C14 C15 H15 120.5
C15 C16 C11 121.6(2)
C15 C16 H16 119.2
C11 C16 H16 119.2
C7 C17 C18 104.37(18)
C7 C17 C10 122.4(2)
C18 C17 C10 133.19(18)
N1 C18 C17 111.19(17)
N1 C18 C19 119.5(2)
C17 C18 C19 129.26(19)
C18 C19 C20 110.76(18)
C18 C19 C21 109.17(19)
C20 C19 C21 108.9(2)
C18 C19 C22 109.26(18)
C20 C19 C22 108.7(2)
C21 C19 C22 109.96(19)
C19 C20 H201 109.5
C19 C20 H202 109.5
H201 C20 H202 109.5
C19 C20 H203 109.5
H201 C20 H203 109.5
H202 C20 H203 109.5
C19 C21 H211 109.5
C19 C21 H212 109.5
H211 C21 H212 109.5
C19 C21 H213 109.5
H211 C21 H213 109.5
H212 C21 H213 109.5
C19 C22 H221 109.5
C19 C22 H222 109.5
H221 C22 H222 109.5
C19 C22 H223 109.5
H221 C22 H223 109.5
H222 C22 H223 109.5
loop_
_geom_bond_atom_site_label_1
_geom_bond_atom_site_label_2
_geom_bond_distance
S1 C10 1.842(2)
S1 C9 1.849(2)
Cl1 C14 1.745(2)
O1 C8 1.226(3)
N1 C18 1.336(3)
N1 N2 1.365(2)
N2 C7 1.349(3)
N2 C1 1.436(2)
N3 C8 1.355(3)
N3 C7 1.402(3)
N3 H31 0.81(2)
C1 C2 1.365(3)
C1 C6 1.373(3)
C2 C3 1.385(3)
C2 H2 0.9300
C3 C4 1.369(4)
C3 H3 0.9300
C4 C5 1.364(4)
C4 H4 0.9300
C5 C6 1.383(3)
C5 H5 0.9300
C6 H6 0.9300
C7 C17 1.365(3)
C8 C9 1.499(3)
C9 H91 0.9300
C9 H92 0.9300
C10 C17 1.505(3)
C10 C11 1.530(3)
C10 H101 0.9800
C11 C12 1.378(3)
C11 C16 1.392(3)
C12 C13 1.385(3)
C12 H12 0.9300
C13 C14 1.362(3)
C13 H13 0.9300
C14 C15 1.377(3)
C15 C16 1.376(3)
C15 H15 0.9300
C16 H16 0.9300
C17 C18 1.417(3)
C18 C19 1.519(3)
C19 C20 1.524(3)
C19 C21 1.534(3)
C19 C22 1.541(3)
C20 H201 0.9600
C20 H202 0.9600
C20 H203 0.9600
C21 H211 0.9600
C21 H212 0.9600
C21 H213 0.9600
C22 H221 0.9600
C22 H222 0.9600
C22 H223 0.9600
loop_
_geom_hbond_atom_site_label_D
_geom_hbond_atom_site_label_H
_geom_hbond_atom_site_label_A
_geom_hbond_site_symmetry_A
_geom_hbond_distance_DH
_geom_hbond_distance_HA
_geom_hbond_distance_DA
_geom_hbond_angle_DHA
N3 H31 O1 3_565 0.81(2) 2.10(2) 2.897(3) 170(2)
C15 H15 O1 1_556 0.93 2.56 3.372(3) 145.7
loop_
_geom_torsion_atom_site_label_1
_geom_torsion_atom_site_label_2
_geom_torsion_atom_site_label_3
_geom_torsion_atom_site_label_4
_geom_torsion
C18 N1 N2 C7 0.9(2)
C18 N1 N2 C1 178.85(19)
C7 N2 C1 C2 -121.2(3)
N1 N2 C1 C2 61.2(3)
C7 N2 C1 C6 58.3(3)
N1 N2 C1 C6 -119.2(2)
C6 C1 C2 C3 0.4(4)
N2 C1 C2 C3 179.9(2)
C1 C2 C3 C4 0.0(4)
C2 C3 C4 C5 -0.3(4)
C3 C4 C5 C6 0.3(4)
C2 C1 C6 C5 -0.5(3)
N2 C1 C6 C5 179.99(19)
C4 C5 C6 C1 0.2(4)
N1 N2 C7 C17 -0.2(2)
C1 N2 C7 C17 -177.8(2)
N1 N2 C7 N3 -173.25(19)
C1 N2 C7 N3 9.1(3)
C8 N3 C7 N2 125.2(2)
C8 N3 C7 C17 -46.5(3)
C7 N3 C8 O1 169.2(2)
C7 N3 C8 C9 -12.1(3)
O1 C8 C9 S1 -96.7(2)
N3 C8 C9 S1 84.6(2)
C10 S1 C9 C8 -50.4(2)
C9 S1 C10 C17 -35.57(17)
C9 S1 C10 C11 90.69(16)
C17 C10 C11 C12 117.2(2)
S1 C10 C11 C12 -8.3(3)
C17 C10 C11 C16 -59.6(2)
S1 C10 C11 C16 174.91(15)
C16 C11 C12 C13 2.8(3)
C10 C11 C12 C13 -173.9(2)
C11 C12 C13 C14 -1.1(3)
C12 C13 C14 C15 -1.7(3)
C12 C13 C14 Cl1 177.52(18)
C13 C14 C15 C16 2.7(4)
Cl1 C14 C15 C16 -176.60(18)
C14 C15 C16 C11 -0.8(4)
C12 C11 C16 C15 -1.9(3)
C10 C11 C16 C15 175.1(2)
N2 C7 C17 C18 -0.7(2)
N3 C7 C17 C18 172.0(2)
N2 C7 C17 C10 -179.07(19)
N3 C7 C17 C10 -6.4(3)
C11 C10 C17 C7 -55.6(3)
S1 C10 C17 C7 72.2(2)
C11 C10 C17 C18 126.5(2)
S1 C10 C17 C18 -105.7(2)
N2 N1 C18 C17 -1.4(2)
N2 N1 C18 C19 -179.90(18)
C7 C17 C18 N1 1.3(2)
C10 C17 C18 N1 179.5(2)
C7 C17 C18 C19 179.6(2)
C10 C17 C18 C19 -2.2(4)
N1 C18 C19 C20 -4.3(3)
C17 C18 C19 C20 177.5(2)
N1 C18 C19 C21 115.6(2)
C17 C18 C19 C21 -62.6(3)
N1 C18 C19 C22 -124.1(2)
C17 C18 C19 C22 57.7(3)

_cod_database_fobs_code 1543166
