#------------------------------------------------------------------------------
#$Date: 2016-04-05 10:45:37 +0300 (Tue, 05 Apr 2016) $
#$Revision: 181514 $
#$URL: svn://www.crystallography.net/cod/cif/1/54/30/1543032.cif $
#------------------------------------------------------------------------------
#
# This file is available in the Crystallography Open Database (COD),
# http://www.crystallography.net/
#
# All data on this site have been placed in the public domain by the
# contributors.
#
data_1543032
loop_
_publ_author_name
'N.N. Golovnev'
'M.S. Molokeev'
'S.N. Vereshchagin'
_publ_section_title
;
 Crystal structure and some properties of europium(III)
 Catena-{tris(1,3-diethyl-2-thiobarbiturate)}
;
_journal_issue                   1
_journal_name_full               'Journal of Structural Chemistry'
_journal_page_first              167
_journal_page_last               174
_journal_paper_doi               10.1134/S0022476616010200
_journal_volume                  57
_journal_year                    2016
_chemical_formula_moiety         'C24 H33 Eu N6 O6 S3'
_chemical_formula_sum            'C24 H33 Eu N6 O6 S3'
_chemical_formula_weight         749.70
_chemical_name_systematic
;
Catena-{tris(mu~2~-1,3-diethyl-2-thiobarbiturato-O,O')}-europium(III)
;
_space_group_crystal_system      triclinic
_space_group_IT_number           2
_space_group_name_Hall           '-P 1'
_space_group_name_H-M_alt        'P -1'
_symmetry_space_group_name_Hall  '-P 1'
_symmetry_space_group_name_H-M   'P -1'
_atom_sites_solution_hydrogens   geom
_audit_creation_method           SHELXL-2014/7
_cell_angle_alpha                100.9330(10)
_cell_angle_beta                 109.7040(10)
_cell_angle_gamma                101.1610(10)
_cell_formula_units_Z            2
_cell_length_a                   11.0205(2)
_cell_length_b                   11.8811(3)
_cell_length_c                   12.7312(2)
_cell_measurement_temperature    296(2)
_cell_volume                     1479.88(5)
_computing_cell_refinement       'APEX2 (Bruker, 2003-2008)'
_computing_data_collection       'APEX2 (Bruker, 2003-2008)'
_computing_data_reduction        'SAINT (Bruker, 2009)'
_computing_molecular_graphics    'DIAMOND (Brandenburg, 2005)'
_computing_publication_material  'publCIF (Westrip, 2009)'
_computing_structure_refinement  'SHELXL-2014/7 (Sheldrick, 2014)'
_computing_structure_solution    'SHELXS-2014 (Sheldrick, 2014)'
_diffrn_ambient_temperature      296(2)
_diffrn_measured_fraction_theta_full 0.980
_diffrn_measured_fraction_theta_max 0.974
_diffrn_measurement_device_type  'Bruker APEX-II CCD'
_diffrn_measurement_method       '\f and \w scans'
_diffrn_radiation_source         'sealed tube'
_diffrn_radiation_type           MoK\a
_diffrn_radiation_wavelength     0.71073
_diffrn_reflns_av_R_equivalents  0.0279
_diffrn_reflns_av_unetI/netI     0.0357
_diffrn_reflns_Laue_measured_fraction_full 0.980
_diffrn_reflns_Laue_measured_fraction_max 0.974
_diffrn_reflns_limit_h_max       11
_diffrn_reflns_limit_h_min       -14
_diffrn_reflns_limit_k_max       15
_diffrn_reflns_limit_k_min       -15
_diffrn_reflns_limit_l_max       16
_diffrn_reflns_limit_l_min       -13
_diffrn_reflns_number            18798
_diffrn_reflns_point_group_measured_fraction_full 0.980
_diffrn_reflns_point_group_measured_fraction_max 0.974
_diffrn_reflns_theta_full        25.000
_diffrn_reflns_theta_max         28.306
_diffrn_reflns_theta_min         2.044
_exptl_absorpt_coefficient_mu    2.379
_exptl_absorpt_correction_T_max  0.7453
_exptl_absorpt_correction_T_min  0.5782
_exptl_absorpt_correction_type   multi-scan
_exptl_absorpt_process_details
;
SADABS-2004/1. Bruker AXS Inc., Madison, Wisconsin, USA, 2004
;
_exptl_crystal_colour            colorless
_exptl_crystal_density_diffrn    1.682
_exptl_crystal_description       block
_exptl_crystal_F_000             756
_exptl_crystal_size_max          0.2
_exptl_crystal_size_mid          0.2
_exptl_crystal_size_min          0.2
_refine_diff_density_max         0.777
_refine_diff_density_min         -0.799
_refine_diff_density_rms         0.091
_refine_ls_extinction_coef       0.0034(3)
_refine_ls_extinction_expression Fc^*^=kFc[1+0.001xFc^2^\l^3^/sin(2\q)]^-1/4^
_refine_ls_extinction_method     'SHELXL-2014/7 (Sheldrick 2014'
_refine_ls_goodness_of_fit_ref   0.999
_refine_ls_hydrogen_treatment    constr
_refine_ls_matrix_type           full
_refine_ls_number_parameters     368
_refine_ls_number_reflns         7161
_refine_ls_number_restraints     0
_refine_ls_restrained_S_all      0.999
_refine_ls_R_factor_all          0.0353
_refine_ls_R_factor_gt           0.0269
_refine_ls_shift/su_max          0.028
_refine_ls_shift/su_mean         0.001
_refine_ls_structure_factor_coef Fsqd
_refine_ls_weighting_details
'w=1/[\s^2^(Fo^2^)+(0.0325P)^2^+1.2197P] where P=(Fo^2^+2Fc^2^)/3'
_refine_ls_weighting_scheme      calc
_refine_ls_wR_factor_gt          0.0633
_refine_ls_wR_factor_ref         0.0673
_reflns_Friedel_coverage         0.000
_reflns_Friedel_fraction_full    .
_reflns_Friedel_fraction_max     .
_reflns_number_gt                6275
_reflns_number_total             7161
_reflns_threshold_expression     'I > 2\s(I)'
_cod_data_source_file            EuDETBA3.cif
_cod_data_source_block           a
_cod_database_code               1543032
_shelx_shelxl_version_number     2014/7
_shelx_space_group_comment
;
The symmetry employed for this shelxl refinement is uniquely defined
by the following loop, which should always be used as a source of
symmetry information in preference to the above space-group names.
They are only intended as comments.
;
_shelx_res_file
;

    a.res created by SHELXL-2014/7

TITL a in P-1
CELL 0.71073  11.0205  11.8811  12.7312 100.933 109.704 101.161
ZERR    2.00   0.0002   0.0003   0.0002   0.001   0.001   0.001
LATT  1
SFAC C N O S EU H
UNIT 48 12 12 6 2 66

TEMP 23.000

ACTA 50
CONF
HTAB
BOND $H
L.S. 4
BOND
FMAP 2
PLAN 40

OMIT 0 1 0

WGHT    0.032500    1.219700
EXTI    0.003402
FVAR       0.13114
EU    5    0.162042    0.961064    0.290720    11.00000    0.02158    0.03185 =
         0.01992    0.01307    0.00793    0.01225
S1    4    0.479640    0.512547    0.250102    11.00000    0.06746    0.04086 =
         0.06636   -0.00168    0.01048    0.02241
O1A   3    0.302199    0.863089    0.253308    11.00000    0.05050    0.06878 =
         0.05838    0.03087    0.02892    0.03751
O2A   3    0.715701    0.901025    0.543471    11.00000    0.05603    0.04744 =
         0.03937    0.00731    0.00601    0.00307
N1A   2    0.603336    0.727952    0.400188    11.00000    0.03753    0.03921 =
         0.04014    0.00738    0.00958    0.01535
N3A   2    0.398722    0.709203    0.252158    11.00000    0.03457    0.04504 =
         0.03593    0.00927    0.01185    0.01590
C2A   1    0.495052    0.655951    0.302637    11.00000    0.03870    0.04151 =
         0.03844    0.00786    0.01433    0.01512
C4A   1    0.403756    0.826354    0.299632    11.00000    0.04307    0.05097 =
         0.04182    0.02291    0.02673    0.02623
C5A   1    0.516895    0.894697    0.393025    11.00000    0.05410    0.03361 =
         0.03944    0.01284    0.02300    0.01735
AFIX  43
H5A   6    0.527415    0.975916    0.419410    11.00000   -1.20000
AFIX   0
C6A   1    0.615402    0.846507    0.448877    11.00000    0.04083    0.03790 =
         0.03579    0.00990    0.01371    0.00798
C7A   1    0.711220    0.677860    0.461449    11.00000    0.04789    0.05888 =
         0.05996    0.01103    0.00368    0.02943
AFIX  23
H71A  6    0.797073    0.737354    0.489079    11.00000   -1.20000
H72A  6    0.712951    0.609473    0.407104    11.00000   -1.20000
AFIX   0
C8A   1    0.692938    0.640589    0.561178    11.00000    0.08947    0.05697 =
         0.07091    0.02543    0.00345    0.02703
AFIX 137
H81A  6    0.768079    0.614014    0.601040    11.00000   -1.20000
H82A  6    0.611985    0.576629    0.533528    11.00000   -1.20000
H83A  6    0.686916    0.707001    0.613513    11.00000   -1.20000
AFIX   0
C9A   1    0.285283    0.640178    0.139911    11.00000    0.04587    0.07301 =
         0.03328    0.00795    0.00918    0.02014
AFIX  23
H91A  6    0.316649    0.585859    0.095117    11.00000   -1.20000
H92A  6    0.256322    0.695025    0.095763    11.00000   -1.20000
AFIX   0
C10A  1    0.168162    0.570272    0.156653    11.00000    0.04808    0.11756 =
         0.05628    0.00255    0.01308   -0.00181
AFIX 137
H11A  6    0.198765    0.525314    0.210491    11.00000   -1.20000
H12A  6    0.105246    0.516674    0.083547    11.00000   -1.20000
H13A  6    0.125332    0.623975    0.186662    11.00000   -1.20000
AFIX   0

S2    4    0.152774    0.589041    0.669355    11.00000    0.07158    0.05255 =
         0.06633    0.03963    0.03668    0.03198
O1B   3    0.143453    0.848284    0.409089    11.00000    0.06262    0.05329 =
         0.03735    0.02322    0.02345    0.01548
O2B   3    0.007109    0.957302    0.714745    11.00000    0.04313    0.06829 =
         0.04923    0.01441    0.02025    0.03390
N1B   2    0.069763    0.785456    0.684198    11.00000    0.03621    0.05404 =
         0.03604    0.02249    0.01777    0.02126
N3B   2    0.134287    0.730370    0.528992    11.00000    0.04082    0.03544 =
         0.03480    0.01519    0.01797    0.01460
C2B   1    0.117523    0.706696    0.625981    11.00000    0.03246    0.04432 =
         0.03821    0.02038    0.01478    0.01441
C4B   1    0.124525    0.836029    0.499653    11.00000    0.03514    0.04096 =
         0.03236    0.01816    0.00953    0.01028
C5B   1    0.092756    0.918957    0.570549    11.00000    0.04476    0.04488 =
         0.04344    0.02278    0.01578    0.02128
AFIX  43
H5B   6    0.097024    0.994457    0.559231    11.00000   -1.20000
AFIX   0
C6B   1    0.054832    0.891746    0.657793    11.00000    0.03213    0.04883 =
         0.03726    0.01382    0.00981    0.02037
C7B   1    0.042136    0.762022    0.785030    11.00000    0.04898    0.08903 =
         0.04885    0.03833    0.03070    0.03385
AFIX  23
H71B  6    0.015627    0.676585    0.774505    11.00000   -1.20000
H72B  6   -0.031651    0.792881    0.789984    11.00000   -1.20000
AFIX   0
C8B   1    0.164989    0.820241    0.897039    11.00000    0.06901    0.14596 =
         0.04321    0.03898    0.02647    0.06514
AFIX 137
H81B  6    0.237810    0.789167    0.892495    11.00000   -1.20000
H82B  6    0.144711    0.803355    0.961042    11.00000   -1.20000
H83B  6    0.190104    0.905002    0.908383    11.00000   -1.20000
AFIX   0
C9B   1    0.173629    0.644612    0.455846    11.00000    0.05758    0.04166 =
         0.04289    0.01288    0.02542    0.01448
AFIX  23
H91B  6    0.136550    0.648020    0.376132    11.00000   -1.20000
H92B  6    0.136628    0.564431    0.457919    11.00000   -1.20000
AFIX   0
C10B  1    0.325238    0.671443    0.496965    11.00000    0.06126    0.05793 =
         0.06391    0.01981    0.03891    0.02453
AFIX 137
H11B  6    0.360660    0.654667    0.570433    11.00000   -1.20000
H12B  6    0.363167    0.754080    0.505307    11.00000   -1.20000
H13B  6    0.347690    0.622537    0.441138    11.00000   -1.20000
AFIX   0

S3    4   -0.498579    0.733368    0.000244    11.00000    0.03663    0.09397 =
         0.08142    0.05293    0.03018    0.01632
O1C   3   -0.004040    0.825502    0.142404    11.00000    0.03617    0.05717 =
         0.03737    0.01088    0.00489    0.01652
O2C   3   -0.231830    0.917231   -0.198149    11.00000    0.05837    0.05736 =
         0.04915    0.03134    0.02963    0.02311
N1C   2   -0.347532    0.827598   -0.103382    11.00000    0.02955    0.04902 =
         0.03498    0.01865    0.01161    0.00891
N3C   2   -0.232802    0.786012    0.070641    11.00000    0.03309    0.05002 =
         0.03371    0.01996    0.01352    0.01126
C2C   1   -0.353665    0.783786   -0.011409    11.00000    0.03319    0.04895 =
         0.03943    0.02260    0.01392    0.00980
C4C   1   -0.110986    0.827012    0.062047    11.00000    0.03094    0.03620 =
         0.03583    0.00723    0.01174    0.00878
C5C   1   -0.111263    0.868940   -0.031231    11.00000    0.03075    0.04760 =
         0.04082    0.01614    0.01742    0.00943
AFIX  43
H5C   6   -0.030432    0.894928   -0.039150    11.00000   -1.20000
AFIX   0
C6C   1   -0.228006    0.873584   -0.113454    11.00000    0.04130    0.03902 =
         0.03487    0.01466    0.02021    0.01122
C7C   1   -0.472684    0.825195   -0.196085    11.00000    0.03584    0.08228 =
         0.04242    0.02965    0.00513    0.00882
AFIX  23
H71C  6   -0.542879    0.755692   -0.206361    11.00000   -1.20000
H72C  6   -0.459279    0.817432   -0.268325    11.00000   -1.20000
AFIX   0
C8C   1   -0.517879    0.935638   -0.170451    11.00000    0.05849    0.10489 =
         0.08331    0.05985    0.02889    0.04314
AFIX 137
H81C  6   -0.542959    0.938134   -0.104963    11.00000   -1.20000
H82C  6   -0.593585    0.933825   -0.236843    11.00000   -1.20000
H83C  6   -0.445848    1.005224   -0.153238    11.00000   -1.20000
AFIX   0
C9C   1   -0.231486    0.737177    0.169607    11.00000    0.05507    0.08204 =
         0.04729    0.03977    0.02225    0.02077
AFIX  23
H91C  6   -0.307391    0.747773    0.188694    11.00000   -1.20000
H92C  6   -0.150080    0.780733    0.236940    11.00000   -1.20000
AFIX   0
C10C  1   -0.238291    0.608034    0.141395    11.00000    0.12063    0.08805 =
         0.11105    0.06800    0.05887    0.05017
AFIX 137
H11C  6   -0.167378    0.596744    0.116433    11.00000   -1.20000
H12C  6   -0.323338    0.563694    0.080432    11.00000   -1.20000
H13C  6   -0.228543    0.580403    0.209133    11.00000   -1.20000
AFIX   0
HKLF 4

REM  a in P-1
REM R1 =  0.0269 for    6275 Fo > 4sig(Fo)  and  0.0353 for all    7161 data
REM    368 parameters refined using      0 restraints

END

WGHT      0.0243      1.2485

REM Instructions for potential hydrogen bonds
HTAB C8A O2A
HTAB C10A S1
EQIV $1 x+1, y, z+1
HTAB C8B S3_$1
HTAB C10B S2
EQIV $2 -x, -y+1, -z+1
HTAB C10C S2_$2

REM Highest difference peak  0.777,  deepest hole -0.799,  1-sigma level  0.091
Q1    1   0.1644  1.0399  0.3160  11.00000  0.05    0.78
Q2    1   0.1567  0.8841  0.2612  11.00000  0.05    0.78
Q3    1  -0.5129  0.8780 -0.1327  11.00000  0.05    0.67
Q4    1   0.2195  0.9355  0.2312  11.00000  0.05    0.65
Q5    1   0.1144  0.9934  0.3555  11.00000  0.05    0.58
Q6    1   0.1315  0.9423  0.3123  11.00000  0.05    0.54
Q7    1  -0.2154  0.9549 -0.2581  11.00000  0.05    0.45
Q8    1   0.0766  0.6258  0.6416  11.00000  0.05    0.43
Q9    1   0.2035  0.9925  0.2864  11.00000  0.05    0.43
Q10   1   0.1460  0.6787  0.7053  11.00000  0.05    0.41
Q11   1  -0.4519  0.8211  0.0609  11.00000  0.05    0.40
Q12   1   0.5234  0.5978  0.2668  11.00000  0.05    0.40
Q13   1   0.0587  0.9599  0.1893  11.00000  0.05    0.39
Q14   1   0.7087  0.9426  0.6070  11.00000  0.05    0.39
Q15   1   0.1805  0.6772  0.6657  11.00000  0.05    0.38
Q16   1   0.3030  0.9716  0.3316  11.00000  0.05    0.38
Q17   1   0.4440  0.5778  0.2553  11.00000  0.05    0.38
Q18   1  -0.4730  0.8271 -0.0206  11.00000  0.05    0.38
Q19   1   0.2064  0.8763  0.3522  11.00000  0.05    0.37
Q20   1  -0.0200  1.0013  0.6276  11.00000  0.05    0.36
Q21   1  -0.0433  1.0213  0.7576  11.00000  0.05    0.35
Q22   1  -0.4699  0.7983 -0.0304  11.00000  0.05    0.35
Q23   1   0.3607  0.9564  0.3859  11.00000  0.05    0.35
Q24   1   0.0810  0.5906  0.6955  11.00000  0.05    0.35
Q25   1   0.1298  0.8823  0.3423  11.00000  0.05    0.34
Q26   1  -0.0909  0.8970  0.7043  11.00000  0.05    0.34
Q27   1   0.1614  0.6358  0.6176  11.00000  0.05    0.32
Q28   1  -0.4777  0.8231 -0.0972  11.00000  0.05    0.31
Q29   1   0.3917  0.5228  0.1867  11.00000  0.05    0.31
Q30   1   0.1199  0.5363  0.7315  11.00000  0.05    0.31
Q31   1   0.2953  0.8646  0.3696  11.00000  0.05    0.31
Q32   1   0.1416  1.0555  0.2489  11.00000  0.05    0.31
Q33   1  -0.0355  0.7070  0.5608  11.00000  0.05    0.31
Q34   1  -0.4080  0.7808  0.0212  11.00000  0.05    0.30
Q35   1  -0.5676  0.7870 -0.1546  11.00000  0.05    0.30
Q36   1  -0.5566  0.7318 -0.0839  11.00000  0.05    0.29
Q37   1  -0.3021  0.8627 -0.3197  11.00000  0.05    0.29
Q38   1   0.8864  0.7094  0.5617  11.00000  0.05    0.29
Q39   1   0.1854  0.4327  0.1144  11.00000  0.05    0.29
Q40   1   0.1371  0.9195  0.3882  11.00000  0.05    0.29
;
_shelx_res_checksum              27152
_shelx_hkl_file
;
  -1   0   0   41.34    1.14
  -1   0   0   40.69    1.12
   1   0   0   43.59    1.13
  -2   0   0   21.37    0.72
  -2   0   0   22.19    0.70
  -2   0   0   22.78    0.71
   2   0   0   22.58    0.73
   2   0   0   21.88    0.69
   2   0   0   22.69    0.70
  -3   0   0  479.09   12.68
  -3   0   0  498.71   12.53
  -3   0   0  467.22   12.52
   3   0   0  493.85   12.68
   3   0   0  475.01   12.51
   3   0   0  490.99   12.53
  -4   0   0   23.07    0.85
  -4   0   0   23.44    0.86
  -4   0   0   22.97    0.91
   4   0   0   22.13    0.83
   4   0   0   23.37    0.91
   4   0   0   23.42    0.85
  -5   0   0    1.64    0.33
  -5   0   0    1.54    0.39
  -5   0   0    1.88    0.34
   5   0   0    1.77    0.36
   5   0   0    1.49    0.31
   5   0   0    1.77    0.31
  -6   0   0  220.56    6.15
  -6   0   0  232.50    6.04
  -6   0   0  222.74    6.03
   6   0   0  218.00    6.02
   6   0   0  230.34    6.14
   6   0   0  216.79    5.99
  -7   0   0   30.12    1.23
  -7   0   0   30.47    1.34
  -7   0   0   32.00    1.22
   7   0   0   31.46    1.21
   7   0   0   31.99    1.29
  -8   0   0    7.17    0.66
  -8   0   0    6.89    0.63
  -8   0   0    5.21    0.72
   8   0   0    6.39    0.62
  -9   0   0   69.75    2.28
  -9   0   0   68.84    2.45
  -9   0   0   68.79    2.32
   9   0   0   69.82    2.28
 -10   0   0    5.62    0.86
 -10   0   0    6.92    0.74
 -10   0   0    6.44    0.69
  10   0   0    6.76    0.72
 -11   0   0    0.67    0.68
 -11   0   0    0.56    0.53
  11   0   0    0.12    0.49
 -12   0   0   21.79    1.35
 -12   0   0   21.02    1.58
 -13   1   0    8.96    0.99
 -12   1   0   24.10    1.37
 -12   1   0   23.06    1.60
  11  -1   0    8.79    0.82
 -11   1   0   11.31    0.95
 -11   1   0    9.60    1.02
  10  -1   0    8.81    0.75
 -10   1   0    6.83    0.69
 -10   1   0    7.35    0.74
 -10   1   0    5.43    0.81
   9  -1   0   21.64    1.05
  -9   1   0   22.45    1.28
  -9   1   0   22.10    1.07
  -9   1   0   18.88    1.08
   8  -1   0   46.30    1.61
  -8   1   0   46.48    1.62
  -8   1   0   47.12    1.79
  -8   1   0   44.90    1.64
   7  -1   0    5.47    0.53
   7  -1   0    5.98    0.50
  -7   1   0    5.30    0.51
  -7   1   0    5.69    0.63
  -7   1   0    5.31    0.54
   6  -1   0  103.98    3.01
   6  -1   0  105.52    2.99
  -6   1   0  113.28    3.03
  -6   1   0  103.61    3.01
  -6   1   0  103.86    3.12
   5  -1   0  142.53    3.90
   5  -1   0  140.20    3.91
  -5   1   0  143.40    4.02
  -5   1   0  142.96    3.92
  -5   1   0  149.28    3.93
   4  -1   0   12.08    0.56
   4  -1   0   12.07    0.58
  -4   1   0   12.07    0.58
  -4   1   0   12.46    0.67
  -4   1   0   13.19    0.60
   3  -1   0  267.02    6.99
   3  -1   0  264.86    7.00
  -3   1   0  269.56    7.11
  -3   1   0  271.37    7.00
  -3   1   0  269.64    7.00
   2  -1   0  289.77    7.31
   2  -1   0  277.45    7.32
  -2   1   0  288.41    7.32
  -2   1   0  276.42    7.31
   1  -1   0   81.76    2.16
   1  -1   0   82.91    2.16
  -1   1   0   79.76    2.15
  -1   1   0   84.42    2.16
   0  -1   0  119.24    3.15
  -1  -1   0  278.23    6.97
  -1  -1   0  265.44    6.94
  -1  -1   0  259.41    6.86
   1   1   0  265.41    6.97
   1   1   0  263.12    6.86
   1   1   0  258.92    6.93
  -2  -1   0   93.73    2.47
  -2  -1   0   89.86    2.51
  -2  -1   0   89.26    2.46
   2   1   0   88.90    2.46
   2   1   0   87.88    2.46
   2   1   0   94.59    2.51
  -3  -1   0    1.36    0.29
  -3  -1   0    1.01    0.27
  -3  -1   0    1.20    0.33
   3   1   0    1.06    0.27
   3   1   0    0.82    0.31
   3   1   0    1.31    0.28
  -4  -1   0   61.81    1.92
  -4  -1   0   64.11    1.86
  -4  -1   0   60.02    1.85
   4   1   0   61.52    1.84
   4   1   0   65.34    1.91
   4   1   0   61.57    1.85
  -5  -1   0    1.05    0.33
  -5  -1   0    0.92    0.37
  -5  -1   0    0.88    0.31
   5   1   0    0.90    0.30
   5   1   0    0.97    0.29
   5   1   0    0.74    0.34
  -6  -1   0   18.43    0.91
  -6  -1   0   19.72    1.03
  -6  -1   0   20.67    0.91
   6   1   0   19.36    0.89
   6   1   0   19.03    0.95
   6   1   0   19.25    0.87
  -7  -1   0   65.91    2.18
  -7  -1   0   67.81    2.30
  -7  -1   0   69.74    2.16
   7   1   0   67.59    2.17
   7   1   0   68.28    2.23
  -8  -1   0   10.13    0.78
  -8  -1   0   11.02    0.87
  -8  -1   0   10.02    0.88
   8   1   0    9.74    0.79
  -9  -1   0   19.29    1.29
  -9  -1   0   20.45    1.08
  -9  -1   0   21.04    1.17
   9   1   0   20.84    1.10
 -10  -1   0   21.68    1.41
 -10  -1   0   20.46    1.22
  10   1   0   19.42    1.15
 -11  -1   0   -1.03    0.64
 -12  -1   0    6.14    1.03
 -13   2   0    8.16    0.91
 -13   2   0    5.78    1.03
 -12   2   0   26.19    1.39
 -12   2   0   22.31    1.53
  11  -2   0   28.19    1.35
 -11   2   0   30.46    1.43
 -11   2   0   28.27    1.59
  10  -2   0    8.75    0.75
 -10   2   0    9.71    0.95
 -10   2   0    9.13    0.80
 -10   2   0    8.29    0.76
   9  -2   0   19.61    1.01
  -9   2   0   21.05    1.04
  -9   2   0   22.19    1.26
  -9   2   0   21.76    1.11
   8  -2   0   81.93    2.48
  -8   2   0   78.11    2.48
  -8   2   0   81.36    2.63
  -8   2   0   82.59    2.49
   7  -2   0    9.65    0.66
   7  -2   0   10.44    0.63
  -7   2   0   11.45    0.69
  -7   2   0   11.67    0.84
  -7   2   0    9.28    0.68
   6  -2   0  119.71    3.21
   6  -2   0  111.26    3.21
  -6   2   0  116.43    3.23
  -6   2   0  113.53    3.34
  -6   2   0  112.92    3.22
   5  -2   0   50.88    1.50
   5  -2   0   47.99    1.51
  -5   2   0   50.30    1.53
  -5   2   0   48.49    1.61
  -5   2   0   49.35    1.52
   4  -2   0    2.44    0.29
   4  -2   0    3.05    0.32
  -4   2   0    2.01    0.31
  -4   2   0    2.12    0.29
   3  -2   0  257.59    6.58
   3  -2   0  247.67    6.59
  -3   2   0  248.83    6.59
  -3   2   0  254.94    6.59
   2  -2   0  104.57    2.78
   2  -2   0  104.62    2.79
  -2   2   0  102.59    2.78
  -2   2   0  106.51    2.79
   1  -2   0   62.50    1.69
   1  -2   0   61.62    1.70
  -1   2   0   61.52    1.69
  -1   2   0   62.96    1.70
   0  -2   0    0.70    0.20
   0  -2   0    1.20    0.22
   0  -2   0    1.11    0.22
   0   2   0    0.84    0.23
   0   2   0    1.31    0.21
   0   2   0    0.66    0.21
  -1  -2   0   53.65    1.56
  -1  -2   0   55.56    1.56
  -1  -2   0   52.65    1.59
   1   2   0   52.92    1.56
   1   2   0   57.48    1.57
   1   2   0   52.37    1.58
  -2  -2   0    0.66    0.27
  -2  -2   0    0.64    0.26
  -2  -2   0    1.09    0.35
   2   2   0    0.91    0.27
   2   2   0    0.76    0.32
   2   2   0    0.86    0.27
  -3  -2   0  139.56    3.69
  -3  -2   0  129.64    3.74
   3   2   0  133.35    3.67
   3   2   0  131.39    3.68
   3   2   0  139.30    3.74
  -4  -2   0   21.18    0.95
  -4  -2   0   22.39    0.89
   4   2   0   20.36    0.86
   4   2   0   21.12    0.87
   4   2   0   21.83    0.93
  -5  -2   0    0.13    0.30
  -5  -2   0    1.18    0.45
  -5  -2   0    0.09    0.34
   5   2   0    0.45    0.33
   5   2   0    0.54    0.31
   5   2   0    0.91    0.37
  -6  -2   0   63.09    2.06
  -6  -2   0   63.27    2.14
  -6  -2   0   62.72    2.02
   6   2   0   63.00    2.09
   6   2   0   63.25    2.03
   6   2   0   65.94    2.06
  -7  -2   0   76.01    2.55
  -7  -2   0   77.40    2.42
   7   2   0   77.11    2.44
   7   2   0   75.93    2.48
  -8  -2   0    0.41    0.57
  -8  -2   0    0.42    0.39
   8   2   0    0.67    0.45
  -9  -2   0   27.15    1.52
   9   2   0   29.76    1.36
 -10  -2   0   33.10    1.72
  10   2   0   31.51    1.48
 -11  -2   0    0.01    0.73
 -11  -2   0   -0.77    0.54
 -12  -2   0    3.41    0.78
 -12  -2   0    3.07    0.94
 -13   3   0   -0.84    0.55
 -13   3   0   -1.29    0.71
 -12   3   0   27.58    1.65
 -12   3   0   28.22    1.43
 -11   3   0   20.95    1.40
 -11   3   0   24.36    1.28
  10  -3   0    1.66    0.47
 -10   3   0    1.71    0.47
 -10   3   0    1.41    0.65
 -10   3   0    1.32    0.51
   9  -3   0   66.63    2.20
  -9   3   0   68.78    2.24
  -9   3   0   70.19    2.42
  -9   3   0   70.77    2.23
   8  -3   0   72.92    2.26
  -8   3   0   73.69    2.27
  -8   3   0   72.25    2.43
  -8   3   0   73.34    2.29
   7  -3   0    1.15    0.32
   7  -3   0    1.15    0.35
  -7   3   0    1.62    0.39
  -7   3   0    1.69    0.38
  -7   3   0    1.07    0.45
   6  -3   0   85.20    2.45
   6  -3   0   85.68    2.47
  -6   3   0   89.13    2.50
  -6   3   0   83.79    2.48
  -6   3   0   84.29    2.59
   5  -3   0  195.56    5.15
   5  -3   0  188.82    5.16
  -5   3   0  197.10    5.17
  -5   3   0  189.43    5.16
   4  -3   0   26.68    0.92
   4  -3   0   26.54    0.91
  -4   3   0   27.42    0.94
  -4   3   0   26.72    0.93
   3  -3   0   99.85    2.78
   3  -3   0  101.06    2.77
  -3   3   0  105.46    2.80
  -3   3   0  102.57    2.78
   2  -3   0  307.79    8.07
   2  -3   0  314.71    8.06
  -2   3   0  322.13    8.07
  -2   3   0  294.98    8.05
   1  -3   0   31.79    1.00
   1  -3   0   31.20    1.00
  -1   3   0   30.23    0.99
  -1   3   0   32.19    1.01
   0  -3   0    6.77    0.49
   0  -3   0    7.35    0.53
   0  -3   0    6.93    0.50
   0   3   0    6.87    0.49
   0   3   0    6.68    0.50
   0   3   0    6.76    0.58
  -1  -3   0  166.09    4.30
  -1  -3   0  154.66    4.29
  -1  -3   0  160.49    4.37
   1   3   0  154.28    4.35
   1   3   0  154.53    4.29
   1   3   0  165.14    4.30
  -2  -3   0    2.91    0.40
  -2  -3   0    2.28    0.35
  -2  -3   0    2.71    0.43
   2   3   0    2.08    0.34
   2   3   0    2.81    0.43
  -3  -3   0   24.96    0.99
  -3  -3   0   24.81    0.97
  -3  -3   0   23.24    1.03
   3   3   0   25.30    0.98
   3   3   0   25.60    1.02
   3   3   0   25.72    0.98
  -4  -3   0  110.30    3.32
  -4  -3   0  114.11    3.24
  -4  -3   0  112.01    3.25
   4   3   0  114.37    3.26
   4   3   0  115.77    3.23
   4   3   0  115.68    3.30
  -5  -3   0   25.37    1.18
  -5  -3   0   24.05    1.07
  -5  -3   0   24.30    1.05
   5   3   0   24.14    1.02
   5   3   0   24.91    1.08
   5   3   0   24.38    1.10
  -6  -3   0   24.83    1.15
  -6  -3   0   24.50    1.11
  -6  -3   0   22.30    1.24
   6   3   0   26.03    1.16
   6   3   0   26.51    1.18
  -7  -3   0   86.31    2.76
  -7  -3   0   89.36    2.93
  -7  -3   0   87.53    2.81
   7   3   0   89.27    2.81
   7   3   0   92.48    2.90
  -8  -3   0    4.65    0.78
  -8  -3   0    4.59    0.66
   8   3   0    4.07    0.64
  -9  -3   0   12.18    1.11
  -9  -3   0   13.00    1.09
   9   3   0   12.87    1.01
 -10  -3   0   22.23    1.38
 -10  -3   0   23.91    1.56
  10   3   0   19.50    1.27
 -11  -3   0    7.57    0.97
 -11  -3   0    7.51    1.10
 -12  -3   0    2.23    0.76
 -13   4   0    0.85    0.77
 -13   4   0    1.42    0.65
 -12   4   0   14.54    1.13
 -12   4   0   14.86    1.26
 -11   4   0   13.82    1.05
 -11   4   0   13.91    1.22
  10  -4   0   -0.03    0.37
 -10   4   0    0.09    0.40
 -10   4   0   -0.27    0.56
 -10   4   0    0.46    0.47
   9  -4   0   44.40    1.60
  -9   4   0   44.72    1.63
  -9   4   0   44.98    1.82
  -9   4   0   46.64    1.67
   8  -4   0   10.71    0.73
  -8   4   0   12.83    0.78
  -8   4   0   12.10    0.96
  -8   4   0   10.48    0.78
   7  -4   0   24.43    1.00
   7  -4   0   24.36    0.97
  -7   4   0   25.50    1.04
  -7   4   0   24.96    1.04
   6  -4   0   32.13    1.12
   6  -4   0   30.34    1.09
  -6   4   0   30.08    1.13
  -6   4   0   32.72    1.15
   5  -4   0  141.88    3.96
   5  -4   0  145.74    3.95
  -5   4   0  152.85    3.99
  -5   4   0  141.27    3.96
   4  -4   0   21.98    0.83
   4  -4   0   21.64    0.81
  -4   4   0   21.54    0.82
  -4   4   0   22.78    0.86
   3  -4   0  157.64    4.16
   3  -4   0  152.55    4.16
  -3   4   0  162.01    4.18
  -3   4   0  147.77    4.15
   2  -4   0    0.71    0.28
   2  -4   0    1.44    0.30
  -2   4   0    1.53    0.32
  -2   4   0    0.69    0.27
   1  -4   0   69.65    1.99
   1  -4   0   65.77    1.99
  -1   4   0   64.01    1.97
  -1   4   0   71.52    2.01
   0  -4   0    5.16    0.47
   0  -4   0    6.33    0.51
   0   4   0    4.66    0.55
   0   4   0    5.59    0.48
   0   4   0    6.05    0.48
  -1  -4   0   43.79    1.43
  -1  -4   0   42.24    1.43
   1   4   0   43.02    1.43
   1   4   0   43.81    1.44
   1   4   0   42.61    1.49
  -2  -4   0   95.44    2.91
  -2  -4   0  101.33    2.85
  -2  -4   0   98.13    2.85
   2   4   0   99.12    2.89
   2   4   0   99.35    2.84
   2   4   0   96.56    2.84
  -3  -4   0   22.40    0.96
  -3  -4   0   21.36    0.95
  -3  -4   0   21.60    1.05
   3   4   0   21.50    0.96
   3   4   0   20.17    0.92
   3   4   0   21.61    0.99
  -4  -4   0   34.16    1.41
  -4  -4   0   35.50    1.31
  -4  -4   0   32.09    1.30
   4   4   0   33.73    1.32
   4   4   0   34.07    1.35
   4   4   0   36.18    1.30
  -5  -4   0   17.85    0.98
  -5  -4   0   17.76    1.10
  -5  -4   0   18.21    0.95
   5   4   0   19.58    1.04
   5   4   0   18.41    0.99
  -6  -4   0   19.48    1.24
  -6  -4   0   17.68    1.00
  -6  -4   0   18.89    1.08
   6   4   0   19.90    1.07
   6   4   0   17.70    1.06
  -7  -4   0   14.34    1.21
  -7  -4   0   14.15    1.02
   7   4   0   13.00    0.99
  -8  -4   0    8.73    0.96
  -8  -4   0    8.90    0.88
   8   4   0    9.21    0.86
  -9  -4   0    2.71    0.65
  -9  -4   0    1.09    0.74
   9   4   0    1.92    0.59
 -10  -4   0   11.57    1.19
 -10  -4   0   10.35    1.04
  10   4   0   11.38    1.03
 -11  -4   0    7.06    0.98
 -11  -4   0    4.82    1.05
 -13   5   0    1.35    0.65
 -13   5   0   -0.49    0.75
 -12   5   0   10.45    1.08
 -12   5   0   14.35    1.09
 -11   5   0   37.78    1.80
 -11   5   0   41.04    1.67
  10  -5   0    0.52    0.38
 -10   5   0   -0.32    0.55
 -10   5   0   -0.01    0.41
 -10   5   0    0.75    0.49
   9  -5   0   21.01    1.00
  -9   5   0   22.13    1.05
  -9   5   0   20.27    1.24
  -9   5   0   20.20    1.08
   8  -5   0   63.39    2.04
  -8   5   0   63.34    2.08
  -8   5   0   67.46    2.09
   7  -5   0    8.40    0.63
  -7   5   0    7.85    0.66
  -7   5   0    6.54    0.58
   6  -5   0   47.36    1.52
   6  -5   0   47.59    1.55
  -6   5   0   45.41    1.56
  -6   5   0   50.47    1.59
   5  -5   0  197.81    5.33
   5  -5   0  202.51    5.32
  -5   5   0  194.38    5.33
  -5   5   0  197.17    5.35
   4  -5   0    2.03    0.32
   4  -5   0    1.75    0.33
  -4   5   0    1.09    0.30
  -4   5   0    2.06    0.36
   3  -5   0   52.29    1.59
   3  -5   0   51.06    1.60
  -3   5   0   50.43    1.58
  -3   5   0   52.48    1.61
   2  -5   0  243.11    6.51
   2  -5   0  242.99    6.52
  -2   5   0  236.16    6.51
  -2   5   0  256.40    6.54
   1  -5   0    0.29    0.30
   1  -5   0    0.39    0.32
  -1   5   0    0.40    0.41
  -1   5   0    0.54    0.32
  -1   5   0    0.88    0.37
   0  -5   0    2.13    0.41
   0  -5   0    3.24    0.44
   0   5   0    2.99    0.51
   0   5   0    2.48    0.43
   0   5   0    2.86    0.43
  -1  -5   0  217.86    5.98
  -1  -5   0  217.38    6.06
  -1  -5   0  225.72    5.96
   1   5   0  222.92    5.98
   1   5   0  215.95    6.04
   1   5   0  217.26    5.96
  -2  -5   0   37.77    1.51
  -2  -5   0   40.51    1.44
  -2  -5   0   40.14    1.43
   2   5   0   40.02    1.44
   2   5   0   39.58    1.48
   2   5   0   39.68    1.43
  -3  -5   0    1.74    0.42
  -3  -5   0    1.71    0.45
  -3  -5   0    3.17    0.58
   3   5   0    2.53    0.48
   3   5   0    1.89    0.49
  -4  -5   0  107.32    3.18
  -4  -5   0  104.89    3.30
  -4  -5   0  108.60    3.21
   4   5   0  101.14    3.18
   4   5   0  106.72    3.17
   4   5   0  108.71    3.24
  -5  -5   0    7.72    0.71
  -5  -5   0    6.23    0.79
  -5  -5   0    8.15    0.74
   5   5   0    7.42    0.74
   5   5   0    8.33    0.74
  -6  -5   0    0.97    0.55
  -6  -5   0    1.98    0.68
   6   5   0    1.77    0.56
  -7  -5   0   40.88    1.92
  -7  -5   0   44.99    1.83
   7   5   0   45.45    1.82
  -8  -5   0    9.57    0.98
  -8  -5   0    9.56    1.05
   8   5   0    8.74    0.92
  -9  -5   0    1.52    0.77
  -9  -5   0    0.46    0.66
   9   5   0   -0.18    0.52
 -10  -5   0   23.50    1.67
 -10  -5   0   19.45    1.48
  10   5   0   21.53    1.40
 -11  -5   0    1.73    0.78
 -13   6   0    7.61    0.87
 -13   6   0    7.83    1.04
 -12   6   0    0.73    0.71
 -12   6   0    1.78    0.61
 -11   6   0   48.59    1.86
 -11   6   0   46.61    2.03
  10  -6   0   33.79    1.41
 -10   6   0   39.00    1.73
 -10   6   0   38.52    1.50
 -10   6   0   37.04    1.53
   9  -6   0    0.27    0.36
  -9   6   0   -0.04    0.40
  -9   6   0    0.22    0.46
   8  -6   0   73.48    2.30
  -8   6   0   75.88    2.35
  -8   6   0   72.99    2.34
   7  -6   0   19.84    0.92
  -7   6   0   18.25    0.96
  -7   6   0   19.77    0.95
   6  -6   0   11.29    0.67
   6  -6   0   10.60    0.70
  -6   6   0   12.22    0.74
  -6   6   0   11.14    0.71
   5  -6   0   52.85    1.71
   5  -6   0   53.87    1.72
  -5   6   0   52.98    1.73
  -5   6   0   57.04    1.76
   4  -6   0   50.66    1.60
   4  -6   0   48.21    1.59
  -4   6   0   52.61    1.63
  -4   6   0   47.33    1.58
   3  -6   0    0.04    0.29
   3  -6   0    0.11    0.29
  -3   6   0   -0.06    0.31
  -3   6   0    0.53    0.29
   2  -6   0   71.06    2.18
   2  -6   0   71.90    2.18
  -2   6   0   73.89    2.20
  -2   6   0   69.55    2.17
   1  -6   0   98.05    2.86
   1  -6   0   95.09    2.86
  -1   6   0   98.31    2.98
  -1   6   0  100.24    2.89
  -1   6   0   94.10    2.84
   0  -6   0    2.36    0.42
   0  -6   0    1.90    0.44
   0   6   0    2.33    0.45
   0   6   0    1.58    0.41
   0   6   0    2.06    0.53
  -1  -6   0   34.55    1.42
  -1  -6   0   35.74    1.39
   1   6   0   35.19    1.37
   1   6   0   35.56    1.45
   1   6   0   34.93    1.36
  -2  -6   0   90.33    2.78
  -2  -6   0   90.08    2.74
  -2  -6   0   86.60    2.84
   2   6   0   90.85    2.82
   2   6   0   87.29    2.74
   2   6   0   91.06    2.77
  -3  -6   0    1.31    0.48
  -3  -6   0    1.21    0.45
  -3  -6   0    1.11    0.56
   3   6   0    1.46    0.52
   3   6   0    1.76    0.52
  -4  -6   0   48.50    1.95
  -4  -6   0   47.40    1.79
  -4  -6   0   50.53    1.86
   4   6   0   48.84    1.86
   4   6   0   49.48    1.84
  -5  -6   0   32.82    1.51
  -5  -6   0   31.96    1.61
   5   6   0   32.25    1.48
  -6  -6   0   -0.65    0.47
  -6  -6   0    0.22    0.66
   6   6   0    0.19    0.51
  -7  -6   0   20.34    1.32
  -7  -6   0   19.95    1.49
   7   6   0   19.49    1.28
  -8  -6   0   24.04    1.69
  -8  -6   0   24.94    1.51
   8   6   0   23.76    1.44
  -9  -6   0    0.13    0.66
  -9  -6   0    0.15    0.79
   9   6   0    0.23    0.62
 -10  -6   0    6.56    1.12
 -10  -6   0    5.45    0.97
 -13   7   0   17.67    1.28
 -12   7   0    1.47    0.62
 -12   7   0    0.49    0.66
 -11   7   0   11.52    1.04
 -11   7   0    9.56    0.87
  10  -7   0   24.15    1.14
 -10   7   0   24.71    1.41
 -10   7   0   25.63    1.28
   9  -7   0    1.63    0.43
  -9   7   0    2.40    0.51
  -9   7   0    0.66    0.51
   8  -7   0   18.00    0.95
  -8   7   0   20.14    1.03
  -8   7   0   20.79    1.07
   7  -7   0    8.17    0.65
  -7   7   0    8.54    0.69
  -7   7   0    7.25    0.63
   6  -7   0    0.78    0.36
  -6   7   0    0.13    0.38
  -6   7   0    1.24    0.41
   5  -7   0   53.86    1.76
   5  -7   0   54.82    1.76
  -5   7   0   51.86    1.76
  -5   7   0   54.03    1.79
   4  -7   0   21.83    0.98
   4  -7   0   22.82    1.00
  -4   7   0   23.07    1.03
  -4   7   0   22.89    0.99
   3  -7   0    0.56    0.35
   3  -7   0    0.88    0.39
  -3   7   0    0.27    0.35
  -3   7   0   -0.05    0.36
   2  -7   0   51.37    1.76
   2  -7   0   50.30    1.74
  -2   7   0   53.61    1.88
  -2   7   0   52.56    1.77
  -2   7   0   50.78    1.74
   1  -7   0   72.01    2.28
   1  -7   0   69.61    2.23
  -1   7   0   68.87    2.37
  -1   7   0   70.18    2.25
  -1   7   0   71.74    2.27
   0  -7   0   -0.06    0.41
   0  -7   0    0.33    0.37
   0   7   0    0.16    0.38
   0   7   0    0.46    0.42
   0   7   0    0.15    0.53
  -1  -7   0   70.29    2.42
  -1  -7   0   74.78    2.40
   1   7   0   71.24    2.35
   1   7   0   73.27    2.46
   1   7   0   72.24    2.36
  -2  -7   0   34.22    1.41
  -2  -7   0   34.58    1.48
  -2  -7   0   31.96    1.54
   2   7   0   34.22    1.52
   2   7   0   32.80    1.45
   2   7   0   33.81    1.42
  -3  -7   0   -0.02    0.57
  -3  -7   0    0.13    0.49
   3   7   0   -0.05    0.47
   3   7   0    0.25    0.52
  -4  -7   0   78.40    2.61
  -4  -7   0   74.34    2.71
   4   7   0   73.57    2.58
  -5  -7   0   16.27    1.20
  -5  -7   0   16.38    1.35
   5   7   0   16.98    1.16
  -6  -7   0    4.30    0.77
  -6  -7   0    2.17    0.81
   6   7   0    3.41    0.71
  -7  -7   0   11.75    1.25
  -7  -7   0   14.86    1.26
   7   7   0   13.72    1.20
  -8  -7   0   21.66    1.69
  -8  -7   0   21.65    1.54
   8   7   0   21.70    1.46
  -9  -7   0    2.42    0.86
  -9  -7   0    0.91    0.88
   9   7   0    0.68    0.66
 -10  -7   0    1.78    0.84
 -13   8   0   11.90    1.05
 -12   8   0   -0.36    0.55
 -12   8   0   -0.53    0.65
 -11   8   0   12.53    1.04
 -11   8   0   10.30    1.00
 -10   8   0   18.51    1.15
   9  -8   0    2.47    0.47
  -9   8   0    1.08    0.47
  -9   8   0    1.31    0.54
   8  -8   0   57.69    2.00
  -8   8   0   61.98    2.09
  -8   8   0   61.79    2.09
   7  -8   0   65.92    2.13
  -7   8   0   62.05    2.15
  -7   8   0   70.09    2.21
   6  -8   0   -0.02    0.37
  -6   8   0    1.06    0.47
  -6   8   0   -0.02    0.39
   5  -8   0   41.72    1.55
  -5   8   0   41.66    1.58
  -5   8   0   46.03    1.61
   4  -8   0  143.64    4.02
  -4   8   0  131.36    3.99
  -4   8   0  144.45    4.04
   3  -8   0    4.14    0.58
  -3   8   0    4.00    0.56
  -3   8   0    4.47    0.57
   2  -8   0   46.68    1.72
  -2   8   0   45.44    1.70
  -2   8   0   46.49    1.72
  -2   8   0   49.48    1.88
   1  -8   0  153.98    4.39
  -1   8   0  146.04    4.49
  -1   8   0  148.08    4.34
  -1   8   0  154.24    4.38
   0  -8   0    4.34    0.64
   0   8   0    4.08    0.59
   0   8   0    2.90    0.56
   0   8   0    2.93    0.68
  -1  -8   0   21.93    1.21
   1   8   0   19.50    1.14
   1   8   0   20.33    1.11
   1   8   0   19.83    1.25
  -2  -8   0   69.82    2.53
  -2  -8   0   71.00    2.47
   2   8   0   67.87    2.48
   2   8   0   72.67    2.44
  -3  -8   0   -0.36    0.61
  -3  -8   0   -0.03    0.53
   3   8   0    0.75    0.55
  -4  -8   0    4.24    0.79
  -4  -8   0    4.30    0.85
   4   8   0    5.19    0.78
  -5  -8   0   53.58    2.16
  -5  -8   0   50.84    2.27
   5   8   0   50.07    2.10
  -6  -8   0    9.67    1.05
  -6  -8   0    8.43    1.08
   6   8   0    8.59    0.99
  -7  -8   0    0.64    0.70
  -7  -8   0    1.22    0.82
   7   8   0    0.96    0.70
  -8  -8   0   15.67    1.44
  -8  -8   0   15.18    1.40
   8   8   0   16.56    1.42
  -9  -8   0    2.88    0.92
   9   8   0    1.66    0.75
 -13   9   0   13.02    1.10
 -12   9   0    4.12    0.75
 -12   9   0    3.96    0.82
 -11   9   0    8.20    0.85
 -10   9   0   20.69    1.24
   9  -9   0    1.75    0.50
  -9   9   0    2.99    0.63
   8  -9   0   40.66    1.57
  -8   9   0   41.23    1.63
  -8   9   0   40.73    1.64
   7  -9   0   91.08    2.84
  -7   9   0   90.86    2.88
  -7   9   0   93.46    2.90
   6  -9   0   16.40    0.97
  -6   9   0   17.26    1.05
  -6   9   0   15.92    1.05
   5  -9   0    1.68    0.49
  -5   9   0    2.19    0.51
  -5   9   0    2.62    0.52
   4  -9   0   64.63    2.17
  -4   9   0   63.72    2.16
  -4   9   0   61.80    2.15
   3  -9   0   62.39    2.12
  -3   9   0   60.47    2.24
  -3   9   0   59.08    2.10
  -3   9   0   58.59    2.09
   2  -9   0   20.41    1.14
  -2   9   0   18.53    1.10
  -2   9   0   20.39    1.33
  -2   9   0   20.01    1.11
   1  -9   0   40.88    1.64
  -1   9   0   38.35    1.77
  -1   9   0   38.55    1.59
  -1   9   0   36.85    1.58
   0  -9   0   43.45    1.78
   0   9   0   45.55    1.78
  -1  -9   0   10.72    0.96
   1   9   0    9.88    0.88
  -2  -9   0   11.93    1.03
   2   9   0   10.63    1.00
  -3  -9   0   15.52    1.34
  -3  -9   0   16.83    1.27
   3   9   0   15.16    1.20
  -4  -9   0    1.08    0.66
  -4  -9   0   -1.08    0.64
   4   9   0   -0.67    0.53
  -5  -9   0   14.05    1.28
  -5  -9   0   12.40    1.30
   5   9   0   13.46    1.19
  -6  -9   0   16.55    1.43
  -6  -9   0   13.32    1.34
   6   9   0   12.63    1.20
  -7  -9   0    0.98    0.84
  -7  -9   0    2.64    0.97
   7   9   0    1.06    0.71
  -8  -9   0    2.60    0.92
   8   9   0    1.99    0.85
 -12  10   0    2.53    0.75
 -11  10   0   10.00    0.96
 -10  10   0   12.54    1.01
  -9  10   0   10.47    0.93
   8 -10   0   11.13    0.88
  -8  10   0   11.27    0.97
  -8  10   0   12.16    1.02
   7 -10   0   57.11    2.02
  -7  10   0   57.39    2.09
  -7  10   0   57.11    2.10
   6 -10   0   36.18    1.50
  -6  10   0   36.20    1.53
  -6  10   0   35.14    1.56
   5 -10   0    5.06    0.67
  -5  10   0    4.78    0.69
  -5  10   0    2.95    0.59
   4 -10   0   32.31    1.44
  -4  10   0   30.71    1.44
  -4  10   0   31.60    1.45
   3 -10   0   13.44    1.07
  -3  10   0   13.74    1.07
  -3  10   0   15.76    1.07
   2 -10   0    1.18    0.55
  -2  10   0    1.53    0.57
  -2  10   0    1.16    0.57
   1 -10   0   40.83    1.74
  -1  10   0   39.88    1.71
   0 -10   0   15.47    1.15
   0  10   0   13.05    1.10
  -1 -10   0    0.89    0.59
   1  10   0   -0.16    0.52
  -2 -10   0   21.68    1.42
   2  10   0   21.39    1.33
  -3 -10   0   10.10    1.09
  -3 -10   0   10.54    1.10
   3  10   0   13.17    1.11
  -4 -10   0    0.11    0.66
  -4 -10   0    0.30    0.71
   4  10   0   -1.40    0.54
  -5 -10   0   12.96    1.30
  -5 -10   0   14.09    1.33
   5  10   0   14.80    1.34
  -6 -10   0    9.08    1.20
  -6 -10   0    7.61    1.10
   6  10   0    7.09    1.02
  -7 -10   0   -1.73    0.70
   7  10   0    0.75    0.74
 -12  11   0    4.88    0.85
 -11  11   0    0.60    0.67
 -10  11   0   36.23    1.73
  -9  11   0   15.33    1.21
  -8  11   0   -0.56    0.57
   7 -11   0   32.29    1.49
  -7  11   0   34.61    1.57
  -7  11   0   34.02    1.63
   6 -11   0   34.71    1.54
  -6  11   0   35.64    1.63
  -6  11   0   34.65    1.59
   5 -11   0   -0.18    0.49
  -5  11   0   -0.63    0.50
  -5  11   0    0.35    0.56
   4 -11   0   23.05    1.29
  -4  11   0   21.26    1.29
   3 -11   0   20.69    1.29
  -3  11   0   18.79    1.26
   2 -11   0    1.19    0.64
  -2  11   0    1.37    0.64
   1 -11   0   19.91    1.32
  -1  11   0   19.60    1.29
   0 -11   0   21.10    1.41
   0  11   0   20.57    1.34
  -1 -11   0    1.52    0.67
   1  11   0    1.96    0.69
  -2 -11   0   10.52    1.13
   2  11   0    9.48    0.99
  -3 -11   0   22.02    1.58
   3  11   0   17.77    1.38
  -4 -11   0    0.87    0.77
  -4 -11   0    0.94    0.76
   4  11   0   -0.09    0.63
  -5 -11   0    3.82    0.94
  -5 -11   0    4.54    1.01
   5  11   0    4.21    0.96
  -6 -11   0    6.32    1.14
   6  11   0    4.55    0.94
 -11  12   0    0.77    0.73
 -10  12   0   10.25    1.03
  -9  12   0   17.30    1.37
  -8  12   0    0.35    0.66
  -7  12   0    8.10    0.92
   6 -12   0   17.97    1.18
  -6  12   0   19.13    1.34
   5 -12   0    0.38    0.55
  -5  12   0    2.46    0.72
   4 -12   0   10.16    0.99
  -4  12   0   11.68    1.06
   3 -12   0   15.27    1.22
  -3  12   0   14.85    1.23
   2 -12   0    2.09    0.71
  -2  12   0    2.34    0.69
   1 -12   0    9.80    1.03
  -1  12   0    8.98    0.97
   0 -12   0    9.05    1.02
   0  12   0    8.18    0.96
  -1 -12   0    3.35    0.81
   1  12   0    3.86    0.81
  -2 -12   0    9.16    1.07
   2  12   0    7.57    0.98
  -3 -12   0    7.65    1.09
   3  12   0    5.41    0.93
  -4 -12   0    1.38    0.85
   4  12   0    2.04    0.80
  -5 -12   0    4.98    1.03
   5  12   0    3.53    0.88
 -10  13   0    5.32    0.91
  -9  13   0   16.98    1.42
  -8  13   0    0.95    0.74
  -7  13   0    8.86    1.01
  -6  13   0   33.59    1.80
   5 -13   0    0.42    0.58
  -5  13   0    0.51    0.71
   4 -13   0    4.18    0.76
  -4  13   0    5.45    0.86
   3 -13   0   25.04    1.49
  -3  13   0   21.43    1.47
   2 -13   0   -0.20    0.63
  -2  13   0    0.35    0.64
   1 -13   0    0.87    0.70
  -1  13   0    2.84    0.77
   0 -13   0   24.05    1.59
   0  13   0   21.74    1.51
  -1 -13   0   -0.05    0.70
   1  13   0    2.00    0.79
  -2 -13   0    1.16    0.79
   2  13   0    0.19    0.71
  -3 -13   0   11.59    1.29
   3  13   0   10.73    1.22
  -4 -13   0    0.08    0.83
   4  13   0    0.87    0.79
  -9  14   0   15.12    1.29
  -8  14   0    2.76    0.85
  -7  14   0    0.59    0.71
  -6  14   0   21.61    1.57
  -5  14   0    8.57    1.06
   4 -14   0    0.64    0.72
  -4  14   0   -0.44    0.69
   3 -14   0    7.18    0.98
  -3  14   0    9.59    1.05
   2 -14   0    3.32    0.84
  -2  14   0    5.33    0.94
   1 -14   0    0.72    0.74
  -1  14   0    0.01    0.70
   0 -14   0    5.71    0.99
   0  14   0    6.27    0.98
  -1 -14   0    5.93    1.03
   1  14   0    4.83    0.94
  -2 -14   0    0.52    0.80
   2  14   0    0.76    0.74
  -7  15   0    0.45    0.79
  -6  15   0    3.13    0.91
  -5  15   0    5.93    1.01
  -4  15   0    1.02    0.80
  -3  15   0    3.97    0.88
  -2  15   0    1.56    0.83
   1 -15   0   -0.51    0.74
  -1  15   0   -0.10    0.74
   0  15  -1    3.71    0.91
   0 -15   1    3.86    0.93
  -1  15  -1   18.89    1.56
   1 -15   1   14.49    1.38
  -2  15  -1    1.06    0.78
   2 -15   1   -0.26    0.69
  -3  15  -1    4.03    0.89
   3 -15   1    5.14    1.02
  -4  15  -1   17.49    1.51
  -5  15  -1    3.62    0.92
  -6  15  -1    0.95    0.82
  -7  15  -1    9.45    1.17
   2  14  -1    7.11    1.07
  -2 -14   1    4.30    1.04
   1  14  -1    4.41    0.91
  -1 -14   1    2.62    0.90
   0  14  -1    2.87    0.83
   0 -14   1    2.58    0.84
  -1  14  -1    1.63    0.76
   1 -14   1    2.70    0.82
  -2  14  -1    5.32    0.92
   2 -14   1    4.87    0.90
  -3  14  -1    0.44    0.69
   3 -14   1    1.27    0.69
  -4  14  -1    4.30    0.88
   4 -14   1    2.26    0.75
  -5  14  -1    9.83    1.13
  -6  14  -1    3.44    0.86
  -7  14  -1    3.85    0.90
  -8  14  -1    4.94    0.95
  -9  14  -1    2.37    0.86
   4  13  -1   -0.13    0.70
  -4 -13   1    2.65    0.95
   3  13  -1    1.27    0.75
  -3 -13   1    0.50    0.77
   2  13  -1   18.53    1.46
  -2 -13   1   14.68    1.36
   1  13  -1    2.23    0.75
  -1 -13   1    2.22    0.83
   0  13  -1    1.13    0.71
   0 -13   1   -0.43    0.68
  -1  13  -1   18.66    1.39
   1 -13   1   18.55    1.45
  -2  13  -1    2.00    0.73
   2 -13   1    2.20    0.75
  -3  13  -1   -0.63    0.61
   3 -13   1   -0.15    0.64
  -4  13  -1   25.81    1.54
   4 -13   1   26.87    1.54
  -5  13  -1    4.51    0.82
   5 -13   1    6.19    0.86
  -6  13  -1    0.48    0.69
   6 -13   1   -0.67    0.55
  -7  13  -1   30.22    1.70
  -8  13  -1    4.17    0.87
  -9  13  -1    0.28    0.71
 -10  13  -1   22.31    1.54
   5  12  -1    7.68    1.07
  -5 -12   1    6.13    1.11
   4  12  -1    8.11    1.04
  -4 -12   1   11.80    1.30
   3  12  -1   -1.29    0.56
  -3 -12   1   -0.28    0.69
   2  12  -1   12.21    1.18
  -2 -12   1   12.06    1.15
   1  12  -1   17.76    1.36
  -1 -12   1   15.79    1.40
   0  12  -1   -0.07    0.61
   0 -12   1    0.24    0.67
  -1  12  -1   14.99    1.23
   1 -12   1   14.79    1.29
  -2  12  -1   35.75    1.75
   2 -12   1   36.59    1.77
  -3  12  -1   -0.08    0.58
   3 -12   1   -0.29    0.60
  -4  12  -1    9.18    0.95
   4 -12   1    9.95    0.96
  -5  12  -1   38.67    1.81
   5 -12   1   41.43    1.80
  -6  12  -1   -0.16    0.63
   6 -12   1   -0.24    0.52
  -7  12  -1    9.41    0.98
   7 -12   1   12.98    1.07
  -8  12  -1   29.29    1.61
  -9  12  -1    1.73    0.70
 -10  12  -1    9.05    1.01
 -11  12  -1   14.14    1.20
   7  11  -1    3.54    0.90
  -7 -11   1    4.17    1.04
   6  11  -1    0.06    0.66
  -6 -11   1   -0.33    0.79
   5  11  -1    4.58    0.86
  -5 -11   1    5.28    0.99
  -5 -11   1    3.81    0.97
   4  11  -1   10.10    1.06
  -4 -11   1   12.56    1.21
  -4 -11   1   11.08    1.22
   3  11  -1    0.33    0.63
  -3 -11   1    0.73    0.72
   2  11  -1    9.04    0.98
  -2 -11   1    8.50    1.01
   1  11  -1    7.82    0.91
  -1 -11   1   10.84    1.05
   0  11  -1    2.84    0.67
   0 -11   1    0.85    0.61
  -1  11  -1   20.53    1.31
   1 -11   1   21.52    1.36
  -2  11  -1   21.62    1.32
   2 -11   1   23.30    1.37
  -3  11  -1    4.45    0.72
   3 -11   1    4.72    0.73
  -4  11  -1   15.68    1.14
   4 -11   1   14.35    1.13
  -5  11  -1   20.54    1.24
   5 -11   1   19.16    1.21
  -6  11  -1    1.02    0.63
   6 -11   1    0.41    0.53
  -7  11  -1   15.37    1.19
   7 -11   1   15.00    1.07
  -8  11  -1   16.29    1.24
   8 -11   1   17.50    1.11
  -9  11  -1    2.84    0.72
 -10  11  -1    7.03    0.91
 -11  11  -1   12.83    1.11
   8  10  -1    3.69    0.91
  -8 -10   1    3.99    1.02
   7  10  -1    8.40    1.09
  -7 -10   1    9.04    1.19
  -7 -10   1    7.17    1.19
   6  10  -1    1.29    0.73
  -6 -10   1    0.71    0.79
  -6 -10   1    1.81    0.89
   5  10  -1   16.56    1.33
  -5 -10   1   15.02    1.36
  -5 -10   1   19.51    1.52
   4  10  -1   12.58    1.16
  -4 -10   1    9.12    1.10
  -4 -10   1   12.63    1.17
   3  10  -1    5.02    0.81
  -3 -10   1    3.86    0.80
  -3 -10   1    5.22    0.87
   2  10  -1   12.77    1.07
  -2 -10   1   11.33    1.04
   1  10  -1   43.34    1.82
  -1 -10   1   42.79    1.85
   0  10  -1    1.30    0.57
   0 -10   1    1.45    0.62
  -1  10  -1   26.82    1.37
   1 -10   1   26.24    1.41
  -2  10  -1   66.43    2.36
   2 -10   1   67.80    2.40
  -3  10  -1    7.65    0.79
  -3  10  -1    7.75    0.81
   3 -10   1    8.74    0.85
  -4  10  -1   12.63    0.98
  -4  10  -1   14.78    1.04
   4 -10   1   14.10    1.05
  -5  10  -1   33.28    1.51
  -5  10  -1   34.35    1.49
   5 -10   1   31.32    1.46
  -6  10  -1   11.34    0.95
  -6  10  -1   13.31    1.06
   6 -10   1   13.44    0.99
  -7  10  -1   13.07    1.06
  -7  10  -1   13.65    1.03
   7 -10   1   13.92    0.98
  -8  10  -1   57.83    2.12
  -8  10  -1   55.10    2.09
   8 -10   1   56.49    2.06
  -9  10  -1    8.87    0.89
 -10  10  -1    3.38    0.72
 -11  10  -1   40.78    1.87
 -12  10  -1   10.99    1.05
  -9  -9   1    1.55    0.85
   8   9  -1    1.66    0.74
  -8  -9   1    3.62    0.98
  -8  -9   1    1.99    0.86
   7   9  -1   13.32    1.18
  -7  -9   1   13.30    1.30
  -7  -9   1   11.13    1.28
   6   9  -1    8.55    1.00
  -6  -9   1    8.91    1.07
  -6  -9   1    9.33    1.14
   5   9  -1   13.99    1.20
  -5  -9   1   12.82    1.18
  -5  -9   1   12.59    1.22
   4   9  -1   13.86    1.16
  -4  -9   1   11.71    1.18
  -4  -9   1   14.24    1.20
   3   9  -1   17.58    1.19
  -3  -9   1   19.20    1.30
  -3  -9   1   18.87    1.40
   2   9  -1    6.92    0.80
  -2  -9   1    8.68    0.91
  -2  -9   1    7.66    0.88
   1   9  -1   23.11    1.28
  -1  -9   1   23.65    1.31
   0   9  -1   60.00    2.18
   0  -9   1   63.79    2.25
  -1   9  -1   13.23    0.95
  -1   9  -1   15.18    1.21
  -1   9  -1   13.37    0.98
   1  -9   1   12.43    1.02
  -2   9  -1   39.91    1.61
  -2   9  -1   38.92    1.61
   2  -9   1   42.54    1.67
  -3   9  -1   63.97    2.22
  -3   9  -1   66.29    2.24
   3  -9   1   68.55    2.27
  -4   9  -1   24.63    1.20
  -4   9  -1   23.75    1.18
   4  -9   1   24.63    1.22
  -5   9  -1    3.15    0.58
  -5   9  -1    4.06    0.60
   5  -9   1    3.77    0.60
  -6   9  -1   67.69    2.30
  -6   9  -1   67.96    2.29
   6  -9   1   67.79    2.27
  -7   9  -1    9.95    0.83
  -7   9  -1   11.18    0.94
   7  -9   1   11.33    0.87
  -8   9  -1   37.35    1.60
  -8   9  -1   38.06    1.61
   8  -9   1   38.24    1.54
  -9   9  -1   45.31    1.82
   9  -9   1   44.31    1.73
 -10   9  -1    2.24    0.65
 -11   9  -1   16.63    1.26
 -12   9  -1   28.96    1.55
 -12   9  -1   25.64    1.65
   9   8  -1    1.98    0.76
  -9  -8   1    2.20    0.84
   8   8  -1   -0.26    0.65
  -8  -8   1    0.85    0.72
  -8  -8   1    1.86    0.87
   7   8  -1   17.38    1.33
  -7  -8   1   18.71    1.50
  -7  -8   1   18.17    1.42
   6   8  -1    1.08    0.63
  -6  -8   1    1.53    0.79
  -6  -8   1    1.09    0.67
   5   8  -1   -0.86    0.51
  -5  -8   1   -0.96    0.64
  -5  -8   1    0.32    0.63
   4   8  -1   46.40    1.88
  -4  -8   1   48.03    1.94
  -4  -8   1   44.26    2.04
   3   8  -1    4.52    0.70
  -3  -8   1    4.19    0.77
  -3  -8   1    5.30    0.77
   2   8  -1    1.87    0.54
   2   8  -1    2.56    0.65
  -2  -8   1    2.57    0.70
  -2  -8   1    1.83    0.61
   1   8  -1   73.27    2.44
   1   8  -1   71.90    2.54
   1   8  -1   76.37    2.47
   0   8  -1   42.78    1.77
   0   8  -1   41.17    1.62
   0   8  -1   41.96    1.62
   0  -8   1   42.27    1.66
  -1   8  -1    0.27    0.59
  -1   8  -1    0.22    0.41
  -1   8  -1    0.49    0.42
   1  -8   1   -0.14    0.43
   1  -8   1    0.40    0.42
  -2   8  -1  105.54    3.18
  -2   8  -1  101.18    3.15
  -2   8  -1  105.23    3.30
   2  -8   1  103.03    3.18
   2  -8   1  110.12    3.21
  -3   8  -1   13.85    0.89
  -3   8  -1   14.82    0.90
   3  -8   1   13.68    0.91
  -4   8  -1    1.56    0.47
  -4   8  -1    1.15    0.43
   4  -8   1    2.25    0.49
  -5   8  -1  116.17    3.47
  -5   8  -1  115.03    3.46
   5  -8   1  121.17    3.47
  -6   8  -1   28.40    1.25
  -6   8  -1   28.92    1.26
   6  -8   1   27.05    1.22
  -7   8  -1    2.55    0.53
  -7   8  -1    2.10    0.55
   7  -8   1    2.09    0.50
  -8   8  -1   75.38    2.45
  -8   8  -1   74.42    2.44
   8  -8   1   72.04    2.40
  -9   8  -1   46.07    1.72
  -9   8  -1   43.39    1.74
   9  -8   1   41.25    1.65
 -10   8  -1    5.55    0.74
 -11   8  -1   17.16    1.19
 -11   8  -1   15.27    1.27
 -12   8  -1   13.51    1.20
 -12   8  -1   18.24    1.29
 -13   8  -1    4.88    0.84
 -10  -7   1   12.12    1.29
   9   7  -1    4.58    0.82
  -9  -7   1    5.74    0.93
  -9  -7   1    7.75    1.14
   8   7  -1    0.86    0.60
  -8  -7   1    1.15    0.72
  -8  -7   1   -0.56    0.74
   7   7  -1   32.92    1.64
  -7  -7   1   33.21    1.69
  -7  -7   1   31.40    1.83
   6   7  -1    8.13    0.94
  -6  -7   1    7.43    0.89
  -6  -7   1    7.90    0.98
   5   7  -1    0.38    0.52
  -5  -7   1   -0.68    0.61
  -5  -7   1    0.36    0.53
   4   7  -1   66.89    2.34
  -4  -7   1   66.72    2.36
  -4  -7   1   66.65    2.47
   3   7  -1   55.97    2.01
   3   7  -1   56.35    2.06
  -3  -7   1   55.51    2.04
  -3  -7   1   56.33    1.97
  -3  -7   1   54.41    2.11
   2   7  -1    3.53    0.58
   2   7  -1    3.28    0.63
   2   7  -1    2.86    0.55
  -2  -7   1    3.43    0.61
  -2  -7   1    3.55    0.54
  -2  -7   1    2.05    0.63
   1   7  -1   78.07    2.60
   1   7  -1   79.66    2.53
   1   7  -1   76.81    2.50
  -1  -7   1   82.25    2.52
  -1  -7   1   80.86    2.57
   0   7  -1  137.03    4.00
   0   7  -1  135.14    3.88
   0   7  -1  134.34    3.89
   0  -7   1  126.51    3.88
   0  -7   1  137.30    3.88
  -1   7  -1    6.25    0.62
  -1   7  -1    5.43    0.70
  -1   7  -1    4.21    0.54
   1  -7   1    6.18    0.60
   1  -7   1    4.74    0.57
  -2   7  -1   45.30    1.56
  -2   7  -1   41.12    1.51
   2  -7   1   43.75    1.56
   2  -7   1   42.18    1.51
  -3   7  -1  133.08    3.66
  -3   7  -1  121.61    3.61
   3  -7   1  122.96    3.61
   3  -7   1  130.25    3.66
  -4   7  -1   19.63    0.96
  -4   7  -1   20.06    0.95
   4  -7   1   20.11    0.91
   4  -7   1   19.76    0.96
  -5   7  -1   84.59    2.52
  -5   7  -1   80.56    2.50
   5  -7   1   80.23    2.49
  -6   7  -1   91.87    2.73
  -6   7  -1   85.89    2.69
   6  -7   1   90.18    2.71
  -7   7  -1   14.55    0.95
  -7   7  -1   15.49    0.92
   7  -7   1   14.90    0.89
  -8   7  -1    9.01    0.77
  -8   7  -1    9.30    0.80
   8  -7   1    9.43    0.78
  -9   7  -1   80.95    2.61
  -9   7  -1   80.19    2.62
   9  -7   1   78.93    2.56
 -10   7  -1   13.52    1.18
 -10   7  -1   14.99    1.10
  10  -7   1   17.43    1.01
 -11   7  -1    2.52    0.65
 -11   7  -1    1.43    0.67
 -12   7  -1   11.42    1.02
 -12   7  -1    9.05    1.04
 -13   7  -1    3.29    0.79
 -11  -6   1    0.47    0.71
 -10  -6   1    8.26    1.17
 -10  -6   1    8.38    1.08
   9   6  -1   19.78    1.35
  -9  -6   1   20.42    1.60
  -9  -6   1   19.94    1.42
   8   6  -1   -0.45    0.52
  -8  -6   1   -0.47    0.66
  -8  -6   1   -0.67    0.55
   7   6  -1    4.16    0.76
  -7  -6   1    7.20    0.96
  -7  -6   1    5.73    0.80
   6   6  -1   62.61    2.24
  -6  -6   1   60.25    2.38
  -6  -6   1   61.41    2.25
   5   6  -1    1.26    0.49
   5   6  -1    0.95    0.57
  -5  -6   1    1.41    0.54
  -5  -6   1    1.93    0.68
  -5  -6   1    2.06    0.50
   4   6  -1   13.12    1.00
   4   6  -1   14.71    0.98
  -4  -6   1   12.87    1.05
  -4  -6   1   14.08    0.92
  -4  -6   1   13.72    0.97
   3   6  -1  145.64    4.22
   3   6  -1  146.98    4.19
   3   6  -1  143.28    4.16
  -3  -6   1  144.04    4.16
  -3  -6   1  148.32    4.21
  -3  -6   1  138.30    4.27
   2   6  -1   53.38    1.81
   2   6  -1   52.12    1.86
   2   6  -1   50.42    1.79
  -2  -6   1   55.02    1.81
  -2  -6   1   50.81    1.82
   1   6  -1    9.32    0.71
   1   6  -1    9.56    0.72
   1   6  -1    9.18    0.74
  -1  -6   1    9.73    0.72
  -1  -6   1    9.68    0.74
  -1  -6   1    8.94    0.74
   0   6  -1   52.47    1.79
   0   6  -1   54.54    1.79
   0   6  -1   54.44    1.91
   0  -6   1   52.91    1.79
   0  -6   1   57.32    1.81
  -1   6  -1   31.48    1.22
  -1   6  -1   30.55    1.18
   1  -6   1   32.54    1.23
   1  -6   1   32.44    1.20
  -2   6  -1   42.10    1.48
  -2   6  -1   46.23    1.52
   2  -6   1   45.08    1.53
   2  -6   1   46.77    1.50
  -3   6  -1   76.31    2.25
  -3   6  -1   71.01    2.22
   3  -6   1   76.13    2.26
   3  -6   1   74.08    2.22
  -4   6  -1   15.59    0.78
  -4   6  -1   13.49    0.77
   4  -6   1   13.98    0.77
   4  -6   1   15.17    0.74
  -5   6  -1   16.93    0.86
  -5   6  -1   19.87    0.90
   5  -6   1   17.96    0.87
   5  -6   1   18.11    0.84
  -6   6  -1   24.15    1.07
  -6   6  -1   25.20    1.09
   6  -6   1   24.29    1.06
  -7   6  -1   20.24    1.03
  -7   6  -1   22.60    1.07
   7  -6   1   22.41    1.04
  -8   6  -1    9.26    0.77
  -8   6  -1    6.78    0.68
   8  -6   1    8.19    0.68
  -9   6  -1   31.59    1.34
  -9   6  -1   30.31    1.46
  -9   6  -1   30.13    1.36
   9  -6   1   29.54    1.29
 -10   6  -1   15.11    1.00
 -10   6  -1   14.96    1.08
 -10   6  -1   14.85    1.19
  10  -6   1   15.98    0.98
 -11   6  -1    1.65    0.61
 -11   6  -1    2.54    0.74
 -12   6  -1   10.81    0.97
 -12   6  -1    9.57    1.05
 -13   6  -1    3.77    0.80
 -11  -5   1   -0.62    0.64
  10   5  -1    8.01    0.90
 -10  -5   1   11.93    1.13
 -10  -5   1    9.69    1.13
   9   5  -1   19.48    1.28
  -9  -5   1   22.19    1.37
  -9  -5   1   22.29    1.57
   8   5  -1    3.97    0.67
  -8  -5   1    2.63    0.77
  -8  -5   1    3.31    0.67
   7   5  -1    4.18    0.65
  -7  -5   1    4.68    0.70
  -7  -5   1    4.81    0.81
   6   5  -1   46.39    1.76
  -6  -5   1   46.23    1.71
  -6  -5   1   46.49    1.90
  -6  -5   1   44.34    1.75
   5   5  -1   32.74    1.43
   5   5  -1   36.29    1.42
  -5  -5   1   33.08    1.53
  -5  -5   1   34.20    1.37
  -5  -5   1   32.76    1.40
   4   5  -1   26.15    1.21
   4   5  -1   24.81    1.09
   4   5  -1   24.74    1.15
  -4  -5   1   23.81    1.14
  -4  -5   1   26.54    1.14
  -4  -5   1   26.76    1.28
   3   5  -1  229.24    6.45
   3   5  -1  243.40    6.39
   3   5  -1  234.77    6.42
  -3  -5   1  234.46    6.39
  -3  -5   1  234.33    6.41
  -3  -5   1  231.32    6.51
   2   5  -1   25.62    1.13
   2   5  -1   26.33    1.08
   2   5  -1   25.52    1.09
  -2  -5   1   26.14    1.08
  -2  -5   1   24.67    1.15
  -2  -5   1   26.24    1.11
   1   5  -1   21.83    1.05
   1   5  -1   21.54    0.98
   1   5  -1   23.70    0.98
  -1  -5   1   24.08    1.02
  -1  -5   1   24.08    0.99
  -1  -5   1   22.10    1.05
   0   5  -1    9.75    0.70
   0   5  -1   10.72    0.66
   0   5  -1   11.09    0.81
   0  -5   1   11.06    0.69
  -1   5  -1    0.77    0.43
  -1   5  -1    1.03    0.35
  -1   5  -1    0.78    0.29
   1  -5   1    0.85    0.32
   1  -5   1    1.16    0.33
  -2   5  -1   24.68    0.93
  -2   5  -1   22.37    0.89
   2  -5   1   23.06    0.89
   2  -5   1   21.92    0.91
  -3   5  -1  166.77    4.37
  -3   5  -1  153.27    4.33
   3  -5   1  158.17    4.33
   3  -5   1  159.89    4.36
  -4   5  -1   61.01    1.83
  -4   5  -1   57.05    1.80
   4  -5   1   59.46    1.79
   4  -5   1   57.90    1.81
  -5   5  -1    7.18    0.59
  -5   5  -1    7.61    0.62
   5  -5   1    6.90    0.54
   5  -5   1    6.72    0.53
  -6   5  -1   83.90    2.46
  -6   5  -1   80.08    2.44
   6  -5   1   80.59    2.44
   6  -5   1   80.31    2.41
  -7   5  -1   12.81    0.83
  -7   5  -1   12.68    0.81
   7  -5   1   13.95    0.81
  -8   5  -1    8.36    0.70
  -8   5  -1    6.46    0.72
  -8   5  -1    8.27    0.68
   8  -5   1    8.64    0.69
  -9   5  -1   59.88    2.18
  -9   5  -1   58.13    2.02
  -9   5  -1   57.59    2.06
   9  -5   1   61.73    2.03
 -10   5  -1   24.12    1.27
 -10   5  -1   23.82    1.41
 -10   5  -1   24.09    1.20
  10  -5   1   23.24    1.16
 -11   5  -1   -0.65    0.60
 -11   5  -1    0.16    0.53
 -12   5  -1   31.82    1.58
 -12   5  -1   32.13    1.76
 -13   5  -1   12.50    1.09
 -13   5  -1    9.96    1.13
 -12  -4   1    5.21    0.92
 -11  -4   1    3.61    0.97
 -11  -4   1    4.01    0.80
  10   4  -1    4.83    0.73
 -10  -4   1    4.72    0.81
 -10  -4   1    3.36    0.91
   9   4  -1   31.04    1.47
  -9  -4   1   32.02    1.71
  -9  -4   1   29.16    1.49
   8   4  -1   20.28    1.14
  -8  -4   1   17.37    1.31
  -8  -4   1   18.56    1.15
  -8  -4   1   18.06    1.13
   7   4  -1    8.73    0.77
  -7  -4   1    7.91    0.77
  -7  -4   1    7.16    0.86
  -7  -4   1    6.42    0.67
   6   4  -1   52.47    1.80
   6   4  -1   49.80    1.82
  -6  -4   1   48.20    1.91
  -6  -4   1   50.54    1.76
  -6  -4   1   48.72    1.79
   5   4  -1   52.87    1.81
   5   4  -1   55.10    1.87
   5   4  -1   58.43    1.93
  -5  -4   1   55.41    1.88
  -5  -4   1   54.60    1.98
  -5  -4   1   57.15    1.86
   4   4  -1   29.26    1.15
   4   4  -1   31.74    1.26
   4   4  -1   31.12    1.21
  -4  -4   1   30.73    1.19
  -4  -4   1   30.41    1.20
  -4  -4   1   31.05    1.29
   3   4  -1  139.19    3.83
   3   4  -1  132.97    3.85
  -3  -4   1  136.25    3.81
  -3  -4   1  133.97    3.82
  -3  -4   1  136.63    3.90
   2   4  -1   66.88    2.02
   2   4  -1   66.18    2.05
   2   4  -1   64.20    2.02
  -2  -4   1   66.64    2.03
  -2  -4   1   67.49    2.04
  -2  -4   1   67.29    2.08
   1   4  -1   16.49    0.79
   1   4  -1   16.64    0.78
   1   4  -1   17.03    0.86
  -1  -4   1   16.69    0.80
  -1  -4   1   16.62    0.80
  -1  -4   1   16.62    0.85
   0   4  -1   19.70    0.84
   0   4  -1   18.17    0.91
   0   4  -1   17.14    0.78
   0  -4   1   18.24    0.80
   0  -4   1   19.62    0.82
  -1   4  -1  126.57    3.37
  -1   4  -1  112.54    3.33
   1  -4   1  121.82    3.36
   1  -4   1  128.41    3.36
  -2   4  -1   18.67    0.76
  -2   4  -1   16.52    0.70
   2  -4   1   16.52    0.70
   2  -4   1   17.63    0.73
  -3   4  -1   65.78    2.18
  -3   4  -1   83.20    2.24
   3  -4   1   80.83    2.21
   3  -4   1   79.61    2.23
  -4   4  -1  325.52    8.17
  -4   4  -1  295.12    8.14
   4  -4   1  314.84    8.14
   4  -4   1  301.04    8.14
  -5   4  -1    2.66    0.39
  -5   4  -1    3.56    0.42
   5  -4   1    2.99    0.39
   5  -4   1    2.48    0.35
  -6   4  -1   17.83    0.87
  -6   4  -1   20.45    0.89
   6  -4   1   17.87    0.86
   6  -4   1   19.29    0.84
  -7   4  -1   88.26    2.70
  -7   4  -1   83.06    2.59
  -7   4  -1   86.21    2.60
   7  -4   1   86.95    2.60
  -8   4  -1    2.60    0.47
  -8   4  -1    2.41    0.51
  -8   4  -1    2.46    0.58
   8  -4   1    2.83    0.49
  -9   4  -1   18.22    1.06
  -9   4  -1   17.33    1.16
  -9   4  -1   16.98    0.99
   9  -4   1   18.73    0.99
 -10   4  -1   69.07    2.33
 -10   4  -1   71.76    2.38
 -10   4  -1   69.18    2.51
  10  -4   1   66.90    2.30
 -11   4  -1   -0.35    0.63
 -11   4  -1   -0.69    0.46
 -12   4  -1    8.47    0.89
 -12   4  -1    7.64    0.99
 -13   4  -1   16.59    1.28
 -13   4  -1   14.57    1.31
 -12  -3   1   10.03    1.02
 -11  -3   1   17.73    1.52
 -11  -3   1   16.08    1.27
  10   3  -1    0.65    0.49
 -10  -3   1    1.42    0.75
 -10  -3   1    1.30    0.59
   9   3  -1   15.16    1.02
  -9  -3   1   14.18    1.07
  -9  -3   1   14.84    0.97
  -9  -3   1   15.08    1.26
   8   3  -1   41.51    1.64
  -8  -3   1   43.20    1.68
  -8  -3   1   43.63    1.84
  -8  -3   1   40.34    1.59
   7   3  -1    1.32    0.49
   7   3  -1    1.24    0.46
  -7  -3   1    1.51    0.58
  -7  -3   1    1.13    0.48
  -7  -3   1    1.20    0.42
   6   3  -1   84.54    2.61
   6   3  -1   86.79    2.68
  -6  -3   1   87.52    2.60
  -6  -3   1   83.21    2.72
  -6  -3   1   84.56    2.62
   5   3  -1   25.97    1.07
   5   3  -1   26.37    1.13
   5   3  -1   24.70    1.02
  -5  -3   1   27.17    1.19
  -5  -3   1   25.15    1.07
  -5  -3   1   27.50    1.06
   4   3  -1   15.35    0.81
   4   3  -1   13.87    0.72
   4   3  -1   13.66    0.74
  -4  -3   1   14.20    0.83
  -4  -3   1   14.24    0.74
  -4  -3   1   14.12    0.74
   3   3  -1   38.11    1.34
   3   3  -1   38.55    1.30
  -3  -3   1   40.26    1.31
  -3  -3   1   39.25    1.37
  -3  -3   1   39.29    1.30
   2   3  -1  101.75    2.90
   2   3  -1  101.33    2.87
   2   3  -1  101.64    2.85
  -2  -3   1  104.38    2.87
  -2  -3   1  101.72    2.92
  -2  -3   1  102.41    2.87
   1   3  -1    4.80    0.45
   1   3  -1    3.70    0.44
   1   3  -1    5.27    0.45
  -1  -3   1    4.68    0.43
  -1  -3   1    4.17    0.44
  -1  -3   1    4.62    0.43
   0   3  -1  213.86    5.66
   0   3  -1  209.72    5.75
   0  -3   1  224.11    5.66
   0  -3   1  210.50    5.67
  -1   3  -1  140.56    3.86
  -1   3  -1  149.03    3.88
   1  -3   1  146.07    3.87
   1  -3   1  144.17    3.88
  -2   3  -1    1.64    0.28
  -2   3  -1    1.46    0.29
   2  -3   1    1.38    0.29
   2  -3   1    1.02    0.25
  -3   3  -1  107.42    2.82
   3  -3   1   98.82    2.78
   3  -3   1   97.82    2.79
  -4   3  -1  100.50    2.69
  -4   3  -1   92.25    2.67
   4  -3   1   93.60    2.68
   4  -3   1   93.77    2.66
  -5   3  -1   31.40    1.14
  -5   3  -1   33.13    1.15
   5  -3   1   32.29    1.11
   5  -3   1   30.96    1.13
  -6   3  -1  122.64    3.37
  -6   3  -1  113.74    3.35
  -6   3  -1  120.53    3.45
   6  -3   1  120.14    3.34
   6  -3   1  114.57    3.35
  -7   3  -1   63.02    2.13
  -7   3  -1   64.86    2.03
  -7   3  -1   61.81    2.03
   7  -3   1   64.46    2.03
  -8   3  -1    2.27    0.47
  -8   3  -1    1.53    0.54
  -8   3  -1    1.79    0.49
   8  -3   1    1.98    0.46
  -9   3  -1   15.56    1.12
  -9   3  -1   15.55    0.99
  -9   3  -1   16.98    0.97
   9  -3   1   16.23    0.95
 -10   3  -1   41.66    1.83
 -10   3  -1   41.70    1.70
 -10   3  -1   41.64    1.64
  10  -3   1   42.24    1.64
 -11   3  -1    1.62    0.61
 -11   3  -1    1.26    0.70
  11  -3   1    1.83    0.53
 -12   3  -1    8.98    0.91
 -12   3  -1    5.89    0.97
 -13   3  -1    5.85    1.02
 -13   3  -1    5.69    0.85
 -13  -2   1   -0.68    0.61
 -12  -2   1   22.19    1.65
 -12  -2   1   21.90    1.43
 -11  -2   1   13.39    1.25
 -11  -2   1   16.93    1.20
  10   2  -1    2.29    0.56
 -10  -2   1    1.98    0.74
   9   2  -1   31.21    1.37
  -9  -2   1   32.09    1.60
  -9  -2   1   32.31    1.35
   8   2  -1   24.89    1.17
  -8  -2   1   26.62    1.16
  -8  -2   1   24.26    1.36
   7   2  -1    4.10    0.57
   7   2  -1    4.06    0.54
  -7  -2   1    4.31    0.53
  -7  -2   1    5.62    0.69
   6   2  -1  103.24    3.07
   6   2  -1  109.33    3.17
   6   2  -1  104.61    3.03
  -6  -2   1  107.64    3.06
  -6  -2   1  104.48    3.20
   5   2  -1   50.99    1.62
   5   2  -1   48.29    1.57
   5   2  -1   51.06    1.69
  -5  -2   1   51.54    1.61
  -5  -2   1   49.54    1.71
   4   2  -1   31.51    1.09
   4   2  -1   31.52    1.11
   4   2  -1   31.60    1.17
  -4  -2   1   32.59    1.11
  -4  -2   1   32.53    1.20
  -4  -2   1   32.73    1.11
   3   2  -1   56.02    1.65
   3   2  -1   54.56    1.66
   3   2  -1   54.95    1.71
  -3  -2   1   59.18    1.68
  -3  -2   1   56.55    1.73
  -3  -2   1   54.88    1.66
   2   2  -1  144.40    3.83
   2   2  -1  142.16    3.90
   2   2  -1  138.70    3.84
  -2  -2   1  143.16    3.84
  -2  -2   1  147.83    3.85
  -2  -2   1  142.77    3.90
   1   2  -1   10.25    0.48
   1   2  -1   10.87    0.51
   1   2  -1   10.57    0.49
  -1  -2   1   10.08    0.50
  -1  -2   1   10.57    0.51
  -1  -2   1   10.81    0.51
   0   2  -1   47.60    1.46
   0   2  -1   50.96    1.42
   0   2  -1   55.25    1.45
   0  -2   1   50.46    1.46
  -1   2  -1  199.66    5.25
  -1   2  -1  205.28    5.26
   1  -2   1  199.51    5.25
   1  -2   1  199.30    5.25
  -2   2  -1   70.22    1.99
  -2   2  -1   72.42    2.00
   2  -2   1   73.50    1.99
   2  -2   1   71.07    1.99
  -3   2  -1  109.94    3.14
  -3   2  -1  118.59    3.16
   3  -2   1  117.09    3.16
   3  -2   1  117.38    3.14
  -4   2  -1  234.98    6.32
  -4   2  -1  244.02    6.26
  -4   2  -1  233.45    6.24
   4  -2   1  232.98    6.23
   4  -2   1  232.09    6.25
  -5   2  -1   21.58    0.87
  -5   2  -1   19.52    0.85
  -5   2  -1   20.76    0.91
   5  -2   1   19.93    0.84
   5  -2   1   20.44    0.82
  -6   2  -1   89.74    2.68
  -6   2  -1   86.41    2.60
  -6   2  -1   91.63    2.62
   6  -2   1   85.86    2.59
   6  -2   1   89.13    2.58
  -7   2  -1  136.95    3.86
  -7   2  -1  135.74    3.95
  -7   2  -1  130.06    3.85
   7  -2   1  139.37    3.87
  -8   2  -1   29.98    1.38
  -8   2  -1   30.71    1.25
  -8   2  -1   28.93    1.28
   8  -2   1   30.54    1.26
  -9   2  -1    6.54    0.71
  -9   2  -1    6.80    0.67
  -9   2  -1    6.73    0.78
   9  -2   1    7.17    0.70
 -10   2  -1   46.02    1.80
 -10   2  -1   43.14    1.90
 -10   2  -1   47.60    1.77
  10  -2   1   45.35    1.74
 -11   2  -1   12.13    1.05
 -11   2  -1   11.25    1.07
  11  -2   1   13.37    0.97
 -12   2  -1    3.87    0.75
 -12   2  -1    1.90    0.82
 -13   2  -1   10.52    1.06
 -13  -1   1   -0.46    0.59
 -12  -1   1   12.37    1.24
 -11  -1   1   21.88    1.51
  10   1  -1   15.17    0.97
 -10  -1   1   15.23    1.24
 -10  -1   1   15.13    0.95
 -10  -1   1   12.42    1.01
   9   1  -1   17.74    0.97
  -9  -1   1   15.55    1.00
  -9  -1   1   16.97    1.20
  -9  -1   1   16.27    0.94
   8   1  -1   98.69    2.97
   8   1  -1  102.05    3.10
  -8  -1   1   99.10    3.16
  -8  -1   1   95.40    2.99
  -8  -1   1  100.13    2.96
   7   1  -1    1.28    0.39
   7   1  -1    0.86    0.40
  -7  -1   1    0.72    0.34
  -7  -1   1    1.16    0.40
  -7  -1   1    1.49    0.53
   6   1  -1   16.59    0.86
   6   1  -1   15.50    0.76
   6   1  -1   14.89    0.73
  -6  -1   1   15.30    0.90
  -6  -1   1   16.96    0.78
  -6  -1   1   15.75    0.80
   5   1  -1  136.99    3.76
   5   1  -1  128.73    3.65
   5   1  -1  134.56    3.64
  -5  -1   1  129.46    3.66
  -5  -1   1  138.43    3.66
  -5  -1   1  129.29    3.76
   4   1  -1   45.65    1.40
   4   1  -1   46.46    1.38
   4   1  -1   43.94    1.47
  -4  -1   1   46.76    1.40
  -4  -1   1   46.24    1.41
  -4  -1   1   44.83    1.48
   3   1  -1    6.37    0.43
   3   1  -1    6.59    0.43
   3   1  -1    7.11    0.52
  -3  -1   1    6.28    0.44
  -3  -1   1    6.79    0.52
  -3  -1   1    6.89    0.43
   2   1  -1   65.55    1.78
   2   1  -1   64.14    1.84
   2   1  -1   65.91    1.80
  -2  -1   1   68.98    1.79
  -2  -1   1   63.56    1.78
  -2  -1   1   63.17    1.84
   1   1  -1  108.99    2.91
   1   1  -1  109.23    2.87
   1   1  -1  109.10    2.87
  -1  -1   1  106.64    2.90
  -1  -1   1  109.45    2.87
  -1  -1   1  110.80    2.88
  -1  -1   1  109.43    3.24
   0   1  -1   38.92    1.12
   0   1  -1   41.03    1.12
   0   1  -1   42.54    1.13
   0  -1   1   43.01    1.13
  -1   1  -1   30.64    0.86
  -1   1  -1   29.14    0.84
   1  -1   1   28.05    0.84
   1  -1   1   28.71    0.85
  -2   1  -1    0.42    0.20
  -2   1  -1    0.70    0.22
   2  -1   1    0.69    0.19
   2  -1   1    0.52    0.20
  -3   1  -1  132.52    3.56
  -3   1  -1  123.44    3.51
  -3   1  -1  136.62    3.54
   3  -1   1  131.99    3.53
   3  -1   1  127.75    3.51
  -4   1  -1  125.83    3.41
  -4   1  -1  127.77    3.37
  -4   1  -1  118.63    3.35
   4  -1   1  119.28    3.36
   4  -1   1  119.48    3.35
  -5   1  -1   38.13    1.31
  -5   1  -1   40.34    1.32
  -5   1  -1   39.79    1.36
   5  -1   1   37.23    1.31
   5  -1   1   39.71    1.29
  -6   1  -1    4.23    0.48
  -6   1  -1    4.38    0.47
  -6   1  -1    5.35    0.57
   6  -1   1    4.13    0.46
   6  -1   1    4.42    0.46
  -7   1  -1   86.47    2.69
  -7   1  -1   89.19    2.69
  -7   1  -1   89.02    2.77
   7  -1   1   90.33    2.70
  -8   1  -1   88.39    2.79
  -8   1  -1   93.98    2.90
  -8   1  -1   89.68    2.78
   8  -1   1   89.27    2.77
  -9   1  -1   23.97    1.22
  -9   1  -1   24.28    1.18
  -9   1  -1   25.13    1.34
   9  -1   1   24.65    1.19
 -10   1  -1   16.50    1.11
 -10   1  -1   17.78    1.26
  10  -1   1   16.49    1.05
 -11   1  -1   18.58    1.41
 -11   1  -1   17.36    1.22
  11  -1   1   20.56    1.18
 -12   1  -1    0.82    0.59
 -12   1  -1   -0.60    0.69
 -13   1  -1   11.29    1.10
 -12   0   1    2.51    0.83
 -12   0   1    2.86    0.67
 -11   0   1   22.24    1.26
 -11   0   1   21.57    1.47
  10   0  -1    9.26    0.77
 -10   0   1   10.34    0.81
 -10   0   1    8.06    0.90
 -10   0   1    8.23    0.78
   9   0  -1   17.39    0.94
  -9   0   1   16.76    1.00
  -9   0   1   19.27    0.96
  -9   0   1   17.63    1.18
   8   0  -1   79.34    2.48
  -8   0   1   83.97    2.50
  -8   0   1   83.61    2.53
  -8   0   1   79.58    2.66
   7   0  -1    1.60    0.37
   7   0  -1    1.83    0.35
  -7   0   1    1.56    0.50
  -7   0   1    2.19    0.39
  -7   0   1    1.80    0.40
   6   0  -1   30.90    1.16
   6   0  -1   28.18    1.00
   6   0  -1   26.64    1.02
  -6   0   1   28.14    1.03
  -6   0   1   27.50    1.17
  -6   0   1   29.75    1.06
   5   0  -1  106.33    3.03
   5   0  -1  112.14    3.15
   5   0  -1  111.93    3.02
  -5   0   1  107.49    3.03
  -5   0   1  107.34    3.15
  -5   0   1  113.78    3.04
   4   0  -1    2.46    0.28
   4   0  -1    2.39    0.34
   4   0  -1    2.07    0.27
  -4   0   1    2.18    0.29
  -4   0   1    2.92    0.31
  -4   0   1    2.58    0.36
   3   0  -1    1.69    0.29
   3   0  -1    1.58    0.22
   3   0  -1    1.61    0.22
  -3   0   1    1.28    0.22
  -3   0   1    1.40    0.23
  -3   0   1    1.57    0.29
   2   0  -1   41.53    1.15
   2   0  -1   43.29    1.16
   2   0  -1   40.27    1.22
  -2   0   1   44.30    1.16
  -2   0   1   44.59    1.16
  -2   0   1   40.89    1.22
   1   0  -1   70.94    1.89
  -1   0   1   71.02    1.89
  -1   0  -1  364.18    9.76
  -1   0  -1  389.52    9.71
  -1   0  -1  363.18    9.75
   1   0   1  385.69    9.72
   1   0   1  378.35    9.81
   1   0   1  360.88    9.72
  -2   0  -1    1.19    0.23
  -2   0  -1    1.15    0.23
  -2   0  -1    0.78    0.20
   2   0   1    0.91    0.23
   2   0   1    1.21    0.23
   2   0   1    1.07    0.24
  -3   0  -1   11.39    0.59
  -3   0  -1   11.45    0.59
  -3   0  -1   12.83    0.63
   3   0   1   12.45    0.58
   3   0   1   11.32    0.59
   3   0   1   11.86    0.60
  -4   0  -1  397.88   10.66
  -4   0  -1  421.48   10.56
  -4   0  -1  397.87   10.55
   4   0   1  396.62   10.55
   4   0   1  390.08   10.53
   4   0   1  415.87   10.66
  -5   0  -1   92.65    2.76
  -5   0  -1   96.03    2.72
  -5   0  -1   93.56    2.72
   5   0   1   93.34    2.69
   5   0   1   96.55    2.75
   5   0   1   89.78    2.70
  -6   0  -1    5.18    0.54
  -6   0  -1    5.18    0.58
  -6   0  -1    5.55    0.54
   6   0   1    5.29    0.53
   6   0   1    5.45    0.50
   6   0   1    6.54    0.57
  -7   0  -1  145.55    4.08
  -7   0  -1  140.76    4.09
  -7   0  -1  140.38    4.16
   7   0   1  144.12    4.09
  -8   0  -1   13.93    1.06
  -8   0  -1   15.83    0.98
  -8   0  -1   15.07    0.91
   8   0   1   15.46    0.93
  -9   0  -1    2.31    0.52
  -9   0  -1    2.07    0.57
  -9   0  -1    1.59    0.64
   9   0   1    1.35    0.48
 -10   0  -1   28.96    1.46
 -10   0  -1   30.46    1.60
  10   0   1   31.05    1.42
 -11   0  -1   12.31    1.15
 -11   0  -1   13.20    1.12
  11   0   1   13.28    1.06
 -12   0  -1    3.02    0.75
 -12   0  -1    2.19    0.83
 -13   1   1    4.43    0.77
 -13   1   1    4.87    1.00
 -12   1   1    0.92    0.71
 -12   1   1    2.11    0.61
 -11   1   1   48.90    2.09
 -11   1   1   51.44    1.92
  10  -1  -1    0.79    0.41
 -10   1   1    0.45    0.48
 -10   1   1   -0.16    0.59
 -10   1   1    0.11    0.38
   9  -1  -1   16.63    0.87
  -9   1   1   15.30    0.93
  -9   1   1   17.41    1.15
  -9   1   1   16.92    0.90
   8  -1  -1   60.68    1.94
  -8   1   1   60.83    2.15
  -8   1   1   61.68    1.97
  -8   1   1   63.12    1.96
   7  -1  -1   35.10    1.23
   7  -1  -1   34.66    1.20
  -7   1   1   35.64    1.25
  -7   1   1   33.58    1.40
  -7   1   1   36.26    1.26
   6  -1  -1    3.04    0.34
   6  -1  -1    1.84    0.32
  -6   1   1    2.91    0.37
  -6   1   1    2.44    0.35
  -6   1   1    2.90    0.47
   5  -1  -1  184.59    4.84
   5  -1  -1  184.73    4.86
  -5   1   1  183.41    4.86
  -5   1   1  177.54    4.86
  -5   1   1  181.75    5.01
   4  -1  -1  120.91    3.22
   4  -1  -1  119.90    3.23
  -4   1   1  120.18    3.24
  -4   1   1  119.44    3.36
  -4   1   1  123.68    3.24
   3  -1  -1    3.03    0.24
   3  -1  -1    2.98    0.24
  -3   1   1    2.94    0.30
  -3   1   1    3.25    0.31
  -2   1   1  343.22    8.88
  -2   1   1  345.65    8.87
   1  -1  -1  289.75    7.62
  -1   1   1  290.74    7.64
  -1   1   1  304.86    7.64
   0  -1  -1    8.92    0.36
   0  -1  -1    8.65    0.36
   0  -1  -1    8.79    0.38
   0   1   1    7.90    0.35
   0   1   1    8.91    0.39
   0   1   1    8.89    0.40
  -1  -1  -1  779.25   20.63
  -1  -1  -1  818.77   20.63
  -1  -1  -1  766.01   20.77
   1   1   1  751.54   20.63
   1   1   1  809.58   20.82
   1   1   1  816.68   20.76
  -2  -1  -1  614.85   15.51
  -2  -1  -1  608.49   15.78
  -2  -1  -1  583.22   15.50
   2   1   1  600.63   15.64
   2   1   1  620.35   15.50
   2   1   1  573.91   15.63
  -3  -1  -1    0.13    0.28
  -3  -1  -1   -0.27    0.26
  -3  -1  -1   -0.06    0.30
   3   1   1    0.07    0.27
   3   1   1   -0.26    0.25
   3   1   1   -0.05    0.29
  -4  -1  -1   84.46    2.48
  -4  -1  -1   88.12    2.52
  -4  -1  -1   87.25    2.48
   4   1   1   86.44    2.49
   4   1   1   81.64    2.47
   4   1   1   83.55    2.46
  -5  -1  -1  248.45    6.74
  -5  -1  -1  260.51    6.74
  -5  -1  -1  249.01    6.81
   5   1   1  237.85    6.69
   5   1   1  250.85    6.73
   5   1   1  254.23    6.79
  -6  -1  -1    5.20    0.53
  -6  -1  -1    6.34    0.60
  -6  -1  -1    5.50    0.62
   6   1   1    4.55    0.53
   6   1   1    4.29    0.50
   6   1   1    5.87    0.57
  -7  -1  -1   10.34    0.82
  -7  -1  -1   10.05    0.84
  -7  -1  -1    9.02    0.73
   7   1   1    9.04    0.77
   7   1   1    7.90    0.71
  -8  -1  -1   18.84    1.23
  -8  -1  -1   19.99    1.04
  -8  -1  -1   17.89    1.09
   8   1   1   18.93    1.04
  -9  -1  -1    4.95    0.68
  -9  -1  -1    4.29    0.77
   9   1   1    4.78    0.67
 -10  -1  -1    6.29    0.81
 -10  -1  -1    7.36    0.92
  10   1   1    7.14    0.81
 -11  -1  -1   25.28    1.46
 -11  -1  -1   26.09    1.64
 -12  -1  -1    0.53    0.82
 -13   2   1   12.85    1.12
 -13   2   1   12.12    1.25
 -12   2   1    2.33    0.80
 -12   2   1    2.90    0.64
 -11   2   1   23.93    1.44
 -11   2   1   21.93    1.19
  10  -2  -1   22.55    1.07
 -10   2   1   23.37    1.15
 -10   2   1   25.50    1.13
 -10   2   1   24.21    1.38
   9  -2  -1    1.80    0.42
  -9   2   1    1.53    0.58
  -9   2   1    1.18    0.46
  -9   2   1    1.58    0.42
   8  -2  -1    9.86    0.67
  -8   2   1   10.80    0.72
  -8   2   1    9.90    0.82
  -8   2   1    9.97    0.69
   7  -2  -1  172.42    4.65
   7  -2  -1  173.58    4.62
  -7   2   1  168.59    4.84
  -7   2   1  174.07    4.66
  -7   2   1  164.73    4.65
   6  -2  -1    0.10    0.23
   6  -2  -1   -0.08    0.24
  -6   2   1    0.33    0.37
  -6   2   1    0.20    0.26
  -6   2   1    0.13    0.27
   5  -2  -1   20.86    0.74
   5  -2  -1   21.34    0.75
  -5   2   1   20.75    0.77
  -5   2   1   18.38    0.88
  -5   2   1   20.44    0.76
   4  -2  -1  354.48    9.41
   4  -2  -1  367.69    9.41
  -4   2   1  363.55    9.42
  -4   2   1  367.68    9.42
   3  -2  -1    1.71    0.22
   3  -2  -1    1.80    0.21
  -3   2   1    2.08    0.23
  -3   2   1    1.86    0.24
   2  -2  -1  163.51    4.38
   2  -2  -1  166.62    4.39
  -2   2   1  172.27    4.39
  -2   2   1  171.10    4.39
   1  -2  -1  496.50   13.29
   1  -2  -1  499.32   13.25
  -1   2   1  526.11   13.32
  -1   2   1  517.46   13.14
   0  -2  -1   23.30    0.77
   0  -2  -1   21.96    0.81
   0  -2  -1   23.38    0.78
   0   2   1   23.68    0.77
   0   2   1   24.26    0.79
   0   2   1   24.24    0.85
  -1  -2  -1  116.26    3.25
  -1  -2  -1  124.40    3.26
  -1  -2  -1  119.96    3.31
   1   2   1  124.55    3.26
   1   2   1  114.47    3.25
   1   2   1  122.92    3.30
  -2  -2  -1  389.68    9.82
  -2  -2  -1  387.27    9.71
   2   2   1  336.24    9.77
   2   2   1  362.31    9.70
   2   2   1  381.45    9.70
  -3  -2  -1   11.31    0.68
  -3  -2  -1   11.28    0.64
  -3  -2  -1   11.32    0.65
   3   2   1   11.40    0.66
   3   2   1   10.75    0.63
   3   2   1   11.20    0.61
  -4  -2  -1    5.09    0.49
  -4  -2  -1    6.51    0.57
  -4  -2  -1    6.49    0.57
   4   2   1    5.37    0.51
   4   2   1    6.21    0.51
   4   2   1    7.17    0.56
  -5  -2  -1   72.73    2.27
  -5  -2  -1   69.72    2.21
  -5  -2  -1   71.81    2.20
   5   2   1   71.89    2.22
   5   2   1   69.13    2.20
   5   2   1   68.71    2.16
  -6  -2  -1    8.94    0.74
  -6  -2  -1    8.10    0.75
  -6  -2  -1   10.22    0.74
   6   2   1    9.40    0.77
   6   2   1    8.59    0.74
  -7  -2  -1    0.28    0.45
  -7  -2  -1    0.62    0.56
  -7  -2  -1    0.66    0.39
   7   2   1    0.13    0.43
   7   2   1    0.96    0.46
  -8  -2  -1   31.94    1.47
  -8  -2  -1   31.94    1.55
   8   2   1   32.71    1.44
  -9  -2  -1    5.26    0.83
   9   2   1    6.36    0.75
 -10  -2  -1    1.86    0.78
  10   2   1    1.91    0.59
 -11  -2  -1   14.56    1.32
 -12  -2  -1    0.74    0.70
 -14   3   1   14.10    1.13
 -13   3   1    9.62    0.91
 -13   3   1    9.49    1.15
 -12   3   1    1.08    0.55
 -12   3   1    0.32    0.68
 -11   3   1   36.60    1.52
 -11   3   1   33.94    1.72
  10  -3  -1   38.74    1.41
 -10   3   1   37.04    1.48
 -10   3   1   36.36    1.69
 -10   3   1   38.38    1.44
   9  -3  -1   30.96    1.21
  -9   3   1   33.44    1.50
  -9   3   1   31.48    1.28
  -9   3   1   32.60    1.26
   8  -3  -1   45.27    1.52
  -8   3   1   48.60    1.57
  -8   3   1   45.33    1.57
  -8   3   1   47.37    1.77
   7  -3  -1   48.19    1.46
   7  -3  -1   45.59    1.47
  -7   3   1   47.42    1.50
  -7   3   1   43.94    1.66
  -7   3   1   44.42    1.49
   6  -3  -1   40.37    1.22
   6  -3  -1   36.76    1.22
  -6   3   1   35.48    1.24
  -6   3   1   40.07    1.26
   5  -3  -1  159.00    4.31
   5  -3  -1  167.29    4.31
  -5   3   1  159.36    4.32
  -5   3   1  160.35    4.33
   4  -3  -1  119.42    3.23
   4  -3  -1  121.30    3.23
  -4   3   1  116.75    3.23
  -4   3   1  124.26    3.26
   3  -3  -1   33.51    1.00
   3  -3  -1   30.40    0.99
  -3   3   1   33.52    1.02
  -3   3   1   33.92    1.01
   2  -3  -1  337.26    8.85
   2  -3  -1  331.82    8.84
  -2   3   1  349.46    8.85
  -2   3   1  344.73    8.85
   1  -3  -1   51.08    1.52
   1  -3  -1   50.59    1.54
  -1   3   1   50.47    1.53
  -1   3   1   55.90    1.56
   0  -3  -1   12.12    0.67
   0  -3  -1   11.46    0.59
   0  -3  -1   12.15    0.59
   0   3   1   12.96    0.74
   0   3   1   11.08    0.58
   0   3   1   11.81    0.62
  -1  -3  -1   38.53    1.29
  -1  -3  -1   41.50    1.30
  -1  -3  -1   40.68    1.38
   1   3   1   37.86    1.28
   1   3   1   42.13    1.30
   1   3   1   40.57    1.36
  -2  -3  -1  152.51    4.11
  -2  -3  -1  147.38    4.18
  -2  -3  -1  148.71    4.11
   2   3   1  146.13    4.11
   2   3   1  154.02    4.11
   2   3   1  151.86    4.16
  -3  -3  -1   67.34    2.11
  -3  -3  -1   70.77    2.11
  -3  -3  -1   68.93    2.15
   3   3   1   69.17    2.09
   3   3   1   69.34    2.11
   3   3   1   69.57    2.13
  -4  -3  -1   18.49    0.91
  -4  -3  -1   19.04    0.91
  -4  -3  -1   17.49    0.99
   4   3   1   19.14    0.91
   4   3   1   20.31    0.94
   4   3   1   19.62    0.89
  -5  -3  -1   44.30    1.60
  -5  -3  -1   47.29    1.72
   5   3   1   45.29    1.58
   5   3   1   44.77    1.62
   5   3   1   45.12    1.62
  -6  -3  -1    5.60    0.61
  -6  -3  -1    5.74    0.73
   6   3   1    6.64    0.67
   6   3   1    6.59    0.66
  -7  -3  -1    3.60    0.71
   7   3   1    3.59    0.60
  -8  -3  -1   58.36    2.18
  -8  -3  -1   59.69    2.30
   8   3   1   59.44    2.17
  -9  -3  -1   14.28    1.15
  -9  -3  -1   13.04    1.16
   9   3   1   16.62    1.14
 -10  -3  -1    0.98    0.65
 -10  -3  -1    0.01    0.72
  10   3   1    1.35    0.62
 -11  -3  -1   16.54    1.39
 -11  -3  -1   14.86    1.33
 -14   4   1   10.23    0.97
 -13   4   1   19.94    1.53
 -13   4   1   22.88    1.31
 -12   4   1    5.68    0.89
 -12   4   1    6.64    0.75
 -11   4   1   27.00    1.28
 -11   4   1   24.67    1.48
  10  -4  -1   77.65    2.46
 -10   4   1   79.37    2.76
 -10   4   1   82.12    2.51
 -10   4   1   82.26    2.55
   9  -4  -1   50.90    1.71
  -9   4   1   54.24    1.77
  -9   4   1   51.91    1.98
  -9   4   1   52.54    1.78
   8  -4  -1    8.34    0.61
  -8   4   1    8.91    0.69
  -8   4   1    9.20    0.68
  -8   4   1    8.37    0.76
   7  -4  -1   81.33    2.28
   7  -4  -1   75.17    2.28
  -7   4   1   80.74    2.32
  -7   4   1   76.05    2.31
   6  -4  -1   85.82    2.50
   6  -4  -1   89.70    2.49
  -6   4   1   87.17    2.52
  -6   4   1   90.80    2.54
   5  -4  -1   92.49    2.53
   5  -4  -1   91.00    2.54
  -5   4   1   86.23    2.54
  -5   4   1   94.22    2.57
   4  -4  -1  295.99    7.55
   4  -4  -1  288.24    7.55
  -4   4   1  277.85    7.55
  -4   4   1  291.16    7.57
   3  -4  -1   63.25    1.80
   3  -4  -1   63.58    1.81
  -3   4   1   60.39    1.80
  -3   4   1   63.56    1.82
   2  -4  -1   37.45    1.21
   2  -4  -1   37.73    1.24
  -2   4   1   40.12    1.25
  -2   4   1   37.34    1.22
   1  -4  -1    1.23    0.32
   1  -4  -1    1.33    0.32
  -1   4   1    1.61    0.35
  -1   4   1    1.59    0.33
   0  -4  -1  106.34    2.98
   0  -4  -1  107.52    3.01
   0   4   1  107.26    3.00
   0   4   1  104.07    3.08
   0   4   1  103.96    2.98
  -1  -4  -1    6.42    0.57
  -1  -4  -1    7.04    0.57
  -1  -4  -1    6.87    0.55
   1   4   1    7.07    0.59
   1   4   1    6.59    0.56
   1   4   1    7.03    0.60
  -2  -4  -1  141.15    3.82
  -2  -4  -1  133.50    3.81
  -2  -4  -1  134.00    3.89
   2   4   1  133.31    3.81
   2   4   1  137.00    3.81
   2   4   1  135.93    3.86
  -3  -4  -1  128.78    3.78
  -3  -4  -1  125.69    3.69
  -3  -4  -1  131.97    3.69
   3   4   1  128.62    3.72
   3   4   1  130.74    3.68
   3   4   1  131.21    3.70
  -4  -4  -1   13.28    0.86
  -4  -4  -1   13.07    0.82
  -4  -4  -1   14.00    0.97
   4   4   1   13.81    0.87
   4   4   1   14.31    0.89
   4   4   1   13.75    0.82
  -5  -4  -1   31.70    1.46
  -5  -4  -1   32.45    1.38
  -5  -4  -1   32.87    1.33
   5   4   1   32.68    1.36
   5   4   1   31.48    1.37
  -6  -4  -1   45.50    1.80
  -6  -4  -1   48.94    1.92
   6   4   1   46.94    1.77
   6   4   1   45.74    1.78
  -7  -4  -1    8.65    0.91
  -7  -4  -1    7.95    0.83
   7   4   1    6.96    0.81
  -8  -4  -1   25.79    1.43
  -8  -4  -1   25.07    1.55
   8   4   1   24.77    1.38
  -9  -4  -1   33.93    1.71
  -9  -4  -1   33.35    1.85
   9   4   1   36.11    1.71
 -10  -4  -1   -0.61    0.62
 -10  -4  -1   -0.76    0.75
  10   4   1    0.38    0.60
 -11  -4  -1    6.69    0.98
 -14   5   1    1.46    0.63
 -13   5   1   11.76    1.20
 -13   5   1   12.06    1.00
 -12   5   1   11.19    0.98
 -12   5   1    9.02    1.03
 -11   5   1    2.89    0.70
 -11   5   1    1.57    0.55
  10  -5  -1   63.58    2.11
 -10   5   1   68.57    2.20
 -10   5   1   67.94    2.18
 -10   5   1   65.16    2.41
   9  -5  -1   23.88    1.02
  -9   5   1   24.39    1.08
  -9   5   1   24.18    1.10
  -9   5   1   23.09    1.29
   8  -5  -1    4.42    0.46
  -8   5   1    4.26    0.50
  -8   5   1    4.42    0.50
   7  -5  -1   42.77    1.39
   7  -5  -1   41.61    1.41
  -7   5   1   45.92    1.48
  -7   5   1   42.60    1.46
   6  -5  -1   34.03    1.18
   6  -5  -1   35.88    1.18
  -6   5   1   32.55    1.19
  -6   5   1   37.41    1.23
   5  -5  -1    5.34    0.45
   5  -5  -1    5.79    0.44
  -5   5   1    4.91    0.44
  -5   5   1    5.38    0.46
   4  -5  -1   83.23    2.35
   4  -5  -1   80.02    2.33
  -4   5   1   85.24    2.37
  -4   5   1   80.19    2.34
   3  -5  -1   70.41    2.03
   3  -5  -1   68.49    2.01
  -3   5   1   70.33    2.04
  -3   5   1   66.17    2.01
   2  -5  -1   20.48    0.87
   2  -5  -1   20.17    0.83
  -2   5   1   19.50    0.88
  -2   5   1   19.77    0.85
   1  -5  -1   12.17    0.70
   1  -5  -1   12.20    0.69
  -1   5   1   12.97    0.86
  -1   5   1   10.77    0.68
  -1   5   1   12.64    0.73
   0  -5  -1   85.39    2.46
   0  -5  -1   80.23    2.47
   0   5   1   82.07    2.46
   0   5   1   84.74    2.57
   0   5   1   79.44    2.45
  -1  -5  -1    0.45    0.34
  -1  -5  -1   -0.17    0.31
  -1  -5  -1   -0.30    0.39
   1   5   1    0.11    0.43
   1   5   1   -0.09    0.33
   1   5   1   -0.15    0.31
  -2  -5  -1   67.67    2.28
  -2  -5  -1   68.87    2.20
  -2  -5  -1   71.90    2.19
   2   5   1   69.30    2.19
   2   5   1   68.50    2.23
  -3  -5  -1   35.24    1.49
  -3  -5  -1   34.82    1.39
  -3  -5  -1   37.07    1.38
   3   5   1   34.64    1.36
   3   5   1   35.21    1.41
   3   5   1   33.09    1.37
  -4  -5  -1    5.98    0.63
  -4  -5  -1    5.69    0.65
  -4  -5  -1    4.74    0.72
   4   5   1    6.10    0.71
   4   5   1    6.64    0.70
  -5  -5  -1   30.87    1.42
  -5  -5  -1   33.26    1.56
   5   5   1   30.80    1.42
   5   5   1   30.79    1.40
  -6  -5  -1   21.46    1.26
  -6  -5  -1   21.39    1.39
   6   5   1   21.64    1.25
  -7  -5  -1    0.41    0.67
  -7  -5  -1   -0.46    0.52
   7   5   1    0.26    0.54
  -8  -5  -1   21.31    1.53
  -8  -5  -1   19.30    1.37
   8   5   1   20.06    1.35
  -9  -5  -1    9.37    1.12
  -9  -5  -1    7.96    1.00
   9   5   1    8.71    1.00
 -10  -5  -1    0.61    0.87
 -10  -5  -1    0.54    0.69
  10   5   1    1.94    0.69
 -13   6   1   20.36    1.55
 -13   6   1   19.31    1.25
 -12   6   1    3.65    0.66
 -12   6   1    4.38    0.82
 -11   6   1   -0.24    0.58
 -11   6   1   -0.78    0.47
  10  -6  -1   79.21    2.51
 -10   6   1   84.86    2.59
 -10   6   1   80.44    2.82
 -10   6   1   84.14    2.61
   9  -6  -1    9.09    0.68
  -9   6   1   10.05    0.77
  -9   6   1    8.99    0.72
   8  -6  -1    0.37    0.33
  -8   6   1   -0.62    0.38
  -8   6   1    0.57    0.38
   7  -6  -1  120.39    3.38
  -7   6   1  120.28    3.42
  -7   6   1  118.29    3.40
   6  -6  -1   31.34    1.11
   6  -6  -1   30.39    1.12
  -6   6   1   30.88    1.18
  -6   6   1   30.32    1.15
   5  -6  -1    1.74    0.35
   5  -6  -1    3.25    0.40
  -5   6   1    2.32    0.40
  -5   6   1    2.53    0.38
   4  -6  -1  152.61    4.22
   4  -6  -1  156.92    4.24
  -4   6   1  156.74    4.25
  -4   6   1  149.78    4.23
   3  -6  -1   42.00    1.42
   3  -6  -1   41.17    1.41
  -3   6   1   39.53    1.40
  -3   6   1   45.09    1.45
   2  -6  -1   31.07    1.15
   2  -6  -1   27.92    1.13
  -2   6   1   31.65    1.19
  -2   6   1   29.61    1.15
   1  -6  -1  227.64    6.31
   1  -6  -1  228.18    6.28
  -1   6   1  238.74    6.45
  -1   6   1  240.87    6.33
  -1   6   1  225.26    6.28
   0  -6  -1   36.29    1.32
   0  -6  -1   34.30    1.35
   0   6   1   33.12    1.32
   0   6   1   35.14    1.46
   0   6   1   34.39    1.33
  -1  -6  -1    4.87    0.60
  -1  -6  -1    6.35    0.67
  -1  -6  -1    4.74    0.55
   1   6   1    5.77    0.63
   1   6   1    5.21    0.59
   1   6   1    6.08    0.70
  -2  -6  -1   35.03    1.52
  -2  -6  -1   35.08    1.39
  -2  -6  -1   35.00    1.43
   2   6   1   35.53    1.48
   2   6   1   34.76    1.42
  -3  -6  -1   69.33    2.33
  -3  -6  -1   67.56    2.42
  -3  -6  -1   70.46    2.37
   3   6   1   70.18    2.35
   3   6   1   67.36    2.30
  -4  -6  -1    3.75    0.75
  -4  -6  -1    3.40    0.63
   4   6   1    3.30    0.63
   4   6   1    2.70    0.61
  -5  -6  -1   14.06    1.14
  -5  -6  -1   12.75    1.07
   5   6   1   13.83    1.06
  -6  -6  -1   18.97    1.26
  -6  -6  -1   18.03    1.40
   6   6   1   17.49    1.20
  -7  -6  -1    1.20    0.67
  -7  -6  -1    2.55    0.81
   7   6   1    1.58    0.67
  -8  -6  -1    5.02    0.87
  -8  -6  -1    4.72    0.97
   8   6   1    5.69    0.88
  -9  -6  -1    8.27    1.06
  -9  -6  -1    9.09    1.17
   9   6   1   11.35    1.14
 -10  -6  -1    1.53    0.79
 -13   7   1   10.61    1.23
 -13   7   1   15.63    1.16
 -12   7   1   31.71    1.73
 -12   7   1   34.89    1.56
 -11   7   1   -0.11    0.57
 -11   7   1    0.09    0.49
 -10   7   1   12.12    0.94
 -10   7   1    9.75    0.86
   9  -7  -1   82.58    2.57
  -9   7   1   87.33    2.66
  -9   7   1   85.00    2.64
   8  -7  -1    6.24    0.57
  -8   7   1    5.83    0.63
  -8   7   1    6.76    0.62
   7  -7  -1   20.24    0.93
  -7   7   1   20.20    0.98
  -7   7   1   20.32    0.99
   6  -7  -1   87.35    2.62
  -6   7   1   92.56    2.68
  -6   7   1   87.68    2.66
   5  -7  -1    0.23    0.33
   5  -7  -1    0.49    0.34
  -5   7   1    0.47    0.38
  -5   7   1    0.12    0.31
   4  -7  -1    2.67    0.43
   4  -7  -1    3.43    0.45
  -4   7   1    2.10    0.41
  -4   7   1    2.37    0.45
   3  -7  -1   84.79    2.52
   3  -7  -1   80.96    2.50
  -3   7   1   87.30    2.55
  -3   7   1   77.77    2.49
   2  -7  -1   11.95    0.77
   2  -7  -1   11.61    0.78
  -2   7   1   11.59    0.81
  -2   7   1   10.97    0.79
  -2   7   1   11.07    0.98
   1  -7  -1   31.14    1.29
   1  -7  -1   30.24    1.24
  -1   7   1   29.03    1.24
  -1   7   1   32.55    1.48
  -1   7   1   32.70    1.30
   0  -7  -1  105.36    3.09
   0  -7  -1   99.41    3.02
   0   7   1  100.25    3.05
   0   7   1   99.45    3.17
   0   7   1   97.75    3.04
  -1  -7  -1   13.88    0.96
   1   7   1   13.24    0.95
   1   7   1   14.30    0.93
   1   7   1   14.46    1.07
  -2  -7  -1    2.59    0.61
  -2  -7  -1    2.15    0.65
   2   7   1    2.60    0.59
   2   7   1    3.06    0.64
  -3  -7  -1   70.66    2.51
  -3  -7  -1   69.79    2.40
   3   7   1   67.48    2.40
   3   7   1   65.55    2.36
  -4  -7  -1    8.21    0.88
  -4  -7  -1    7.71    0.95
   4   7   1    8.93    0.89
  -5  -7  -1    4.01    0.75
  -5  -7  -1    2.85    0.78
   5   7   1    2.08    0.62
  -6  -7  -1   26.45    1.55
  -6  -7  -1   23.98    1.60
   6   7   1   26.15    1.48
  -7  -7  -1    4.34    0.86
  -7  -7  -1    4.33    0.90
   7   7   1    3.12    0.74
  -8  -7  -1    2.87    0.83
  -8  -7  -1    3.75    0.94
   8   7   1    2.05    0.72
  -9  -7  -1    9.54    1.20
  -9  -7  -1    9.02    1.22
   9   7   1    8.72    1.09
 -13   8   1    6.58    0.82
 -12   8   1   16.90    1.42
 -12   8   1   19.94    1.22
 -11   8   1    5.52    0.72
 -10   8   1    6.09    0.71
   9  -8  -1   24.79    1.11
  -9   8   1   26.67    1.26
  -9   8   1   26.85    1.24
   8  -8  -1   10.43    0.74
  -8   8   1   10.89    0.86
  -8   8   1   11.63    0.87
   7  -8  -1   19.14    0.96
  -7   8   1   21.17    1.06
  -7   8   1   21.76    1.07
   6  -8  -1    3.90    0.50
  -6   8   1    4.02    0.56
  -6   8   1    3.26    0.53
   5  -8  -1    9.25    0.72
  -5   8   1    9.95    0.79
  -5   8   1    9.52    0.76
   4  -8  -1   14.64    0.88
  -4   8   1   14.83    0.90
  -4   8   1   16.25    0.93
   3  -8  -1   33.22    1.36
  -3   8   1   32.19    1.35
  -3   8   1   34.87    1.39
   2  -8  -1   10.06    0.84
  -2   8   1   10.22    0.83
  -2   8   1    9.79    0.82
  -2   8   1   10.10    0.94
   1  -8  -1   30.93    1.34
  -1   8   1   29.71    1.31
  -1   8   1   27.30    1.28
  -1   8   1   29.61    1.52
   0  -8  -1   51.30    1.91
   0   8   1   50.46    1.86
   0   8   1   49.61    1.86
   0   8   1   50.20    2.01
  -1  -8  -1   13.73    1.06
   1   8   1   13.18    1.03
   1   8   1   13.84    1.05
   1   8   1   15.45    1.17
  -2  -8  -1   22.03    1.29
  -2  -8  -1   21.50    1.34
   2   8   1   21.86    1.27
  -3  -8  -1   17.11    1.22
  -3  -8  -1   15.95    1.32
   3   8   1   16.64    1.20
  -4  -8  -1   19.17    1.43
  -4  -8  -1   18.72    1.31
   4   8   1   18.96    1.31
  -5  -8  -1    2.30    0.82
  -5  -8  -1    4.15    0.80
   5   8   1    2.52    0.76
  -6  -8  -1   24.79    1.70
  -6  -8  -1   26.03    1.63
   6   8   1   22.38    1.51
  -7  -8  -1    5.04    0.99
  -7  -8  -1    4.81    0.96
   7   8   1    5.30    0.95
  -8  -8  -1   -1.31    0.68
  -8  -8  -1    0.64    0.83
   8   8   1    0.16    0.68
 -13   9   1    7.94    0.89
 -12   9   1   20.48    1.50
 -12   9   1   23.04    1.32
 -11   9   1    5.90    0.76
 -10   9   1    6.91    0.77
  -9   9   1   38.10    1.59
   8  -9  -1    5.98    0.61
  -8   9   1    5.87    0.67
  -8   9   1    5.96    0.68
   7  -9  -1    7.99    0.67
  -7   9   1    6.83    0.74
  -7   9   1    7.98    0.74
   6  -9  -1   38.20    1.48
  -6   9   1   38.86    1.56
  -6   9   1   39.31    1.55
   5  -9  -1   13.08    0.88
  -5   9   1   12.91    0.91
  -5   9   1   10.38    0.87
   4  -9  -1   24.04    1.19
  -4   9   1   26.52    1.24
  -4   9   1   25.51    1.24
   3  -9  -1  132.81    3.95
  -3   9   1  126.67    3.92
  -3   9   1  134.21    3.96
  -3   9   1  141.51    4.23
   2  -9  -1   26.77    1.30
  -2   9   1   25.94    1.52
  -2   9   1   26.41    1.29
  -2   9   1   27.35    1.30
   1  -9  -1    1.94    0.59
  -1   9   1    1.79    0.54
  -1   9   1    2.09    0.56
   0  -9  -1   66.70    2.31
   0   9   1   60.08    2.22
  -1  -9  -1   26.07    1.41
   1   9   1   25.69    1.39
  -2  -9  -1    6.32    0.82
   2   9   1    6.50    0.86
  -3  -9  -1   25.43    1.50
  -3  -9  -1   23.26    1.53
   3   9   1   22.84    1.42
  -4  -9  -1   21.42    1.59
  -4  -9  -1   23.84    1.54
   4   9   1   25.13    1.50
  -5  -9  -1    0.91    0.80
  -5  -9  -1   -0.11    0.67
   5   9   1   -0.15    0.70
  -6  -9  -1    8.89    1.11
  -6  -9  -1    8.48    1.15
   6   9   1   10.06    1.21
  -7  -9  -1    9.76    1.24
  -7  -9  -1   10.63    1.25
   7   9   1    9.89    1.22
  -8  -9  -1    0.12    0.84
   8   9   1    0.05    0.71
 -12  10   1   11.25    0.97
 -11  10   1   17.26    1.21
 -10  10   1    2.63    0.64
  -9  10   1   12.53    1.04
   8 -10  -1   28.78    1.29
  -8  10   1   32.20    1.45
  -8  10   1   31.98    1.47
   7 -10  -1    0.55    0.45
  -7  10   1   -0.10    0.46
  -7  10   1    0.41    0.55
   6 -10  -1   49.39    1.80
  -6  10   1   50.66    1.88
  -6  10   1   46.36    1.84
   5 -10  -1   51.90    1.87
  -5  10   1   48.35    1.88
  -5  10   1   48.58    1.88
   4 -10  -1    1.17    0.53
  -4  10   1    2.64    0.60
  -4  10   1    2.12    0.59
   3 -10  -1   27.62    1.34
  -3  10   1   23.79    1.31
  -3  10   1   26.28    1.31
   2 -10  -1   94.90    3.06
  -2  10   1   93.83    3.04
  -2  10   1   93.12    3.03
   1 -10  -1    1.23    0.58
  -1  10   1    1.06    0.58
   0 -10  -1    9.73    0.92
   0  10   1    9.60    0.96
  -1 -10  -1   26.82    1.51
   1  10   1   25.77    1.43
  -2 -10  -1    1.93    0.72
   2  10   1    1.67    0.68
  -3 -10  -1    7.47    1.03
   3  10   1    8.38    0.98
  -4 -10  -1   17.47    1.48
  -4 -10  -1   15.28    1.37
   4  10   1   13.62    1.22
  -5 -10  -1    0.55    0.76
  -5 -10  -1    1.33    0.82
   5  10   1    2.26    0.80
  -6 -10  -1    3.31    0.96
  -6 -10  -1    1.74    0.86
   6  10   1    3.43    0.90
  -7 -10  -1    5.94    1.13
   7  10   1    5.82    1.01
 -12  11   1   13.14    1.10
 -11  11   1    9.73    0.94
 -10  11   1   -0.98    0.59
  -9  11   1   20.66    1.31
  -8  11   1   10.94    0.96
   7 -11  -1    1.28    0.52
  -7  11   1    1.85    0.65
   6 -11  -1   52.22    1.94
  -6  11   1   51.28    2.01
  -6  11   1   51.43    2.00
   5 -11  -1   21.66    1.23
  -5  11   1   23.42    1.33
  -5  11   1   22.94    1.30
   4 -11  -1    5.46    0.74
  -4  11   1    5.99    0.77
  -4  11   1    4.95    0.75
   3 -11  -1   24.67    1.36
  -3  11   1   23.53    1.35
   2 -11  -1   18.26    1.27
  -2  11   1   20.81    1.27
   1 -11  -1    6.57    0.86
  -1  11   1    6.91    0.88
   0 -11  -1    8.90    0.95
   0  11   1    8.67    0.93
  -1 -11  -1    7.64    0.96
   1  11   1    6.76    0.92
  -2 -11  -1    5.77    0.94
   2  11   1    6.71    0.94
  -3 -11  -1    4.18    0.91
   3  11   1    5.33    0.89
  -4 -11  -1    7.82    1.14
   4  11   1    7.10    1.01
  -5 -11  -1    2.53    0.89
  -5 -11  -1    1.35    0.87
   5  11   1    1.71    0.86
  -6 -11  -1    2.10    0.98
   6  11   1    2.04    0.89
 -11  12   1   18.13    1.37
 -10  12   1    0.93    0.67
  -9  12   1    5.98    0.86
  -8  12   1   32.74    1.68
  -7  12   1    2.71    0.71
   6 -12  -1    8.38    0.85
  -6  12   1    9.64    0.96
   5 -12  -1   40.02    1.78
  -5  12   1   45.96    1.91
   4 -12  -1    3.85    0.73
  -4  12   1    3.53    0.76
   3 -12  -1    0.79    0.61
  -3  12   1    2.79    0.71
   2 -12  -1   18.59    1.31
  -2  12   1   16.74    1.29
   1 -12  -1    5.07    0.84
  -1  12   1    4.24    0.79
   0 -12  -1    0.64    0.69
   0  12   1    1.43    0.70
  -1 -12  -1   20.67    1.52
   1  12   1   20.44    1.46
  -2 -12  -1    6.78    1.03
   2  12   1    4.40    0.88
  -3 -12  -1   -0.27    0.77
   3  12   1    0.87    0.69
  -4 -12  -1    7.77    1.18
   4  12   1    7.17    1.06
 -10  13   1    7.58    1.00
  -9  13   1    1.69    0.77
  -8  13   1    7.08    0.96
  -7  13   1    8.54    0.99
  -6  13   1    3.34    0.81
  -5  13   1    7.63    0.97
   4 -13  -1   13.87    1.19
  -4  13   1   13.58    1.16
   3 -13  -1    0.62    0.63
  -3  13   1    1.82    0.73
   2 -13  -1    5.50    0.86
  -2  13   1    4.88    0.86
   1 -13  -1    8.46    1.02
  -1  13   1    8.57    1.01
   0 -13  -1    1.43    0.76
   0  13   1    1.32    0.71
  -1 -13  -1    4.25    0.94
   1  13   1    6.07    1.01
  -2 -13  -1    6.83    1.08
   2  13   1    7.04    1.03
  -3 -13  -1    0.57    0.85
   3  13   1   -0.04    0.76
  -9  14   1    0.07    0.72
  -8  14   1   14.34    1.27
  -7  14   1    2.06    0.81
  -6  14   1    1.36    0.74
  -5  14   1   20.55    1.53
  -4  14   1    6.42    0.96
  -3  14   1    0.55    0.73
   2 -14  -1   12.54    1.19
  -2  14   1   12.28    1.22
   1 -14  -1    4.76    0.93
  -1  14   1    4.71    0.90
   0 -14  -1   -0.09    0.75
   0  14   1   -0.24    0.74
  -1 -14  -1    7.09    1.09
   1  14   1    6.15    1.00
  -6  15   1   -0.51    0.75
  -5  15   1    3.20    0.87
  -4  15   1   18.81    1.50
  -3  15   1    0.05    0.74
  -2  15   1    0.51    0.74
   1  15  -2    6.15    1.03
  -1 -15   2    5.77    1.05
   0  15  -2    1.19    0.81
   0 -15   2   -0.22    0.75
  -1  15  -2    3.20    0.89
   1 -15   2    3.92    0.93
  -2  15  -2    8.01    1.06
   2 -15   2    8.73    1.12
  -3  15  -2    2.35    0.83
   3 -15   2    0.91    0.79
  -4  15  -2    2.27    0.88
   4 -15   2    2.36    0.90
  -5  15  -2   17.57    1.45
  -6  15  -2    4.66    0.98
  -7  15  -2    0.72    0.80
   3  14  -2    1.92    0.88
  -3 -14   2    1.02    0.87
   2  14  -2    1.30    0.80
  -2 -14   2    1.46    0.85
   1  14  -2   15.33    1.33
  -1 -14   2   14.73    1.37
   0  14  -2    6.53    1.00
   0 -14   2    4.93    0.97
  -1  14  -2    0.19    0.69
   1 -14   2    0.81    0.77
  -2  14  -2   21.90    1.53
   2 -14   2   23.25    1.60
  -3  14  -2   13.31    1.19
   3 -14   2   13.61    1.24
  -4  14  -2   -0.46    0.65
   4 -14   2    0.02    0.65
  -5  14  -2   23.48    1.60
   5 -14   2   21.45    1.50
  -6  14  -2   18.16    1.53
  -7  14  -2    0.78    0.75
  -8  14  -2    7.57    1.06
   5  13  -2    0.02    0.71
  -5 -13   2    0.30    0.87
   4  13  -2    3.64    0.88
  -4 -13   2    4.18    0.97
   3  13  -2    6.15    0.97
  -3 -13   2    4.89    0.96
   2  13  -2   -0.33    0.66
  -2 -13   2    0.51    0.76
   1  13  -2    7.35    1.01
  -1 -13   2    5.11    0.94
   0  13  -2   11.57    1.14
   0 -13   2    9.86    1.11
  -1  13  -2    0.47    0.68
   1 -13   2    0.89    0.72
  -2  13  -2    5.56    0.88
   2 -13   2    5.32    0.90
  -3  13  -2    9.46    1.01
   3 -13   2    7.86    0.98
  -4  13  -2    0.86    0.69
   4 -13   2    2.30    0.75
  -5  13  -2    8.44    0.97
   5 -13   2    8.96    0.98
  -6  13  -2   16.32    1.36
   6 -13   2   12.19    1.12
  -7  13  -2    1.80    0.77
  -8  13  -2    3.81    0.88
  -9  13  -2    6.32    0.96
 -10  13  -2    2.71    0.83
   6  12  -2    4.25    0.93
  -6 -12   2    6.21    1.16
   5  12  -2    0.25    0.71
  -5 -12   2   -0.59    0.77
   4  12  -2   13.93    1.28
  -4 -12   2   17.75    1.52
   3  12  -2   10.04    1.08
  -3 -12   2   11.46    1.16
   2  12  -2    0.32    0.66
  -2 -12   2    0.10    0.68
   1  12  -2   15.08    1.31
  -1 -12   2   15.57    1.35
   0  12  -2   19.77    1.36
   0 -12   2   19.36    1.44
  -1  12  -2    0.09    0.60
   1 -12   2   -0.51    0.63
  -2  12  -2   15.81    1.21
   2 -12   2   12.49    1.15
  -3  12  -2   23.60    1.40
   3 -12   2   22.27    1.41
  -4  12  -2    2.12    0.67
   4 -12   2    1.52    0.68
  -5  12  -2   20.15    1.37
   5 -12   2   19.91    1.31
  -6  12  -2   30.12    1.67
   6 -12   2   31.38    1.57
  -7  12  -2    0.48    0.63
   7 -12   2    2.33    0.64
  -8  12  -2    7.58    0.93
  -9  12  -2   29.92    1.68
 -10  12  -2    0.06    0.69
   7  11  -2    4.19    0.88
  -7 -11   2    5.28    1.02
   6  11  -2   20.04    1.50
  -6 -11   2   21.96    1.64
  -6 -11   2   16.46    1.52
   5  11  -2   -0.02    0.63
  -5 -11   2   -0.35    0.73
  -5 -11   2   -0.05    0.73
   4  11  -2    3.47    0.76
  -4 -11   2    2.90    0.87
  -4 -11   2    3.14    0.85
   3  11  -2   32.74    1.70
  -3 -11   2   32.83    1.77
   2  11  -2    3.81    0.74
  -2 -11   2    3.98    0.79
   1  11  -2    2.38    0.68
  -1 -11   2    3.25    0.77
   0  11  -2   40.13    1.82
   0 -11   2   43.00    1.90
  -1  11  -2   19.30    1.29
   1 -11   2   22.22    1.39
  -2  11  -2    0.42    0.55
   2 -11   2    1.74    0.65
  -3  11  -2   48.80    1.96
   3 -11   2   50.31    2.02
  -4  11  -2   12.02    1.05
   4 -11   2   11.10    0.99
  -5  11  -2    0.59    0.61
   5 -11   2    0.89    0.54
  -6  11  -2   50.85    2.03
   6 -11   2   50.53    1.99
  -7  11  -2   23.77    1.38
   7 -11   2   23.16    1.32
  -8  11  -2    1.25    0.63
   8 -11   2    1.76    0.59
  -9  11  -2   22.86    1.44
 -10  11  -2    8.03    0.96
 -11  11  -2    0.58    0.71
   8  10  -2    2.04    0.75
  -8 -10   2    1.11    0.85
   7  10  -2    5.21    0.88
  -7 -10   2    5.97    1.15
  -7 -10   2    4.75    1.00
   6  10  -2    9.23    1.00
  -6 -10   2    7.85    1.10
  -6 -10   2    8.62    1.17
   5  10  -2    2.87    0.75
  -5 -10   2    3.49    0.82
  -5 -10   2    1.92    0.82
   4  10  -2    1.62    0.63
  -4 -10   2    0.62    0.74
  -4 -10   2    1.21    0.74
   3  10  -2    8.93    0.92
  -3 -10   2    7.98    0.95
  -3 -10   2    5.54    0.87
   2  10  -2   16.81    1.20
  -2 -10   2   17.33    1.25
   1  10  -2    8.00    0.90
  -1 -10   2    8.10    0.91
   0  10  -2   19.16    1.20
   0 -10   2   19.13    1.24
  -1  10  -2   36.62    1.62
   1 -10   2   36.54    1.68
  -2  10  -2    5.09    0.70
   2 -10   2    5.31    0.77
  -3  10  -2   31.77    1.47
   3 -10   2   34.29    1.54
  -4  10  -2    2.70    0.57
   4 -10   2    3.46    0.66
  -5  10  -2    0.38    0.56
   5 -10   2    0.03    0.51
  -6  10  -2   34.64    1.55
   6 -10   2   33.58    1.52
  -7  10  -2   21.61    1.27
   7 -10   2   22.23    1.22
  -8  10  -2    0.67    0.59
   8 -10   2    0.15    0.48
  -9  10  -2   10.18    0.96
   9 -10   2   11.31    0.98
 -10  10  -2    6.54    0.86
 -11  10  -2    0.40    0.65
 -12  10  -2   13.08    1.16
  -9  -9   2    8.47    1.19
   8   9  -2    3.35    0.80
  -8  -9   2    4.45    0.95
  -8  -9   2    3.45    0.95
   7   9  -2    2.79    0.76
  -7  -9   2    3.17    0.93
  -7  -9   2    1.38    0.77
   6   9  -2   19.30    1.34
  -6  -9   2   21.30    1.49
  -6  -9   2   22.68    1.63
   5   9  -2   16.41    1.20
  -5  -9   2   16.64    1.35
  -5  -9   2   14.61    1.29
   4   9  -2    2.58    0.65
  -4  -9   2    2.88    0.78
  -4  -9   2    3.32    0.73
   3   9  -2   35.74    1.59
  -3  -9   2   35.08    1.76
  -3  -9   2   33.76    1.66
   2   9  -2   17.47    1.14
  -2  -9   2   14.45    1.21
  -2  -9   2   19.08    1.21
   1   9  -2    2.33    0.58
  -1  -9   2    1.69    0.58
   0   9  -2   97.93    3.21
   0   9  -2   96.97    3.08
   0  -9   2   98.51    3.13
  -1   9  -2   41.46    1.67
  -1   9  -2   42.07    1.67
  -1   9  -2   41.94    1.84
   1  -9   2   43.46    1.73
  -2   9  -2    7.29    0.74
  -2   9  -2    7.25    0.72
  -2   9  -2    6.59    0.82
   2  -9   2    7.68    0.80
  -3   9  -2   57.90    2.07
  -3   9  -2   61.74    2.10
   3  -9   2   60.60    2.13
  -4   9  -2   41.01    1.66
  -4   9  -2   45.04    1.68
   4  -9   2   43.44    1.69
  -5   9  -2   -0.13    0.44
  -5   9  -2    0.55    0.51
   5  -9   2    0.87    0.52
  -6   9  -2   42.69    1.63
  -6   9  -2   38.55    1.62
   6  -9   2   39.01    1.59
  -7   9  -2   59.01    2.13
  -7   9  -2   59.68    2.13
   7  -9   2   60.26    2.11
  -8   9  -2    0.20    0.53
   8  -9   2    0.27    0.43
  -9   9  -2   19.86    1.25
   9  -9   2   16.84    1.12
 -10   9  -2   23.70    1.41
 -11   9  -2   -0.36    0.57
 -11   9  -2   -0.47    0.61
 -12   9  -2   13.61    1.16
 -12   9  -2   11.65    1.15
 -10  -8   2    0.22    0.70
   9   8  -2    7.71    1.03
  -9  -8   2   11.61    1.23
  -9  -8   2    9.92    1.26
   8   8  -2   12.28    1.09
  -8  -8   2   11.89    1.29
  -8  -8   2    9.86    1.14
   7   8  -2   -0.11    0.56
  -7  -8   2    0.87    0.77
  -7  -8   2    0.28    0.64
   6   8  -2   10.24    1.00
  -6  -8   2    8.78    1.00
  -6  -8   2    8.61    1.04
   5   8  -2   48.09    1.93
  -5  -8   2   44.96    2.09
  -5  -8   2   47.72    1.98
   4   8  -2    0.14    0.50
  -4  -8   2   -0.56    0.60
  -4  -8   2   -0.66    0.53
   3   8  -2   20.34    1.17
  -3  -8   2   21.36    1.35
  -3  -8   2   21.05    1.25
   2   8  -2   42.21    1.74
   2   8  -2   39.81    1.62
  -2  -8   2   40.97    1.76
   1   8  -2    5.54    0.64
   1   8  -2    6.19    0.67
   1   8  -2    6.92    0.78
  -1  -8   2    6.07    0.67
  -1  -8   2    7.46    0.77
   0   8  -2   46.19    1.84
   0   8  -2   44.41    1.68
   0   8  -2   44.79    1.68
   0  -8   2   45.31    1.69
   0  -8   2   43.73    1.71
  -1   8  -2   64.44    2.17
  -1   8  -2   62.85    2.17
  -1   8  -2   66.08    2.32
   1  -8   2   66.26    2.16
   1  -8   2   65.17    2.21
  -2   8  -2    4.74    0.57
  -2   8  -2    5.18    0.60
  -2   8  -2    4.03    0.69
   2  -8   2    4.29    0.53
   2  -8   2    4.14    0.61
  -3   8  -2   27.77    1.21
  -3   8  -2   24.54    1.15
   3  -8   2   27.34    1.23
  -4   8  -2  108.71    3.19
  -4   8  -2  102.31    3.15
   4  -8   2  105.68    3.18
  -5   8  -2   11.15    0.86
  -5   8  -2    9.87    0.83
   5  -8   2   11.35    0.85
  -6   8  -2   16.43    1.01
  -6   8  -2   19.25    1.05
   6  -8   2   19.77    1.06
  -7   8  -2   38.79    1.52
  -7   8  -2   35.58    1.53
   7  -8   2   35.74    1.50
  -8   8  -2   11.08    0.91
  -8   8  -2   11.41    0.99
   8  -8   2   11.24    0.91
  -9   8  -2   29.89    1.46
   9  -8   2   29.86    1.38
 -10   8  -2   21.07    1.35
 -10   8  -2   22.73    1.34
  10  -8   2   21.88    1.21
 -11   8  -2    5.85    0.82
 -11   8  -2    6.62    0.87
 -12   8  -2   11.08    1.03
 -12   8  -2    8.23    1.02
 -10  -7   2   -0.10    0.68
   9   7  -2   11.26    1.09
  -9  -7   2   12.21    1.18
  -9  -7   2   13.36    1.34
   8   7  -2    8.69    0.94
  -8  -7   2    8.94    1.12
  -8  -7   2    8.48    0.99
   7   7  -2    0.14    0.56
  -7  -7   2    2.77    0.82
  -7  -7   2    1.70    0.66
   6   7  -2   22.50    1.29
  -6  -7   2   19.85    1.44
  -6  -7   2   20.23    1.30
   5   7  -2    9.46    0.86
  -5  -7   2    7.42    0.95
  -5  -7   2    9.68    0.92
   4   7  -2    2.56    0.58
   4   7  -2    2.96    0.58
  -4  -7   2    2.13    0.51
  -4  -7   2    3.32    0.64
  -4  -7   2    4.06    0.73
   3   7  -2   70.22    2.35
   3   7  -2   69.55    2.42
  -3  -7   2   72.74    2.51
  -3  -7   2   72.41    2.42
   2   7  -2   27.26    1.34
   2   7  -2   30.13    1.29
   2   7  -2   29.58    1.26
  -2  -7   2   30.01    1.27
  -2  -7   2   27.15    1.38
  -2  -7   2   28.37    1.32
   1   7  -2    5.45    0.68
   1   7  -2    6.06    0.62
   1   7  -2    6.28    0.63
  -1  -7   2    4.92    0.63
  -1  -7   2    5.66    0.62
  -1  -7   2    6.31    0.62
   0   7  -2   90.66    2.84
   0   7  -2   99.06    2.91
   0  -7   2   96.47    2.87
   0  -7   2   91.78    2.88
  -1   7  -2   39.14    1.57
  -1   7  -2   34.63    1.40
  -1   7  -2   40.72    1.46
   1  -7   2   38.84    1.47
   1  -7   2   39.54    1.42
  -2   7  -2   29.06    1.19
  -2   7  -2   29.00    1.21
   2  -7   2   32.12    1.21
   2  -7   2   32.56    1.27
  -3   7  -2  116.23    3.27
  -3   7  -2  104.34    3.21
   3  -7   2  113.51    3.27
   3  -7   2  110.19    3.22
  -4   7  -2   63.97    2.13
  -4   7  -2   69.05    2.15
   4  -7   2   63.60    2.09
   4  -7   2   70.42    2.16
  -5   7  -2   31.59    1.27
  -5   7  -2   31.29    1.28
   5  -7   2   32.61    1.29
  -6   7  -2   33.34    1.38
  -6   7  -2   34.83    1.38
   6  -7   2   35.45    1.39
  -7   7  -2   25.23    1.25
  -7   7  -2   25.99    1.20
   7  -7   2   26.22    1.20
  -8   7  -2   19.70    1.16
  -8   7  -2   20.49    1.12
   8  -7   2   22.48    1.11
  -9   7  -2   25.83    1.29
  -9   7  -2   26.68    1.35
   9  -7   2   28.37    1.29
 -10   7  -2   48.05    1.99
 -10   7  -2   45.47    1.89
  10  -7   2   46.96    1.82
 -11   7  -2   17.00    1.32
 -11   7  -2   16.00    1.25
 -12   7  -2    2.49    0.73
 -12   7  -2    3.62    0.83
 -11  -6   2   16.59    1.45
 -10  -6   2    1.19    0.87
 -10  -6   2    0.05    0.64
   9   6  -2    6.16    0.81
  -9  -6   2    6.28    0.87
  -9  -6   2    5.59    0.98
   8   6  -2   42.68    1.83
  -8  -6   2   40.68    1.84
  -8  -6   2   43.97    2.03
   7   6  -2    1.70    0.58
  -7  -6   2    2.10    0.62
  -7  -6   2    2.33    0.75
   6   6  -2    9.75    0.87
  -6  -6   2    9.96    0.99
  -6  -6   2    9.86    0.82
  -6  -6   2   10.00    0.89
   5   6  -2   97.66    3.19
   5   6  -2  104.51    3.19
  -5  -6   2  103.70    3.15
  -5  -6   2  101.94    3.18
   4   6  -2    1.33    0.52
   4   6  -2    1.79    0.48
  -4  -6   2    0.94    0.56
  -4  -6   2    1.10    0.45
  -4  -6   2    1.48    0.50
   3   6  -2   27.19    1.19
   3   6  -2   24.22    1.19
   3   6  -2   24.99    1.13
  -3  -6   2   25.28    1.20
  -3  -6   2   27.09    1.17
  -3  -6   2   25.09    1.26
   2   6  -2  324.05    8.78
   2   6  -2  332.89    8.78
  -2  -6   2  336.93    8.78
  -2  -6   2  314.85    8.91
   1   6  -2    5.45    0.55
   1   6  -2    6.21    0.63
   1   6  -2    4.63    0.54
  -1  -6   2    5.38    0.60
  -1  -6   2    6.36    0.61
  -1  -6   2    6.18    0.60
   0   6  -2    2.85    0.48
   0   6  -2    2.10    0.40
   0   6  -2    2.01    0.51
   0  -6   2    1.59    0.41
   0  -6   2    1.69    0.39
  -1   6  -2  299.15    7.91
  -1   6  -2  286.76    7.87
  -1   6  -2  295.72    8.02
   1  -6   2  300.09    7.88
   1  -6   2  294.51    7.91
  -2   6  -2   91.98    2.64
  -2   6  -2   86.31    2.60
   2  -6   2   87.73    2.63
   2  -6   2   90.07    2.61
  -3   6  -2   -0.12    0.30
  -3   6  -2    0.28    0.32
   3  -6   2    0.07    0.32
   3  -6   2    0.03    0.27
  -4   6  -2  253.40    6.97
  -4   6  -2  267.55    7.00
   4  -6   2  255.54    6.95
   4  -6   2  260.96    6.99
  -5   6  -2   68.96    2.13
  -5   6  -2   62.48    2.08
   5  -6   2   67.42    2.08
   5  -6   2   68.97    2.13
  -6   6  -2    4.98    0.56
  -6   6  -2    4.49    0.56
   6  -6   2    4.32    0.54
  -7   6  -2   88.50    2.75
  -7   6  -2   87.81    2.74
   7  -6   2   90.40    2.76
  -8   6  -2   27.32    1.29
  -8   6  -2   27.39    1.26
   8  -6   2   28.77    1.26
  -9   6  -2   -0.01    0.43
  -9   6  -2    0.10    0.50
  -9   6  -2    0.30    0.55
   9  -6   2    0.15    0.42
 -10   6  -2   47.85    1.92
 -10   6  -2   46.92    2.00
  10  -6   2   50.28    1.87
 -11   6  -2   30.63    1.62
 -11   6  -2   29.28    1.53
 -12   6  -2    1.08    0.63
 -12   6  -2    0.14    0.71
 -13   6  -2    9.99    1.02
 -12  -5   2    2.72    0.84
 -11  -5   2   13.61    1.19
 -11  -5   2   10.24    1.20
 -10  -5   2    3.39    0.77
 -10  -5   2    2.90    0.88
   9   5  -2    3.24    0.68
  -9  -5   2    4.44    0.75
  -9  -5   2    2.10    0.81
   8   5  -2   27.24    1.37
  -8  -5   2   28.60    1.42
  -8  -5   2   26.86    1.58
   7   5  -2   22.75    1.22
  -7  -5   2   25.00    1.18
  -7  -5   2   20.63    1.39
  -7  -5   2   24.36    1.25
   6   5  -2   -0.24    0.44
   6   5  -2   -0.96    0.43
  -6  -5   2    0.00    0.43
  -6  -5   2   -1.39    0.54
  -6  -5   2   -0.17    0.37
   5   5  -2   53.52    1.87
   5   5  -2   50.99    1.87
  -5  -5   2   56.06    1.85
  -5  -5   2   50.21    1.85
  -5  -5   2   53.76    1.97
   4   5  -2   98.98    2.96
   4   5  -2   99.91    3.00
  -4  -5   2   96.96    3.05
  -4  -5   2   98.30    2.94
  -4  -5   2   96.24    2.95
   3   5  -2    0.57    0.40
   3   5  -2    0.13    0.37
   3   5  -2    0.45    0.35
  -3  -5   2    0.95    0.40
  -3  -5   2    0.79    0.42
  -3  -5   2    0.98    0.39
   2   5  -2  113.09    3.29
   2   5  -2  116.49    3.29
  -2  -5   2  112.42    3.37
  -2  -5   2  113.44    3.31
  -2  -5   2  116.40    3.29
   1   5  -2  167.88    4.79
   1   5  -2  173.78    4.75
   1   5  -2  168.50    4.71
  -1  -5   2  179.44    4.75
  -1  -5   2  170.06    4.81
   0   5  -2    7.83    0.64
   0   5  -2    7.72    0.63
   0   5  -2    7.20    0.56
   0  -5   2    8.61    0.60
   0  -5   2    8.28    0.60
  -1   5  -2   51.41    1.70
  -1   5  -2   53.56    1.65
  -1   5  -2   50.46    1.61
   1  -5   2   51.58    1.61
   1  -5   2   51.33    1.65
  -2   5  -2  178.51    4.76
  -2   5  -2  166.06    4.72
   2  -5   2  181.37    4.74
   2  -5   2  172.47    4.75
  -3   5  -2   16.62    0.78
  -3   5  -2   16.38    0.77
   3  -5   2   16.06    0.77
   3  -5   2   17.14    0.75
  -4   5  -2   86.65    2.62
  -4   5  -2   89.57    2.64
   4  -5   2   91.14    2.62
   4  -5   2   93.73    2.65
  -5   5  -2   26.99    1.13
  -5   5  -2   30.46    1.15
   5  -5   2   29.27    1.11
   5  -5   2   30.41    1.17
  -6   5  -2    0.11    0.38
  -6   5  -2   -0.44    0.35
   6  -5   2    0.06    0.35
  -7   5  -2   38.75    1.45
  -7   5  -2   34.84    1.43
   7  -5   2   38.99    1.45
  -8   5  -2   37.07    1.53
  -8   5  -2   38.66    1.51
  -8   5  -2   39.76    1.61
   8  -5   2   37.83    1.50
  -9   5  -2    6.65    0.70
  -9   5  -2    6.86    0.75
  -9   5  -2    7.25    0.80
   9  -5   2    7.06    0.72
 -10   5  -2   16.87    1.25
 -10   5  -2   17.34    1.15
  10  -5   2   18.20    1.07
 -11   5  -2   20.09    1.37
 -11   5  -2   19.32    1.28
 -12   5  -2    1.43    0.76
 -12   5  -2    2.35    0.69
 -13   5  -2   12.87    1.17
 -12  -4   2    4.20    0.82
 -11  -4   2    6.72    0.90
 -11  -4   2    6.88    1.05
  10   4  -2   14.72    1.07
 -10  -4   2   14.12    1.25
 -10  -4   2   15.53    1.18
   9   4  -2    5.55    0.71
  -9  -4   2    5.82    0.69
  -9  -4   2    4.92    0.84
  -9  -4   2    5.51    0.75
   8   4  -2   26.31    1.27
  -8  -4   2   24.89    1.28
  -8  -4   2   24.76    1.47
  -8  -4   2   26.72    1.22
   7   4  -2   48.43    1.77
  -7  -4   2   46.23    1.93
  -7  -4   2   49.84    1.80
  -7  -4   2   49.51    1.75
   6   4  -2    7.09    0.69
   6   4  -2    8.55    0.73
  -6  -4   2    7.87    0.66
  -6  -4   2    6.67    0.65
  -6  -4   2    7.11    0.76
   5   4  -2   43.05    1.58
   5   4  -2   43.76    1.54
   5   4  -2   41.72    1.47
  -5  -4   2   41.01    1.51
  -5  -4   2   42.97    1.64
  -5  -4   2   42.72    1.50
   4   4  -2  128.19    3.80
   4   4  -2  135.08    3.86
  -4  -4   2  138.12    3.80
  -4  -4   2  135.75    3.81
  -4  -4   2  134.87    3.89
   3   4  -2    4.59    0.47
   3   4  -2    4.82    0.50
   3   4  -2    5.03    0.52
  -3  -4   2    5.44    0.50
  -3  -4   2    4.90    0.50
  -3  -4   2    4.24    0.54
   2   4  -2   80.22    2.47
   2   4  -2   88.34    2.53
   2   4  -2   81.21    2.46
  -2  -4   2   83.87    2.54
  -2  -4   2   89.93    2.51
  -2  -4   2   87.81    2.52
   1   4  -2  112.47    3.04
   1   4  -2  103.19    2.97
   1   4  -2  104.54    3.04
  -1  -4   2  113.26    3.00
  -1  -4   2  103.71    3.05
  -1  -4   2   99.86    3.00
   0   4  -2    1.98    0.32
   0   4  -2    2.02    0.42
   0   4  -2    2.20    0.36
   0  -4   2    1.43    0.35
   0  -4   2    1.79    0.33
  -1   4  -2   51.36    1.55
   1  -4   2   50.66    1.52
   1  -4   2   48.25    1.54
  -2   4  -2  105.77    2.92
  -2   4  -2  103.19    2.90
   2  -4   2  107.26    2.91
   2  -4   2  101.42    2.91
  -3   4  -2   15.50    0.73
  -3   4  -2   18.17    0.79
   3  -4   2   17.83    0.77
   3  -4   2   18.18    0.75
  -4   4  -2   28.91    1.08
  -4   4  -2   27.35    1.06
   4  -4   2   29.70    1.04
   4  -4   2   28.31    1.07
  -5   4  -2   49.01    1.62
  -5   4  -2   51.74    1.64
   5  -4   2   47.90    1.59
   5  -4   2   49.34    1.63
  -6   4  -2    0.43    0.39
  -6   4  -2    0.87    0.38
   6  -4   2    1.02    0.34
   6  -4   2    1.49    0.41
  -7   4  -2   38.50    1.50
  -7   4  -2   41.04    1.50
  -7   4  -2   39.93    1.55
   7  -4   2   42.57    1.52
  -8   4  -2   88.52    2.73
  -8   4  -2   87.05    2.80
  -8   4  -2   85.03    2.74
   8  -4   2   87.51    2.73
  -9   4  -2    3.34    0.62
  -9   4  -2    2.64    0.64
  -9   4  -2    4.75    0.61
   9  -4   2    3.70    0.58
 -10   4  -2   12.23    1.04
 -10   4  -2   13.39    1.06
  10  -4   2   14.94    0.99
 -11   4  -2   32.95    1.62
 -11   4  -2   34.64    1.71
 -12   4  -2    0.97    0.75
 -12   4  -2    0.72    0.60
 -13   4  -2    4.62    0.83
 -12  -3   2   -1.08    0.76
 -12  -3   2    0.07    0.63
 -11  -3   2    9.89    1.12
 -11  -3   2    9.83    0.96
  10   3  -2   30.96    1.42
 -10  -3   2   32.31    1.49
 -10  -3   2   29.97    1.68
   9   3  -2    0.48    0.43
  -9  -3   2   -0.15    0.46
  -9  -3   2    0.90    0.42
  -9  -3   2   -0.44    0.59
   8   3  -2   31.89    1.33
  -8  -3   2   30.39    1.35
  -8  -3   2   30.06    1.51
  -8  -3   2   31.68    1.31
   7   3  -2  138.99    3.99
   7   3  -2  141.55    4.10
  -7  -3   2  141.52    3.98
  -7  -3   2  134.41    3.98
  -7  -3   2  137.15    4.14
   6   3  -2    0.44    0.40
   6   3  -2    0.52    0.32
   6   3  -2    0.61    0.37
  -6  -3   2    1.27    0.49
  -6  -3   2    0.27    0.33
  -6  -3   2    0.86    0.37
   5   3  -2   27.81    1.11
   5   3  -2   29.77    1.19
   5   3  -2   29.79    1.07
  -5  -3   2   29.37    1.11
  -5  -3   2   29.23    1.12
  -5  -3   2   28.09    1.21
   4   3  -2  263.57    7.19
   4   3  -2  265.93    7.06
   4   3  -2  266.24    7.10
  -4  -3   2  258.35    7.08
  -4  -3   2  264.76    7.21
  -4  -3   2  277.45    7.09
   3   3  -2    1.41    0.35
   3   3  -2    2.19    0.37
   3   3  -2    1.65    0.32
  -3  -3   2    1.52    0.38
  -3  -3   2    1.29    0.31
  -3  -3   2    2.02    0.38
   2   3  -2   35.66    1.11
   2   3  -2   32.35    1.11
   2   3  -2   34.37    1.15
   2   3  -2   31.21    1.09
  -2  -3   2   31.85    1.17
  -2  -3   2   31.05    1.12
  -2  -3   2   32.34    1.13
   1   3  -2  409.75   10.94
   1   3  -2  412.54   10.85
   1   3  -2  416.13   10.82
  -1  -3   2  423.18   10.96
  -1  -3   2  397.58   10.84
  -1  -3   2  438.37   10.83
   0   3  -2   14.63    0.63
   0   3  -2   14.43    0.60
   0   3  -2   12.52    0.68
   0  -3   2   14.02    0.62
   0  -3   2   14.81    0.61
  -1   3  -2    2.07    0.28
  -1   3  -2    2.77    0.32
   1  -3   2    2.51    0.28
   1  -3   2    2.27    0.30
  -2   3  -2  184.15    5.17
  -2   3  -2  205.74    5.20
   2  -3   2  201.19    5.18
   2  -3   2  188.01    5.18
  -3   3  -2    2.28    0.34
  -3   3  -2    2.76    0.36
   3  -3   2    2.49    0.35
   3  -3   2    2.62    0.33
  -4   3  -2    1.65    0.35
  -4   3  -2    2.08    0.35
   4  -3   2    1.86    0.35
   4  -3   2    2.35    0.34
  -5   3  -2  241.84    6.63
  -5   3  -2  251.65    6.59
  -5   3  -2  239.32    6.57
   5  -3   2  244.33    6.55
   5  -3   2  246.49    6.58
  -6   3  -2   30.63    1.21
  -6   3  -2   29.52    1.23
  -6   3  -2   31.96    1.22
   6  -3   2   32.22    1.22
   6  -3   2   29.07    1.15
  -7   3  -2   16.57    0.91
  -7   3  -2   16.84    0.95
  -7   3  -2   16.69    1.00
   7  -3   2   18.05    0.94
  -8   3  -2   40.87    1.58
  -8   3  -2   41.40    1.62
  -8   3  -2   41.80    1.68
   8  -3   2   43.14    1.59
  -9   3  -2   22.64    1.22
  -9   3  -2   22.18    1.29
  -9   3  -2   21.93    1.14
   9  -3   2   22.12    1.15
 -10   3  -2    5.27    0.74
 -10   3  -2    4.55    0.80
  10  -3   2    7.28    0.78
 -11   3  -2   36.39    1.80
 -11   3  -2   37.16    1.71
  11  -3   2   37.47    1.64
 -12   3  -2   10.85    1.01
 -12   3  -2    6.80    0.99
 -13   3  -2    0.95    0.71
 -13  -2   2    5.97    0.88
 -12  -2   2    4.42    0.77
 -12  -2   2    3.44    0.91
 -11  -2   2    9.53    1.05
 -11  -2   2    9.78    0.93
  10   2  -2   18.83    1.07
 -10  -2   2   16.07    1.09
 -10  -2   2   18.82    1.02
 -10  -2   2   17.72    1.34
   9   2  -2   10.28    0.82
  -9  -2   2    9.33    0.93
  -9  -2   2    8.85    0.79
  -9  -2   2    9.66    0.77
   8   2  -2   41.71    1.52
  -8  -2   2   40.23    1.72
  -8  -2   2   40.32    1.53
  -8  -2   2   41.17    1.50
   7   2  -2   38.47    1.41
   7   2  -2   40.10    1.53
  -7  -2   2   38.96    1.42
  -7  -2   2   39.05    1.59
  -7  -2   2   38.96    1.39
   6   2  -2   46.94    1.57
   6   2  -2   48.60    1.67
   6   2  -2   46.75    1.52
  -6  -2   2   45.54    1.56
  -6  -2   2   50.96    1.57
  -6  -2   2   46.68    1.70
   5   2  -2   86.30    2.45
   5   2  -2   84.88    2.49
   5   2  -2   87.89    2.58
  -5  -2   2   83.49    2.59
  -5  -2   2   88.14    2.48
  -5  -2   2   85.44    2.48
   4   2  -2    5.01    0.45
   4   2  -2    5.44    0.45
   4   2  -2    4.26    0.46
  -4  -2   2    4.23    0.47
  -4  -2   2    5.44    0.43
  -4  -2   2    5.13    0.43
   3   2  -2   13.67    0.64
   3   2  -2   14.22    0.70
  -3  -2   2   14.11    0.64
  -3  -2   2   14.69    0.71
  -3  -2   2   14.21    0.63
   2   2  -2   47.52    1.43
   2   2  -2   47.85    1.39
   2   2  -2   45.16    1.38
  -2  -2   2   48.43    1.41
  -2  -2   2   45.62    1.50
  -2  -2   2   46.56    1.40
  -2  -2   2   47.65    1.43
   1   2  -2  164.06    4.40
   1   2  -2  162.71    4.37
   1   2  -2  162.73    4.43
  -1  -2   2  169.59    4.44
  -1  -2   2  160.98    4.39
  -1  -2   2  174.55    4.39
   0   2  -2   59.20    1.68
   0   2  -2   60.19    1.69
   0   2  -2   59.42    1.70
   0  -2   2   62.15    1.69
   0  -2   2   62.48    1.68
  -1   2  -2   47.77    1.36
  -1   2  -2   44.49    1.34
   1  -2   2   45.28    1.36
   1  -2   2   48.16    1.36
  -2   2  -2    2.22    0.32
  -2   2  -2    2.95    0.35
   2  -2   2    2.43    0.32
   2  -2   2    2.28    0.32
  -3   2  -2  100.60    2.85
  -3   2  -2  105.57    2.87
   3  -2   2  103.96    2.85
   3  -2   2  100.13    2.86
  -4   2  -2   12.93    0.69
  -4   2  -2   13.54    0.69
  -4   2  -2   13.49    0.69
   4  -2   2   12.35    0.64
   4  -2   2   12.39    0.68
  -5   2  -2   71.70    2.22
  -5   2  -2   76.07    2.23
  -5   2  -2   71.24    2.21
   5  -2   2   73.99    2.22
   5  -2   2   73.41    2.19
  -6   2  -2   86.52    2.51
  -6   2  -2   80.07    2.52
  -6   2  -2   79.96    2.49
   6  -2   2   82.76    2.50
   6  -2   2   81.15    2.45
  -7   2  -2   10.78    0.78
  -7   2  -2   10.67    0.80
  -7   2  -2   10.63    0.87
   7  -2   2    9.23    0.75
  -8   2  -2   25.67    1.18
  -8   2  -2   24.81    1.28
  -8   2  -2   24.73    1.21
   8  -2   2   23.20    1.17
  -9   2  -2   18.15    1.18
  -9   2  -2   15.00    1.07
   9  -2   2   18.33    1.06
 -10   2  -2    7.78    0.90
 -10   2  -2    7.64    0.84
  10  -2   2    7.71    0.80
 -11   2  -2   16.96    1.22
 -11   2  -2   17.33    1.35
  11  -2   2   17.57    1.13
 -12   2  -2   11.83    1.09
 -12   2  -2   12.21    1.21
 -13  -1   2   20.78    1.38
 -12  -1   2    3.52    0.86
 -11  -1   2    4.43    0.84
  10   1  -2   50.06    1.77
 -10  -1   2   47.49    1.74
 -10  -1   2   47.99    2.02
   9   1  -2    6.88    0.64
  -9  -1   2    6.69    0.61
  -9  -1   2    7.25    0.83
   8   1  -2   31.79    1.34
   8   1  -2   31.02    1.21
  -8  -1   2   30.49    1.19
  -8  -1   2   30.56    1.25
  -8  -1   2   29.98    1.42
   7   1  -2  121.36    3.54
   7   1  -2  118.08    3.38
   7   1  -2  116.55    3.34
  -7  -1   2  122.89    3.39
  -7  -1   2  118.10    3.56
  -7  -1   2  119.41    3.40
   6   1  -2   11.19    0.60
   6   1  -2   11.08    0.73
   6   1  -2   10.59    0.62
  -6  -1   2   10.68    0.79
  -6  -1   2   12.22    0.64
  -6  -1   2   12.80    0.67
   5   1  -2   21.45    0.93
   5   1  -2   22.16    0.84
   5   1  -2   22.82    0.82
  -5  -1   2   23.05    0.84
  -5  -1   2   22.02    0.96
  -5  -1   2   22.67    0.85
   4   1  -2   49.35    1.45
   4   1  -2   47.94    1.54
   4   1  -2   49.90    1.43
  -4  -1   2   48.57    1.44
  -4  -1   2   48.41    1.55
   3   1  -2    6.03    0.49
   3   1  -2    5.59    0.40
   3   1  -2    5.19    0.36
  -3  -1   2    5.77    0.51
  -3  -1   2    6.21    0.39
  -3  -1   2    6.38    0.39
   2   1  -2   10.07    0.41
   2   1  -2    9.87    0.48
   2   1  -2   10.30    0.40
  -2  -1   2    9.96    0.48
  -2  -1   2   10.10    0.44
  -2  -1   2   10.09    0.42
   1   1  -2  972.42   25.15
   1   1  -2  988.62   28.85
   1   1  -2  973.94   25.08
   1   1  -2  954.60   25.32
  -1  -1   2  988.11   25.11
  -1  -1   2 1000.00   25.19
  -1  -1   2  904.64   28.82
  -1  -1   2  968.41   25.36
   0   1  -2   81.74    2.21
   0   1  -2   82.12    2.21
   0  -1   2   79.97    2.21
   0  -1   2   87.00    2.21
  -1   1  -2    2.29    0.26
  -1   1  -2    2.15    0.25
   1  -1   2    1.42    0.23
   1  -1   2    1.91    0.24
  -2   1  -2  185.29    5.01
  -2   1  -2  185.70    5.02
  -2   1  -2  194.15    5.03
   2  -1   2  194.09    5.02
   2  -1   2  188.14    5.03
  -3   1  -2   25.54    0.90
  -3   1  -2   26.46    0.96
  -3   1  -2   25.41    0.94
   3  -1   2   24.19    0.93
   3  -1   2   27.54    0.94
  -4   1  -2   16.71    0.76
  -4   1  -2   16.55    0.77
  -4   1  -2   15.94    0.76
   4  -1   2   16.82    0.75
   4  -1   2   15.68    0.75
  -5   1  -2  148.65    4.10
  -5   1  -2  147.57    4.08
  -5   1  -2  140.68    4.07
   5  -1   2  149.99    4.09
   5  -1   2  144.29    4.05
  -6   1  -2   65.39    2.03
  -6   1  -2   61.76    2.05
  -6   1  -2   63.21    2.03
   6  -1   2   64.65    2.03
   6  -1   2   59.77    1.97
  -7   1  -2    2.81    0.53
  -7   1  -2    1.53    0.44
  -7   1  -2    2.63    0.55
   7  -1   2    2.84    0.50
  -8   1  -2  103.79    3.26
  -8   1  -2  105.22    3.19
  -8   1  -2  101.24    3.19
   8  -1   2  106.74    3.21
  -9   1  -2   14.09    1.04
  -9   1  -2   14.75    1.13
   9  -1   2   14.74    0.99
 -10   1  -2   -0.08    0.51
 -10   1  -2   -0.42    0.61
  10  -1   2   -0.14    0.45
 -11   1  -2   12.33    1.15
 -11   1  -2   12.18    1.07
  11  -1   2   13.82    1.07
 -12   1  -2   15.79    1.37
 -12   1  -2   17.14    1.32
 -13   0   2   29.63    1.83
 -12   0   2    9.91    1.08
 -11   0   2    2.42    0.70
 -11   0   2    1.53    0.54
  10   0  -2   36.91    1.42
 -10   0   2   39.34    1.46
 -10   0   2   35.86    1.48
 -10   0   2   36.64    1.70
   9   0  -2   36.73    1.35
  -9   0   2   34.36    1.39
  -9   0   2   37.57    1.37
  -9   0   2   35.78    1.61
   8   0  -2   -0.25    0.30
  -8   0   2    0.31    0.33
  -8   0   2    0.71    0.51
  -8   0   2   -0.38    0.34
   7   0  -2   99.47    2.81
   7   0  -2  100.06    2.77
  -7   0   2   99.92    2.81
  -7   0   2   95.21    2.82
  -7   0   2   96.32    2.99
   6   0  -2   52.57    1.62
   6   0  -2   54.91    1.60
   6   0  -2   54.59    1.77
  -6   0   2   52.72    1.64
  -6   0   2   56.29    1.64
  -6   0   2   53.76    1.80
   5   0  -2   19.31    0.69
   5   0  -2   19.58    0.85
   5   0  -2   18.85    0.70
  -5   0   2   18.99    0.72
  -5   0   2   18.80    0.72
  -5   0   2   19.90    0.88
   4   0  -2   44.77    1.41
   4   0  -2   43.89    1.28
   4   0  -2   44.14    1.26
  -4   0   2   44.91    1.29
  -4   0   2   44.43    1.42
  -4   0   2   44.21    1.29
  -3   0   2  272.14    7.13
  -3   0   2  282.70    7.13
  -3   0   2  273.57    7.30
  -2   0   2   51.09    1.45
   1   0  -2   84.90    2.69
  -1   0   2   87.02    2.69
  -1   0   2   90.83    2.29
  -1   0   2   88.44    2.28
   0   0  -2  148.86    4.46
   0   0  -2  148.43    3.88
   0   0  -2  146.59    3.88
   0   0   2  153.74    3.88
   0   0   2  144.37    3.88
  -1   0  -2    9.59    0.46
  -1   0  -2    9.04    0.44
  -1   0  -2    9.35    0.38
   1   0   2    9.13    0.44
   1   0   2    8.87    0.45
   1   0   2    9.62    0.39
  -2   0  -2   17.59    0.66
  -2   0  -2   16.67    0.70
  -2   0  -2   17.43    0.71
   2   0   2   17.31    0.69
   2   0   2   17.28    0.65
   2   0   2   17.05    0.70
  -3   0  -2   46.05    1.44
  -3   0  -2   47.70    1.45
  -3   0  -2   45.17    1.41
   3   0   2   46.22    1.40
   3   0   2   41.85    1.42
   3   0   2   45.26    1.42
  -4   0  -2   23.89    0.98
  -4   0  -2   24.92    0.97
  -4   0  -2   24.16    0.97
   4   0   2   25.43    0.98
   4   0   2   24.80    0.95
   4   0   2   24.32    0.95
  -5   0  -2  114.33    3.35
  -5   0  -2  115.16    3.36
  -5   0  -2  119.52    3.35
   5   0   2  116.47    3.36
   5   0   2  116.77    3.34
   5   0   2  118.04    3.32
  -6   0  -2   77.07    2.34
  -6   0  -2   74.05    2.36
  -6   0  -2   71.00    2.33
   6   0   2   74.05    2.34
   6   0   2   75.08    2.32
  -7   0  -2    3.49    0.52
  -7   0  -2    3.63    0.63
  -7   0  -2    3.25    0.56
   7   0   2    3.83    0.57
  -8   0  -2   42.32    1.66
  -8   0  -2   38.61    1.69
  -8   0  -2   39.68    1.64
   8   0   2   43.13    1.64
  -9   0  -2   37.64    1.74
  -9   0  -2   39.18    1.68
   9   0   2   40.50    1.65
 -10   0  -2    6.71    0.90
 -10   0  -2    6.58    0.83
  10   0   2    7.61    0.81
 -11   0  -2    7.77    0.93
 -11   0  -2    8.75    1.03
  11   0   2    8.34    0.93
 -12   0  -2   11.04    1.22
 -12   0  -2   15.41    1.29
 -13   1   2   15.38    1.12
 -13   1   2   10.37    1.18
 -12   1   2   19.81    1.19
 -12   1   2   19.40    1.43
 -11   1   2    2.01    0.75
 -11   1   2    2.10    0.54
  10  -1  -2   26.08    1.11
 -10   1   2   27.20    1.15
 -10   1   2   23.58    1.39
 -10   1   2   25.96    1.20
   9  -1  -2   37.71    1.35
  -9   1   2   38.29    1.37
  -9   1   2   38.94    1.42
  -9   1   2   35.58    1.61
   8  -1  -2    0.06    0.26
   8  -1  -2    0.18    0.29
  -8   1   2    0.06    0.32
  -8   1   2   -0.17    0.45
  -8   1   2   -0.42    0.33
   7  -1  -2   70.25    2.06
   7  -1  -2   71.80    2.04
  -7   1   2   69.84    2.28
  -7   1   2   72.38    2.09
  -7   1   2   68.59    2.08
   6  -1  -2   52.00    1.50
   6  -1  -2   50.64    1.52
  -6   1   2   50.47    1.71
  -6   1   2   50.45    1.54
  -6   1   2   52.95    1.55
   5  -1  -2    0.09    0.19
   5  -1  -2   -0.02    0.18
  -5   1   2   -0.11    0.21
  -5   1   2    0.33    0.34
  -5   1   2   -0.30    0.21
  -4   1   2  236.10    5.97
  -4   1   2  222.02    6.15
  -4   1   2  230.68    5.97
   1  -1  -2    1.11    0.14
  -1   1   2    1.29    0.14
   0  -1  -2   89.67    2.52
   0  -1  -2   94.25    2.86
   0  -1  -2   95.26    2.51
   0  -1  -2   92.89    2.51
   0   1   2   94.42    2.53
   0   1   2   90.89    2.50
   0   1   2   91.97    2.51
   0   1   2   97.01    2.87
  -1  -1  -2    0.01    0.24
  -1  -1  -2    0.18    0.24
  -1  -1  -2    0.13    0.24
   1   1   2    0.30    0.24
   1   1   2    0.18    0.23
   1   1   2    0.23    0.23
  -2  -1  -2  242.03    6.29
  -2  -1  -2  242.37    6.32
  -2  -1  -2  228.35    6.28
   2   1   2  242.30    6.30
   2   1   2  225.47    6.28
   2   1   2  243.73    6.28
  -3  -1  -2   41.57    1.36
  -3  -1  -2   40.55    1.35
  -3  -1  -2   40.25    1.36
   3   1   2   41.91    1.37
   3   1   2   41.34    1.35
   3   1   2   42.78    1.34
  -4  -1  -2    0.04    0.31
  -4  -1  -2    0.57    0.32
  -4  -1  -2    0.21    0.35
   4   1   2    0.80    0.33
   4   1   2    0.59    0.31
   4   1   2    0.06    0.29
  -5  -1  -2  155.12    4.35
  -5  -1  -2  151.12    4.32
  -5  -1  -2  155.62    4.31
   5   1   2  155.91    4.29
   5   1   2  152.68    4.32
   5   1   2  151.08    4.30
  -6  -1  -2  133.20    3.90
  -6  -1  -2  132.69    3.96
  -6  -1  -2  137.27    3.94
   6   1   2  135.14    3.92
   6   1   2  139.80    3.93
  -7  -1  -2    3.99    0.66
  -7  -1  -2    5.21    0.64
  -7  -1  -2    3.93    0.56
   7   1   2    4.03    0.56
   7   1   2    4.35    0.62
  -8  -1  -2   29.49    1.40
  -8  -1  -2   30.15    1.47
   8   1   2   27.98    1.35
  -9  -1  -2   39.98    1.76
  -9  -1  -2   43.60    1.86
   9   1   2   41.71    1.73
 -10  -1  -2    8.80    0.99
 -10  -1  -2    8.14    0.92
  10   1   2    9.27    0.90
 -11  -1  -2    2.23    0.85
 -11  -1  -2    3.87    0.79
 -12  -1  -2    9.93    1.30
 -14   2   2    0.40    0.55
 -13   2   2    6.64    0.79
 -13   2   2    7.39    1.03
 -12   2   2   29.56    1.39
 -12   2   2   28.08    1.64
 -11   2   2   -0.39    0.45
 -11   2   2   -0.32    0.58
  10  -2  -2   39.90    1.45
 -10   2   2   41.26    1.80
 -10   2   2   43.00    1.55
 -10   2   2   42.66    1.51
   9  -2  -2   55.54    1.82
  -9   2   2   57.32    2.12
  -9   2   2   58.01    1.89
  -9   2   2   61.56    1.88
   8  -2  -2    4.43    0.42
   8  -2  -2    4.16    0.40
  -8   2   2    3.51    0.58
  -8   2   2    5.37    0.47
  -8   2   2    3.42    0.44
   7  -2  -2   25.09    0.90
   7  -2  -2   27.21    0.90
  -7   2   2   23.42    0.93
  -7   2   2   24.98    1.15
  -7   2   2   25.25    0.94
   6  -2  -2  296.66    7.40
   6  -2  -2  284.02    7.41
  -6   2   2  287.12    7.43
  -6   2   2  273.55    7.65
  -6   2   2  274.51    7.42
   5  -2  -2    0.25    0.18
  -5   2   2    0.58    0.22
  -5   2   2    0.47    0.22
  -4   2   2   90.35    2.44
  -4   2   2   91.84    2.44
  -3   2   2  573.30   14.74
   2  -2  -2  136.66    3.56
  -2   2   2  136.60    3.58
  -2   2   2  135.91    3.58
   1  -2  -2   13.93    0.51
   1  -2  -2   12.78    0.52
  -1   2   2   13.32    0.53
  -1   2   2   13.05    0.51
   0  -2  -2  901.71   23.84
   0  -2  -2  895.49   23.72
   0   2   2  900.55   23.99
   0   2   2  868.68   23.83
   0   2   2  960.37   23.84
   0   2   2  957.62   27.11
  -1  -2  -2   14.12    0.71
  -1  -2  -2   14.36    0.64
  -1  -2  -2   15.66    0.67
   1   2   2   14.49    0.67
   1   2   2   14.34    0.70
   1   2   2   14.32    0.64
  -2  -2  -2   60.81    1.79
  -2  -2  -2   54.40    1.77
  -2  -2  -2   59.98    1.80
   2   2   2   60.03    1.78
   2   2   2   59.09    1.78
   2   2   2   59.67    1.78
  -3  -2  -2  431.90   11.50
  -3  -2  -2  444.43   11.61
   3   2   2  439.70   11.57
   3   2   2  440.10   11.48
   3   2   2  434.84   11.50
  -4  -2  -2   22.48    1.04
  -4  -2  -2   23.50    0.99
  -4  -2  -2   24.27    1.03
   4   2   2   23.43    0.99
   4   2   2   22.84    1.00
   4   2   2   23.02    0.98
  -5  -2  -2    3.08    0.46
  -5  -2  -2    3.11    0.56
  -5  -2  -2    2.57    0.50
   5   2   2    3.18    0.49
   5   2   2    2.54    0.46
   5   2   2    2.88    0.47
  -6  -2  -2  167.92    4.73
  -6  -2  -2  167.67    4.81
  -6  -2  -2  161.65    4.75
   6   2   2  166.44    4.75
   6   2   2  168.41    4.74
  -7  -2  -2   15.25    1.02
  -7  -2  -2   14.24    1.11
   7   2   2   14.57    1.00
   7   2   2   15.31    0.96
  -8  -2  -2    0.29    0.60
  -8  -2  -2    0.55    0.52
   8   2   2    0.97    0.52
  -9  -2  -2   30.81    1.68
   9   2   2   32.74    1.56
 -10  -2  -2    7.42    1.03
  10   2   2    9.81    1.00
 -11  -2  -2   -0.47    0.79
 -14   3   2    2.54    0.66
 -13   3   2    6.64    1.00
 -13   3   2    7.92    0.80
 -12   3   2   23.01    1.20
 -12   3   2   20.51    1.43
 -11   3   2    2.71    0.54
 -11   3   2    1.98    0.70
  10  -3  -2   19.12    0.89
 -10   3   2   21.40    0.97
 -10   3   2   20.21    1.01
 -10   3   2   19.20    1.26
   9  -3  -2   21.60    0.93
  -9   3   2   23.29    1.28
  -9   3   2   24.38    1.00
  -9   3   2   23.97    1.03
   8  -3  -2   17.37    0.73
   8  -3  -2   17.02    0.76
  -8   3   2   17.50    1.05
  -8   3   2   17.34    0.83
  -8   3   2   18.59    0.81
   7  -3  -2    7.68    0.47
   7  -3  -2    6.51    0.48
  -7   3   2    7.48    0.53
  -7   3   2    7.01    0.53
  -7   3   2    5.92    0.59
   6  -3  -2  185.73    5.11
   6  -3  -2  202.28    5.11
  -6   3   2  197.33    5.15
  -6   3   2  189.13    5.14
   5  -3  -2  151.24    3.90
  -5   3   2  147.31    3.93
  -5   3   2  143.18    3.92
   4  -3  -2   29.19    0.89
  -4   3   2   29.28    0.91
  -4   3   2   28.53    0.90
   3  -3  -2  205.18    5.35
  -3   3   2  204.55    5.35
  -3   3   2  203.09    5.35
   2  -3  -2  160.65    4.28
   2  -3  -2  162.68    4.27
  -2   3   2  160.65    4.30
  -2   3   2  162.34    4.30
   1  -3  -2   20.60    0.76
   1  -3  -2   19.87    0.79
  -1   3   2   21.12    0.77
  -1   3   2   20.88    0.80
   0  -3  -2   73.28    2.09
   0  -3  -2   71.55    2.07
   0   3   2   69.36    2.07
   0   3   2   70.81    2.17
   0   3   2   73.84    2.09
   0   3   2   73.74    2.30
  -1  -3  -2  173.80    4.72
  -1  -3  -2  177.96    4.64
  -1  -3  -2  161.60    4.62
   1   3   2  175.27    4.64
   1   3   2  172.24    4.69
   1   3   2  167.36    4.63
  -2  -3  -2    0.74    0.39
  -2  -3  -2    0.62    0.32
  -2  -3  -2    0.71    0.32
   2   3   2    0.42    0.36
   2   3   2    0.75    0.31
   2   3   2    0.49    0.30
  -3  -3  -2  120.75    3.53
  -3  -3  -2  119.58    3.47
  -3  -3  -2  125.48    3.48
   3   3   2  121.68    3.48
   3   3   2  123.01    3.46
   3   3   2  121.71    3.49
  -4  -3  -2   67.01    2.19
  -4  -3  -2   66.37    2.12
   4   3   2   66.69    2.10
   4   3   2   66.64    2.14
   4   3   2   65.50    2.11
  -5  -3  -2    1.79    0.46
  -5  -3  -2    1.50    0.57
   5   3   2    2.53    0.52
   5   3   2    2.40    0.49
  -6  -3  -2    4.50    0.72
   6   3   2    3.27    0.59
   6   3   2    3.07    0.54
  -7  -3  -2   20.08    1.33
   7   3   2   19.99    1.18
  -8  -3  -2    9.91    1.02
   8   3   2    7.83    0.87
  -9  -3  -2    6.95    0.95
  -9  -3  -2    5.34    0.84
   9   3   2    5.12    0.79
 -10  -3  -2   10.63    1.12
 -10  -3  -2   10.97    1.11
  10   3   2   10.00    1.03
 -11  -3  -2    0.72    0.70
 -11  -3  -2    1.02    0.86
 -14   4   2    6.11    0.81
 -13   4   2    8.22    0.81
 -13   4   2    6.22    0.97
 -12   4   2   20.33    1.15
 -12   4   2   19.95    1.41
 -11   4   2    9.18    0.94
 -11   4   2   10.46    0.86
  10  -4  -2    4.11    0.46
 -10   4   2    3.93    0.52
 -10   4   2    4.27    0.55
 -10   4   2    3.36    0.70
   9  -4  -2   37.97    1.31
  -9   4   2   37.40    1.62
  -9   4   2   40.19    1.39
  -9   4   2   38.36    1.39
   8  -4  -2   68.31    2.00
   8  -4  -2   69.55    2.02
  -8   4   2   67.61    2.30
  -8   4   2   70.67    2.08
  -8   4   2   66.87    2.07
   7  -4  -2   10.82    0.54
   7  -4  -2    9.96    0.54
  -7   4   2    9.02    0.60
  -7   4   2    9.27    0.60
   6  -4  -2  151.52    3.76
   6  -4  -2  136.88    3.75
  -6   4   2  136.87    3.79
  -6   4   2  132.80    3.77
   5  -4  -2   99.33    2.81
   5  -4  -2  109.19    2.84
  -5   4   2  101.72    2.84
  -5   4   2  105.01    2.86
   4  -4  -2    0.19    0.23
   4  -4  -2    0.11    0.21
  -4   4   2    0.08    0.24
  -4   4   2   -0.22    0.21
   3  -4  -2  184.36    4.96
   3  -4  -2  185.92    4.99
  -3   4   2  184.68    4.99
  -3   4   2  195.90    5.01
   2  -4  -2   36.68    1.18
   2  -4  -2   35.50    1.18
  -2   4   2   35.58    1.19
  -2   4   2   38.65    1.23
   1  -4  -2   39.77    1.27
   1  -4  -2   38.69    1.31
  -1   4   2   39.99    1.41
  -1   4   2   38.21    1.28
  -1   4   2   40.55    1.32
   0  -4  -2  193.81    5.29
   0  -4  -2  189.42    5.31
   0   4   2  202.41    5.94
   0   4   2  192.28    5.30
   0   4   2  197.89    5.42
   0   4   2  206.22    5.33
  -1  -4  -2   61.94    2.01
  -1  -4  -2   61.21    1.93
  -1  -4  -2   65.05    1.93
   1   4   2   60.77    1.92
   1   4   2   63.53    2.00
  -2  -4  -2    0.08    0.31
  -2  -4  -2   -0.09    0.41
  -2  -4  -2    0.37    0.33
   2   4   2    0.15    0.33
   2   4   2    0.27    0.41
   2   4   2   -0.50    0.28
  -3  -4  -2   66.45    2.13
  -3  -4  -2   65.45    2.21
  -3  -4  -2   66.62    2.14
   3   4   2   67.75    2.13
   3   4   2   66.20    2.14
   3   4   2   68.63    2.16
  -4  -4  -2   41.77    1.51
  -4  -4  -2   39.71    1.61
  -4  -4  -2   38.69    1.52
   4   4   2   38.31    1.50
   4   4   2   38.13    1.47
   4   4   2   39.87    1.53
  -5  -4  -2   -0.13    0.56
  -5  -4  -2   -0.30    0.45
   5   4   2    0.24    0.44
   5   4   2   -0.18    0.45
  -6  -4  -2   15.96    1.10
  -6  -4  -2   14.00    1.18
   6   4   2   15.50    1.09
  -7  -4  -2   38.12    1.70
  -7  -4  -2   34.72    1.73
   7   4   2   36.83    1.66
  -8  -4  -2    4.12    0.87
  -8  -4  -2    1.75    0.71
   8   4   2    5.46    0.78
  -9  -4  -2   10.94    1.10
  -9  -4  -2   12.53    1.21
   9   4   2   14.14    1.21
 -10  -4  -2   11.64    1.25
 -10  -4  -2   10.59    1.13
  10   4   2   11.06    1.15
 -14   5   2    6.12    0.79
 -13   5   2   -0.19    0.67
 -13   5   2    0.08    0.52
 -12   5   2   24.51    1.22
 -12   5   2   20.43    1.45
 -11   5   2   40.86    1.90
 -11   5   2   45.22    1.64
  10  -5  -2    3.55    0.44
 -10   5   2    4.18    0.72
 -10   5   2    4.20    0.52
 -10   5   2    4.49    0.56
   9  -5  -2   79.92    2.41
  -9   5   2   84.80    2.50
  -9   5   2   83.59    2.50
   8  -5  -2   77.68    2.25
   8  -5  -2   74.25    2.24
  -8   5   2   80.01    2.32
  -8   5   2   77.75    2.31
   7  -5  -2    4.64    0.40
   7  -5  -2    4.52    0.40
  -7   5   2    4.37    0.46
  -7   5   2    4.41    0.45
   6  -5  -2   61.12    1.75
   6  -5  -2   58.66    1.74
  -6   5   2   59.91    1.79
  -6   5   2   55.78    1.76
   5  -5  -2  106.91    2.88
   5  -5  -2  102.07    2.85
  -5   5   2   97.30    2.87
  -5   5   2  108.62    2.91
   4  -5  -2   14.72    0.64
   4  -5  -2   15.62    0.70
  -4   5   2   14.52    0.70
  -4   5   2   14.36    0.68
   3  -5  -2   47.43    1.47
   3  -5  -2   46.21    1.45
  -3   5   2   42.92    1.46
  -3   5   2   48.88    1.50
   2  -5  -2   74.84    2.34
   2  -5  -2   82.47    2.35
  -2   5   2   84.10    2.38
  -2   5   2   80.09    2.36
   1  -5  -2    6.55    0.53
   1  -5  -2    7.30    0.60
  -1   5   2    5.90    0.54
  -1   5   2    6.84    0.68
  -1   5   2    7.12    0.58
   0  -5  -2   24.12    0.99
   0  -5  -2   23.79    1.01
   0   5   2   22.87    1.00
   0   5   2   23.63    1.14
   0   5   2   22.82    0.98
  -1  -5  -2   87.26    2.61
  -1  -5  -2   86.94    2.68
  -1  -5  -2   88.89    2.60
   1   5   2   83.42    2.66
   1   5   2   84.36    2.59
  -2  -5  -2    6.88    0.64
  -2  -5  -2    6.60    0.71
  -2  -5  -2    7.59    0.68
   2   5   2    9.29    0.74
   2   5   2    7.86    0.71
   2   5   2    7.88    0.65
  -3  -5  -2    8.86    0.76
  -3  -5  -2    9.14    0.76
  -3  -5  -2    9.16    0.84
   3   5   2    9.47    0.82
   3   5   2    9.52    0.77
   3   5   2   10.44    0.87
  -4  -5  -2   57.69    2.01
  -4  -5  -2   57.27    2.11
   4   5   2   55.32    2.00
   4   5   2   53.85    1.98
  -5  -5  -2   14.28    1.21
  -5  -5  -2   13.62    1.06
   5   5   2   15.29    1.02
   5   5   2   14.71    1.06
  -6  -5  -2   10.24    1.02
  -6  -5  -2   11.06    0.96
   6   5   2   10.66    0.93
  -7  -5  -2   69.46    2.67
  -7  -5  -2   67.96    2.55
   7   5   2   71.13    2.57
  -8  -5  -2    2.58    0.86
  -8  -5  -2    2.35    0.75
   8   5   2    2.64    0.74
  -9  -5  -2    2.07    0.89
  -9  -5  -2    4.92    0.90
   9   5   2    3.98    0.82
 -10  -5  -2   10.66    1.24
 -10  -5  -2    9.54    1.15
  10   5   2    9.87    1.13
 -14   6   2    8.76    0.87
 -13   6   2    1.59    0.58
 -13   6   2   -0.38    0.67
 -12   6   2   12.42    1.12
 -12   6   2   14.10    1.01
 -11   6   2   31.46    1.35
 -11   6   2   29.40    1.60
  10  -6  -2    1.87    0.38
 -10   6   2    2.22    0.50
 -10   6   2    1.82    0.62
 -10   6   2    1.82    0.46
   9  -6  -2   59.43    1.89
  -9   6   2   64.07    2.00
  -9   6   2   60.86    1.98
   8  -6  -2   20.95    0.90
  -8   6   2   22.54    1.01
  -8   6   2   23.93    1.01
   7  -6  -2   12.51    0.66
   7  -6  -2   12.45    0.66
  -7   6   2   13.14    0.76
  -7   6   2   12.38    0.72
   6  -6  -2   46.13    1.48
   6  -6  -2   45.84    1.47
  -6   6   2   46.96    1.53
  -6   6   2   47.11    1.52
   5  -6  -2   21.13    0.87
   5  -6  -2   20.47    0.83
  -5   6   2   18.96    0.85
  -5   6   2   20.99    0.90
   4  -6  -2    9.45    0.60
   4  -6  -2   11.73    0.67
  -4   6   2   10.40    0.65
  -4   6   2   10.28    0.67
   3  -6  -2   33.87    1.22
   3  -6  -2   35.28    1.23
  -3   6   2   33.27    1.24
  -3   6   2   34.37    1.27
   2  -6  -2    7.57    0.62
   2  -6  -2    7.38    0.63
  -2   6   2    7.75    0.63
  -2   6   2    7.67    0.63
   1  -6  -2   37.02    1.39
   1  -6  -2   36.25    1.34
  -1   6   2   40.37    1.55
  -1   6   2   36.34    1.38
  -1   6   2   38.46    1.40
   0  -6  -2   15.79    0.85
   0  -6  -2   15.58    0.91
   0   6   2   14.12    0.87
   0   6   2   15.27    1.05
   0   6   2   15.19    0.87
  -1  -6  -2    9.52    0.78
  -1  -6  -2   10.48    0.77
  -1  -6  -2   10.01    0.87
   1   6   2    8.16    0.73
   1   6   2    9.31    0.82
  -2  -6  -2   30.93    1.43
  -2  -6  -2   29.20    1.32
   2   6   2   30.46    1.29
   2   6   2   30.03    1.37
   2   6   2   28.87    1.30
  -3  -6  -2   43.76    1.84
  -3  -6  -2   47.01    1.75
   3   6   2   42.85    1.74
   3   6   2   44.46    1.73
  -4  -6  -2   11.96    1.05
  -4  -6  -2   12.11    1.02
   4   6   2   10.95    0.92
   4   6   2   12.78    1.03
  -5  -6  -2   18.55    1.35
  -5  -6  -2   20.10    1.26
   5   6   2   18.98    1.25
  -6  -6  -2   13.16    1.20
  -6  -6  -2   15.87    1.25
   6   6   2   17.13    1.25
  -7  -6  -2   14.22    1.31
  -7  -6  -2   14.96    1.31
   7   6   2   16.09    1.29
  -8  -6  -2    3.55    0.92
  -8  -6  -2    4.31    0.87
   8   6   2    4.53    0.87
  -9  -6  -2    2.26    0.93
  -9  -6  -2    2.52    0.80
   9   6   2    1.90    0.78
 -14   7   2   15.60    1.18
 -13   7   2    1.68    0.60
 -13   7   2    1.08    0.74
 -12   7   2   13.86    1.05
 -12   7   2   11.55    1.07
 -11   7   2   23.92    1.44
 -11   7   2   25.85    1.24
 -10   7   2    0.54    0.42
 -10   7   2    0.21    0.48
   9  -7  -2   36.11    1.31
  -9   7   2   39.06    1.43
  -9   7   2   37.17    1.44
   8  -7  -2  104.43    3.07
  -8   7   2  109.73    3.15
  -8   7   2  109.03    3.16
   7  -7  -2    0.74    0.32
  -7   7   2    1.03    0.40
  -7   7   2    1.63    0.43
   6  -7  -2   13.99    0.77
   6  -7  -2   14.16    0.75
  -6   7   2   14.68    0.82
  -6   7   2   14.26    0.84
   5  -7  -2  105.91    3.03
   5  -7  -2  104.11    2.98
  -5   7   2  100.54    3.02
  -5   7   2  106.34    3.05
   4  -7  -2   13.22    0.74
   4  -7  -2   12.33    0.75
  -4   7   2   12.60    0.77
  -4   7   2   13.25    0.83
   3  -7  -2    6.11    0.56
   3  -7  -2    5.67    0.56
  -3   7   2    6.26    0.61
  -3   7   2    7.40    0.63
   2  -7  -2  179.89    5.06
   2  -7  -2  178.89    5.03
  -2   7   2  185.64    5.08
  -2   7   2  185.70    5.23
  -2   7   2  177.93    5.05
   1  -7  -2   36.43    1.42
   1  -7  -2   33.04    1.33
  -1   7   2   31.74    1.35
  -1   7   2   36.84    1.40
  -1   7   2   34.22    1.56
   0  -7  -2    5.86    0.68
   0   7   2    6.13    0.78
   0   7   2    5.61    0.64
   0   7   2    6.35    0.66
  -1  -7  -2   76.71    2.50
   1   7   2   74.28    2.54
   1   7   2   72.53    2.45
  -2  -7  -2    0.03    0.59
  -2  -7  -2   -0.07    0.46
   2   7   2   -0.04    0.58
   2   7   2    0.57    0.50
  -3  -7  -2    0.58    0.67
  -3  -7  -2    0.79    0.56
   3   7   2    0.29    0.50
  -4  -7  -2   74.05    2.61
  -4  -7  -2   69.69    2.67
   4   7   2   73.37    2.57
  -5  -7  -2    8.99    1.03
  -5  -7  -2   11.19    1.06
   5   7   2   10.05    1.00
  -6  -7  -2   -0.15    0.62
  -6  -7  -2    1.36    0.77
   6   7   2    2.70    0.72
  -7  -7  -2   13.70    1.32
  -7  -7  -2   13.71    1.24
   7   7   2   13.50    1.23
  -8  -7  -2    1.85    0.83
  -8  -7  -2    2.45    0.86
   8   7   2    1.58    0.75
  -9  -7  -2   -0.85    0.73
   9   7   2   -0.02    0.69
 -13   8   2    8.22    0.85
 -12   8   2    1.82    0.71
 -12   8   2    1.58    0.58
 -11   8   2   26.69    1.30
 -10   8   2    9.33    0.78
   9  -8  -2    2.81    0.43
  -9   8   2    2.26    0.51
  -9   8   2    3.20    0.57
   8  -8  -2  103.11    3.09
  -8   8   2  109.36    3.20
  -8   8   2  109.16    3.19
   7  -8  -2   23.23    1.02
  -7   8   2   25.35    1.15
  -7   8   2   25.28    1.17
   6  -8  -2    1.30    0.39
  -6   8   2    1.59    0.47
  -6   8   2    1.36    0.42
   5  -8  -2   38.17    1.41
  -5   8   2   41.03    1.49
  -5   8   2   38.36    1.46
   4  -8  -2   44.03    1.57
  -4   8   2   42.09    1.59
  -4   8   2   45.57    1.64
   3  -8  -2   -0.01    0.39
  -3   8   2    0.19    0.43
  -3   8   2    0.18    0.41
   2  -8  -2   53.71    1.84
  -2   8   2   47.07    1.78
  -2   8   2   49.74    1.82
  -2   8   2   51.51    2.03
   1  -8  -2   55.31    1.96
  -1   8   2   51.93    1.92
  -1   8   2   56.32    2.14
  -1   8   2   51.69    1.91
   0  -8  -2    0.57    0.49
   0   8   2    0.82    0.48
   0   8   2   -0.55    0.41
   0   8   2    0.50    0.63
  -1  -8  -2   19.03    1.18
   1   8   2   17.37    1.21
   1   8   2   17.43    1.17
  -2  -8  -2   19.16    1.28
  -2  -8  -2   19.25    1.27
   2   8   2   19.26    1.24
  -3  -8  -2    2.85    0.69
  -3  -8  -2    3.56    0.79
   3   8   2    2.27    0.65
  -4  -8  -2   22.91    1.45
  -4  -8  -2   21.94    1.53
   4   8   2   22.76    1.42
  -5  -8  -2   21.41    1.59
  -5  -8  -2   22.05    1.52
   5   8   2   20.01    1.43
  -6  -8  -2   -0.36    0.68
  -6  -8  -2   -1.10    0.72
   6   8   2   -0.98    0.60
  -7  -8  -2    2.27    0.87
  -7  -8  -2    2.20    0.89
   7   8   2    0.57    0.72
  -8  -8  -2    6.13    1.11
   8   8   2    6.36    1.08
 -13   9   2   13.89    1.14
 -12   9   2    1.65    0.62
 -11   9   2    8.32    0.81
 -10   9   2   14.02    1.05
  -9   9   2    0.69    0.51
   8  -9  -2   12.56    0.80
  -8   9   2   13.17    0.95
  -8   9   2   12.67    0.93
   7  -9  -2   36.50    1.39
  -7   9   2   37.39    1.51
  -7   9   2   38.16    1.51
   6  -9  -2    0.06    0.37
  -6   9   2   -0.21    0.43
  -6   9   2   -0.69    0.41
   5  -9  -2    7.99    0.68
  -5   9   2    8.69    0.76
  -5   9   2    8.77    0.76
   4  -9  -2    5.48    0.63
  -4   9   2    4.46    0.63
  -4   9   2    4.54    0.63
   3  -9  -2    4.42    0.62
  -3   9   2    3.71    0.62
  -3   9   2    3.84    0.62
   2  -9  -2   27.50    1.35
  -2   9   2   29.12    1.35
  -2   9   2   29.12    1.36
   1  -9  -2    6.76    0.77
  -1   9   2    5.88    0.71
  -1   9   2    6.91    0.75
   0  -9  -2   -0.39    0.50
   0   9   2   -0.16    0.48
  -1  -9  -2   42.04    1.81
   1   9   2   39.34    1.76
  -2  -9  -2   28.70    1.52
   2   9   2   24.52    1.46
  -3  -9  -2   -0.16    0.63
  -3  -9  -2   -0.17    0.61
   3   9   2    0.04    0.59
  -4  -9  -2   17.38    1.47
  -4  -9  -2   16.10    1.40
   4   9   2   17.67    1.38
  -5  -9  -2    8.24    1.12
  -5  -9  -2    7.50    1.07
   5   9   2    8.88    1.12
  -6  -9  -2    1.00    0.84
  -6  -9  -2    1.14    0.83
   6   9   2    2.60    0.79
  -7  -9  -2    4.09    1.01
  -7  -9  -2    4.36    1.10
   7   9   2    4.84    1.05
 -12  10   2   -0.30    0.60
 -11  10   2   22.63    1.31
 -10  10   2   25.13    1.34
  -9  10   2   -0.43    0.51
  -8  10   2   17.76    1.15
   7 -10  -2   39.77    1.51
  -7  10   2   39.88    1.64
  -7  10   2   39.16    1.62
   6 -10  -2   -0.19    0.39
  -6  10   2   -0.91    0.46
  -6  10   2   -0.73    0.46
   5 -10  -2   19.10    1.06
  -5  10   2   16.79    1.10
  -5  10   2   15.88    1.11
   4 -10  -2   27.98    1.36
  -4  10   2   29.84    1.40
  -4  10   2   30.08    1.40
   3 -10  -2   -0.31    0.45
  -3  10   2    0.58    0.52
  -3  10   2   -0.33    0.48
   2 -10  -2   36.85    1.63
  -2  10   2   36.69    1.64
  -2  10   2   39.41    1.64
   1 -10  -2   48.58    1.92
  -1  10   2   46.17    1.90
   0 -10  -2    0.70    0.62
   0  10   2    0.43    0.55
  -1 -10  -2   18.01    1.32
   1  10   2   18.55    1.29
  -2 -10  -2   54.92    2.24
   2  10   2   49.15    2.14
  -3 -10  -2    0.94    0.74
   3  10   2    1.73    0.72
  -4 -10  -2    2.76    0.85
  -4 -10  -2    3.56    0.86
   4  10   2    3.50    0.82
  -5 -10  -2   17.69    1.56
  -5 -10  -2   14.91    1.41
   5  10   2   17.30    1.50
  -6 -10  -2    2.95    0.99
   6  10   2    2.14    0.83
 -12  11   2   -0.39    0.59
 -11  11   2    8.02    0.88
 -10  11   2   21.97    1.33
  -9  11   2    3.84    0.73
  -8  11   2    4.54    0.77
  -7  11   2   28.12    1.47
   6 -11  -2   10.85    0.90
  -6  11   2    8.95    0.88
  -6  11   2   10.26    0.91
   5 -11  -2    8.10    0.82
  -5  11   2    9.56    0.90
  -5  11   2    8.37    0.84
   4 -11  -2   26.08    1.34
  -4  11   2   25.26    1.39
  -4  11   2   26.66    1.38
   3 -11  -2    9.45    0.90
  -3  11   2   10.51    0.95
   2 -11  -2    8.39    0.87
  -2  11   2    6.31    0.83
   1 -11  -2   30.14    1.57
  -1  11   2   27.43    1.51
   0 -11  -2   21.69    1.41
   0  11   2   20.33    1.37
  -1 -11  -2    5.07    0.89
   1  11   2    3.56    0.79
  -2 -11  -2    7.45    1.02
   2  11   2    8.84    1.03
  -3 -11  -2    9.42    1.16
   3  11   2   11.03    1.16
  -4 -11  -2    0.91    0.84
   4  11   2    0.14    0.74
  -5 -11  -2    3.96    1.05
   5  11   2    3.31    0.92
 -11  12   2    4.62    0.82
 -10  12   2   11.43    1.02
  -9  12   2    3.79    0.78
  -8  12   2    3.53    0.78
  -7  12   2   29.02    1.56
  -6  12   2    6.57    0.85
   5 -12  -2    5.66    0.76
  -5  12   2    7.72    0.90
   4 -12  -2   22.91    1.33
  -4  12   2   22.23    1.39
   3 -12  -2    2.48    0.69
  -3  12   2    3.40    0.75
   2 -12  -2   -0.37    0.57
  -2  12   2    0.17    0.62
   1 -12  -2   24.06    1.50
  -1  12   2   22.18    1.47
   0 -12  -2    5.79    0.89
   0  12   2    5.07    0.89
  -1 -12  -2   -0.12    0.65
   1  12   2    0.47    0.66
  -2 -12  -2    7.42    1.06
   2  12   2    6.85    1.00
  -3 -12  -2    0.83    0.86
   3  12   2   -0.27    0.71
  -4 -12  -2    0.05    0.82
   4  12   2   -0.01    0.80
 -10  13   2   18.74    1.43
  -9  13   2    6.50    0.90
  -8  13   2    0.45    0.70
  -7  13   2   19.45    1.44
  -6  13   2   10.74    1.06
  -5  13   2    0.25    0.67
  -4  13   2   13.72    1.19
   3 -13  -2   16.12    1.28
  -3  13   2   12.29    1.16
   2 -13  -2    0.26    0.63
  -2  13   2   -0.62    0.64
   1 -13  -2    8.47    1.03
  -1  13   2    8.91    1.04
   0 -13  -2   10.12    1.11
   0  13   2    9.71    1.12
  -1 -13  -2   -0.22    0.71
   1  13   2    0.14    0.71
  -2 -13  -2    1.10    0.82
   2  13   2    0.38    0.73
  -9  14   2    9.28    1.06
  -8  14   2    0.54    0.79
  -7  14   2    2.36    0.80
  -6  14   2    9.27    1.05
  -5  14   2    0.65    0.68
  -4  14   2    3.92    0.85
  -3  14   2    6.08    0.96
  -2  14   2    1.79    0.81
  -1  14   2    4.27    0.91
   0  14   2    5.65    0.98
  -5  15   2    0.38    0.76
  -4  15   2    4.83    0.91
  -3  15   2    5.64    0.98
   1  15  -3    1.12    0.82
  -1 -15   3    0.11    0.81
   0  15  -3    5.02    0.95
   0 -15   3    3.95    0.98
  -1  15  -3    5.67    0.95
   1 -15   3    5.44    1.01
  -2  15  -3    1.73    0.82
   2 -15   3    0.58    0.76
  -3  15  -3    3.74    0.90
   3 -15   3    2.23    0.83
  -4  15  -3   12.88    1.29
   4 -15   3   11.97    1.24
  -5  15  -3    1.99    0.87
  -6  15  -3    2.44    0.89
   3  14  -3   11.07    1.20
  -3 -14   3   10.33    1.21
   2  14  -3    3.78    0.86
  -2 -14   3    4.52    1.00
   1  14  -3   -0.04    0.69
  -1 -14   3    0.44    0.77
   0  14  -3   11.19    1.20
   0 -14   3   12.16    1.26
  -1  14  -3    6.37    0.94
   1 -14   3    7.27    1.05
  -2  14  -3    0.17    0.70
   2 -14   3   -0.22    0.71
  -3  14  -3   19.16    1.50
   3 -14   3   19.95    1.50
  -4  14  -3    6.56    0.98
   4 -14   3    7.14    0.98
  -5  14  -3    1.67    0.79
   5 -14   3    0.22    0.69
  -6  14  -3   11.06    1.16
   6 -14   3   10.33    1.12
  -7  14  -3    9.86    1.15
  -8  14  -3    1.39    0.82
   5  13  -3    5.39    0.98
  -5 -13   3    5.45    1.05
   4  13  -3    1.32    0.73
  -4 -13   3    0.20    0.79
   3  13  -3    8.57    1.06
  -3 -13   3   10.55    1.20
   2  13  -3    8.98    1.10
  -2 -13   3    7.86    1.10
   1  13  -3    1.51    0.71
  -1 -13   3    0.80    0.77
   0  13  -3   15.27    1.31
   0 -13   3   13.42    1.26
  -1  13  -3   27.12    1.58
   1 -13   3   28.07    1.70
  -2  13  -3    2.46    0.77
   2 -13   3    1.13    0.72
  -3  13  -3    7.01    0.94
   3 -13   3    9.18    1.05
  -4  13  -3   31.98    1.75
   4 -13   3   32.84    1.75
  -5  13  -3    7.30    0.95
   5 -13   3    6.45    0.91
  -6  13  -3    6.42    0.92
   6 -13   3    5.50    0.85
  -7  13  -3   33.03    1.77
   7 -13   3   30.10    1.65
  -8  13  -3   10.63    1.11
  -9  13  -3    1.82    0.80
   6  12  -3    1.99    0.76
  -6 -12   3    2.34    0.93
   5  12  -3    8.00    0.99
  -5 -12   3    7.44    1.11
  -5 -12   3    7.96    1.15
   4  12  -3    0.07    0.65
  -4 -12   3    0.60    0.75
   3  12  -3    2.70    0.77
  -3 -12   3    2.44    0.82
   2  12  -3    5.48    0.90
  -2 -12   3    5.86    0.94
   1  12  -3    3.34    0.77
  -1 -12   3    5.38    0.89
   0  12  -3   10.55    1.09
   0 -12   3   14.57    1.21
  -1  12  -3   14.57    1.21
   1 -12   3   17.49    1.38
  -2  12  -3    5.97    0.83
   2 -12   3    8.82    0.99
  -3  12  -3    4.78    0.79
   3 -12   3    4.10    0.79
  -4  12  -3   14.51    1.23
   4 -12   3   14.11    1.17
  -5  12  -3   14.44    1.18
   5 -12   3   14.04    1.15
  -6  12  -3    7.05    0.92
   6 -12   3    5.28    0.81
  -7  12  -3   19.66    1.38
   7 -12   3   16.17    1.22
  -8  12  -3   12.54    1.12
   8 -12   3   10.94    1.11
  -9  12  -3    0.19    0.66
 -10  12  -3    7.40    0.99
   7  11  -3    1.87    0.76
  -7 -11   3    1.65    0.84
   6  11  -3    4.13    0.83
  -6 -11   3    3.75    1.01
  -6 -11   3    5.45    1.01
   5  11  -3   15.65    1.31
  -5 -11   3   14.57    1.33
  -5 -11   3   14.52    1.37
   4  11  -3    2.15    0.71
  -4 -11   3    1.09    0.79
  -4 -11   3    1.28    0.73
   3  11  -3    0.44    0.62
  -3 -11   3    0.97    0.68
   2  11  -3   38.57    1.78
  -2 -11   3   35.89    1.81
   1  11  -3    4.03    0.75
  -1 -11   3    3.68    0.78
   0  11  -3    5.36    0.79
   0 -11   3    5.06    0.82
  -1  11  -3   63.04    2.33
   1 -11   3   63.26    2.40
  -2  11  -3    6.43    0.84
   2 -11   3    6.18    0.86
  -3  11  -3    5.94    0.77
   3 -11   3    5.96    0.84
  -4  11  -3   31.45    1.55
   4 -11   3   29.95    1.54
  -5  11  -3   14.86    1.20
   5 -11   3   12.94    1.12
  -6  11  -3    0.20    0.59
   6 -11   3    0.45    0.56
  -7  11  -3   61.68    2.33
   7 -11   3   59.47    2.27
  -8  11  -3   17.19    1.31
   8 -11   3   14.83    1.15
  -9  11  -3    0.49    0.67
 -10  11  -3   29.81    1.65
 -11  11  -3    7.16    0.97
   8  10  -3   11.24    1.26
  -8 -10   3   14.83    1.39
   7  10  -3    7.42    0.98
  -7 -10   3    6.62    1.02
  -7 -10   3    6.03    1.09
   6  10  -3    2.33    0.73
  -6 -10   3    2.06    0.77
  -6 -10   3    1.67    0.82
   5  10  -3   17.34    1.27
  -5 -10   3   17.62    1.50
  -5 -10   3   14.46    1.27
   4  10  -3   21.10    1.36
  -4 -10   3   22.55    1.59
  -4 -10   3   24.78    1.53
   3  10  -3    0.99    0.58
  -3 -10   3    0.18    0.58
  -3 -10   3   -0.20    0.65
   2  10  -3   26.51    1.41
  -2 -10   3   27.69    1.50
   1  10  -3   36.69    1.66
  -1 -10   3   38.82    1.73
   0  10  -3   -0.02    0.50
   0 -10   3   -0.03    0.56
  -1  10  -3   14.02    1.06
   1 -10   3   13.36    1.14
  -2  10  -3   70.31    2.43
   2 -10   3   70.66    2.49
  -3  10  -3    0.27    0.49
   3 -10   3    0.46    0.56
  -4  10  -3    9.30    0.88
   4 -10   3   11.81    1.02
  -5  10  -3   64.96    2.34
   5 -10   3   68.31    2.37
  -6  10  -3    0.07    0.52
   6 -10   3    1.09    0.53
  -7  10  -3   15.95    1.18
   7 -10   3   17.34    1.14
  -8  10  -3   54.58    2.13
   8 -10   3   53.71    2.07
  -9  10  -3   -1.42    0.54
   9 -10   3    0.53    0.53
 -10  10  -3   11.07    1.08
 -11  10  -3   19.03    1.41
  -9  -9   3    0.23    0.71
   8   9  -3    9.82    1.07
  -8  -9   3   10.20    1.20
  -8  -9   3    9.75    1.21
   7   9  -3    4.98    0.80
  -7  -9   3    4.90    0.91
  -7  -9   3    4.80    0.98
   6   9  -3   -0.67    0.51
  -6  -9   3    0.59    0.64
  -6  -9   3   -0.91    0.66
   5   9  -3   18.77    1.24
  -5  -9   3   18.32    1.47
  -5  -9   3   19.03    1.35
   4   9  -3   16.51    1.14
  -4  -9   3   15.23    1.34
  -4  -9   3   15.90    1.23
   3   9  -3   -0.50    0.48
  -3  -9   3    1.18    0.61
  -3  -9   3    0.83    0.65
   2   9  -3   17.08    1.12
  -2  -9   3   15.88    1.14
  -2  -9   3   14.92    1.19
   1   9  -3   32.20    1.57
   1   9  -3   31.93    1.45
  -1  -9   3   32.75    1.51
   0   9  -3    5.41    0.67
   0   9  -3    4.67    0.75
   0  -9   3    4.68    0.68
  -1   9  -3   28.47    1.48
  -1   9  -3   25.22    1.27
   1  -9   3   28.97    1.39
  -2   9  -3   26.67    1.44
  -2   9  -3   26.87    1.27
  -2   9  -3   27.45    1.29
   2  -9   3   28.20    1.36
  -3   9  -3   11.71    0.96
  -3   9  -3   15.19    0.97
   3  -9   3   13.54    1.03
  -4   9  -3   60.62    2.15
  -4   9  -3   62.85    2.16
   4  -9   3   61.77    2.17
  -5   9  -3   22.76    1.18
  -5   9  -3   20.85    1.19
   5  -9   3   21.49    1.19
  -6   9  -3    3.25    0.62
   6  -9   3    3.69    0.63
  -7   9  -3   26.05    1.37
   7  -9   3   27.17    1.34
  -8   9  -3   24.56    1.37
   8  -9   3   26.02    1.32
  -9   9  -3    0.97    0.63
   9  -9   3    1.31    0.53
 -10   9  -3    4.48    0.76
 -11   9  -3   10.88    1.06
 -11   9  -3   10.88    1.05
 -12   9  -3    3.13    0.82
 -10  -8   3    4.34    0.94
  -9  -8   3    0.52    0.83
  -9  -8   3    0.16    0.69
   8   8  -3   10.62    1.05
  -8  -8   3   12.34    1.28
  -8  -8   3   10.92    1.16
   7   8  -3   10.40    0.95
  -7  -8   3    9.93    1.07
  -7  -8   3    9.43    1.12
   6   8  -3    4.52    0.74
  -6  -8   3    3.84    0.85
  -6  -8   3    4.67    0.81
   5   8  -3   33.82    1.51
  -5  -8   3   27.93    1.66
  -5  -8   3   31.49    1.58
   4   8  -3   40.27    1.69
  -4  -8   3   42.43    1.77
  -4  -8   3   40.50    1.87
   3   8  -3    4.82    0.75
   3   8  -3    6.31    0.72
  -3  -8   3    7.28    0.80
  -3  -8   3    7.30    0.82
  -3  -8   3    6.56    0.84
   2   8  -3   40.48    1.58
  -2  -8   3   38.79    1.61
  -2  -8   3   36.28    1.52
  -2  -8   3   39.33    1.70
   1   8  -3   89.33    2.86
   1   8  -3   92.53    2.98
  -1  -8   3   94.07    2.90
   0   8  -3   10.48    0.85
   0   8  -3    9.86    0.84
   0   8  -3   11.92    1.05
   0  -8   3   11.26    0.88
   0  -8   3   10.59    0.82
  -1   8  -3   71.08    2.40
  -1   8  -3   64.50    2.23
  -1   8  -3   66.82    2.23
   1  -8   3   68.42    2.21
   1  -8   3   70.70    2.31
  -2   8  -3   99.54    3.07
  -2   8  -3  100.75    3.18
   2  -8   3  103.10    3.12
   2  -8   3  101.62    3.06
  -3   8  -3   20.52    1.03
  -3   8  -3   18.09    1.00
   3  -8   3   17.53    1.03
  -4   8  -3   47.24    1.73
  -4   8  -3   46.21    1.71
   4  -8   3   47.81    1.75
  -5   8  -3   89.70    2.77
  -5   8  -3   83.82    2.73
   5  -8   3   89.40    2.77
  -6   8  -3   16.55    1.05
  -6   8  -3   16.58    1.02
   6  -8   3   17.62    1.06
  -7   8  -3   14.11    1.04
  -7   8  -3   14.00    1.03
   7  -8   3   14.04    0.97
  -8   8  -3   62.58    2.29
   8  -8   3   67.48    2.30
  -9   8  -3   19.70    1.25
   9  -8   3   19.12    1.17
 -10   8  -3    1.62    0.64
 -10   8  -3    1.32    0.63
  10  -8   3    1.46    0.55
 -11   8  -3   20.95    1.41
 -11   8  -3   20.93    1.40
 -12   8  -3    5.75    0.92
 -12   8  -3    7.94    0.97
 -11  -7   3    4.38    0.92
 -10  -7   3    9.11    1.24
 -10  -7   3    9.28    1.07
   9   7  -3    1.92    0.63
  -9  -7   3    2.38    0.72
  -9  -7   3    3.32    0.88
   8   7  -3    1.91    0.61
  -8  -7   3    2.09    0.84
  -8  -7   3    1.06    0.65
   7   7  -3   24.21    1.33
  -7  -7   3   24.04    1.59
  -7  -7   3   24.94    1.43
   6   7  -3   14.56    1.04
  -6  -7   3   10.73    1.06
  -6  -7   3   12.89    1.05
   5   7  -3    9.36    0.82
  -5  -7   3    8.39    0.87
  -5  -7   3    9.27    0.81
  -5  -7   3    9.70    0.96
   4   7  -3   58.47    2.15
   4   7  -3   64.85    2.15
  -4  -7   3   60.15    2.26
  -4  -7   3   60.13    2.11
  -4  -7   3   62.41    2.20
   3   7  -3   42.74    1.68
   3   7  -3   42.90    1.62
  -3  -7   3   41.53    1.74
  -3  -7   3   42.58    1.68
  -3  -7   3   40.83    1.60
   2   7  -3   18.94    1.02
   2   7  -3   18.88    1.11
   2   7  -3   21.33    1.04
  -2  -7   3   19.09    1.01
  -2  -7   3   19.17    1.16
  -2  -7   3   19.02    1.05
   1   7  -3   11.39    0.81
   1   7  -3   10.48    0.92
   1   7  -3   10.52    0.79
  -1  -7   3   13.01    0.85
  -1  -7   3   11.78    0.90
  -1  -7   3   12.49    0.88
   0   7  -3   57.79    2.04
   0   7  -3   59.20    1.96
   0   7  -3   57.08    1.92
   0  -7   3   60.26    1.93
   0  -7   3   56.04    1.96
  -1   7  -3   18.83    0.92
  -1   7  -3   19.56    0.96
  -1   7  -3   18.94    1.11
   1  -7   3   19.29    1.02
   1  -7   3   18.53    0.92
  -2   7  -3   86.77    2.66
  -2   7  -3   83.03    2.62
   2  -7   3   90.70    2.64
   2  -7   3   88.96    2.69
  -3   7  -3  113.19    3.36
  -3   7  -3  112.27    3.37
   3  -7   3  119.04    3.36
   3  -7   3  116.94    3.40
  -4   7  -3   18.38    0.95
  -4   7  -3   16.51    0.92
   4  -7   3   16.70    0.95
  -5   7  -3   33.82    1.35
  -5   7  -3   32.11    1.33
   5  -7   3   33.59    1.37
  -6   7  -3   65.80    2.17
  -6   7  -3   61.67    2.16
   6  -7   3   67.16    2.20
  -7   7  -3    5.33    0.63
  -7   7  -3    5.41    0.68
   7  -7   3    6.37    0.69
  -8   7  -3   17.19    1.15
   8  -7   3   19.17    1.10
  -9   7  -3   67.09    2.38
  -9   7  -3   66.51    2.37
   9  -7   3   65.47    2.32
 -10   7  -3    0.61    0.60
 -10   7  -3    0.83    0.59
  10  -7   3    0.12    0.48
 -11   7  -3    8.24    0.95
 -11   7  -3    8.65    0.97
 -12   7  -3   13.22    1.17
 -12   7  -3   12.33    1.13
 -11  -6   3    1.70    0.75
 -10  -6   3   15.12    1.25
 -10  -6   3   14.49    1.34
   9   6  -3    6.40    0.82
  -9  -6   3    6.28    0.89
  -9  -6   3    7.24    1.01
   8   6  -3    0.70    0.51
  -8  -6   3   -0.26    0.68
  -8  -6   3    0.86    0.58
   7   6  -3   27.39    1.35
  -7  -6   3   27.57    1.28
  -7  -6   3   26.52    1.37
  -7  -6   3   26.29    1.53
   6   6  -3    8.06    0.77
  -6  -6   3    6.86    0.70
  -6  -6   3    8.56    0.85
  -6  -6   3    6.83    0.88
   5   6  -3    7.34    0.73
   5   6  -3    5.91    0.70
  -5  -6   3    6.40    0.82
  -5  -6   3    6.51    0.72
  -5  -6   3    5.67    0.63
   4   6  -3   90.29    2.83
   4   6  -3   92.07    2.77
  -4  -6   3   88.74    2.89
  -4  -6   3   92.42    2.78
  -4  -6   3   83.14    2.78
   3   6  -3   28.88    1.23
   3   6  -3   30.47    1.30
   3   6  -3   28.94    1.23
  -3  -6   3   28.08    1.35
  -3  -6   3   31.82    1.25
  -3  -6   3   31.25    1.30
   2   6  -3    7.93    0.68
   2   6  -3    8.71    0.69
   2   6  -3    8.16    0.69
  -2  -6   3    8.04    0.74
  -2  -6   3    8.53    0.71
  -2  -6   3    8.78    0.74
   1   6  -3   70.62    2.20
   1   6  -3   68.22    2.22
   1   6  -3   68.89    2.15
  -1  -6   3   67.99    2.23
  -1  -6   3   66.90    2.19
  -1  -6   3   71.42    2.17
   0   6  -3    1.66    0.36
   0   6  -3    2.00    0.50
   0   6  -3    2.63    0.42
   0  -6   3    1.65    0.41
   0  -6   3    2.22    0.42
  -1   6  -3    7.82    0.66
  -1   6  -3    6.85    0.60
  -1   6  -3    7.87    0.60
   1  -6   3    7.74    0.66
   1  -6   3    7.68    0.60
  -2   6  -3  207.26    5.84
  -2   6  -3  218.96    5.88
   2  -6   3  220.51    5.86
   2  -6   3  217.21    5.89
  -3   6  -3   95.35    2.80
  -3   6  -3   91.71    2.77
   3  -6   3   94.88    2.81
   3  -6   3   96.61    2.77
  -4   6  -3    1.29    0.39
  -4   6  -3    0.12    0.34
   4  -6   3    0.69    0.34
   4  -6   3    0.66    0.38
  -5   6  -3  126.16    3.81
  -5   6  -3  137.08    3.85
   5  -6   3  136.33    3.85
  -6   6  -3   18.65    1.03
  -6   6  -3   20.33    1.02
   6  -6   3   19.84    1.02
  -7   6  -3    0.43    0.42
  -7   6  -3    1.34    0.51
   7  -6   3    0.90    0.45
  -8   6  -3   44.39    1.72
  -8   6  -3   43.93    1.73
  -8   6  -3   42.04    1.71
   8  -6   3   43.58    1.69
  -9   6  -3   27.99    1.43
  -9   6  -3   27.54    1.43
   9  -6   3   29.97    1.38
 -10   6  -3    4.98    0.78
 -10   6  -3    4.13    0.74
  10  -6   3    5.39    0.71
 -11   6  -3   26.11    1.49
 -11   6  -3   23.82    1.50
 -12   6  -3   15.12    1.27
 -12   6  -3   17.65    1.37
 -12  -5   3    5.19    0.90
 -11  -5   3    0.11    0.62
 -11  -5   3   -0.47    0.80
 -10  -5   3   25.80    1.47
 -10  -5   3   24.12    1.69
   9   5  -3   18.53    1.15
  -9  -5   3   17.14    1.42
  -9  -5   3   19.01    1.24
   8   5  -3   -0.04    0.46
  -8  -5   3    0.38    0.51
  -8  -5   3    0.11    0.41
  -8  -5   3   -0.15    0.60
   7   5  -3   61.03    2.10
  -7  -5   3   59.59    2.27
  -7  -5   3   57.21    2.10
  -7  -5   3   59.57    2.04
   6   5  -3   23.49    1.18
   6   5  -3   22.69    1.15
  -6  -5   3   23.30    1.31
  -6  -5   3   24.38    1.12
  -6  -5   3   22.42    1.16
   5   5  -3    2.06    0.48
   5   5  -3    2.31    0.50
  -5  -5   3    1.19    0.55
  -5  -5   3    2.02    0.48
  -5  -5   3    1.96    0.44
   4   5  -3  112.57    3.35
   4   5  -3  112.50    3.29
   4   5  -3  108.99    3.26
  -4  -5   3  111.12    3.33
  -4  -5   3  115.46    3.40
  -4  -5   3  115.03    3.30
   3   5  -3  103.40    2.98
   3   5  -3  100.68    3.02
   3   5  -3   99.33    2.98
  -3  -5   3  100.80    3.02
  -3  -5   3  105.40    3.00
   2   5  -3    5.98    0.52
   2   5  -3    5.93    0.54
   2   5  -3    6.54    0.55
   2   5  -3    5.65    0.58
  -2  -5   3    6.14    0.61
  -2  -5   3    6.48    0.59
  -2  -5   3    6.50    0.56
   1   5  -3  171.36    4.60
   1   5  -3  164.26    4.62
   1   5  -3  161.71    4.53
  -1  -5   3  171.95    4.55
  -1  -5   3  159.61    4.57
  -1  -5   3  165.95    4.64
   0   5  -3  138.02    3.75
   0   5  -3  128.22    3.79
   0   5  -3  132.75    3.71
   0  -5   3  140.15    3.72
   0  -5   3  130.03    3.74
  -1   5  -3    1.66    0.42
  -1   5  -3    1.08    0.31
  -1   5  -3    1.84    0.36
   1  -5   3    0.87    0.31
   1  -5   3    1.25    0.37
  -2   5  -3  188.03    5.09
  -2   5  -3  184.74    5.07
   2  -5   3  190.15    5.07
   2  -5   3  185.34    5.09
  -3   5  -3  258.08    7.02
  -3   5  -3  262.22    7.03
   3  -5   3  255.87    7.03
   3  -5   3  273.92    7.03
  -4   5  -3   40.43    1.45
  -4   5  -3   40.80    1.45
   4  -5   3   41.48    1.46
   4  -5   3   43.23    1.44
  -5   5  -3   53.96    1.80
  -5   5  -3   55.10    1.81
   5  -5   3   52.77    1.75
   5  -5   3   54.40    1.81
  -6   5  -3   92.96    2.81
  -6   5  -3   89.81    2.80
   6  -5   3   92.47    2.81
  -7   5  -3   12.28    0.93
  -7   5  -3   14.09    0.95
  -7   5  -3   13.11    0.88
   7  -5   3   13.36    0.91
  -8   5  -3   18.90    1.08
  -8   5  -3   19.22    1.14
  -8   5  -3   20.60    1.15
   8  -5   3   19.40    1.09
  -9   5  -3   45.28    1.83
  -9   5  -3   43.57    1.82
   9  -5   3   46.30    1.78
 -10   5  -3    8.88    0.90
 -10   5  -3    9.86    0.96
  10  -5   3    8.97    0.85
 -11   5  -3   10.38    1.02
 -11   5  -3   10.23    1.00
 -12   5  -3   17.23    1.35
 -12   5  -3   14.56    1.25
 -12  -4   3   18.87    1.39
 -11  -4   3   -0.31    0.73
 -11  -4   3    0.14    0.61
  10   4  -3    5.09    0.71
 -10  -4   3    5.88    0.78
 -10  -4   3    6.55    0.94
   9   4  -3   37.11    1.57
  -9  -4   3   38.43    1.62
  -9  -4   3   38.31    1.82
  -9  -4   3   36.17    1.51
   8   4  -3   -0.19    0.43
  -8  -4   3    0.29    0.40
  -8  -4   3   -0.24    0.44
  -8  -4   3    0.51    0.62
   7   4  -3   16.71    0.97
  -7  -4   3   14.92    0.97
  -7  -4   3   18.67    0.95
  -7  -4   3   17.03    1.17
   6   4  -3   71.88    2.33
   6   4  -3   70.08    2.26
  -6  -4   3   69.98    2.39
  -6  -4   3   68.95    2.26
  -6  -4   3   73.36    2.25
   5   4  -3    1.73    0.41
   5   4  -3    1.41    0.44
   5   4  -3    1.92    0.36
  -5  -4   3    1.41    0.42
  -5  -4   3    1.29    0.41
  -5  -4   3    1.67    0.52
   4   4  -3    8.64    0.65
   4   4  -3    9.18    0.71
   4   4  -3    8.81    0.61
  -4  -4   3    8.29    0.65
  -4  -4   3    8.54    0.68
  -4  -4   3    9.24    0.69
   3   4  -3  165.03    4.68
   3   4  -3  175.99    4.76
   3   4  -3  170.94    4.69
  -3  -4   3  174.35    4.73
  -3  -4   3  168.52    4.77
  -3  -4   3  175.07    4.71
   2   4  -3    8.94    0.57
   2   4  -3    8.71    0.65
   2   4  -3    8.51    0.60
   2   4  -3    9.51    0.57
  -2  -4   3    8.99    0.67
  -2  -4   3    8.47    0.63
  -2  -4   3    8.40    0.61
   1   4  -3   15.24    0.77
   1   4  -3   14.92    0.73
   1   4  -3   14.87    0.68
  -1  -4   3   13.99    0.77
  -1  -4   3   15.28    0.72
  -1  -4   3   14.94    0.70
   0   4  -3  300.39    8.15
   0   4  -3  291.74    8.04
   0   4  -3  318.00    8.08
   0  -4   3  312.08    8.05
   0  -4   3  308.20    8.08
  -1   4  -3   51.37    1.56
  -1   4  -3   47.65    1.52
   1  -4   3   48.17    1.54
   1  -4   3   51.43    1.54
  -2   4  -3   66.10    1.98
  -2   4  -3   64.13    1.95
   2  -4   3   64.48    1.97
   2  -4   3   69.73    1.98
  -3   4  -3   69.60    2.11
  -3   4  -3   70.94    2.12
   3  -4   3   68.93    2.12
   3  -4   3   72.55    2.10
  -4   4  -3   54.80    1.75
  -4   4  -3   53.22    1.74
   4  -4   3   55.45    1.72
   4  -4   3   53.35    1.75
  -5   4  -3    4.68    0.51
  -5   4  -3    4.88    0.54
   5  -4   3    4.63    0.53
   5  -4   3    4.67    0.48
  -6   4  -3   51.65    1.79
  -6   4  -3   49.88    1.78
  -6   4  -3   53.48    1.80
   6  -4   3   53.71    1.80
  -7   4  -3   15.92    0.93
  -7   4  -3   16.37    1.00
  -7   4  -3   16.75    1.01
   7  -4   3   15.39    0.96
  -8   4  -3    4.60    0.60
  -8   4  -3    4.09    0.65
  -8   4  -3    4.15    0.63
   8  -4   3    4.05    0.60
  -9   4  -3   36.01    1.58
  -9   4  -3   32.19    1.53
   9  -4   3   32.73    1.47
 -10   4  -3    8.26    0.89
 -10   4  -3    6.81    0.82
  10  -4   3    9.13    0.86
 -11   4  -3    1.97    0.67
 -11   4  -3    2.63    0.74
 -12   4  -3   12.51    1.20
 -12   4  -3   11.31    1.09
 -13  -3   3    7.19    0.96
 -12  -3   3    8.28    1.10
 -12  -3   3   10.82    1.01
 -11  -3   3    1.44    0.73
 -11  -3   3    1.54    0.61
  10   3  -3    9.13    0.82
 -10  -3   3   10.93    1.04
 -10  -3   3    9.14    0.84
 -10  -3   3   10.35    0.84
   9   3  -3   26.25    1.21
  -9  -3   3   23.38    1.22
  -9  -3   3   25.43    1.46
  -9  -3   3   26.66    1.18
   8   3  -3    0.78    0.42
  -8  -3   3   -0.08    0.35
  -8  -3   3    0.09    0.43
  -8  -3   3   -0.38    0.56
   7   3  -3   36.01    1.46
   7   3  -3   36.81    1.38
  -7  -3   3   34.84    1.54
  -7  -3   3   35.98    1.33
  -7  -3   3   36.18    1.38
   6   3  -3   80.61    2.41
   6   3  -3   82.91    2.58
   6   3  -3   81.20    2.49
  -6  -3   3   87.63    2.48
  -6  -3   3   83.68    2.63
  -6  -3   3   78.53    2.47
   5   3  -3   25.59    0.96
   5   3  -3   23.67    1.00
   5   3  -3   27.50    1.10
  -5  -3   3   24.63    1.11
  -5  -3   3   25.67    1.02
  -5  -3   3   25.01    0.99
   4   3  -3   16.09    0.81
   4   3  -3   15.01    0.73
  -4  -3   3   15.16    0.74
  -4  -3   3   15.42    0.70
  -4  -3   3   14.90    0.82
  -4  -3   3   15.94    0.75
   3   3  -3  197.35    5.09
   3   3  -3  193.75    5.18
   3   3  -3  185.46    5.08
  -3  -3   3  191.71    5.18
  -3  -3   3  192.11    5.11
  -3  -3   3  190.93    5.12
  -3  -3   3  178.48    5.70
   2   3  -3   11.55    0.57
   2   3  -3   11.78    0.63
   2   3  -3   12.41    0.64
   2   3  -3   13.00    0.66
  -2  -3   3   11.48    0.63
  -2  -3   3   12.95    0.69
  -2  -3   3   13.52    0.64
   1   3  -3  128.24    3.55
   1   3  -3  135.33    3.60
   1   3  -3  131.23    3.61
  -1  -3   3  131.67    3.63
  -1  -3   3  131.23    3.59
  -1  -3   3  135.16    3.57
   0   3  -3  205.82    5.39
   0   3  -3  201.97    5.37
   0   3  -3  200.92    5.43
   0  -3   3  207.81    5.38
   0  -3   3  199.67    5.39
  -1   3  -3    8.76    0.52
  -1   3  -3    9.13    0.54
   1  -3   3    9.30    0.54
   1  -3   3   10.61    0.55
  -2   3  -3    0.27    0.28
  -2   3  -3    0.91    0.29
   2  -3   3    0.58    0.29
   2  -3   3    0.51    0.28
  -3   3  -3  114.07    3.15
  -3   3  -3  111.82    3.14
   3  -3   3  110.97    3.15
   3  -3   3  110.49    3.13
  -4   3  -3    6.98    0.58
  -4   3  -3    7.01    0.60
   4  -3   3    7.73    0.58
   4  -3   3    7.69    0.58
  -5   3  -3    4.68    0.49
  -5   3  -3    5.34    0.52
  -5   3  -3    4.32    0.51
   5  -3   3    4.57    0.52
   5  -3   3    4.61    0.47
  -6   3  -3  115.98    3.35
  -6   3  -3  118.56    3.37
  -6   3  -3  110.68    3.35
   6  -3   3  111.39    3.35
  -7   3  -3   12.66    0.92
  -7   3  -3   11.33    0.83
  -7   3  -3   12.17    0.89
   7  -3   3   11.42    0.86
  -8   3  -3    1.95    0.51
  -8   3  -3    2.69    0.58
  -8   3  -3    2.39    0.59
   8  -3   3    1.70    0.51
  -9   3  -3   52.10    1.98
  -9   3  -3   49.87    1.99
   9  -3   3   53.36    1.96
 -10   3  -3   11.84    1.00
 -10   3  -3   11.30    1.01
  10  -3   3   11.88    0.97
 -11   3  -3   -1.15    0.59
 -11   3  -3   -0.11    0.60
  11  -3   3    0.18    0.53
 -12   3  -3   18.28    1.51
 -12   3  -3   21.60    1.42
 -13  -2   3    9.05    0.96
 -12  -2   3    9.01    0.90
 -12  -2   3    6.49    1.01
 -11  -2   3   13.95    1.21
 -11  -2   3   15.47    1.10
  10   2  -3   13.98    0.91
 -10  -2   3   16.26    1.02
 -10  -2   3   14.70    1.25
 -10  -2   3   14.89    0.91
   9   2  -3   42.31    1.63
  -9  -2   3   48.62    1.65
  -9  -2   3   48.68    1.94
  -9  -2   3   45.54    1.69
   8   2  -3   27.06    1.12
  -8  -2   3   25.80    1.14
  -8  -2   3   26.45    1.35
  -8  -2   3   27.42    1.11
   7   2  -3   33.06    1.17
   7   2  -3   31.04    1.32
   7   2  -3   30.87    1.21
  -7  -2   3   34.85    1.21
  -7  -2   3   33.68    1.42
  -7  -2   3   32.73    1.24
   6   2  -3  161.07    4.45
   6   2  -3  154.29    4.25
   6   2  -3  153.69    4.31
  -6  -2   3  160.93    4.29
  -6  -2   3  152.64    4.46
  -6  -2   3  156.99    4.30
   5   2  -3  105.56    3.03
   5   2  -3  103.58    2.87
   5   2  -3  102.50    2.92
  -5  -2   3  107.78    2.91
  -5  -2   3  100.30    2.90
  -5  -2   3  103.09    3.04
   4   2  -3   32.10    1.17
   4   2  -3   31.60    1.08
   4   2  -3   33.27    1.05
  -4  -2   3   33.44    1.10
  -4  -2   3   33.43    1.19
  -4  -2   3   33.44    1.09
   3   2  -3   52.78    1.61
   3   2  -3   53.79    1.54
   3   2  -3   53.46    1.53
  -3  -2   3   52.24    1.62
  -3  -2   3   53.50    1.57
  -3  -2   3   51.15    1.75
  -3  -2   3   51.24    1.57
   2   2  -3  622.84   17.38
   2   2  -3  576.62   15.50
   2   2  -3  564.21   15.22
   2   2  -3  599.76   15.39
  -2  -2   3  577.91   15.38
  -2  -2   3  587.70   15.39
  -2  -2   3  612.72   15.42
  -2  -2   3  577.73   17.52
   1   2  -3  192.28    5.20
   1   2  -3  194.74    5.24
   1   2  -3  200.28    5.99
   1   2  -3  203.84    5.23
  -1  -2   3  195.02    5.26
  -1  -2   3  195.97    5.22
  -1  -2   3  205.65    5.21
   0   2  -3  175.34    4.61
   0   2  -3  172.63    4.61
   0  -2   3  171.44    4.61
   0  -2   3  177.71    4.61
  -1   2  -3  206.32    5.30
  -1   2  -3  197.02    5.29
   1  -2   3  193.94    5.30
   1  -2   3  202.89    5.29
  -2   2  -3   33.13    1.11
  -2   2  -3   30.88    1.09
   2  -2   3   31.83    1.10
   2  -2   3   33.69    1.10
  -3   2  -3   24.97    0.96
  -3   2  -3   24.69    0.95
  -3   2  -3   24.57    0.89
   3  -2   3   25.24    0.97
   3  -2   3   25.85    0.95
  -4   2  -3  132.72    3.64
  -4   2  -3  125.28    3.62
  -4   2  -3  128.95    3.59
   4  -2   3  126.02    3.63
   4  -2   3  132.69    3.61
  -5   2  -3    0.86    0.36
  -5   2  -3    0.32    0.36
  -5   2  -3    0.87    0.38
   5  -2   3    0.95    0.37
   5  -2   3    0.98    0.35
  -6   2  -3   32.97    1.29
  -6   2  -3   32.34    1.28
  -6   2  -3   29.80    1.28
   6  -2   3   30.69    1.27
  -7   2  -3  142.00    4.16
  -7   2  -3  144.23    4.16
  -7   2  -3  139.88    4.15
   7  -2   3  146.51    4.17
  -8   2  -3   14.85    1.04
  -8   2  -3   15.68    1.08
   8  -2   3   16.45    1.02
  -9   2  -3   11.47    0.96
  -9   2  -3   12.09    0.98
   9  -2   3   12.59    1.00
 -10   2  -3   37.30    1.75
 -10   2  -3   37.04    1.72
  10  -2   3   39.47    1.69
 -11   2  -3   -0.96    0.65
 -11   2  -3   -0.26    0.58
  11  -2   3    0.58    0.53
 -12   2  -3    9.60    1.07
 -12   2  -3    8.15    1.07
 -13  -1   3    0.27    0.58
 -12  -1   3   13.68    1.26
 -12  -1   3   15.99    1.12
 -11  -1   3   14.95    1.02
 -11  -1   3   14.36    1.21
  10   1  -3    1.98    0.46
 -10  -1   3    1.88    0.70
 -10  -1   3    2.08    0.45
   9   1  -3   30.09    1.21
  -9  -1   3   30.02    1.20
  -9  -1   3   31.29    1.49
   8   1  -3   62.20    2.11
   8   1  -3   58.11    1.93
  -8  -1   3   64.53    1.95
  -8  -1   3   63.81    2.19
   7   1  -3    2.72    0.39
   7   1  -3    2.30    0.45
   7   1  -3    3.39    0.37
  -7  -1   3    3.10    0.40
  -7  -1   3    2.59    0.52
   6   1  -3  105.20    3.05
   6   1  -3  101.68    2.88
   6   1  -3  104.91    2.84
  -6  -1   3   99.95    3.05
  -6  -1   3  103.97    2.87
   5   1  -3  122.70    3.40
   5   1  -3  124.01    3.36
   5   1  -3  125.72    3.55
  -5  -1   3  129.60    3.40
  -5  -1   3  126.26    3.56
  -5  -1   3  124.10    3.40
   4   1  -3   33.63    1.01
   4   1  -3   33.46    1.17
   4   1  -3   32.48    1.03
  -4  -1   3   33.91    1.04
  -4  -1   3   33.65    1.18
  -4  -1   3   35.29    1.05
   3   1  -3   63.06    1.83
  -3  -1   3   62.77    1.75
  -3  -1   3   63.81    1.74
  -3  -1   3   60.75    1.83
   2   1  -3  248.88    6.76
   2   1  -3  252.25    6.85
  -2  -1   3  254.31    7.79
  -2  -1   3  268.31    6.75
  -2  -1   3  265.36    6.86
  -2  -1   3  275.94    6.77
   1   1  -3   -0.18    0.25
   1   1  -3   -0.11    0.17
   1   1  -3   -0.35    0.16
  -1  -1   3   -0.27    0.17
  -1  -1   3   -0.31    0.17
   0   1  -3   97.36    2.68
   0   1  -3   99.31    2.69
   0  -1   3   99.23    2.69
   0  -1   3  102.73    2.68
  -1   1  -3  128.74    3.52
  -1   1  -3  131.92    3.53
   1  -1   3  132.15    3.52
   1  -1   3  130.56    3.53
  -2   1  -3    0.05    0.28
  -2   1  -3    0.07    0.27
  -2   1  -3    0.20    0.22
   2  -1   3   -0.11    0.26
   2  -1   3   -0.08    0.25
  -3   1  -3   27.37    1.01
  -3   1  -3   27.16    1.01
  -3   1  -3   25.91    0.93
   3  -1   3   26.70    0.99
   3  -1   3   27.29    1.01
  -4   1  -3  154.17    4.30
  -4   1  -3  160.12    4.32
  -4   1  -3  153.49    4.27
   4  -1   3  157.39    4.29
   4  -1   3  151.96    4.30
  -5   1  -3   31.93    1.26
  -5   1  -3   31.87    1.25
  -5   1  -3   32.89    1.23
   5  -1   3   32.80    1.27
   5  -1   3   32.58    1.23
  -6   1  -3   36.71    1.41
  -6   1  -3   35.87    1.43
  -6   1  -3   36.81    1.41
   6  -1   3   35.70    1.43
  -7   1  -3   55.06    1.89
  -7   1  -3   52.12    1.89
  -7   1  -3   50.56    1.89
   7  -1   3   53.95    1.90
  -8   1  -3    0.30    0.52
  -8   1  -3    0.07    0.49
   8  -1   3   -0.08    0.46
  -9   1  -3   21.18    1.33
  -9   1  -3   21.65    1.28
   9  -1   3   21.64    1.22
 -10   1  -3   21.24    1.40
 -10   1  -3   21.79    1.35
  10  -1   3   19.26    1.24
 -11   1  -3    3.37    0.75
 -11   1  -3    1.85    0.78
  11  -1   3    1.90    0.65
 -12   1  -3    7.92    0.98
 -12   1  -3    9.41    1.11
 -14   0   3    4.50    0.76
 -13   0   3    0.94    0.78
 -12   0   3   46.55    2.12
 -11   0   3    3.37    0.75
  10   0  -3    2.25    0.43
 -10   0   3    2.11    0.45
 -10   0   3    2.33    0.49
 -10   0   3    1.60    0.63
   9   0  -3   74.18    2.30
  -9   0   3   78.48    2.32
  -9   0   3   75.71    2.59
  -9   0   3   75.79    2.34
   8   0  -3   27.06    0.99
   8   0  -3   26.35    1.03
  -8   0   3   29.16    1.05
  -8   0   3   28.24    1.31
  -8   0   3   25.98    1.07
   7   0  -3    0.89    0.29
   7   0  -3    1.09    0.27
  -7   0   3    0.43    0.30
  -7   0   3    1.06    0.31
  -7   0   3    1.26    0.47
   6   0  -3  124.20    3.50
   6   0  -3  135.53    3.48
  -6   0   3  131.52    3.51
  -6   0   3  128.98    3.52
  -6   0   3  129.49    3.72
  -5   0   3   28.31    1.11
  -5   0   3   31.65    0.94
  -5   0   3   29.42    0.94
  -4   0   3    9.09    0.59
  -3   0   3  334.97    8.81
  -2   0   3    1.07    0.22
  -2   0   3    1.18    0.30
   1   0  -3   50.88    1.42
   1   0  -3   52.26    1.42
   1   0  -3   52.85    1.73
  -1   0   3   52.67    1.43
  -1   0   3   51.52    1.42
   0   0  -3   37.27    1.13
   0   0  -3   37.23    1.34
   0   0  -3   39.05    1.13
   0   0   3   37.25    1.13
   0   0   3   40.07    1.13
  -1   0  -3  240.70    6.30
  -1   0  -3  238.18    6.29
   1   0   3  242.86    6.29
   1   0   3  234.62    6.29
  -2   0  -3  107.19    2.90
  -2   0  -3  102.05    2.83
   2   0   3  103.71    2.88
   2   0   3  103.79    2.82
   2   0   3  101.26    2.89
  -3   0  -3   50.72    1.64
  -3   0  -3   51.09    1.64
  -3   0  -3   52.53    1.58
   3   0   3   53.00    1.57
   3   0   3   52.40    1.62
   3   0   3   51.59    1.65
  -4   0  -3  253.10    6.96
  -4   0  -3  253.42    6.95
  -4   0  -3  259.95    6.96
   4   0   3  263.08    6.94
   4   0   3  263.45    6.94
   4   0   3  259.42    6.97
  -5   0  -3   12.94    0.82
  -5   0  -3   12.34    0.82
  -5   0  -3   13.46    0.79
   5   0   3   13.79    0.76
   5   0   3   11.64    0.80
   5   0   3   12.96    0.75
  -6   0  -3   22.78    1.13
  -6   0  -3   23.40    1.12
  -6   0  -3   21.67    1.06
   6   0   3   22.23    1.12
   6   0   3   23.82    1.05
  -7   0  -3   22.59    1.20
  -7   0  -3   21.48    1.17
   7   0   3   21.87    1.16
  -8   0  -3   11.01    0.92
  -8   0  -3   10.48    0.90
   8   0   3   10.99    0.92
  -9   0  -3   15.68    1.17
  -9   0  -3   16.45    1.23
   9   0   3   15.72    1.11
 -10   0  -3   23.15    1.50
 -10   0  -3   24.46    1.44
  10   0   3   25.76    1.42
 -11   0  -3    3.63    0.82
 -11   0  -3    3.00    0.85
 -12   0  -3    1.40    0.85
 -12   0  -3    0.20    0.65
 -13   1   3   -0.92    0.65
 -12   1   3   21.31    1.14
 -12   1   3   18.04    1.41
 -11   1   3   48.11    2.03
 -11   1   3   46.38    1.72
  10  -1  -3    2.97    0.43
 -10   1   3    3.36    0.45
 -10   1   3    3.20    0.52
 -10   1   3    2.41    0.67
   9  -1  -3   14.73    0.73
  -9   1   3   14.68    1.08
  -9   1   3   14.49    0.81
  -9   1   3   13.99    0.76
   8  -1  -3  101.15    2.82
   8  -1  -3  101.99    2.79
  -8   1   3  101.40    2.85
  -8   1   3   98.70    2.85
  -8   1   3   99.02    3.10
   7  -1  -3    5.60    0.40
  -7   1   3    5.16    0.42
  -7   1   3    5.42    0.46
  -7   1   3    4.16    0.55
  -6   1   3   12.86    0.56
  -6   1   3   12.40    0.56
  -6   1   3   13.05    0.79
  -5   1   3  142.37    3.70
  -5   1   3  138.65    3.91
  -5   1   3  139.87    3.70
  -4   1   3   47.72    1.49
   1  -1  -3   26.23    0.80
  -1   1   3   26.99    1.04
  -1   1   3   25.95    0.81
  -1   1   3   25.77    0.81
   0  -1  -3   42.74    1.29
   0  -1  -3   43.84    1.49
   0  -1  -3   43.31    1.29
   0   1   3   43.25    1.27
   0   1   3   44.69    1.29
   0   1   3   41.46    1.28
  -1  -1  -3  353.00    9.43
  -1  -1  -3  352.04    9.38
  -1  -1  -3  359.06    9.38
   1   1   3  371.27    9.41
   1   1   3  350.46    9.39
   1   1   3  371.12    9.38
  -2  -1  -3   80.05    2.43
  -2  -1  -3   88.03    2.45
  -2  -1  -3   85.34    2.41
   2   1   3   88.80    2.44
   2   1   3   81.99    2.43
   2   1   3   84.15    2.38
  -3  -1  -3   19.64    0.85
  -3  -1  -3   19.48    0.88
  -3  -1  -3   18.99    0.86
   3   1   3   20.85    0.82
   3   1   3   18.83    0.87
   3   1   3   19.71    0.86
  -4  -1  -3   68.78    2.14
  -4  -1  -3   68.25    2.12
  -4  -1  -3   66.78    2.10
   4   1   3   66.17    2.06
   4   1   3   69.55    2.11
   4   1   3   68.30    2.14
  -5  -1  -3    6.21    0.64
  -5  -1  -3    7.38    0.65
  -5  -1  -3    7.71    0.68
   5   1   3    7.27    0.61
   5   1   3    7.88    0.67
   5   1   3    8.03    0.61
  -6  -1  -3   11.55    0.93
  -6  -1  -3   11.50    0.83
  -6  -1  -3    9.83    0.83
   6   1   3    9.71    0.77
   6   1   3   10.96    0.86
  -7  -1  -3   44.10    1.77
  -7  -1  -3   44.89    1.77
   7   1   3   43.00    1.65
   7   1   3   45.13    1.74
  -8  -1  -3   16.87    1.21
  -8  -1  -3   17.06    1.17
   8   1   3   18.35    1.14
  -9  -1  -3    6.46    0.88
  -9  -1  -3    7.24    0.86
   9   1   3    7.59    0.85
 -10  -1  -3   20.88    1.39
 -10  -1  -3   18.66    1.44
  10   1   3   22.00    1.37
 -11  -1  -3    7.95    1.02
 -11  -1  -3    6.37    1.02
 -14   2   3   17.70    1.19
 -13   2   3   -0.68    0.70
 -13   2   3   -0.36    0.48
 -12   2   3    5.52    0.66
 -12   2   3    5.55    0.90
 -11   2   3   50.14    1.74
 -11   2   3   48.98    1.76
 -11   2   3   51.15    2.07
  10  -2  -3    9.29    0.63
 -10   2   3   10.13    0.75
 -10   2   3   10.00    0.90
 -10   2   3   10.73    0.71
   9  -2  -3    1.83    0.29
   9  -2  -3    2.88    0.34
  -9   2   3    2.79    0.60
  -9   2   3    3.01    0.44
  -9   2   3    3.27    0.40
   8  -2  -3   29.69    0.97
  -8   2   3   30.49    1.05
  -8   2   3   28.09    1.05
  -8   2   3   28.10    1.30
  -7   2   3   33.60    1.06
  -7   2   3   31.04    1.05
  -7   2   3   30.91    1.30
  -6   2   3   18.58    0.66
  -6   2   3   17.55    0.88
  -6   2   3   17.26    0.65
   2  -2  -3   34.73    1.00
  -2   2   3   35.49    1.03
  -2   2   3   34.58    1.01
   1  -2  -3   11.60    0.51
   1  -2  -3   10.55    0.50
  -1   2   3   10.91    0.67
  -1   2   3   10.83    0.49
  -1   2   3   11.79    0.52
   0  -2  -3    6.39    0.51
   0  -2  -3    6.38    0.45
   0  -2  -3    5.92    0.46
   0   2   3    6.90    0.50
   0   2   3    6.15    0.44
   0   2   3    6.33    0.48
   0   2   3    5.96    0.56
  -1  -2  -3  212.09    5.76
  -1  -2  -3  222.27    6.51
  -1  -2  -3  210.57    5.76
  -1  -2  -3  218.78    5.81
   1   2   3  210.60    5.76
   1   2   3  223.09    5.79
   1   2   3  215.30    5.75
  -2  -2  -3   82.15    2.67
  -2  -2  -3   83.32    2.45
  -2  -2  -3   83.28    2.44
  -2  -2  -3   83.68    2.45
   2   2   3   85.92    2.44
   2   2   3   84.97    2.41
   2   2   3   80.76    2.44
  -3  -2  -3   11.53    0.75
  -3  -2  -3   10.66    0.69
  -3  -2  -3   11.92    0.74
   3   2   3   11.88    0.68
   3   2   3   11.06    0.70
   3   2   3   11.71    0.70
  -4  -2  -3   51.71    1.77
  -4  -2  -3   51.64    1.77
  -4  -2  -3   52.96    1.75
   4   2   3   51.20    1.73
   4   2   3   49.63    1.74
   4   2   3   52.44    1.70
  -5  -2  -3    6.94    0.71
  -5  -2  -3    5.35    0.58
  -5  -2  -3    7.21    0.69
   5   2   3    5.59    0.58
   5   2   3    5.19    0.62
  -6  -2  -3    5.31    0.67
  -6  -2  -3    5.22    0.71
   6   2   3    4.50    0.57
   6   2   3    6.38    0.68
  -7  -2  -3   93.40    3.08
  -7  -2  -3  101.62    3.15
   7   2   3   93.54    3.06
  -8  -2  -3   21.79    1.40
  -8  -2  -3   22.02    1.33
   8   2   3   23.64    1.33
  -9  -2  -3    0.07    0.70
   9   2   3    0.84    0.59
 -10  -2  -3   23.61    1.63
  10   2   3   23.75    1.49
 -11  -2  -3   13.07    1.31
 -14   3   3   11.46    0.93
 -13   3   3    3.49    0.61
 -13   3   3    3.04    0.85
 -12   3   3    6.33    0.89
 -12   3   3    8.16    0.73
 -11   3   3   60.93    2.03
 -11   3   3   61.47    2.36
 -11   3   3   65.81    2.07
 -10   3   3   11.51    0.76
 -10   3   3   10.12    0.70
 -10   3   3   10.94    0.92
   9  -3  -3   11.10    0.56
  -9   3   3   11.03    0.69
  -9   3   3   10.81    0.89
  -9   3   3   10.58    0.65
   8  -3  -3   44.35    1.34
  -8   3   3   42.47    1.67
  -8   3   3   44.64    1.42
  -8   3   3   45.56    1.41
  -7   3   3   13.71    0.62
  -7   3   3   12.61    0.84
  -7   3   3   12.10    0.60
  -6   3   3   21.72    0.77
  -6   3   3   21.98    0.76
  -5   3   3  315.71    8.01
  -5   3   3  301.49    8.00
  -4   3   3   87.42    2.37
  -4   3   3   88.40    2.37
  -3   3   3   22.31    0.78
  -3   3   3   24.17    0.81
   2  -3  -3   78.11    2.12
   2  -3  -3   74.19    2.15
  -2   3   3   77.55    2.15
  -2   3   3   78.70    2.17
   1  -3  -3  156.13    4.12
   1  -3  -3  150.45    4.14
  -1   3   3  157.91    4.14
  -1   3   3  148.63    4.12
  -1   3   3  156.31    4.23
   0  -3  -3    0.24    0.28
   0  -3  -3    0.46    0.27
   0   3   3    0.43    0.26
   0   3   3    0.42    0.38
   0   3   3    0.60    0.29
   0   3   3    0.58    0.31
  -1  -3  -3  148.70    4.12
  -1  -3  -3  147.94    4.57
  -1  -3  -3  149.51    4.18
  -1  -3  -3  143.87    4.12
   1   3   3  156.81    4.17
   1   3   3  156.09    4.13
   1   3   3  147.68    4.12
  -2  -3  -3  168.78    5.28
  -2  -3  -3  174.10    4.79
  -2  -3  -3  174.10    4.85
  -2  -3  -3  178.57    4.80
   2   3   3  176.25    4.78
   2   3   3  177.91    4.80
   2   3   3  170.21    4.78
  -3  -3  -3    1.66    0.35
  -3  -3  -3    1.63    0.40
  -3  -3  -3    2.35    0.51
   3   3   3    1.91    0.42
   3   3   3    2.68    0.46
   3   3   3    1.92    0.40
  -4  -3  -3   36.85    1.50
  -4  -3  -3   37.73    1.43
   4   3   3   36.76    1.44
   4   3   3   37.06    1.41
   4   3   3   39.30    1.41
  -5  -3  -3   52.51    1.92
   5   3   3   49.90    1.80
   5   3   3   52.37    1.88
  -6  -3  -3    3.91    0.73
   6   3   3    5.28    0.70
   6   3   3    4.46    0.61
  -7  -3  -3   18.23    1.28
   7   3   3   17.00    1.16
  -8  -3  -3   51.70    2.18
   8   3   3   52.31    2.11
  -9  -3  -3    2.38    0.79
  -9  -3  -3    3.15    0.75
   9   3   3    2.23    0.70
 -10  -3  -3    2.73    0.92
 -10  -3  -3    2.87    0.81
  10   3   3    2.26    0.73
 -14   4   3    5.84    0.74
 -13   4   3   10.19    1.11
 -13   4   3   11.86    0.98
 -12   4   3    2.88    0.74
 -12   4   3    1.36    0.53
 -11   4   3   31.49    1.59
 -11   4   3   31.11    1.28
 -10   4   3   40.79    1.41
 -10   4   3   39.45    1.41
 -10   4   3   37.62    1.71
   9  -4  -3    3.54    0.35
  -9   4   3    3.25    0.62
  -9   4   3    3.68    0.45
  -9   4   3    4.10    0.45
  -8   4   3   34.62    1.21
  -8   4   3   37.17    1.23
  -7   4   3   58.93    1.74
  -7   4   3   58.76    1.74
  -6   4   3    9.60    0.52
  -6   4   3    9.00    0.49
  -5   4   3   92.35    2.42
  -5   4   3   81.99    2.38
   4  -4  -3  288.03    7.49
  -4   4   3  295.54    7.53
  -4   4   3  278.73    7.51
   3  -4  -3   41.77    1.28
   3  -4  -3   43.56    1.29
  -3   4   3   40.49    1.32
  -3   4   3   44.08    1.35
   2  -4  -3  121.21    3.25
   2  -4  -3  117.98    3.28
  -2   4   3  120.46    3.29
  -2   4   3  115.82    3.27
   1  -4  -3  326.68    8.56
   1  -4  -3  313.72    8.58
  -1   4   3  333.20    8.59
  -1   4   3  336.46    8.74
  -1   4   3  319.07    8.57
   0  -4  -3    0.56    0.32
   0  -4  -3    1.30    0.32
   0   4   3    0.72    0.43
   0   4   3    0.75    0.31
   0   4   3    1.26    0.37
  -1  -4  -3   33.14    1.30
  -1  -4  -3   34.24    1.23
  -1  -4  -3   32.67    1.23
   1   4   3   34.43    1.29
   1   4   3   32.67    1.23
   1   4   3   32.99    1.23
  -2  -4  -3   79.26    2.51
  -2  -4  -3   79.21    2.44
  -2  -4  -3   81.34    2.43
   2   4   3   80.30    2.45
   2   4   3   79.37    2.43
   2   4   3   76.69    2.41
  -3  -4  -3    9.02    0.79
  -3  -4  -3    9.34    0.79
  -3  -4  -3    9.81    0.76
   3   4   3    9.44    0.73
   3   4   3    9.14    0.77
   3   4   3    9.19    0.79
  -4  -4  -3   12.72    1.02
  -4  -4  -3   12.55    0.93
   4   4   3   11.79    0.87
   4   4   3   10.95    0.89
  -5  -4  -3   39.95    1.70
  -5  -4  -3   43.22    1.81
   5   4   3   43.39    1.71
   5   4   3   42.54    1.64
  -6  -4  -3    3.11    0.74
  -6  -4  -3    3.98    0.71
   6   4   3    3.00    0.65
  -7  -4  -3    2.25    0.69
  -7  -4  -3    2.99    0.76
   7   4   3    2.85    0.68
  -8  -4  -3   20.14    1.47
  -8  -4  -3   21.46    1.43
   8   4   3   19.26    1.36
  -9  -4  -3    1.93    0.83
  -9  -4  -3    2.43    0.78
   9   4   3    2.15    0.72
 -10  -4  -3    0.32    0.79
 -10  -4  -3    0.70    0.76
  10   4   3    1.91    0.74
 -14   5   3   14.95    1.10
 -13   5   3    6.91    0.72
 -13   5   3    6.30    0.93
 -12   5   3    1.83    0.52
 -12   5   3    1.36    0.68
 -11   5   3   26.31    1.49
 -11   5   3   27.64    1.19
 -10   5   3   12.72    1.11
 -10   5   3   15.52    0.84
 -10   5   3   13.88    0.84
  -9   5   3    7.95    0.59
  -9   5   3    8.32    0.64
  -8   5   3   65.53    1.93
  -8   5   3   61.25    1.91
  -7   5   3   45.53    1.43
  -7   5   3   43.94    1.41
   6  -5  -3   11.38    0.57
  -6   5   3   11.60    0.62
  -6   5   3   10.48    0.60
   5  -5  -3   85.76    2.32
  -5   5   3   80.89    2.34
  -5   5   3   78.91    2.32
   4  -5  -3   90.04    2.52
   4  -5  -3   88.39    2.50
  -4   5   3   93.37    2.58
  -4   5   3   87.37    2.54
   3  -5  -3  129.18    3.51
   3  -5  -3  122.85    3.51
  -3   5   3  125.15    3.54
  -3   5   3  134.37    3.57
   2  -5  -3  205.26    5.68
   2  -5  -3  215.41    5.66
  -2   5   3  203.87    5.68
  -2   5   3  218.34    5.70
   1  -5  -3   88.54    2.52
   1  -5  -3   83.71    2.54
  -1   5   3   86.08    2.66
  -1   5   3   82.27    2.51
  -1   5   3   87.30    2.54
   0  -5  -3    9.24    0.65
   0  -5  -3    9.53    0.70
   0   5   3    9.96    0.71
   0   5   3    8.44    0.66
   0   5   3   10.46    0.80
  -1  -5  -3   22.34    1.00
  -1  -5  -3   18.75    1.06
  -1  -5  -3   21.90    1.03
   1   5   3   22.23    1.01
   1   5   3   21.12    1.01
   1   5   3   22.07    1.10
  -2  -5  -3   61.43    1.97
  -2  -5  -3   55.02    1.95
  -2  -5  -3   59.72    2.07
   2   5   3   56.71    1.99
   2   5   3   59.37    1.96
   2   5   3   55.80    1.96
  -3  -5  -3   11.16    0.89
  -3  -5  -3   11.92    1.01
   3   5   3   10.68    0.89
   3   5   3    9.65    0.80
   3   5   3   10.43    0.89
  -4  -5  -3    7.41    0.86
  -4  -5  -3    7.97    0.82
   4   5   3    7.48    0.83
   4   5   3    7.10    0.74
  -5  -5  -3   28.91    1.54
  -5  -5  -3   26.73    1.42
   5   5   3   29.67    1.46
  -6  -5  -3   17.55    1.24
  -6  -5  -3   15.25    1.34
   6   5   3   14.86    1.19
  -7  -5  -3    0.61    0.73
  -7  -5  -3    0.91    0.63
   7   5   3    0.09    0.60
  -8  -5  -3   13.86    1.21
  -8  -5  -3   10.50    1.15
   8   5   3   11.11    1.11
  -9  -5  -3    3.80    0.95
  -9  -5  -3    4.06    0.88
   9   5   3    4.96    0.90
 -14   6   3    9.68    0.86
 -13   6   3   25.17    1.62
 -13   6   3   23.40    1.23
 -12   6   3    3.41    0.77
 -12   6   3    5.24    0.62
 -11   6   3    5.15    0.80
 -11   6   3    4.28    0.56
 -10   6   3   68.97    2.11
 -10   6   3   62.88    2.08
  -9   6   3   23.80    1.05
  -9   6   3   25.10    1.04
   8  -6  -3   17.42    0.72
  -8   6   3   19.16    0.89
  -8   6   3   20.66    0.90
   7  -6  -3   95.51    2.79
  -7   6   3  100.68    2.84
  -7   6   3  102.69    2.86
   6  -6  -3   40.14    1.27
   6  -6  -3   40.89    1.33
  -6   6   3   42.15    1.38
  -6   6   3   39.36    1.33
   5  -6  -3   12.90    0.63
   5  -6  -3   14.27    0.69
  -5   6   3   12.06    0.70
  -5   6   3   14.20    0.74
   4  -6  -3  158.34    4.22
   4  -6  -3  149.01    4.19
  -4   6   3  146.26    4.22
  -4   6   3  160.93    4.27
   3  -6  -3   12.27    0.67
   3  -6  -3   10.62    0.67
  -3   6   3   11.77    0.72
  -3   6   3   12.64    0.78
   2  -6  -3   24.20    1.04
   2  -6  -3   23.99    1.00
  -2   6   3   24.91    1.22
  -2   6   3   23.75    1.05
  -2   6   3   24.20    1.06
   1  -6  -3   51.11    1.68
   1  -6  -3   48.18    1.72
  -1   6   3   48.55    1.70
  -1   6   3   51.25    1.72
  -1   6   3   51.39    1.88
   0  -6  -3   20.74    1.00
   0  -6  -3   21.54    1.07
   0   6   3   21.73    1.04
   0   6   3   22.68    1.05
   0   6   3   20.34    1.18
  -1  -6  -3    5.11    0.64
   1   6   3    4.58    0.57
   1   6   3    5.84    0.62
   1   6   3    4.87    0.67
  -2  -6  -3   35.93    1.61
  -2  -6  -3   39.04    1.55
   2   6   3   37.39    1.49
   2   6   3   35.99    1.56
   2   6   3   36.74    1.52
  -3  -6  -3   32.68    1.47
  -3  -6  -3   31.56    1.55
   3   6   3   28.49    1.41
   3   6   3   29.85    1.43
  -4  -6  -3    0.07    0.52
  -4  -6  -3    0.45    0.65
   4   6   3    0.64    0.55
  -5  -6  -3   19.98    1.31
  -5  -6  -3   18.42    1.41
   5   6   3   21.68    1.34
  -6  -6  -3   32.16    1.79
  -6  -6  -3   33.74    1.73
   6   6   3   34.61    1.72
  -7  -6  -3    1.59    0.76
  -7  -6  -3    1.12    0.72
   7   6   3    2.95    0.75
  -8  -6  -3    9.71    1.18
  -8  -6  -3   11.17    1.19
   8   6   3   13.74    1.26
  -9  -6  -3    8.45    1.20
  -9  -6  -3    9.83    1.18
   9   6   3    8.41    1.11
 -14   7   3    1.83    0.59
 -13   7   3   19.42    1.15
 -13   7   3   16.76    1.47
 -12   7   3   10.92    1.06
 -12   7   3   14.99    0.99
 -11   7   3    1.17    0.62
 -11   7   3    0.11    0.46
 -10   7   3   60.53    1.97
 -10   7   3   57.59    1.96
  -9   7   3   40.85    1.49
  -9   7   3   41.16    1.49
  -8   7   3   20.65    0.97
  -8   7   3   22.94    1.01
   7  -7  -3   17.39    0.76
   7  -7  -3   16.23    0.87
  -7   7   3   17.19    0.89
  -7   7   3   18.12    0.90
   6  -7  -3   34.87    1.22
   6  -7  -3   35.46    1.26
  -6   7   3   36.88    1.35
  -6   7   3   36.26    1.30
   5  -7  -3    3.32    0.41
   5  -7  -3    3.65    0.44
  -5   7   3    3.72    0.51
  -5   7   3    2.91    0.47
   4  -7  -3   42.76    1.48
   4  -7  -3   44.74    1.49
  -4   7   3   45.28    1.57
  -4   7   3   41.89    1.53
   3  -7  -3   17.22    0.87
   3  -7  -3   17.89    0.90
  -3   7   3   17.01    0.92
  -3   7   3   18.53    0.97
   2  -7  -3   -0.43    0.37
  -2   7   3    0.63    0.41
  -2   7   3    1.08    0.59
  -2   7   3    0.61    0.41
   1  -7  -3   18.58    1.03
  -1   7   3   17.87    1.22
  -1   7   3   17.74    1.01
  -1   7   3   16.87    1.00
   0  -7  -3   23.82    1.20
   0   7   3   24.58    1.20
   0   7   3   25.92    1.36
   0   7   3   24.20    1.16
  -1  -7  -3    3.34    0.61
   1   7   3    3.34    0.56
   1   7   3    4.18    0.69
   1   7   3    3.73    0.60
  -2  -7  -3    6.02    0.80
  -2  -7  -3    7.45    0.80
   2   7   3    6.51    0.76
   2   7   3    6.55    0.79
  -3  -7  -3   39.80    1.74
  -3  -7  -3   36.53    1.78
   3   7   3   38.65    1.69
  -4  -7  -3   -0.07    0.67
  -4  -7  -3   -0.61    0.55
   4   7   3   -0.47    0.52
  -5  -7  -3   26.52    1.58
  -5  -7  -3   29.07    1.70
   5   7   3   27.47    1.55
  -6  -7  -3   13.13    1.23
  -6  -7  -3   13.69    1.25
   6   7   3   12.31    1.14
  -7  -7  -3   -0.29    0.68
  -7  -7  -3    0.68    0.75
   7   7   3   -0.01    0.62
  -8  -7  -3    8.55    1.19
  -8  -7  -3    9.15    1.18
   8   7   3   11.13    1.19
 -13   8   3   25.15    1.33
 -12   8   3    5.82    0.87
 -12   8   3    7.14    0.73
 -11   8   3    3.00    0.59
 -10   8   3   55.86    1.92
  -9   8   3   10.53    0.83
  -9   8   3    9.17    0.72
   8  -8  -3    0.56    0.31
  -8   8   3   -0.08    0.43
  -8   8   3   -0.07    0.42
   7  -8  -3   77.24    2.39
  -7   8   3   84.42    2.53
  -7   8   3   81.55    2.50
   6  -8  -3   14.60    0.79
  -6   8   3   16.73    0.92
  -6   8   3   16.68    0.93
   5  -8  -3   -0.19    0.33
  -5   8   3   -0.11    0.39
  -5   8   3   -0.90    0.40
   4  -8  -3   75.51    2.41
  -4   8   3   80.17    2.49
  -4   8   3   78.40    2.46
   3  -8  -3   30.06    1.31
  -3   8   3   34.81    1.39
  -3   8   3   31.76    1.34
  -3   8   3   32.52    1.57
   2  -8  -3   25.14    1.19
  -2   8   3   24.71    1.20
  -2   8   3   24.43    1.21
  -2   8   3   23.96    1.43
   1  -8  -3   41.95    1.66
  -1   8   3   41.09    1.81
  -1   8   3   38.52    1.62
  -1   8   3   40.23    1.61
   0  -8  -3   24.42    1.28
   0   8   3   24.10    1.16
   0   8   3   21.24    1.24
   0   8   3   22.91    1.39
  -1  -8  -3    4.10    0.71
   1   8   3    5.02    0.76
  -2  -8  -3   22.29    1.36
   2   8   3   22.59    1.34
  -3  -8  -3   24.59    1.46
  -3  -8  -3   24.52    1.50
   3   8   3   23.45    1.42
  -4  -8  -3    0.98    0.73
  -4  -8  -3    1.32    0.72
   4   8   3    0.78    0.64
  -5  -8  -3   16.53    1.37
  -5  -8  -3   13.02    1.27
   5   8   3   17.46    1.39
  -6  -8  -3    5.60    0.97
  -6  -8  -3    4.95    0.94
   6   8   3    5.80    0.96
  -7  -8  -3    0.24    0.80
  -7  -8  -3    1.57    0.85
   7   8   3   -0.27    0.70
 -13   9   3    9.00    0.85
 -12   9   3   24.19    1.28
 -11   9   3    1.24    0.56
 -10   9   3    9.84    0.82
  -9   9   3   31.89    1.37
   8  -9  -3    6.53    0.57
  -8   9   3    7.66    0.73
  -8   9   3    6.88    0.68
   7  -9  -3   31.98    1.21
  -7   9   3   29.17    1.31
  -7   9   3   29.87    1.32
   6  -9  -3   62.70    2.09
  -6   9   3   67.23    2.24
  -6   9   3   68.37    2.22
   5  -9  -3    0.10    0.38
  -5   9   3   -0.19    0.46
  -5   9   3   -0.39    0.45
   4  -9  -3    1.34    0.48
  -4   9   3    2.80    0.56
  -4   9   3    2.72    0.56
   3  -9  -3   84.63    2.69
  -3   9   3   87.48    2.73
  -3   9   3   79.57    2.68
   2  -9  -3   13.44    0.99
  -2   9   3   12.85    0.98
  -2   9   3   13.33    1.01
   1  -9  -3    0.06    0.51
  -1   9   3   -0.14    0.49
  -1   9   3   -0.20    0.49
   0  -9  -3   29.13    1.48
   0   9   3   31.02    1.51
  -1  -9  -3    6.23    0.86
   1   9   3    7.04    0.86
  -2  -9  -3    7.94    0.97
   2   9   3    4.42    0.81
  -3  -9  -3   15.70    1.35
   3   9   3   17.43    1.35
  -4  -9  -3    0.78    0.72
  -4  -9  -3    0.61    0.70
   4   9   3    1.26    0.73
  -5  -9  -3    0.72    0.73
  -5  -9  -3    1.66    0.81
   5   9   3   -0.40    0.66
  -6  -9  -3    6.63    1.07
  -6  -9  -3    6.33    1.13
   6   9   3    7.14    1.16
 -12  10   3   11.26    0.93
 -11  10   3    2.35    0.64
 -10  10   3    6.81    0.74
  -9  10   3   10.52    0.86
  -8  10   3    2.76    0.63
   7 -10  -3   15.45    0.90
  -7  10   3   15.82    1.08
  -7  10   3   16.06    1.06
   6 -10  -3   11.90    0.87
  -6  10   3   13.72    1.01
  -6  10   3   13.48    1.03
   5 -10  -3   10.54    0.86
  -5  10   3   13.56    1.02
  -5  10   3   12.80    0.99
   4 -10  -3    8.41    0.77
  -4  10   3    7.87    0.81
  -4  10   3    7.57    0.81
   3 -10  -3   12.39    1.01
  -3  10   3   12.48    1.00
  -3  10   3   12.97    1.05
   2 -10  -3    3.65    0.66
  -2  10   3    1.99    0.60
  -2  10   3    3.25    0.61
   1 -10  -3   10.06    0.95
  -1  10   3    8.63    0.80
  -1  10   3    8.66    0.89
   0 -10  -3    7.94    0.94
   0  10   3    9.84    0.98
  -1 -10  -3    5.06    0.84
   1  10   3    3.79    0.79
  -2 -10  -3    6.84    0.96
   2  10   3    6.69    0.93
  -3 -10  -3   12.66    1.24
   3  10   3   14.92    1.36
  -4 -10  -3    2.70    0.93
   4  10   3    1.11    0.80
  -5 -10  -3   -0.26    0.72
  -5 -10  -3    0.90    0.75
   5  10   3    0.57    0.79
  -6 -10  -3    7.75    1.19
   6  10   3    5.82    1.18
 -12  11   3    9.14    0.89
 -11  11   3    5.36    0.77
 -10  11   3    2.70    0.70
  -9  11   3   22.91    1.32
  -8  11   3    3.96    0.71
  -7  11   3    3.57    0.71
  -6  11   3   36.95    1.65
   5 -11  -3    8.46    0.80
  -5  11   3    9.86    0.91
  -5  11   3   11.06    0.95
   4 -11  -3    3.69    0.66
  -4  11   3    1.99    0.67
  -4  11   3    3.15    0.65
   3 -11  -3   18.93    1.22
  -3  11   3   20.07    1.27
   2 -11  -3    2.91    0.69
  -2  11   3    3.60    0.72
   1 -11  -3    3.20    0.71
  -1  11   3    2.79    0.63
  -1  11   3    3.71    0.75
   0 -11  -3   37.35    1.82
   0  11   3   34.91    1.77
  -1 -11  -3    9.80    1.08
   1  11   3   10.38    1.08
  -2 -11  -3    2.41    0.81
   2  11   3    2.57    0.80
  -3 -11  -3   15.82    1.46
   3  11   3   18.04    1.55
  -4 -11  -3    6.56    1.09
   4  11   3    6.87    1.11
 -11  12   3   10.72    0.99
 -10  12   3    2.38    0.73
  -9  12   3    6.70    0.88
  -8  12   3   20.34    1.37
  -7  12   3    1.03    0.67
  -6  12   3   10.40    1.01
  -5  12   3   28.60    1.55
   4 -12  -3    0.43    0.56
  -4  12   3   -0.72    0.58
   3 -12  -3    1.29    0.62
  -3  12   3    2.57    0.71
   2 -12  -3   19.55    1.36
  -2  12   3   20.21    1.40
   1 -12  -3    0.04    0.63
  -1  12   3    1.17    0.70
   0 -12  -3    8.67    1.04
   0  12   3    8.74    1.08
  -1 -12  -3   11.86    1.23
   1  12   3   14.17    1.26
  -2 -12  -3   -0.96    0.70
   2  12   3    0.10    0.72
  -3 -12  -3    2.04    0.92
   3  12   3    3.15    0.90
 -10  13   3   -0.15    0.69
  -9  13   3   18.56    1.45
  -8  13   3    4.91    0.87
  -7  13   3    2.20    0.77
  -6  13   3   17.82    1.36
  -5  13   3    9.23    1.02
  -4  13   3    1.94    0.75
  -3  13   3   14.30    1.24
  -2  13   3    4.50    0.84
   1 -13  -3    1.32    0.72
  -1  13   3    1.59    0.79
   0 -13  -3    5.48    0.97
   0  13   3    5.10    0.98
  -1 -13  -3    1.62    0.81
   1  13   3    2.45    0.88
  -8  14   3   16.73    1.45
  -7  14   3    2.33    0.84
  -6  14   3    1.82    0.77
  -5  14   3   18.26    1.41
  -4  14   3    0.84    0.71
  -3  14   3    0.16    0.75
  -2  14   3   12.73    1.26
  -1  14   3    0.68    0.76
   1  15  -4    5.76    0.99
  -1 -15   4    5.66    1.10
   0  15  -4    0.22    0.70
   0 -15   4   -0.64    0.78
  -1  15  -4    6.93    0.99
   1 -15   4    7.24    1.12
  -2  15  -4    9.33    1.13
   2 -15   4   13.65    1.31
  -3  15  -4   -0.16    0.77
   3 -15   4   -0.73    0.62
  -4  15  -4   17.28    1.45
   4 -15   4   14.64    1.34
  -5  15  -4   21.14    1.73
   5 -15   4   21.71    1.64
  -6  15  -4    0.19    0.80
   4  14  -4    8.26    1.07
  -4 -14   4    9.23    1.18
   3  14  -4    1.49    0.81
  -3 -14   4    3.18    0.93
   2  14  -4    2.19    0.82
  -2 -14   4    1.96    0.85
   1  14  -4   23.74    1.62
  -1 -14   4   25.82    1.75
   0  14  -4    1.63    0.74
   0 -14   4    2.14    0.84
  -1  14  -4    4.42    0.91
   1 -14   4    5.21    0.96
  -2  14  -4   16.97    1.42
   2 -14   4   17.26    1.51
  -3  14  -4    0.36    0.69
   3 -14   4    1.17    0.79
  -4  14  -4    4.57    0.90
   4 -14   4    4.98    0.91
  -5  14  -4   14.95    1.33
   5 -14   4   10.71    1.12
  -6  14  -4    1.32    0.79
   6 -14   4    2.54    0.78
  -7  14  -4    2.75    0.89
  -8  14  -4   13.91    1.29
   5  13  -4    3.93    0.86
  -5 -13   4    6.01    1.08
   4  13  -4   10.31    1.13
  -4 -13   4   11.08    1.22
   3  13  -4    6.03    0.94
  -3 -13   4    7.07    1.07
   2  13  -4    8.77    1.03
  -2 -13   4    7.33    1.04
   1  13  -4   14.39    1.23
  -1 -13   4   13.56    1.26
   0  13  -4    4.78    0.91
   0 -13   4    6.21    0.98
  -1  13  -4    5.16    0.86
   1 -13   4    6.73    0.96
  -2  13  -4   12.35    1.14
   2 -13   4   12.63    1.18
  -3  13  -4    3.64    0.82
   3 -13   4    1.97    0.77
  -4  13  -4    8.16    1.01
   4 -13   4    7.95    1.00
  -5  13  -4   11.63    1.16
   5 -13   4   13.25    1.19
  -6  13  -4    5.94    0.95
   6 -13   4    3.16    0.80
  -7  13  -4    2.80    0.85
   7 -13   4    2.49    0.73
  -8  13  -4   19.14    1.53
  -9  13  -4    2.28    0.82
   6  12  -4    0.99    0.71
  -6 -12   4    0.42    0.78
   5  12  -4    1.57    0.72
  -5 -12   4    0.92    0.77
  -5 -12   4    3.03    0.88
   4  12  -4   27.02    1.62
  -4 -12   4   25.93    1.72
   3  12  -4    7.43    0.99
  -3 -12   4    7.30    1.02
   2  12  -4    3.04    0.71
  -2 -12   4    3.86    0.87
   1  12  -4   31.01    1.65
  -1 -12   4   30.39    1.70
   0  12  -4   14.38    1.21
   0 -12   4   16.43    1.36
  -1  12  -4    0.53    0.65
   1 -12   4    0.17    0.66
  -2  12  -4   42.33    1.89
   2 -12   4   42.14    1.95
  -3  12  -4    6.33    0.88
   3 -12   4    6.24    0.91
  -4  12  -4    0.53    0.65
   4 -12   4    0.62    0.61
  -5  12  -4   30.17    1.63
   5 -12   4   31.23    1.64
  -6  12  -4   38.13    1.85
   6 -12   4   37.04    1.81
  -7  12  -4    0.39    0.64
   7 -12   4   -0.93    0.54
  -8  12  -4   20.78    1.48
   8 -12   4   18.08    1.32
  -9  12  -4   20.96    1.50
 -10  12  -4   -0.33    0.69
  -8 -11   4    0.53    0.80
   7  11  -4    8.73    1.07
  -7 -11   4   10.22    1.22
   6  11  -4    7.79    0.98
  -6 -11   4    4.77    1.02
  -6 -11   4    5.30    0.98
   5  11  -4   -0.10    0.58
  -5 -11   4   -0.48    0.71
  -5 -11   4    0.15    0.68
   4  11  -4    8.64    0.99
  -4 -11   4    9.28    1.07
  -4 -11   4    9.18    1.08
   3  11  -4    6.32    0.84
  -3 -11   4    5.34    0.88
   2  11  -4    0.12    0.54
  -2 -11   4   -0.23    0.57
   1  11  -4   19.27    1.30
  -1 -11   4   20.39    1.38
   0  11  -4   23.75    1.37
   0 -11   4   23.50    1.45
  -1  11  -4   -0.38    0.50
   1 -11   4    0.33    0.59
  -2  11  -4   27.93    1.44
   2 -11   4   29.23    1.54
  -3  11  -4    6.28    0.82
   3 -11   4    6.15    0.85
  -4  11  -4    8.44    0.92
   4 -11   4    7.59    0.90
  -5  11  -4   32.24    1.60
   5 -11   4   31.57    1.59
  -6  11  -4   36.24    1.75
   6 -11   4   38.38    1.74
  -7  11  -4    2.80    0.72
   7 -11   4    3.62    0.68
  -8  11  -4   15.76    1.33
   8 -11   4   16.29    1.22
  -9  11  -4   12.60    1.15
 -10  11  -4    2.32    0.78
  -9 -10   4    2.71    0.88
  -8 -10   4    0.27    0.71
   7  10  -4    5.49    0.87
  -7 -10   4    5.36    1.04
  -7 -10   4    5.56    0.95
   6  10  -4   16.35    1.27
  -6 -10   4   19.91    1.60
  -6 -10   4   19.14    1.47
   5  10  -4   -0.68    0.50
  -5 -10   4    0.88    0.74
  -5 -10   4   -0.26    0.65
   4  10  -4   16.67    1.22
  -4 -10   4   15.64    1.39
  -4 -10   4   17.10    1.28
   3  10  -4   11.45    1.05
  -3 -10   4    9.75    1.03
  -3 -10   4   10.27    1.01
   2  10  -4    0.29    0.52
  -2 -10   4   -0.60    0.57
   1  10  -4   45.88    1.90
  -1 -10   4   48.10    1.96
   0  10  -4   26.01    1.36
   0 -10   4   29.49    1.50
  -1  10  -4    0.37    0.48
   1 -10   4   -0.11    0.54
  -2  10  -4   27.05    1.37
   2 -10   4   30.41    1.50
  -3  10  -4   66.05    2.30
   3 -10   4   62.36    2.32
  -4  10  -4   -0.43    0.51
   4 -10   4    0.21    0.51
  -5  10  -4   33.06    1.58
   5 -10   4   37.29    1.62
  -6  10  -4   45.96    1.89
   6 -10   4   45.80    1.88
  -7  10  -4    7.69    0.89
   7 -10   4    6.57    0.82
  -8  10  -4   14.36    1.22
   8 -10   4   15.21    1.14
  -9  10  -4   37.55    1.81
   9 -10   4   37.88    1.74
 -10  10  -4    3.26    0.79
 -11  10  -4    3.47    0.80
 -11  10  -4    3.69    0.82
  -9  -9   4   19.45    1.55
   8   9  -4    1.09    0.64
  -8  -9   4    0.41    0.71
  -8  -9   4   -1.31    0.70
   7   9  -4    5.53    0.80
  -7  -9   4    3.74    0.89
  -7  -9   4    3.47    0.82
   6   9  -4   49.85    2.01
  -6  -9   4   46.93    2.09
  -6  -9   4   50.74    2.27
   5   9  -4    0.75    0.53
  -5  -9   4    1.28    0.71
  -5  -9   4    0.20    0.61
   4   9  -4    6.85    0.80
  -4  -9   4    6.37    0.94
  -4  -9   4    7.19    0.85
   3   9  -4   73.17    2.50
  -3  -9   4   70.17    2.63
  -3  -9   4   74.03    2.57
   2   9  -4    4.41    0.67
  -2  -9   4    2.37    0.64
  -2  -9   4    3.28    0.70
   1   9  -4    7.01    0.84
   1   9  -4    7.14    0.78
  -1  -9   4    9.38    0.90
   0   9  -4   53.94    1.97
   0   9  -4   58.90    2.14
   0  -9   4   50.94    2.03
  -1   9  -4    7.48    0.75
  -1   9  -4    7.02    0.85
   1  -9   4    8.89    0.84
  -2   9  -4    0.41    0.48
  -2   9  -4    0.09    0.59
   2  -9   4    1.17    0.52
  -3   9  -4  118.78    3.70
  -3   9  -4  118.83    3.62
   3  -9   4  121.50    3.66
  -4   9  -4   14.67    1.04
   4  -9   4   14.63    1.06
  -5   9  -4    0.21    0.47
   5  -9   4    0.99    0.52
  -6   9  -4   48.66    1.91
   6  -9   4   50.33    1.92
  -7   9  -4   28.05    1.46
   7  -9   4   30.00    1.44
  -8   9  -4    4.98    0.80
   8  -9   4    5.74    0.76
  -9   9  -4   40.91    1.82
   9  -9   4   36.82    1.69
 -10   9  -4   11.24    1.01
 -10   9  -4   12.30    1.08
 -11   9  -4   -0.26    0.64
 -11   9  -4    0.91    0.68
 -10  -8   4    8.15    1.11
  -9  -8   4   12.47    1.22
  -9  -8   4   12.25    1.29
   8   8  -4    9.12    0.91
  -8  -8   4    9.20    1.15
  -8  -8   4    8.45    0.99
   7   8  -4   13.79    1.08
  -7  -8   4   12.57    1.21
  -7  -8   4   12.96    1.15
   6   8  -4    9.03    0.89
  -6  -8   4    7.97    0.93
  -6  -8   4    7.94    0.98
   5   8  -4   16.15    1.07
  -5  -8   4   13.37    1.12
  -5  -8   4   16.23    1.31
   4   8  -4   18.92    1.12
  -4  -8   4   19.36    1.22
  -4  -8   4   15.82    1.31
  -4  -8   4   18.22    1.09
   3   8  -4   28.14    1.30
   3   8  -4   27.61    1.38
  -3  -8   4   27.05    1.27
  -3  -8   4   26.83    1.34
  -3  -8   4   23.55    1.43
   2   8  -4   23.43    1.26
   2   8  -4   23.36    1.17
  -2  -8   4   21.28    1.29
  -2  -8   4   23.87    1.25
   1   8  -4    2.77    0.53
   1   8  -4    3.15    0.63
  -1  -8   4    2.41    0.58
  -1  -8   4    3.12    0.56
   0   8  -4   11.50    0.94
   0   8  -4   10.50    0.83
   0   8  -4   12.37    0.86
   0  -8   4   10.86    0.80
   0  -8   4    9.77    0.83
  -1   8  -4   60.48    2.13
  -1   8  -4   68.26    2.30
   1  -8   4   64.94    2.20
   1  -8   4   62.81    2.11
  -2   8  -4   10.95    0.83
  -2   8  -4   10.30    0.80
  -2   8  -4   12.46    1.04
   2  -8   4   10.94    0.86
  -3   8  -4   37.21    1.52
  -3   8  -4   40.05    1.52
   3  -8   4   37.63    1.53
  -4   8  -4   38.27    1.56
  -4   8  -4   42.16    1.59
   4  -8   4   41.74    1.62
  -5   8  -4   10.78    0.95
   5  -8   4   12.14    0.94
  -6   8  -4   26.06    1.32
   6  -8   4   26.00    1.30
  -7   8  -4   14.86    1.10
   7  -8   4   13.58    1.02
  -8   8  -4    6.84    0.81
   8  -8   4    6.29    0.75
  -9   8  -4   24.40    1.39
  -9   8  -4   26.57    1.46
   9  -8   4   25.92    1.35
 -10   8  -4   15.41    1.26
 -10   8  -4   14.25    1.22
  10  -8   4   15.35    1.12
 -11   8  -4   -0.64    0.62
 -11   8  -4   -0.43    0.64
 -11  -7   4    2.04    0.80
 -10  -7   4    5.88    0.95
 -10  -7   4    5.14    1.03
   9   7  -4   13.00    1.08
  -9  -7   4   12.50    1.24
  -9  -7   4   13.49    1.17
   8   7  -4    7.31    0.79
  -8  -7   4    7.74    1.08
  -8  -7   4    7.99    0.94
   7   7  -4    3.45    0.62
  -7  -7   4    2.06    0.66
  -7  -7   4    2.61    0.77
   6   7  -4   32.97    1.44
  -6  -7   4   29.09    1.49
  -6  -7   4   29.00    1.63
  -6  -7   4   32.07    1.41
   5   7  -4   26.14    1.25
  -5  -7   4   23.96    1.23
  -5  -7   4   24.45    1.42
  -5  -7   4   24.04    1.30
   4   7  -4   13.80    1.03
   4   7  -4   17.04    0.99
  -4  -7   4   16.76    0.99
  -4  -7   4   16.28    1.06
  -4  -7   4   14.88    1.16
   3   7  -4  101.34    3.10
   3   7  -4  102.21    3.16
  -3  -7   4  100.33    3.16
  -3  -7   4  105.87    3.13
  -3  -7   4  100.94    3.24
   2   7  -4   24.00    1.17
   2   7  -4   21.35    1.06
   2   7  -4   21.71    1.07
  -2  -7   4   20.53    1.12
  -2  -7   4   21.00    1.19
  -2  -7   4   23.50    1.09
   1   7  -4   -0.03    0.40
   1   7  -4    1.55    0.52
   1   7  -4    0.64    0.40
  -1  -7   4    0.91    0.40
  -1  -7   4    0.52    0.44
   0   7  -4  115.74    3.46
   0   7  -4  114.82    3.41
   0   7  -4  119.64    3.53
   0  -7   4  120.14    3.43
   0  -7   4  116.98    3.48
  -1   7  -4   98.35    2.93
  -1   7  -4   98.91    3.01
  -1   7  -4   96.45    2.90
   1  -7   4   95.25    2.95
   1  -7   4   97.29    2.89
  -2   7  -4    3.34    0.51
  -2   7  -4    2.35    0.47
   2  -7   4    2.42    0.44
   2  -7   4    2.49    0.50
  -3   7  -4  150.90    4.32
  -3   7  -4  147.62    4.30
   3  -7   4  154.89    4.31
   3  -7   4  153.26    4.34
  -4   7  -4   54.51    1.93
  -4   7  -4   60.25    1.98
   4  -7   4   58.54    1.98
  -5   7  -4    3.72    0.53
  -5   7  -4    2.08    0.53
   5  -7   4    3.16    0.55
  -6   7  -4   71.01    2.39
  -6   7  -4   72.91    2.51
   6  -7   4   70.70    2.39
  -7   7  -4   29.91    1.41
   7  -7   4   29.62    1.39
  -8   7  -4   -0.44    0.50
   8  -7   4    0.65    0.50
  -9   7  -4   26.54    1.44
  -9   7  -4   25.28    1.38
   9  -7   4   26.47    1.36
 -10   7  -4   35.32    1.67
 -10   7  -4   34.47    1.70
  10  -7   4   33.34    1.60
 -11   7  -4    1.40    0.73
 -11   7  -4    1.64    0.72
 -12   7  -4    7.28    0.98
 -12   7  -4    7.80    0.97
 -11  -6   4    5.23    0.87
 -10  -6   4   -1.16    0.52
 -10  -6   4   -0.11    0.75
   9   6  -4   17.09    1.14
  -9  -6   4   17.80    1.24
  -9  -6   4   19.24    1.48
   8   6  -4   17.84    1.11
  -8  -6   4   17.29    1.20
  -8  -6   4   17.18    1.38
  -8  -6   4   18.30    1.07
   7   6  -4    0.02    0.43
  -7  -6   4   -0.15    0.42
  -7  -6   4    0.83    0.55
  -7  -6   4   -0.57    0.59
   6   6  -4   29.72    1.31
  -6  -6   4   28.05    1.51
  -6  -6   4   28.73    1.29
  -6  -6   4   29.31    1.40
   5   6  -4   55.03    1.89
   5   6  -4   51.59    1.94
  -5  -6   4   51.71    1.95
  -5  -6   4   57.12    1.92
  -5  -6   4   53.09    2.06
   4   6  -4    0.38    0.46
   4   6  -4    0.59    0.41
  -4  -6   4    0.27    0.39
  -4  -6   4    0.73    0.51
  -4  -6   4    1.01    0.46
   3   6  -4   42.59    1.47
   3   6  -4   41.39    1.48
   3   6  -4   41.41    1.55
   3   6  -4   38.56    1.47
  -3  -6   4   38.54    1.53
  -3  -6   4   36.63    1.56
  -3  -6   4   45.31    1.55
   2   6  -4  102.07    3.06
   2   6  -4  109.11    3.27
   2   6  -4   96.92    3.02
   2   6  -4  101.11    2.99
  -2  -6   4  106.33    3.04
  -2  -6   4  100.11    3.10
  -2  -6   4   97.34    3.04
   1   6  -4    3.27    0.53
   1   6  -4    3.12    0.48
   1   6  -4    3.25    0.45
  -1  -6   4    3.16    0.48
  -1  -6   4    2.89    0.46
  -1  -6   4    3.67    0.53
   0   6  -4   66.15    2.07
   0   6  -4   65.97    2.15
   0   6  -4   66.51    2.10
   0  -6   4   67.32    2.07
   0  -6   4   68.07    2.13
  -1   6  -4   93.38    2.82
  -1   6  -4   93.83    2.88
  -1   6  -4   97.56    2.81
   1  -6   4   95.21    2.84
   1  -6   4   99.07    2.81
  -2   6  -4   15.89    0.82
  -2   6  -4   14.12    0.80
   2  -6   4   16.46    0.81
   2  -6   4   17.05    0.86
  -3   6  -4   64.72    2.07
  -3   6  -4   63.97    2.05
   3  -6   4   66.01    2.05
   3  -6   4   64.82    2.08
  -4   6  -4   62.90    2.10
  -4   6  -4   65.41    2.11
   4  -6   4   66.62    2.09
   4  -6   4   65.70    2.13
  -5   6  -4    5.24    0.60
  -5   6  -4    5.80    0.64
   5  -6   4    4.95    0.60
  -6   6  -4   45.15    1.66
  -6   6  -4   42.88    1.67
   6  -6   4   43.53    1.68
  -7   6  -4   37.77    1.59
   7  -6   4   38.12    1.56
  -8   6  -4   21.00    1.26
  -8   6  -4   22.62    1.22
   8  -6   4   22.55    1.21
  -9   6  -4   12.70    0.99
  -9   6  -4   12.81    1.12
   9  -6   4   13.21    1.02
 -10   6  -4   24.83    1.46
 -10   6  -4   22.85    1.41
  10  -6   4   25.02    1.37
 -11   6  -4   10.35    1.06
 -11   6  -4   10.01    1.01
 -12   6  -4    7.09    0.96
 -12   6  -4    4.76    0.87
 -12  -5   4    6.99    0.96
 -11  -5   4    7.29    1.08
 -11  -5   4    9.17    0.98
 -10  -5   4    0.47    0.56
 -10  -5   4    0.46    0.72
   9   5  -4   21.37    1.18
  -9  -5   4   22.41    1.15
  -9  -5   4   20.35    1.25
  -9  -5   4   20.77    1.47
   8   5  -4   33.74    1.46
  -8  -5   4   33.98    1.43
  -8  -5   4   36.12    1.55
  -8  -5   4   34.90    1.73
   7   5  -4   -0.33    0.39
  -7  -5   4   -0.58    0.58
  -7  -5   4    0.10    0.39
  -7  -5   4    0.47    0.47
   6   5  -4   40.75    1.59
   6   5  -4   39.65    1.50
  -6  -5   4   40.34    1.51
  -6  -5   4   40.25    1.57
  -6  -5   4   38.43    1.67
   5   5  -4   27.53    1.25
   5   5  -4   27.59    1.17
  -5  -5   4   28.16    1.19
  -5  -5   4   28.48    1.34
  -5  -5   4   29.75    1.26
   4   5  -4    7.52    0.66
   4   5  -4    8.63    0.66
   4   5  -4    7.88    0.65
  -4  -5   4    7.79    0.67
  -4  -5   4    8.22    0.68
  -4  -5   4    8.01    0.75
   3   5  -4   64.06    2.05
   3   5  -4   66.95    2.13
   3   5  -4   61.17    2.01
   3   5  -4   62.84    1.99
  -3  -5   4   67.99    2.06
  -3  -5   4   63.35    2.06
  -3  -5   4   63.26    2.10
   2   5  -4   83.74    2.55
   2   5  -4   86.02    2.51
   2   5  -4   83.12    2.55
   2   5  -4   89.67    2.77
  -2  -5   4   81.42    2.54
  -2  -5   4   82.43    2.59
  -2  -5   4   89.56    2.54
   1   5  -4    0.96    0.32
   1   5  -4    0.84    0.32
   1   5  -4    0.62    0.37
  -1  -5   4    0.92    0.35
  -1  -5   4    0.82    0.33
  -1  -5   4    0.90    0.41
   0   5  -4  180.76    4.87
   0   5  -4  176.65    4.91
   0   5  -4  173.56    4.83
   0  -5   4  170.55    4.86
   0  -5   4  187.58    4.85
  -1   5  -4   56.15    1.77
  -1   5  -4   57.31    1.80
  -1   5  -4   54.77    1.75
   1  -5   4   55.23    1.77
   1  -5   4   55.99    1.75
  -2   5  -4    0.43    0.32
  -2   5  -4   -0.01    0.27
   2  -5   4    0.41    0.29
   2  -5   4    0.43    0.32
  -3   5  -4   71.38    2.20
  -3   5  -4   69.75    2.19
   3  -5   4   73.76    2.19
   3  -5   4   70.16    2.21
  -4   5  -4   74.11    2.34
  -4   5  -4   74.74    2.35
   4  -5   4   77.08    2.38
   4  -5   4   77.44    2.32
  -5   5  -4   15.15    0.88
  -5   5  -4   14.59    0.91
   5  -5   4   14.74    0.91
  -6   5  -4   57.83    2.01
  -6   5  -4   58.15    1.99
   6  -5   4   58.08    2.00
  -7   5  -4   57.28    2.11
  -7   5  -4   61.47    2.08
   7  -5   4   61.78    2.12
  -8   5  -4   33.07    1.48
  -8   5  -4   32.16    1.51
   8  -5   4   33.57    1.48
  -9   5  -4   12.46    1.09
  -9   5  -4   12.62    1.10
   9  -5   4   13.36    1.02
 -10   5  -4   29.00    1.55
 -10   5  -4   31.60    1.59
  10  -5   4   30.36    1.49
 -11   5  -4    7.07    0.92
 -11   5  -4    6.65    0.92
 -12   5  -4    4.52    0.84
 -12   5  -4    1.64    0.80
 -12  -4   4    7.06    0.90
 -12  -4   4    7.41    1.16
 -11  -4   4   35.08    1.66
 -11  -4   4   33.30    1.88
 -10  -4   4    1.55    0.71
 -10  -4   4    1.55    0.59
   9   4  -4   11.52    0.90
  -9  -4   4   11.29    0.80
  -9  -4   4   11.51    1.04
  -9  -4   4   11.72    0.85
  -9  -4   4   11.51    0.96
   8   4  -4  100.55    3.20
  -8  -4   4  107.54    3.44
  -8  -4   4  111.74    3.46
  -8  -4   4  105.89    3.18
  -8  -4   4  106.28    3.25
   7   4  -4    6.00    0.61
   7   4  -4    5.78    0.65
  -7  -4   4    6.10    0.65
  -7  -4   4    7.00    0.80
  -7  -4   4    5.28    0.53
  -7  -4   4    7.43    0.63
   6   4  -4   12.06    0.87
   6   4  -4   10.38    0.76
   6   4  -4   11.95    0.76
  -6  -4   4   10.39    0.71
  -6  -4   4   12.04    0.81
  -6  -4   4   12.84    0.78
  -6  -4   4   13.04    0.97
   5   4  -4  161.45    4.48
   5   4  -4  164.71    4.59
  -5  -4   4  160.40    4.95
  -5  -4   4  163.82    4.63
  -5  -4   4  161.89    4.53
  -5  -4   4  157.65    4.49
   4   4  -4    6.31    0.53
   4   4  -4    6.47    0.59
   4   4  -4    5.53    0.49
  -4  -4   4    6.80    0.55
  -4  -4   4    6.80    0.64
  -4  -4   4    6.72    0.58
   3   4  -4   16.20    0.81
   3   4  -4   19.63    0.88
   3   4  -4   19.97    0.87
   3   4  -4   17.93    0.79
  -3  -4   4   17.84    0.85
  -3  -4   4   19.13    0.91
  -3  -4   4   19.56    0.87
   2   4  -4  390.55   10.43
   2   4  -4  378.93   10.36
   2   4  -4  411.67   11.75
   2   4  -4  390.74   10.31
  -2  -4   4  378.67   10.35
  -2  -4   4  412.06   10.34
  -2  -4   4  395.08   10.46
   1   4  -4   49.55    1.53
   1   4  -4   49.91    1.58
   1   4  -4   49.27    1.57
  -1  -4   4   49.03    1.60
  -1  -4   4   50.18    1.58
  -1  -4   4   53.02    1.56
   0   4  -4    6.52    0.50
   0   4  -4    7.10    0.52
   0   4  -4    6.66    0.51
   0  -4   4    6.25    0.53
   0  -4   4    7.72    0.52
  -1   4  -4  400.95   10.66
  -1   4  -4  404.79   10.65
   1  -4   4  401.18   10.67
   1  -4   4  420.51   10.66
  -2   4  -4   14.59    0.75
  -2   4  -4   14.47    0.74
   2  -4   4   14.35    0.74
   2  -4   4   14.94    0.72
  -3   4  -4    2.31    0.38
  -3   4  -4    1.55    0.38
   3  -4   4    1.80    0.35
   3  -4   4    1.60    0.38
  -4   4  -4  329.14    8.87
  -4   4  -4  331.64    8.87
   4  -4   4  335.73    8.89
   4  -4   4  333.77    8.85
  -5   4  -4   95.33    2.96
  -5   4  -4   98.64    2.91
  -5   4  -4   99.34    2.96
   5  -4   4   98.70    2.97
   5  -4   4  102.66    3.02
  -6   4  -4    0.52    0.43
  -6   4  -4    1.53    0.44
  -6   4  -4    0.66    0.46
   6  -4   4    0.71    0.43
  -7   4  -4  109.03    3.33
  -7   4  -4  106.17    3.26
   7  -4   4  109.52    3.32
  -8   4  -4   39.45    1.61
  -8   4  -4   37.67    1.64
   8  -4   4   38.34    1.61
  -9   4  -4   -0.51    0.55
  -9   4  -4    0.34    0.55
   9  -4   4   -0.05    0.45
 -10   4  -4   33.96    1.66
 -10   4  -4   31.90    1.62
  10  -4   4   36.11    1.62
 -11   4  -4   13.55    1.15
 -11   4  -4   16.12    1.30
 -12   4  -4    0.28    0.63
 -12   4  -4   -2.46    0.66
 -13  -3   4    2.19    0.71
 -12  -3   4    1.49    0.63
 -12  -3   4    0.58    0.81
 -11  -3   4   25.80    1.36
 -11  -3   4   24.86    1.60
  10   3  -4   17.06    1.01
 -10  -3   4   18.60    1.00
 -10  -3   4   17.47    1.10
 -10  -3   4   15.39    1.31
   9   3  -4    6.99    0.68
  -9  -3   4    8.70    0.72
  -9  -3   4    8.36    0.75
  -9  -3   4    8.84    0.93
   8   3  -4   25.57    1.17
  -8  -3   4   28.37    1.23
  -8  -3   4   29.52    1.17
  -8  -3   4   29.48    1.44
   7   3  -4   49.74    1.81
   7   3  -4   49.23    1.68
  -7  -3   4   52.67    1.67
  -7  -3   4   50.00    1.71
  -7  -3   4   48.66    1.87
   6   3  -4    0.28    0.28
   6   3  -4    0.18    0.34
   6   3  -4    0.71    0.40
  -6  -3   4    0.92    0.37
  -6  -3   4    0.64    0.34
  -6  -3   4    0.44    0.35
  -6  -3   4    0.46    0.47
   5   3  -4    9.73    0.58
   5   3  -4    9.88    0.60
   5   3  -4   11.55    0.74
  -5  -3   4   10.04    0.66
  -5  -3   4   10.63    0.77
  -5  -3   4   10.50    0.64
  -5  -3   4   10.37    0.66
   4   3  -4   74.35    2.15
   4   3  -4   77.28    2.26
   4   3  -4   74.92    2.16
  -4  -3   4   77.53    2.20
  -4  -3   4   73.74    2.43
  -4  -3   4   75.50    2.28
  -4  -3   4   69.09    2.19
   3   3  -4    0.83    0.32
   3   3  -4    0.41    0.24
   3   3  -4    0.75    0.29
  -3  -3   4    0.56    0.30
  -3  -3   4    0.96    0.32
  -3  -3   4    0.46    0.33
  -3  -3   4    0.43    0.29
   2   3  -4  243.78    6.59
   2   3  -4  249.01    6.68
   2   3  -4  264.04    7.58
   2   3  -4  249.36    6.65
  -2  -3   4  257.97    6.62
  -2  -3   4  247.75    6.70
  -2  -3   4  246.04    6.63
   1   3  -4  233.57    6.23
   1   3  -4  236.93    6.21
   1   3  -4  228.86    6.18
  -1  -3   4  237.10    6.26
  -1  -3   4  242.38    6.19
  -1  -3   4  230.58    6.21
   0   3  -4    0.60    0.26
   0   3  -4    0.73    0.29
   0   3  -4    0.54    0.25
   0  -3   4    0.85    0.28
   0  -3   4    0.67    0.28
  -1   3  -4   18.11    0.77
  -1   3  -4   16.45    0.75
   1  -3   4   19.36    0.77
   1  -3   4   17.25    0.76
  -2   3  -4  115.37    3.21
  -2   3  -4  112.18    3.20
   2  -3   4  115.02    3.22
   2  -3   4  113.72    3.19
  -3   3  -4    5.71    0.51
  -3   3  -4    6.91    0.56
   3  -3   4    7.27    0.54
   3  -3   4    6.23    0.55
  -4   3  -4   74.67    2.21
  -4   3  -4   75.87    2.30
  -4   3  -4   75.09    2.30
   4  -3   4   73.39    2.30
   4  -3   4   75.82    2.27
  -5   3  -4  117.35    3.39
  -5   3  -4  117.94    3.46
  -5   3  -4  118.86    3.46
   5  -3   4  119.98    3.47
   5  -3   4  118.72    3.42
  -6   3  -4   22.07    1.07
  -6   3  -4   21.37    1.11
  -6   3  -4   24.55    1.11
   6  -3   4   21.38    1.09
  -7   3  -4   34.08    1.44
  -7   3  -4   35.44    1.50
   7  -3   4   35.05    1.48
  -8   3  -4   16.72    1.11
  -8   3  -4   18.29    1.14
   8  -3   4   16.70    1.08
  -9   3  -4    0.80    0.61
  -9   3  -4    1.28    0.59
   9  -3   4    1.10    0.54
 -10   3  -4   14.26    1.19
 -10   3  -4   15.36    1.21
  10  -3   4   12.34    1.09
 -11   3  -4   12.64    1.16
 -11   3  -4   14.31    1.20
  11  -3   4   13.39    1.22
 -12   3  -4   -0.47    0.77
 -12   3  -4    2.27    0.75
 -13  -2   4    8.81    0.93
 -12  -2   4    1.57    0.80
 -12  -2   4    3.79    0.68
 -11  -2   4   11.46    0.97
 -11  -2   4   13.75    1.19
  10   2  -4   21.75    1.08
 -10  -2   4   23.03    1.43
 -10  -2   4   24.26    1.09
 -10  -2   4   22.40    1.14
   9   2  -4    8.30    0.71
  -9  -2   4    9.48    0.79
  -9  -2   4    9.93    0.92
  -9  -2   4    9.34    0.70
   8   2  -4   32.16    1.24
   8   2  -4   33.78    1.41
  -8  -2   4   32.41    1.48
  -8  -2   4   33.08    1.22
  -8  -2   4   31.76    1.26
   7   2  -4   52.19    1.72
   7   2  -4   54.26    1.89
   7   2  -4   56.12    1.67
  -7  -2   4   55.64    1.94
  -7  -2   4   54.98    1.71
  -7  -2   4   54.33    1.74
   6   2  -4   13.01    0.60
   6   2  -4   11.06    0.63
   6   2  -4   11.31    0.78
  -6  -2   4   11.51    0.83
  -6  -2   4   11.06    0.66
  -6  -2   4   12.22    0.63
   5   2  -4   45.30    1.36
   5   2  -4   43.43    1.38
   5   2  -4   45.25    1.53
  -5  -2   4   44.08    1.54
  -5  -2   4   45.32    1.43
  -5  -2   4   48.20    1.42
   4   2  -4   52.81    1.52
   4   2  -4   52.49    1.65
  -4  -2   4   51.36    1.65
  -4  -2   4   50.65    1.80
  -4  -2   4   50.96    1.58
  -4  -2   4   55.02    1.58
   3   2  -4   24.63    0.82
   3   2  -4   23.86    0.78
   3   2  -4   24.00    0.88
  -3  -2   4   23.19    0.99
  -3  -2   4   22.78    0.84
  -3  -2   4   24.85    0.84
  -3  -2   4   23.88    0.90
   2   2  -4  313.68    9.30
   2   2  -4  302.84    8.16
   2   2  -4  308.90    8.06
   2   2  -4  315.51    8.11
  -2  -2   4  314.23    8.18
  -2  -2   4  299.84    9.30
  -2  -2   4  309.14    8.09
  -2  -2   4  320.78    8.08
   1   2  -4  138.32    3.75
   1   2  -4  142.48    4.36
   1   2  -4  139.11    3.74
  -1  -2   4  140.23    3.74
  -1  -2   4  140.48    3.75
   0   2  -4   16.59    0.69
   0   2  -4   16.86    0.69
   0  -2   4   16.51    0.69
   0  -2   4   17.64    0.69
  -1   2  -4   45.71    1.45
  -1   2  -4   46.29    1.45
   1  -2   4   49.07    1.45
   1  -2   4   46.45    1.46
  -2   2  -4   75.65    2.23
  -2   2  -4   77.15    2.24
   2  -2   4   77.55    2.23
   2  -2   4   75.49    2.25
  -3   2  -4   13.29    0.71
  -3   2  -4   11.87    0.71
  -3   2  -4   13.17    0.60
   3  -2   4   13.10    0.69
   3  -2   4   12.83    0.72
  -4   2  -4   58.48    1.91
  -4   2  -4   58.51    1.81
  -4   2  -4   61.56    1.93
   4  -2   4   61.48    1.90
   4  -2   4   58.50    1.92
  -5   2  -4  109.43    3.34
  -5   2  -4  112.69    3.28
  -5   2  -4  114.28    3.36
   5  -2   4  119.47    3.34
   5  -2   4  115.54    3.37
  -6   2  -4   16.26    0.93
  -6   2  -4   15.67    0.93
  -6   2  -4   14.17    0.93
   6  -2   4   14.87    0.94
  -7   2  -4   34.18    1.46
  -7   2  -4   36.03    1.52
   7  -2   4   35.67    1.49
  -8   2  -4   26.03    1.33
  -8   2  -4   28.67    1.42
   8  -2   4   27.65    1.36
  -9   2  -4   -0.43    0.52
  -9   2  -4   -0.61    0.57
   9  -2   4    0.11    0.47
 -10   2  -4   11.19    1.04
 -10   2  -4    7.46    0.95
  10  -2   4   11.59    1.04
 -11   2  -4   20.52    1.53
 -11   2  -4   23.03    1.51
  11  -2   4   23.17    1.46
 -12   2  -4    1.16    0.86
 -12   2  -4    2.32    0.78
 -14  -1   4   11.14    1.01
 -13  -1   4   18.46    1.56
 -13  -1   4   21.44    1.26
 -12  -1   4    0.27    0.51
 -12  -1   4    0.94    0.71
 -11  -1   4   14.31    1.25
 -11  -1   4   14.66    0.98
  10   1  -4   29.70    1.23
 -10  -1   4   33.01    1.60
 -10  -1   4   31.43    1.31
 -10  -1   4   33.14    1.25
   9   1  -4    0.89    0.37
  -9  -1   4    0.85    0.42
  -9  -1   4    1.30    0.37
  -9  -1   4    1.67    0.61
   8   1  -4   38.77    1.36
   8   1  -4   41.85    1.58
   8   1  -4   39.58    1.29
  -8  -1   4   40.92    1.64
  -8  -1   4   39.72    1.40
  -8  -1   4   42.30    1.37
   7   1  -4  144.28    4.07
   7   1  -4  148.91    4.29
   7   1  -4  160.96    4.03
  -7  -1   4  146.89    4.08
  -7  -1   4  146.95    4.31
  -7  -1   4  148.67    4.07
   6   1  -4    6.38    0.56
   6   1  -4    6.86    0.43
  -6  -1   4    5.79    0.47
  -6  -1   4    7.13    0.45
  -6  -1   4    6.56    0.59
   5   1  -4   76.51    2.27
  -5  -1   4   74.15    2.28
  -5  -1   4   72.99    2.11
  -5  -1   4   78.33    2.11
   4   1  -4  366.83    9.54
  -4  -1   4  356.17    9.35
  -4  -1   4  355.22    9.54
  -4  -1   4  364.07    9.36
   3   1  -4   17.38    0.71
  -3  -1   4   18.36    0.62
  -3  -1   4   17.53    0.62
  -3  -1   4   18.80    0.74
  -3  -1   4   17.77    0.87
   2   1  -4    1.92    0.23
   2   1  -4    1.62    0.24
   2   1  -4    1.13    0.17
   2   1  -4    1.63    0.37
  -2  -1   4    1.71    0.23
  -2  -1   4    1.75    0.35
  -2  -1   4    1.74    0.25
  -2  -1   4    1.66    0.22
   1   1  -4  571.75   14.85
   1   1  -4  563.94   16.82
   1   1  -4  551.18   14.75
  -1  -1   4  588.94   14.86
  -1  -1   4  567.79   14.90
   0   1  -4   30.39    1.00
   0   1  -4   32.64    1.02
   0  -1   4   31.52    1.01
   0  -1   4   29.61    1.01
  -1   1  -4    9.77    0.56
  -1   1  -4    9.56    0.56
   1  -1   4   10.32    0.57
   1  -1   4   11.32    0.57
  -2   1  -4  215.97    5.81
  -2   1  -4  221.48    5.83
   2  -1   4  217.21    5.81
   2  -1   4  213.88    5.82
  -3   1  -4   15.82    0.80
  -3   1  -4   16.22    0.78
  -3   1  -4   16.24    0.69
   3  -1   4   16.83    0.80
   3  -1   4   16.11    0.78
  -4   1  -4    9.77    0.72
  -4   1  -4    9.56    0.69
  -4   1  -4   11.28    0.66
   4  -1   4   10.25    0.69
   4  -1   4    9.94    0.70
  -5   1  -4  180.34    5.02
  -5   1  -4  186.86    5.09
  -5   1  -4  176.53    5.07
   5  -1   4  185.70    5.06
   5  -1   4  178.17    5.08
  -6   1  -4    8.16    0.70
  -6   1  -4    8.18    0.75
  -6   1  -4    8.99    0.75
   6  -1   4    8.33    0.76
  -7   1  -4    1.93    0.57
  -7   1  -4    3.53    0.61
   7  -1   4    1.81    0.54
  -8   1  -4   53.12    2.06
  -8   1  -4   55.50    2.04
   8  -1   4   53.86    2.04
  -9   1  -4   10.72    1.00
  -9   1  -4   10.23    0.96
   9  -1   4   11.97    1.04
 -10   1  -4    0.66    0.66
 -10   1  -4    1.53    0.67
  10  -1   4    2.46    0.68
 -11   1  -4   21.85    1.54
 -11   1  -4   25.53    1.58
  11  -1   4   22.42    1.54
 -14   0   4    7.46    0.84
 -13   0   4    7.48    1.07
 -13   0   4   11.57    0.93
 -12   0   4    2.56    0.80
 -11   0   4   15.48    1.24
  10   0  -4   13.79    0.75
 -10   0   4   15.03    1.16
 -10   0   4   14.06    0.80
  -9   0   4   14.69    1.08
  -9   0   4   15.76    0.77
   8   0  -4   31.88    1.05
  -8   0   4   33.09    1.42
  -8   0   4   33.40    1.13
  -7   0   4   33.60    1.09
  -7   0   4   33.08    1.36
  -6   0   4   61.72    1.71
  -6   0   4   58.75    1.94
  -5   0   4  119.49    3.38
  -4   0   4   75.58    2.20
  -3   0   4    4.58    0.37
  -3   0   4    5.00    0.52
  -2   0   4   28.36    0.87
  -2   0   4   28.44    0.82
  -2   0   4   26.14    1.13
   1   0  -4    3.94    0.35
   1   0  -4    3.75    0.34
   1   0  -4    4.25    0.47
  -1   0   4    4.32    0.50
  -1   0   4    3.93    0.37
  -1   0   4    3.93    0.31
   0   0  -4  102.60    2.81
   0   0  -4  105.66    3.29
   0   0  -4  103.11    2.82
   0   0   4  103.49    2.81
   0   0   4  100.37    2.82
  -1   0  -4   63.92    1.89
  -1   0  -4   62.60    1.88
   1   0   4   65.78    1.89
   1   0   4   64.90    1.89
  -2   0  -4    6.53    0.51
  -2   0  -4    6.44    0.54
   2   0   4    5.86    0.48
   2   0   4    6.54    0.52
   2   0   4    6.75    0.43
  -3   0  -4   89.30    2.52
  -3   0  -4   86.99    2.60
  -3   0  -4   88.29    2.60
   3   0   4   87.33    2.61
   3   0   4   88.83    2.49
   3   0   4   88.30    2.58
  -4   0  -4   21.86    1.03
  -4   0  -4   21.63    0.99
  -4   0  -4   23.26    0.97
   4   0   4   22.88    0.98
   4   0   4   21.83    1.02
   4   0   4   23.49    0.92
  -5   0  -4   32.02    1.27
  -5   0  -4   29.34    1.29
  -5   0  -4   30.28    1.27
   5   0   4   33.45    1.20
   5   0   4   30.73    1.30
  -6   0  -4   32.41    1.38
  -6   0  -4   33.68    1.44
   6   0   4   34.41    1.45
  -7   0  -4    2.94    0.64
  -7   0  -4    3.73    0.63
   7   0   4    2.46    0.60
  -8   0  -4   19.92    1.25
  -8   0  -4   19.67    1.25
   8   0   4   20.92    1.23
  -9   0  -4   20.41    1.35
  -9   0  -4   19.19    1.33
   9   0   4   20.88    1.27
 -10   0  -4    2.64    0.80
 -10   0  -4    2.11    0.71
  10   0   4    3.58    0.74
 -11   0  -4    6.20    0.96
 -11   0  -4    5.06    0.98
 -13   1   4   14.56    1.24
 -12   1   4    4.38    0.87
 -11   1   4   17.37    0.89
 -11   1   4   16.54    0.93
 -11   1   4   14.93    1.23
 -10   1   4   62.80    1.93
 -10   1   4   59.91    1.96
 -10   1   4   62.14    2.28
  -9   1   4    5.30    0.70
  -9   1   4    5.91    0.47
  -9   1   4    5.18    0.50
  -8   1   4   23.36    1.18
  -8   1   4   21.21    0.88
  -8   1   4   25.01    0.88
  -7   1   4  166.83    4.80
  -7   1   4  169.19    4.52
  -7   1   4  173.76    4.52
  -6   1   4    0.98    0.40
  -5   1   4  101.66    2.92
  -2   1   4   25.38    0.77
  -2   1   4   25.08    1.10
  -2   1   4   25.58    0.77
   1  -1  -4  171.97    4.65
   1  -1  -4  177.41    4.65
   1  -1  -4  172.50    5.40
  -1   1   4  176.38    5.43
  -1   1   4  181.88    4.67
  -1   1   4  179.38    4.66
   0  -1  -4   32.98    1.07
   0  -1  -4   32.39    1.07
   0  -1  -4   33.17    1.27
   0   1   4   32.24    1.07
   0   1   4   34.09    1.08
  -1  -1  -4    1.79    0.39
  -1  -1  -4    1.11    0.31
  -1  -1  -4    1.68    0.32
   1   1   4    2.13    0.29
   1   1   4    1.72    0.33
   1   1   4    2.01    0.35
  -2  -1  -4  295.89    7.90
  -2  -1  -4  295.05    7.90
  -2  -1  -4  300.58    7.89
   2   1   4  295.38    7.88
   2   1   4  307.59    7.86
   2   1   4  289.50    7.90
  -3  -1  -4   60.88    1.96
  -3  -1  -4   62.43    1.91
  -3  -1  -4   61.42    1.95
   3   1   4   61.59    1.96
   3   1   4   60.98    1.93
   3   1   4   62.54    1.86
  -4  -1  -4    3.75    0.54
  -4  -1  -4    4.19    0.50
  -4  -1  -4    3.98    0.53
   4   1   4    3.19    0.49
   4   1   4    4.01    0.45
   4   1   4    3.53    0.49
  -5  -1  -4   83.16    2.62
  -5  -1  -4   81.76    2.57
   5   1   4   84.09    2.50
   5   1   4   79.17    2.60
  -6  -1  -4   29.89    1.41
  -6  -1  -4   32.02    1.41
   6   1   4   31.59    1.28
   6   1   4   32.04    1.40
  -7  -1  -4    0.18    0.54
  -7  -1  -4   -0.65    0.48
   7   1   4    0.34    0.41
   7   1   4    0.04    0.48
  -8  -1  -4   24.15    1.41
  -8  -1  -4   25.66    1.44
   8   1   4   25.70    1.40
  -9  -1  -4   13.69    1.20
  -9  -1  -4   11.92    1.11
   9   1   4   12.82    1.09
 -10  -1  -4    1.81    0.70
 -10  -1  -4    0.37    0.72
  10   1   4    0.94    0.61
 -11  -1  -4   10.68    1.16
 -11  -1  -4    7.48    1.10
 -13   2   4   42.26    1.62
 -13   2   4   38.85    2.01
 -12   2   4   10.22    0.83
 -12   2   4    8.20    0.96
 -11   2   4    0.89    0.66
 -11   2   4    1.14    0.40
 -11   2   4    1.35    0.42
 -10   2   4   68.44    2.05
 -10   2   4   66.77    2.06
 -10   2   4   64.81    2.38
  -9   2   4   20.94    0.88
  -9   2   4   21.30    1.20
  -9   2   4   21.93    0.87
  -8   2   4    1.04    0.27
  -8   2   4    0.68    0.29
  -8   2   4    0.16    0.48
  -7   2   4  122.74    3.59
  -6   2   4   33.04    1.25
   2  -2  -4    2.11    0.23
  -2   2   4    2.03    0.25
  -2   2   4    1.54    0.22
  -2   2   4    1.57    0.40
   1  -2  -4   89.78    2.45
   1  -2  -4   87.22    2.46
  -1   2   4   89.67    2.91
  -1   2   4   88.95    2.46
  -1   2   4   89.27    2.46
   0  -2  -4  133.07    4.13
   0  -2  -4  131.45    3.61
   0   2   4  133.00    3.61
   0   2   4  135.83    3.64
   0   2   4  128.99    3.61
  -1  -2  -4   11.60    0.73
  -1  -2  -4   12.33    0.70
  -1  -2  -4   13.82    0.68
  -1  -2  -4   13.98    0.70
   1   2   4   12.13    0.67
   1   2   4   12.63    0.68
   1   2   4   14.36    0.68
  -2  -2  -4  175.28    4.84
  -2  -2  -4  179.45    4.84
  -2  -2  -4  175.58    5.43
  -2  -2  -4  179.72    4.85
   2   2   4  167.29    4.82
   2   2   4  174.88    4.82
   2   2   4  179.95    4.79
  -3  -2  -4  124.92    3.53
  -3  -2  -4  120.69    3.55
  -3  -2  -4  123.55    3.53
   3   2   4  119.41    3.51
   3   2   4  126.52    3.47
   3   2   4  121.41    3.54
  -4  -2  -4    0.22    0.45
  -4  -2  -4    0.87    0.44
  -4  -2  -4    0.67    0.35
   4   2   4    0.50    0.36
   4   2   4    0.11    0.37
   4   2   4    0.78    0.39
  -5  -2  -4   30.40    1.38
  -5  -2  -4   28.77    1.35
   5   2   4   29.44    1.33
   5   2   4   33.39    1.27
  -6  -2  -4   30.04    1.42
  -6  -2  -4   29.41    1.43
   6   2   4   29.68    1.28
   6   2   4   29.37    1.40
  -7  -2  -4    6.52    0.84
  -7  -2  -4    6.25    0.80
   7   2   4    5.76    0.77
  -8  -2  -4    8.44    0.96
  -8  -2  -4    9.67    0.97
   8   2   4    8.47    0.92
  -9  -2  -4   11.58    1.15
   9   2   4   10.98    1.04
 -10  -2  -4   -0.42    0.72
  10   2   4    1.11    0.63
 -14   3   4    0.94    0.54
 -13   3   4   16.23    1.04
 -13   3   4   17.40    1.42
 -12   3   4   21.78    1.47
 -12   3   4   24.53    1.12
 -11   3   4   -0.33    0.57
 -11   3   4   -0.31    0.38
 -11   3   4    0.10    0.35
 -10   3   4   27.29    1.44
 -10   3   4   31.34    1.12
 -10   3   4   29.28    1.13
  -9   3   4   29.78    1.07
  -9   3   4   31.06    1.44
  -9   3   4   30.58    1.08
  -8   3   4    0.60    0.27
  -8   3   4    0.60    0.47
  -8   3   4    0.44    0.27
  -7   3   4   22.44    0.78
  -3   3   4   14.81    0.60
  -3   3   4   13.53    0.56
   2  -3  -4    0.16    0.23
   2  -3  -4    0.65    0.25
  -2   3   4    0.33    0.23
   1  -3  -4  111.67    3.17
   1  -3  -4  117.85    3.17
  -1   3   4  114.59    3.68
  -1   3   4  117.98    3.18
  -1   3   4  110.53    3.16
  -1   3   4  118.13    3.27
   0  -3  -4   89.86    2.46
   0  -3  -4   81.15    2.45
   0   3   4   87.44    2.46
   0   3   4   83.15    2.50
   0   3   4   88.38    2.82
   0   3   4   81.16    2.44
  -1  -3  -4   -0.31    0.26
  -1  -3  -4    0.27    0.31
  -1  -3  -4    0.12    0.31
  -1  -3  -4    0.15    0.38
   1   3   4   -0.12    0.35
   1   3   4    0.09    0.29
   1   3   4    0.32    0.28
  -2  -3  -4  110.82    3.15
  -2  -3  -4  104.97    3.42
  -2  -3  -4  104.46    3.16
   2   3   4  107.07    3.15
   2   3   4  112.22    3.11
   2   3   4  107.50    3.12
  -3  -3  -4   40.35    1.47
  -3  -3  -4   38.54    1.52
  -3  -3  -4   39.09    1.51
   3   3   4   39.13    1.49
   3   3   4   40.45    1.44
   3   3   4   41.88    1.47
  -4  -3  -4    1.73    0.57
  -4  -3  -4    1.70    0.44
   4   3   4    2.14    0.50
   4   3   4    2.02    0.47
  -5  -3  -4   25.28    1.34
   5   3   4   23.84    1.24
   5   3   4   25.11    1.17
  -6  -3  -4   38.70    1.72
   6   3   4   38.03    1.54
   6   3   4   40.65    1.71
  -7  -3  -4    4.45    0.82
   7   3   4    4.38    0.78
  -8  -3  -4   11.65    1.12
   8   3   4   12.60    1.13
  -9  -3  -4   14.22    1.27
  -9  -3  -4   14.60    1.26
   9   3   4   15.11    1.32
 -10  -3  -4    0.95    0.81
 -10  -3  -4    1.59    0.80
  10   3   4    2.57    0.78
 -14   4   4    0.52    0.51
 -13   4   4    7.13    0.71
 -13   4   4    6.34    0.95
 -12   4   4   44.95    1.60
 -12   4   4   43.14    1.98
 -11   4   4   -0.11    0.59
 -11   4   4    0.36    0.37
 -11   4   4    0.42    0.38
 -10   4   4   38.95    1.70
 -10   4   4   41.30    1.36
 -10   4   4   37.93    1.35
  -9   4   4   82.44    2.36
  -9   4   4   81.87    2.35
  -9   4   4   79.49    2.68
  -8   4   4    0.96    0.30
  -8   4   4    0.92    0.29
  -7   4   4   20.00    0.75
  -5   4   4    3.88    0.34
  -4   4   4   11.62    0.58
  -4   4   4   14.68    0.64
   3  -4  -4  338.98    8.53
   3  -4  -4  312.11    8.55
  -3   4   4  333.17    8.58
  -3   4   4  325.84    8.58
   2  -4  -4    0.28    0.26
   2  -4  -4    0.37    0.28
  -2   4   4    0.00    0.29
  -2   4   4    0.20    0.26
   1  -4  -4   58.09    1.84
   1  -4  -4   61.30    1.83
  -1   4   4   57.14    1.83
  -1   4   4   62.69    1.85
  -1   4   4   61.35    1.98
  -1   4   4   61.43    2.14
   0  -4  -4  266.54    7.36
   0   4   4  288.53    7.38
   0   4   4  265.61    7.35
   0   4   4  282.82    8.36
   0   4   4  274.60    7.47
  -1  -4  -4    3.59    0.46
  -1  -4  -4    3.57    0.55
  -1  -4  -4    3.75    0.48
   1   4   4    3.40    0.47
   1   4   4    4.34    0.51
   1   4   4    3.30    0.52
  -2  -4  -4   10.93    0.76
  -2  -4  -4   10.06    0.89
  -2  -4  -4   11.63    0.82
   2   4   4   10.82    0.77
   2   4   4   12.61    0.84
   2   4   4    9.75    0.75
  -3  -4  -4   99.52    2.97
  -3  -4  -4   88.00    3.05
  -3  -4  -4   94.41    2.99
   3   4   4   96.53    2.95
   3   4   4   94.70    2.90
   3   4   4   98.99    2.91
  -4  -4  -4   14.01    1.11
  -4  -4  -4   13.25    0.80
  -4  -4  -4   14.12    1.02
   4   4   4   13.47    0.98
   4   4   4   13.93    0.93
  -5  -4  -4    1.01    0.40
  -5  -4  -4    1.69    0.65
  -5  -4  -4    1.45    0.57
   5   4   4    1.21    0.55
   5   4   4    1.23    0.50
  -6  -4  -4   76.04    2.69
  -6  -4  -4   73.41    2.65
   6   4   4   74.45    2.64
  -7  -4  -4    3.53    0.78
  -7  -4  -4    4.16    0.83
   7   4   4    2.81    0.72
  -8  -4  -4   -0.09    0.63
  -8  -4  -4    1.25    0.78
   8   4   4    2.14    0.70
  -9  -4  -4   19.22    1.59
  -9  -4  -4   20.35    1.56
   9   4   4   21.38    1.53
 -14   5   4    4.99    0.66
 -13   5   4    4.66    0.86
 -13   5   4    5.25    0.65
 -12   5   4   19.53    1.38
 -12   5   4   18.33    0.99
 -11   5   4    4.82    0.77
 -11   5   4    5.82    0.56
 -10   5   4   18.76    1.23
 -10   5   4   17.50    0.87
 -10   5   4   19.44    0.88
  -9   5   4   52.61    1.68
  -9   5   4   55.48    1.70
  -8   5   4   31.52    1.10
  -8   5   4   30.89    1.08
  -7   5   4   16.16    0.71
  -7   5   4   15.13    0.68
  -6   5   4   66.59    1.90
  -6   5   4   62.70    1.86
  -5   5   4   47.78    1.44
  -5   5   4   41.75    1.38
   4  -5  -4   28.05    0.87
   4  -5  -4   20.79    0.81
  -4   5   4   22.52    0.91
  -4   5   4   23.83    0.95
   3  -5  -4  138.14    3.98
   3  -5  -4  154.51    3.98
  -3   5   4  146.86    4.02
  -3   5   4  143.66    4.02
   2  -5  -4  123.44    3.34
   2  -5  -4  113.60    3.36
  -2   5   4  124.97    3.38
  -2   5   4  114.34    3.34
   1  -5  -4   22.06    0.93
   1  -5  -4   20.75    0.96
  -1   5   4   21.36    0.94
  -1   5   4   21.64    1.10
  -1   5   4   23.91    1.16
   0  -5  -4   37.47    1.41
   0  -5  -4   36.35    1.35
   0   5   4   38.91    1.52
   0   5   4   36.30    1.37
   0   5   4   38.57    1.38
   0   5   4   38.32    1.51
  -1  -5  -4   76.68    2.45
   1   5   4   79.94    2.49
   1   5   4   76.91    2.42
   1   5   4   76.50    2.43
  -2  -5  -4    2.12    0.53
  -2  -5  -4    1.00    0.57
   2   5   4    1.41    0.51
   2   5   4    1.47    0.44
   2   5   4    1.56    0.54
  -3  -5  -4   16.55    1.19
  -3  -5  -4   18.49    1.11
   3   5   4   17.93    1.08
   3   5   4   20.12    1.13
  -4  -5  -4   46.12    2.00
  -4  -5  -4   53.22    1.99
   4   5   4   51.95    1.90
   4   5   4   52.04    1.98
  -5  -5  -4    4.55    0.82
  -5  -5  -4    3.38    0.69
   5   5   4    3.78    0.71
  -6  -5  -4    7.32    0.93
  -6  -5  -4    5.61    0.88
   6   5   4    6.67    0.89
  -7  -5  -4    7.96    1.02
  -7  -5  -4    9.08    1.02
   7   5   4    8.11    0.95
  -8  -5  -4    0.92    0.79
  -8  -5  -4   -0.21    0.67
   8   5   4    0.41    0.68
  -9  -5  -4    5.03    1.02
  -9  -5  -4    5.86    1.03
   9   5   4    4.10    0.93
 -14   6   4   10.09    0.84
 -13   6   4    4.64    0.86
 -13   6   4    4.83    0.60
 -12   6   4    7.15    0.65
 -12   6   4    4.99    0.83
 -11   6   4    3.23    0.49
 -11   6   4    2.90    0.67
 -10   6   4    9.04    0.68
 -10   6   4    7.36    0.60
  -9   6   4   51.35    1.67
  -9   6   4   53.70    1.69
  -8   6   4   17.01    0.80
  -8   6   4   17.04    0.83
  -7   6   4    1.72    0.38
  -7   6   4    1.36    0.36
  -6   6   4   53.52    1.70
  -6   6   4   53.41    1.66
   5  -6  -4   20.51    0.82
  -5   6   4   21.48    0.95
  -5   6   4   20.68    0.90
   4  -6  -4    7.76    0.56
   4  -6  -4    8.25    0.56
  -4   6   4    8.04    0.68
  -4   6   4    6.47    0.56
   3  -6  -4  131.67    3.74
   3  -6  -4  136.56    3.72
  -3   6   4  137.71    3.78
  -3   6   4  127.43    3.76
   2  -6  -4   94.29    2.70
   2  -6  -4   88.51    2.73
  -2   6   4   88.27    2.72
  -2   6   4   92.02    2.90
  -2   6   4   94.45    2.75
   1  -6  -4    0.14    0.35
   1  -6  -4   -0.03    0.39
  -1   6   4    0.41    0.44
  -1   6   4   -0.51    0.52
  -1   6   4    0.12    0.37
   0  -6  -4   81.87    2.59
   0   6   4   82.68    2.56
   0   6   4   80.85    2.57
   0   6   4   82.48    2.68
   0   6   4   81.67    2.79
  -1  -6  -4    6.68    0.73
   1   6   4    5.59    0.65
   1   6   4    6.05    0.64
   1   6   4    5.52    0.71
  -2  -6  -4    6.85    0.77
  -2  -6  -4    5.97    0.81
   2   6   4    7.68    0.81
   2   6   4    7.35    0.80
  -3  -6  -4   44.42    1.79
  -3  -6  -4   41.50    1.84
   3   6   4   42.54    1.74
   3   6   4   43.56    1.79
  -4  -6  -4   20.63    1.28
  -4  -6  -4   18.44    1.34
   4   6   4   16.61    1.23
  -5  -6  -4    1.22    0.71
  -5  -6  -4    0.74    0.66
   5   6   4    0.41    0.62
  -6  -6  -4    6.86    0.96
  -6  -6  -4    7.07    0.99
   6   6   4    6.47    0.96
  -7  -6  -4    9.44    1.13
  -7  -6  -4    7.33    1.03
   7   6   4    8.82    1.09
  -8  -6  -4    0.95    0.81
  -8  -6  -4   -0.21    0.73
   8   6   4    0.20    0.74
 -14   7   4    6.31    0.72
 -13   7   4   -0.42    0.44
 -13   7   4   -0.03    0.69
 -12   7   4   16.22    1.34
 -12   7   4   15.51    0.97
 -11   7   4   12.33    0.85
 -10   7   4    0.06    0.40
 -10   7   4    0.91    0.41
  -9   7   4   62.83    1.99
  -9   7   4   63.99    2.01
  -8   7   4   34.15    1.31
  -8   7   4   36.81    1.30
  -7   7   4    3.66    0.47
  -7   7   4    3.10    0.48
   6  -7  -4   37.96    1.31
  -6   7   4   41.43    1.45
  -6   7   4   40.97    1.41
   5  -7  -4   53.06    1.71
   5  -7  -4   54.66    1.72
  -5   7   4   54.79    1.80
  -5   7   4   57.58    1.84
   4  -7  -4    1.97    0.39
   4  -7  -4    1.57    0.39
  -4   7   4    1.80    0.43
  -4   7   4    1.83    0.49
   3  -7  -4   82.83    2.55
  -3   7   4   81.28    2.57
  -3   7   4   86.92    2.59
   2  -7  -4   54.21    1.91
  -2   7   4   57.68    2.12
  -2   7   4   57.58    1.92
  -2   7   4   54.27    1.91
   1  -7  -4    0.02    0.44
  -1   7   4    0.67    0.48
  -1   7   4    0.00    0.42
  -1   7   4    0.56    0.59
   0  -7  -4   16.02    1.06
   0   7   4   17.42    1.07
   0   7   4   17.00    1.04
   0   7   4   17.64    1.00
   0   7   4   18.52    1.21
  -1  -7  -4   25.01    1.31
   1   7   4   23.84    1.28
   1   7   4   26.39    1.39
   1   7   4   27.77    1.28
  -2  -7  -4    4.60    0.77
   2   7   4    5.55    0.73
  -3  -7  -4   12.09    1.09
  -3  -7  -4   12.23    1.08
   3   7   4   10.93    1.00
  -4  -7  -4   26.31    1.53
  -4  -7  -4   26.96    1.61
   4   7   4   26.99    1.54
  -5  -7  -4    4.64    0.88
  -5  -7  -4    4.39    0.86
   5   7   4    5.72    0.89
  -6  -7  -4    1.26    0.75
  -6  -7  -4    2.09    0.81
   6   7   4    0.86    0.69
  -7  -7  -4   13.59    1.33
  -7  -7  -4   13.64    1.34
   7   7   4   12.60    1.31
  -8  -7  -4    2.11    0.94
  -8  -7  -4   -0.53    0.79
   8   7   4    2.34    0.90
 -13   8   4    0.69    0.52
 -12   8   4    7.54    0.93
 -12   8   4   10.74    0.88
 -11   8   4   26.17    1.21
 -10   8   4    1.42    0.48
  -9   8   4   13.24    0.86
  -9   8   4   13.60    0.88
  -8   8   4   69.84    2.18
  -8   8   4   66.27    2.18
   7  -8  -4    0.15    0.17
  -7   8   4    0.93    0.44
  -7   8   4    2.04    0.54
   6  -8  -4   24.32    1.01
  -6   8   4   26.52    1.16
  -6   8   4   26.15    1.19
   5  -8  -4   16.95    0.87
  -5   8   4   19.57    1.03
  -5   8   4   18.85    1.01
   4  -8  -4    0.16    0.38
  -4   8   4    0.32    0.43
  -4   8   4    0.83    0.47
   3  -8  -4   27.10    1.23
  -3   8   4   26.87    1.26
  -3   8   4   30.65    1.53
  -3   8   4   27.57    1.26
   2  -8  -4    5.65    0.68
  -2   8   4    5.29    0.81
  -2   8   4    4.57    0.67
  -2   8   4    4.56    0.63
   1  -8  -4    9.88    0.85
  -1   8   4    9.47    0.88
  -1   8   4   11.55    1.01
  -1   8   4   10.35    0.97
   0  -8  -4    7.31    0.82
   0   8   4    7.44    0.85
   0   8   4    8.54    0.77
   0   8   4    7.66    0.75
  -1  -8  -4   31.96    1.56
   1   8   4   32.06    1.54
  -2  -8  -4    5.51    0.83
   2   8   4    7.55    0.88
  -3  -8  -4   12.49    1.19
   3   8   4   12.88    1.12
  -4  -8  -4   10.01    1.11
  -4  -8  -4    8.64    1.06
   4   8   4   10.79    1.10
  -5  -8  -4    7.52    1.04
  -5  -8  -4    9.06    1.13
   5   8   4    7.02    1.01
  -6  -8  -4    4.86    0.97
  -6  -8  -4    4.98    1.00
   6   8   4    5.52    0.95
  -7  -8  -4    5.15    1.05
  -7  -8  -4    4.80    1.02
   7   8   4    5.62    1.00
 -13   9   4    0.91    0.53
 -12   9   4   17.97    1.11
 -11   9   4   29.43    1.32
 -10   9   4    1.55    0.52
  -9   9   4   14.29    0.97
  -8   9   4   53.12    1.89
  -8   9   4   53.28    1.87
   7  -9  -4    1.97    0.40
  -7   9   4    1.61    0.52
  -7   9   4    1.75    0.54
   6  -9  -4   15.00    0.85
  -6   9   4   16.80    1.03
  -6   9   4   16.55    1.02
   5  -9  -4   29.51    1.26
  -5   9   4   33.26    1.40
  -5   9   4   30.81    1.38
   4  -9  -4    2.49    0.51
  -4   9   4    1.76    0.54
  -4   9   4    2.22    0.57
   3  -9  -4    0.23    0.46
  -3   9   4    1.30    0.51
  -3   9   4   -0.12    0.47
   2  -9  -4   48.23    1.82
  -2   9   4   44.93    1.81
  -2   9   4   45.84    1.80
   1  -9  -4   10.98    0.96
  -1   9   4   11.60    0.98
  -1   9   4   11.49    1.05
   0  -9  -4    0.56    0.60
   0   9   4    0.25    0.52
   0   9   4    0.62    0.60
  -1  -9  -4   45.13    1.96
   1   9   4   45.13    1.97
  -2  -9  -4    3.74    0.82
   2   9   4    3.38    0.76
  -3  -9  -4   -0.51    0.65
   3   9   4   -0.63    0.59
  -4  -9  -4   18.35    1.53
   4   9   4   17.10    1.46
  -5  -9  -4    4.61    0.92
  -5  -9  -4    2.60    0.90
   5   9   4    2.51    0.83
  -6  -9  -4    0.52    0.85
  -6  -9  -4    2.21    0.87
   6   9   4    0.79    0.81
 -12  10   4    6.64    0.77
 -11  10   4   29.68    1.41
 -10  10   4    5.06    0.67
  -9  10   4    3.54    0.65
  -8  10   4   29.90    1.39
  -7  10   4   18.14    1.13
   6 -10  -4    0.68    0.40
  -6  10   4    1.51    0.56
  -6  10   4   -0.28    0.48
   5 -10  -4   26.53    1.26
  -5  10   4   30.93    1.41
  -5  10   4   30.42    1.39
   4 -10  -4   19.19    1.10
  -4  10   4   18.51    1.18
  -4  10   4   20.33    1.14
   3 -10  -4   -0.29    0.48
  -3  10   4    0.01    0.48
  -3  10   4   -0.12    0.52
   2 -10  -4   25.72    1.32
  -2  10   4   26.59    1.41
  -2  10   4   22.24    1.32
  -2  10   4   22.81    1.41
   1 -10  -4   31.65    1.57
  -1  10   4   27.66    1.52
  -1  10   4   31.16    1.52
   0 -10  -4    0.00    0.60
   0  10   4   -0.61    0.59
  -1 -10  -4    6.01    0.92
   1  10   4    5.44    0.90
  -2 -10  -4    9.08    1.07
   2  10   4    8.18    1.04
  -3 -10  -4    0.24    0.78
   3  10   4   -0.08    0.74
  -4 -10  -4    2.99    0.94
   4  10   4    3.23    0.92
  -5 -10  -4    0.26    0.86
   5  10   4    1.90    0.91
 -12  11   4    0.97    0.64
 -11  11   4    5.96    0.77
 -10  11   4    8.71    0.85
  -9  11   4    0.76    0.61
  -8  11   4   11.49    0.95
  -7  11   4   11.57    0.95
  -6  11   4    0.92    0.61
  -5  11   4   16.97    1.22
   4 -11  -4   11.03    0.97
  -4  11   4   10.80    1.00
   3 -11  -4    0.58    0.55
  -3  11   4   -1.26    0.54
   2 -11  -4   19.60    1.32
  -2  11   4   23.16    1.38
  -2  11   4   20.60    1.33
   1 -11  -4    8.58    0.96
  -1  11   4    9.41    1.02
  -1  11   4    9.07    0.88
   0 -11  -4    2.09    0.74
   0  11   4    1.26    0.73
  -1 -11  -4    9.38    1.08
   1  11   4    9.52    1.07
  -2 -11  -4    1.44    0.79
   2  11   4    1.31    0.76
  -3 -11  -4   -0.06    0.76
   3  11   4    0.25    0.77
  -4 -11  -4    3.19    0.97
   4  11   4    4.40    1.05
 -11  12   4    7.40    0.87
 -10  12   4    8.93    0.93
  -9  12   4   -0.35    0.64
  -8  12   4   10.84    1.00
  -7  12   4    9.78    0.99
  -6  12   4   -0.24    0.61
  -5  12   4    8.58    0.94
  -4  12   4   24.79    1.47
  -3  12   4    0.59    0.64
   2 -12  -4   10.45    1.08
  -2  12   4   10.80    1.09
  -2  12   4   12.36    1.19
   1 -12  -4   18.83    1.37
  -1  12   4   17.28    1.40
   0 -12  -4    0.78    0.68
   0  12   4    0.92    0.72
  -1 -12  -4    2.23    0.84
   1  12   4    2.16    0.83
  -2 -12  -4    8.74    1.20
   2  12   4    8.34    1.12
 -10  13   4   10.10    1.01
  -9  13   4    0.91    0.71
  -8  13   4    1.01    0.73
  -7  13   4   14.53    1.17
  -6  13   4    2.21    0.74
  -5  13   4    4.86    0.87
  -4  13   4    8.83    1.02
  -3  13   4    3.34    0.76
  -3  13   4    1.86    0.74
  -2  13   4    3.35    0.86
  -1  13   4    8.77    1.07
   0  13   4    1.88    0.84
  -7  14   4    7.85    1.01
  -6  14   4    3.53    0.86
  -5  14   4    2.55    0.81
  -4  14   4    7.90    1.03
  -3  14   4    3.50    0.85
  -2  14   4    1.23    0.74
   1  15  -5    2.23    0.87
  -1 -15   5    1.77    0.87
   0  15  -5    3.77    0.86
   0 -15   5    4.85    1.01
  -1  15  -5    1.86    0.82
   1 -15   5    1.13    0.79
  -2  15  -5    4.89    0.94
   2 -15   5    4.64    1.01
  -3  15  -5    4.81    0.97
   3 -15   5    4.90    0.99
  -4  15  -5    1.31    0.89
   4 -15   5    2.50    0.83
  -5  15  -5    2.34    0.90
   5 -15   5    3.18    0.91
  -6  15  -5    6.90    1.08
   4  14  -5    3.32    0.88
  -4 -14   5    3.88    1.03
   3  14  -5    4.73    0.94
  -3 -14   5    5.97    1.02
   2  14  -5    1.42    0.74
  -2 -14   5    3.22    0.90
   1  14  -5    6.52    1.00
  -1 -14   5    4.49    0.97
   0  14  -5   29.04    1.68
   0 -14   5   25.42    1.76
  -1  14  -5    2.21    0.82
   1 -14   5    1.18    0.75
  -2  14  -5    4.70    0.91
   2 -14   5    4.90    0.96
  -3  14  -5   26.58    1.71
   3 -14   5   28.72    1.81
  -4  14  -5    8.40    1.09
   4 -14   5    6.94    1.03
  -5  14  -5    5.75    0.98
   5 -14   5    5.41    0.96
  -6  14  -5   37.12    1.99
   6 -14   5   36.21    1.95
  -7  14  -5    5.70    1.02
   5  13  -5    5.43    0.92
  -5 -13   5    5.68    1.03
   4  13  -5    0.42    0.68
  -4 -13   5   -0.64    0.70
   3  13  -5    9.84    1.08
  -3 -13   5    9.66    1.15
   2  13  -5   14.34    1.22
  -2 -13   5   11.94    1.24
   1  13  -5    2.55    0.72
  -1 -13   5    1.83    0.80
   0  13  -5   22.42    1.46
   0 -13   5   21.36    1.58
  -1  13  -5   27.40    1.61
   1 -13   5   27.12    1.69
  -2  13  -5    0.87    0.68
   2 -13   5    1.08    0.71
  -3  13  -5   12.23    1.14
   3 -13   5   12.13    1.19
  -4  13  -5   23.17    1.56
   4 -13   5   21.79    1.56
  -5  13  -5    2.72    0.80
   5 -13   5    2.28    0.78
  -6  13  -5   10.88    1.13
   6 -13   5    9.64    1.05
  -7  13  -5   19.45    1.52
   7 -13   5   17.04    1.38
  -8  13  -5   -1.09    0.72
  -7 -12   5   -0.66    0.76
   6  12  -5    6.48    0.92
  -6 -12   5    6.20    1.03
   5  12  -5    4.63    0.84
  -5 -12   5    5.86    1.01
  -5 -12   5    6.34    1.01
   4  12  -5   -0.55    0.59
  -4 -12   5    1.32    0.76
   3  12  -5   27.16    1.59
  -3 -12   5   25.74    1.64
   2  12  -5   12.43    1.16
  -2 -12   5   14.12    1.25
   1  12  -5   -0.30    0.55
  -1 -12   5    0.41    0.73
   0  12  -5   28.11    1.55
   0 -12   5   30.13    1.69
  -1  12  -5   18.98    1.31
   1 -12   5   18.27    1.40
  -2  12  -5   -1.16    0.53
   2 -12   5    0.13    0.66
  -3  12  -5   14.86    1.26
   3 -12   5   16.60    1.33
  -4  12  -5    5.23    0.86
   4 -12   5    4.64    0.85
  -5  12  -5   -0.72    0.62
   5 -12   5    0.21    0.62
  -6  12  -5   18.51    1.40
   6 -12   5   17.68    1.34
  -7  12  -5   16.07    1.36
   7 -12   5   14.54    1.28
  -8  12  -5    2.51    0.82
   8 -12   5    2.41    0.73
  -9  12  -5   16.41    1.44
  -8 -11   5    3.74    0.96
   7  11  -5    0.48    0.65
  -7 -11   5    0.26    0.88
  -7 -11   5    1.56    0.82
   6  11  -5   18.31    1.34
  -6 -11   5   15.10    1.41
  -6 -11   5   17.51    1.47
   5  11  -5   20.61    1.39
  -5 -11   5   23.17    1.56
  -5 -11   5   23.45    1.68
   4  11  -5    0.63    0.61
  -4 -11   5    1.08    0.77
  -4 -11   5    1.13    0.72
   3  11  -5   41.29    1.83
  -3 -11   5   37.32    1.87
   2  11  -5   41.41    1.86
  -2 -11   5   43.44    1.95
   1  11  -5    3.10    0.68
  -1 -11   5    4.82    0.82
   0  11  -5   28.41    1.46
   0 -11   5   26.72    1.56
  -1  11  -5   34.76    1.60
   1 -11   5   30.99    1.64
  -2  11  -5    4.06    0.74
   2 -11   5    5.59    0.83
  -3  11  -5   11.15    1.02
   3 -11   5   10.66    1.03
  -4  11  -5   25.98    1.47
   4 -11   5   29.26    1.54
  -5  11  -5   11.44    1.01
   5 -11   5   10.87    1.04
  -6  11  -5    7.13    0.88
   6 -11   5    8.07    0.92
  -7  11  -5   39.56    1.87
   7 -11   5   39.80    1.84
  -8  11  -5    6.78    0.93
   8 -11   5    4.90    0.79
  -9  11  -5    5.63    0.93
 -10  11  -5   20.64    1.51
  -9 -10   5    1.49    0.84
  -8 -10   5    5.23    1.08
  -8 -10   5    5.95    0.99
   7  10  -5    3.44    0.74
  -7 -10   5    4.58    1.04
  -7 -10   5    3.65    0.89
   6  10  -5    8.91    0.93
  -6 -10   5    7.34    1.10
  -6 -10   5    9.60    1.07
   5  10  -5   28.40    1.51
  -5 -10   5   27.50    1.59
  -5 -10   5   28.20    1.74
   4  10  -5   -0.09    0.53
  -4 -10   5    0.69    0.63
  -4 -10   5   -0.16    0.71
   3  10  -5    9.38    0.87
  -3 -10   5    9.39    1.01
  -3 -10   5   11.63    1.03
   2  10  -5   19.19    1.10
   2  10  -5   21.81    1.28
  -2 -10   5   22.12    1.36
   1  10  -5   10.25    0.92
  -1 -10   5    8.91    0.96
   0  10  -5    5.55    0.71
   0 -10   5    5.28    0.78
  -1  10  -5   13.15    1.01
  -1  10  -5   14.18    1.22
   1 -10   5   14.52    1.16
  -2  10  -5   32.15    1.51
  -2  10  -5   30.37    1.60
   2 -10   5   33.73    1.59
  -3  10  -5   13.79    1.11
   3 -10   5   14.49    1.13
  -4  10  -5   25.15    1.38
   4 -10   5   28.81    1.46
  -5  10  -5   27.28    1.42
   5 -10   5   26.29    1.42
  -6  10  -5    5.93    0.80
   6 -10   5    5.92    0.79
  -7  10  -5   31.73    1.62
   7 -10   5   30.26    1.57
  -8  10  -5   11.61    1.07
   8 -10   5   10.84    1.03
  -9  10  -5    2.59    0.76
   9 -10   5    1.91    0.64
 -10  10  -5   12.01    1.08
 -10  10  -5   15.84    1.36
 -10  -9   5    0.75    0.74
  -9  -9   5    1.08    0.93
  -9  -9   5    0.07    0.70
   8   9  -5    9.69    1.02
  -8  -9   5   10.28    1.15
  -8  -9   5   12.12    1.27
   7   9  -5    0.31    0.52
  -7  -9   5    0.11    0.76
  -7  -9   5   -0.22    0.64
   6   9  -5    6.75    0.81
  -6  -9   5    6.96    1.05
  -6  -9   5    7.27    0.92
   5   9  -5   29.94    1.48
  -5  -9   5   32.67    1.76
  -5  -9   5   29.95    1.58
   4   9  -5    1.03    0.54
  -4  -9   5    2.03    0.62
  -4  -9   5    1.50    0.72
   3   9  -5    3.08    0.61
  -3  -9   5    2.62    0.65
  -3  -9   5    2.72    0.74
   2   9  -5   46.04    1.88
   2   9  -5   46.31    1.81
  -2  -9   5   47.28    1.90
   1   9  -5    2.87    0.64
   1   9  -5    2.61    0.59
  -1  -9   5    2.25    0.63
   0   9  -5    6.97    0.79
   0   9  -5    8.55    0.88
   0  -9   5    9.35    0.90
  -1   9  -5   99.60    3.20
  -1   9  -5   98.61    3.09
   1  -9   5   96.76    3.14
  -2   9  -5   12.36    0.98
  -2   9  -5   13.53    1.11
   2  -9   5   12.16    0.97
  -3   9  -5    4.07    0.66
  -3   9  -5    4.29    0.71
   3  -9   5    4.63    0.70
  -4   9  -5  115.45    3.58
   4  -9   5  118.36    3.62
  -5   9  -5   11.78    1.01
   5  -9   5   11.57    0.95
  -6   9  -5    0.41    0.57
   6  -9   5    0.01    0.50
  -7   9  -5   64.80    2.37
   7  -9   5   61.91    2.32
  -8   9  -5   19.61    1.33
   8  -9   5   18.43    1.26
  -9   9  -5    0.59    0.65
   9  -9   5    0.46    0.54
 -10   9  -5   26.25    1.60
 -10   9  -5   27.63    1.54
 -11   9  -5    4.70    0.86
 -11   9  -5    6.74    1.00
 -10  -8   5    3.27    0.85
  -9  -8   5    3.43    0.94
  -9  -8   5    2.08    0.79
   8   8  -5   28.69    1.43
  -8  -8   5   28.54    1.80
  -8  -8   5   27.09    1.59
   7   8  -5   13.89    1.04
  -7  -8   5   12.89    1.23
  -7  -8   5   13.80    1.18
   6   8  -5    5.66    0.77
  -6  -8   5    4.04    0.85
  -6  -8   5    5.10    0.80
   5   8  -5   43.34    1.70
  -5  -8   5   40.76    1.90
  -5  -8   5   42.09    1.70
  -5  -8   5   40.46    1.78
   4   8  -5   69.90    2.40
  -4  -8   5   72.55    2.61
  -4  -8   5   72.33    2.48
  -4  -8   5   70.46    2.41
   3   8  -5    6.29    0.73
   3   8  -5    5.21    0.55
   3   8  -5    6.44    0.71
  -3  -8   5    6.05    0.72
  -3  -8   5    5.14    0.64
  -3  -8   5    5.27    0.81
   2   8  -5   30.91    1.35
   2   8  -5   33.29    1.46
  -2  -8   5   29.73    1.45
  -2  -8   5   31.49    1.37
  -2  -8   5   30.54    1.43
   1   8  -5   33.00    1.38
   1   8  -5   34.24    1.48
  -1  -8   5   32.59    1.46
  -1  -8   5   32.08    1.36
   0   8  -5    3.74    0.66
   0   8  -5    2.89    0.53
   0  -8   5    3.38    0.60
   0  -8   5    2.78    0.48
  -1   8  -5   41.38    1.57
  -1   8  -5   43.42    1.71
   1  -8   5   40.55    1.55
   1  -8   5   39.22    1.62
  -2   8  -5  110.08    3.40
  -2   8  -5  114.27    3.48
   2  -8   5  115.92    3.46
  -3   8  -5   -0.28    0.41
   3  -8   5    1.23    0.50
  -4   8  -5   42.93    1.70
   4  -8   5   46.07    1.75
  -5   8  -5   53.82    2.02
   5  -8   5   56.61    2.04
  -6   8  -5   -0.20    0.51
   6  -8   5    0.38    0.50
  -7   8  -5   14.18    1.11
   7  -8   5   12.89    1.05
  -8   8  -5   63.51    2.39
   8  -8   5   66.71    2.38
  -9   8  -5    1.50    0.67
  -9   8  -5    1.51    0.63
   9  -8   5    1.69    0.60
 -10   8  -5   10.82    1.06
 -10   8  -5    9.60    0.96
  10  -8   5    9.77    0.96
 -11   8  -5   19.66    1.43
 -11   8  -5   22.68    1.52
 -11  -7   5    5.76    0.97
 -10  -7   5   19.54    1.66
 -10  -7   5   17.03    1.40
  -9  -7   5    0.60    0.74
  -9  -7   5    0.83    0.65
   8   7  -5   17.10    1.10
  -8  -7   5   16.54    1.24
  -8  -7   5   17.98    1.49
   7   7  -5   36.06    1.52
  -7  -7   5   34.20    1.53
  -7  -7   5   35.18    1.82
  -7  -7   5   34.68    1.63
   6   7  -5    1.25    0.50
  -6  -7   5    0.16    0.43
  -6  -7   5   -0.09    0.64
  -6  -7   5    1.64    0.59
   5   7  -5   27.17    1.27
  -5  -7   5   26.50    1.36
  -5  -7   5   27.65    1.28
  -5  -7   5   26.24    1.47
   4   7  -5   60.08    2.07
   4   7  -5   62.97    2.16
  -4  -7   5   58.69    2.14
  -4  -7   5   59.19    2.22
  -4  -7   5   64.66    2.12
   3   7  -5    0.03    0.46
   3   7  -5   -0.14    0.36
   3   7  -5   -0.12    0.39
  -3  -7   5   -0.59    0.37
  -3  -7   5    0.15    0.44
  -3  -7   5   -0.52    0.51
   2   7  -5    7.78    0.66
   2   7  -5    7.40    0.72
   2   7  -5    8.73    0.79
  -2  -7   5    8.78    0.79
  -2  -7   5    7.09    0.72
  -2  -7   5    7.42    0.67
   1   7  -5   29.72    1.26
   1   7  -5   29.65    1.21
   1   7  -5   32.66    1.34
  -1  -7   5   27.98    1.28
  -1  -7   5   28.79    1.21
   0   7  -5    7.58    0.67
   0   7  -5    8.01    0.75
   0   7  -5    8.49    0.70
   0  -7   5    8.20    0.72
   0  -7   5    7.24    0.66
  -1   7  -5   36.41    1.42
  -1   7  -5   37.88    1.52
  -1   7  -5   38.05    1.44
   1  -7   5   38.01    1.49
   1  -7   5   39.15    1.43
  -2   7  -5  106.89    3.16
  -2   7  -5  106.57    3.18
  -2   7  -5  100.90    3.12
   2  -7   5  108.69    3.15
   2  -7   5  104.01    3.17
  -3   7  -5    6.96    0.66
  -3   7  -5    7.39    0.68
   3  -7   5    6.94    0.67
  -4   7  -5   32.69    1.41
   4  -7   5   33.66    1.42
  -5   7  -5   30.87    1.40
   5  -7   5   31.48    1.41
  -6   7  -5    0.15    0.50
   6  -7   5    0.01    0.45
  -7   7  -5   39.67    1.68
   7  -7   5   37.78    1.64
  -8   7  -5   32.29    1.58
  -8   7  -5   32.14    1.48
   8  -7   5   32.94    1.53
  -9   7  -5    4.29    0.76
  -9   7  -5    2.36    0.66
   9  -7   5    4.01    0.72
 -10   7  -5    9.60    0.95
 -10   7  -5    9.95    1.03
  10  -7   5   10.25    0.98
 -11   7  -5   23.41    1.55
 -11   7  -5   21.42    1.46
 -12  -6   5    1.30    0.74
 -11  -6   5   14.58    1.41
 -11  -6   5   14.14    1.22
 -10  -6   5   12.22    1.12
 -10  -6   5   11.46    1.18
   9   6  -5    0.18    0.47
  -9  -6   5    0.87    0.74
  -9  -6   5   -0.24    0.57
   8   6  -5   38.15    1.56
  -8  -6   5   37.46    1.68
  -8  -6   5   39.46    1.87
  -8  -6   5   37.15    1.57
   7   6  -5   10.13    0.85
  -7  -6   5   11.30    0.87
  -7  -6   5   10.14    0.91
  -7  -6   5   11.78    1.02
   6   6  -5    4.01    0.57
  -6  -6   5    3.27    0.72
  -6  -6   5    4.68    0.62
  -6  -6   5    4.94    0.68
   5   6  -5   58.47    2.02
   5   6  -5   54.77    1.91
  -5  -6   5   56.11    2.10
  -5  -6   5   55.04    2.00
  -5  -6   5   57.83    1.96
   4   6  -5   38.38    1.53
   4   6  -5   38.57    1.46
  -4  -6   5   39.40    1.54
  -4  -6   5   39.37    1.60
  -4  -6   5   41.34    1.51
   3   6  -5   25.32    1.16
   3   6  -5   23.75    1.10
   3   6  -5   26.52    1.14
   3   6  -5   27.07    1.11
  -3  -6   5   25.39    1.24
  -3  -6   5   28.10    1.17
  -3  -6   5   24.11    1.15
   2   6  -5   64.55    2.02
   2   6  -5   62.26    1.96
   2   6  -5   61.88    2.17
   2   6  -5   57.89    1.99
  -2  -6   5   59.01    2.01
  -2  -6   5   65.13    1.98
  -2  -6   5   58.87    2.05
   1   6  -5  115.74    3.38
   1   6  -5  115.61    3.34
   1   6  -5  114.39    3.38
  -1  -6   5  115.00    3.39
  -1  -6   5  120.51    3.36
   0   6  -5   42.24    1.50
   0   6  -5   41.94    1.54
   0   6  -5   42.09    1.47
   0  -6   5   44.07    1.49
   0  -6   5   43.40    1.53
  -1   6  -5  102.01    3.04
  -1   6  -5  102.69    3.03
  -1   6  -5  105.09    3.08
   1  -6   5  103.97    3.06
   1  -6   5  105.42    3.03
  -2   6  -5  109.40    3.26
  -2   6  -5  113.36    3.29
   2  -6   5  114.82    3.27
   2  -6   5  111.40    3.29
  -3   6  -5   36.48    1.39
  -3   6  -5   37.01    1.38
   3  -6   5   34.18    1.38
  -4   6  -5   26.80    1.22
  -4   6  -5   27.74    1.19
   4  -6   5   26.56    1.23
  -5   6  -5   83.74    2.67
   5  -6   5   84.05    2.68
  -6   6  -5   21.01    1.16
   6  -6   5   19.42    1.14
  -7   6  -5   23.99    1.31
  -7   6  -5   26.03    1.24
   7  -6   5   25.26    1.29
  -8   6  -5   43.38    1.83
  -8   6  -5   43.05    1.73
   8  -6   5   41.92    1.77
  -9   6  -5   11.39    0.94
  -9   6  -5   11.87    1.05
   9  -6   5   12.58    1.05
 -10   6  -5    6.79    0.92
 -10   6  -5    5.45    0.80
  10  -6   5    6.13    0.81
 -11   6  -5   19.96    1.46
 -11   6  -5   17.73    1.37
 -12  -5   5    2.28    0.73
 -11  -5   5    7.27    0.90
 -11  -5   5    6.92    1.05
 -10  -5   5   13.19    1.23
 -10  -5   5   15.37    1.15
   9   5  -5    2.15    0.53
  -9  -5   5    2.94    0.78
  -9  -5   5    2.59    0.51
  -9  -5   5    2.84    0.63
   8   5  -5   20.96    1.10
  -8  -5   5   23.58    1.24
  -8  -5   5   22.23    1.12
  -8  -5   5   24.22    1.43
   7   5  -5   31.94    1.31
  -7  -5   5   30.88    1.57
  -7  -5   5   31.72    1.43
  -7  -5   5   33.41    1.35
  -7  -5   5   32.50    1.34
   6   5  -5   18.54    1.04
   6   5  -5   15.85    0.89
  -6  -5   5   16.56    1.01
  -6  -5   5   17.95    0.96
  -6  -5   5   16.80    1.15
   5   5  -5   18.75    0.98
   5   5  -5   18.95    0.92
   5   5  -5   17.86    1.01
  -5  -5   5   19.21    0.96
  -5  -5   5   20.98    1.04
  -5  -5   5   16.40    1.08
   4   5  -5   62.57    2.06
   4   5  -5   66.83    2.14
   4   5  -5   64.05    2.04
  -4  -5   5   65.97    2.19
  -4  -5   5   70.67    2.13
  -4  -5   5   65.22    2.12
   3   5  -5   71.70    2.19
   3   5  -5   67.23    2.11
   3   5  -5   72.03    2.37
   3   5  -5   67.76    2.16
  -3  -5   5   69.56    2.23
  -3  -5   5   74.52    2.18
  -3  -5   5   66.37    2.18
   2   5  -5   30.94    1.14
   2   5  -5   33.88    1.34
   2   5  -5   31.68    1.21
   2   5  -5   32.43    1.21
  -2  -5   5   31.61    1.22
  -2  -5   5   32.39    1.26
  -2  -5   5   34.07    1.19
   1   5  -5  158.94    4.38
   1   5  -5  152.73    4.36
   1   5  -5  154.23    4.33
  -1  -5   5  157.72    4.40
  -1  -5   5  166.16    4.36
  -1  -5   5  158.68    4.38
   0   5  -5  118.56    3.50
   0   5  -5  128.25    3.52
   0   5  -5  126.50    3.50
   0  -5   5  120.16    3.52
   0  -5   5  127.92    3.50
  -1   5  -5   44.41    1.48
  -1   5  -5   43.96    1.50
  -1   5  -5   43.38    1.48
   1  -5   5   43.57    1.51
   1  -5   5   46.05    1.49
  -2   5  -5   40.22    1.46
  -2   5  -5   43.00    1.47
   2  -5   5   42.22    1.49
   2  -5   5   43.58    1.46
  -3   5  -5  105.97    3.09
  -3   5  -5  102.72    3.07
   3  -5   5  103.45    3.10
   3  -5   5  106.52    3.06
  -4   5  -5   15.88    0.89
  -4   5  -5   16.32    0.92
   4  -5   5   16.38    0.93
   4  -5   5   14.46    0.85
  -5   5  -5   46.58    1.72
  -5   5  -5   48.04    1.76
   5  -5   5   49.03    1.77
  -6   5  -5   36.49    1.54
  -6   5  -5   38.01    1.46
   6  -5   5   37.68    1.55
  -7   5  -5    1.51    0.57
  -7   5  -5    2.02    0.53
   7  -5   5    2.14    0.55
  -8   5  -5   18.27    1.22
  -8   5  -5   17.63    1.13
   8  -5   5   18.84    1.17
  -9   5  -5   30.59    1.48
  -9   5  -5   30.20    1.58
   9  -5   5   29.83    1.52
 -10   5  -5    2.87    0.73
 -10   5  -5    1.18    0.67
  10  -5   5    1.52    0.61
 -11   5  -5    9.66    1.09
 -11   5  -5    8.74    1.00
 -13  -4   5   13.39    1.18
 -12  -4   5    2.44    0.69
 -12  -4   5    2.55    0.89
 -11  -4   5    2.15    0.78
 -11  -4   5    0.83    0.57
 -10  -4   5   20.99    1.47
 -10  -4   5   20.80    1.24
 -10  -4   5   21.37    1.16
   9   4  -5    3.20    0.52
  -9  -4   5    3.56    0.54
  -9  -4   5    2.73    0.76
  -9  -4   5    3.61    0.53
  -9  -4   5    4.22    0.64
   8   4  -5    4.69    0.56
  -8  -4   5    4.79    0.55
  -8  -4   5    3.89    0.76
  -8  -4   5    5.09    0.65
  -8  -4   5    4.69    0.59
   7   4  -5   97.34    2.92
   7   4  -5   98.31    3.08
  -7  -4   5   97.35    2.99
  -7  -4   5   96.98    3.13
  -7  -4   5   99.65    3.24
  -7  -4   5  100.34    2.94
   6   4  -5   19.39    1.03
   6   4  -5   18.49    0.88
   6   4  -5   18.10    0.85
  -6  -4   5   19.96    0.97
  -6  -4   5   18.44    0.92
  -6  -4   5   19.36    1.01
  -6  -4   5   19.09    1.12
   5   4  -5    1.14    0.33
   5   4  -5    1.10    0.42
   5   4  -5    1.98    0.36
  -5  -4   5    1.42    0.41
  -5  -4   5    2.37    0.46
  -5  -4   5    1.99    0.51
  -5  -4   5    1.39    0.38
   4   4  -5   79.80    2.38
   4   4  -5   74.65    2.26
   4   4  -5   77.53    2.30
  -4  -4   5   77.08    2.41
  -4  -4   5   82.84    2.36
  -4  -4   5   74.63    2.34
   3   4  -5   94.93    2.72
   3   4  -5   91.26    2.70
   3   4  -5   96.85    3.05
   3   4  -5   92.39    2.65
  -3  -4   5   92.03    2.75
  -3  -4   5   97.34    2.69
  -3  -4   5   89.08    2.70
   2   4  -5   16.96    0.79
   2   4  -5   18.92    0.94
   2   4  -5   17.35    0.73
   2   4  -5   17.45    0.79
  -2  -4   5   17.38    0.84
  -2  -4   5   18.11    0.77
  -2  -4   5   16.66    0.80
   1   4  -5  300.08    8.02
   1   4  -5  308.04    8.08
   1   4  -5  305.26    8.06
  -1  -4   5  294.78    8.05
  -1  -4   5  314.99    8.04
  -1  -4   5  303.67    8.10
   0   4  -5   10.53    0.63
   0   4  -5   10.98    0.61
   0   4  -5   10.51    0.62
   0  -4   5   12.33    0.64
   0  -4   5   10.77    0.64
  -1   4  -5    7.11    0.55
  -1   4  -5    6.54    0.56
   1  -4   5    6.49    0.54
   1  -4   5    6.34    0.56
  -2   4  -5  114.37    3.23
  -2   4  -5  112.39    3.22
   2  -4   5  108.55    3.23
   2  -4   5  115.39    3.22
  -3   4  -5   16.31    0.85
  -3   4  -5   15.37    0.83
   3  -4   5   15.26    0.80
   3  -4   5   15.29    0.85
  -4   4  -5    0.72    0.38
  -4   4  -5    0.29    0.41
   4  -4   5    0.64    0.35
   4  -4   5    0.75    0.40
  -5   4  -5  109.22    3.30
  -5   4  -5  107.22    3.28
  -5   4  -5  110.68    3.18
   5  -4   5  112.88    3.32
  -6   4  -5   31.31    1.28
  -6   4  -5   30.27    1.40
   6  -4   5   32.36    1.41
  -7   4  -5   -0.56    0.44
  -7   4  -5    0.49    0.52
   7  -4   5    0.69    0.47
  -8   4  -5   51.62    1.97
  -8   4  -5   55.98    2.11
   8  -4   5   55.10    2.07
  -9   4  -5   21.25    1.34
  -9   4  -5   17.94    1.21
   9  -4   5   19.80    1.24
 -10   4  -5    4.07    0.78
 -10   4  -5    4.14    0.80
  10  -4   5    3.90    0.73
 -11   4  -5   23.39    1.53
 -11   4  -5   17.84    1.41
 -13  -3   5   11.82    1.06
 -12  -3   5    5.65    1.03
 -12  -3   5    8.98    0.88
 -11  -3   5    0.83    0.55
 -11  -3   5    0.82    0.72
 -10  -3   5   46.25    1.76
 -10  -3   5   44.59    1.65
 -10  -3   5   46.08    2.01
   9   3  -5   22.22    1.03
  -9  -3   5   22.99    1.36
  -9  -3   5   22.42    1.14
  -9  -3   5   23.90    1.05
   8   3  -5    1.01    0.38
  -8  -3   5    1.38    0.45
  -8  -3   5    1.60    0.40
  -8  -3   5    1.46    0.58
   7   3  -5  113.65    3.30
   7   3  -5  116.92    3.54
   7   3  -5  116.27    3.35
  -7  -3   5  115.48    3.59
  -7  -3   5  122.42    3.44
  -7  -3   5  123.04    3.38
  -7  -3   5  121.88    3.85
   6   3  -5   86.15    2.64
   6   3  -5   87.04    2.44
   6   3  -5   84.70    2.46
  -6  -3   5   83.51    2.66
  -6  -3   5   85.11    2.50
  -6  -3   5   84.72    2.54
  -6  -3   5   84.44    2.84
   5   3  -5    1.14    0.30
   5   3  -5    1.23    0.38
  -5  -3   5    2.37    0.38
  -5  -3   5    1.36    0.44
  -5  -3   5    1.86    0.40
  -5  -3   5    0.79    0.38
   4   3  -5   53.08    1.61
   4   3  -5   53.42    1.70
   4   3  -5   53.35    1.58
  -4  -3   5   50.00    1.65
  -4  -3   5   51.63    1.88
  -4  -3   5   56.99    1.67
  -4  -3   5   54.65    1.73
   3   3  -5  208.05    5.58
   3   3  -5  214.40    6.34
   3   3  -5  203.54    5.52
   3   3  -5  201.31    5.46
  -3  -3   5  200.03    5.52
  -3  -3   5  217.35    5.51
  -3  -3   5  202.11    5.58
   2   3  -5   12.51    0.76
   2   3  -5   12.02    0.60
   2   3  -5   10.72    0.55
   2   3  -5   10.13    0.57
  -2  -3   5   10.82    0.61
  -2  -3   5   11.24    0.57
  -2  -3   5   10.38    0.59
   1   3  -5  108.32    3.03
   1   3  -5  111.55    3.06
   1   3  -5  109.19    3.00
  -1  -3   5  106.42    3.05
  -1  -3   5  110.52    3.04
  -1  -3   5  116.50    3.06
   0   3  -5   98.00    2.78
   0   3  -5   95.31    2.78
   0  -3   5  103.84    2.79
   0  -3   5   98.71    2.79
  -1   3  -5    3.48    0.40
  -1   3  -5    3.29    0.41
   1  -3   5    3.45    0.40
   1  -3   5    2.60    0.39
  -2   3  -5   66.50    2.06
  -2   3  -5   67.84    2.06
   2  -3   5   67.37    2.08
   2  -3   5   69.23    2.06
  -3   3  -5  123.18    3.43
  -3   3  -5  124.24    3.56
  -3   3  -5  125.29    3.56
   3  -3   5  127.28    3.55
   3  -3   5  124.82    3.58
  -4   3  -5    7.26    0.58
  -4   3  -5    7.48    0.63
  -4   3  -5    6.11    0.61
   4  -3   5    8.15    0.68
   4  -3   5    7.06    0.59
  -5   3  -5   22.20    1.07
  -5   3  -5   21.79    1.11
  -5   3  -5   21.13    0.97
   5  -3   5   21.77    1.10
  -6   3  -5  161.39    4.65
  -6   3  -5  166.22    4.77
   6  -3   5  167.36    4.77
  -7   3  -5    0.79    0.52
  -7   3  -5    0.00    0.47
   7  -3   5    0.49    0.48
  -8   3  -5   21.90    1.23
  -8   3  -5   22.95    1.33
   8  -3   5   23.68    1.29
  -9   3  -5   43.13    1.80
  -9   3  -5   43.04    1.90
   9  -3   5   41.70    1.82
 -10   3  -5    4.81    0.86
 -10   3  -5    7.61    0.92
  10  -3   5    6.92    0.89
 -11   3  -5    3.29    0.85
 -11   3  -5    5.21    0.90
 -13  -2   5    9.97    0.93
 -12  -2   5   19.90    1.18
 -12  -2   5   18.85    1.50
 -11  -2   5    0.41    0.70
 -11  -2   5    0.75    0.51
  10   2  -5   16.52    0.86
 -10  -2   5   15.19    1.25
 -10  -2   5   16.73    1.00
 -10  -2   5   18.31    0.91
   9   2  -5   75.82    2.41
  -9  -2   5   86.29    2.52
  -9  -2   5   80.10    2.75
  -9  -2   5   82.41    2.45
   8   2  -5    0.30    0.41
   8   2  -5   -0.21    0.25
   8   2  -5   -0.18    0.27
  -8  -2   5    0.41    0.31
  -8  -2   5   -0.50    0.33
  -8  -2   5   -0.18    0.49
   7   2  -5    9.50    0.54
   7   2  -5   10.51    0.58
   7   2  -5   10.39    0.79
  -7  -2   5   10.14    0.69
  -7  -2   5   11.23    0.63
  -7  -2   5   11.57    0.91
   6   2  -5  158.17    4.43
   6   2  -5  162.00    4.18
  -6  -2   5  149.63    4.26
  -6  -2   5  159.59    4.25
  -6  -2   5  152.42    4.44
   5   2  -5    6.01    0.40
   5   2  -5    6.21    0.52
  -5  -2   5    6.68    0.65
  -5  -2   5    5.74    0.55
  -5  -2   5    6.22    0.49
  -5  -2   5    6.00    0.48
   4   2  -5   27.75    0.89
   4   2  -5   27.73    1.02
  -4  -2   5   28.09    0.95
  -4  -2   5   26.94    1.16
  -4  -2   5   28.20    0.96
  -4  -2   5   26.62    1.03
   3   2  -5   84.19    2.31
   3   2  -5   83.89    2.40
   3   2  -5   81.29    2.36
  -3  -2   5   85.36    2.41
  -3  -2   5   84.38    2.80
  -3  -2   5   90.93    2.35
  -3  -2   5   83.49    2.35
   2   2  -5    3.08    0.47
   2   2  -5    3.29    0.33
   2   2  -5    4.10    0.32
   2   2  -5    3.37    0.30
  -2  -2   5    4.16    0.35
  -2  -2   5    3.46    0.32
  -2  -2   5    3.69    0.32
   1   2  -5    4.57    0.40
   1   2  -5    5.78    0.55
   1   2  -5    4.71    0.37
  -1  -2   5    4.67    0.38
  -1  -2   5    4.79    0.42
   0   2  -5  182.88    4.89
   0   2  -5  185.32    4.90
   0  -2   5  178.46    4.90
   0  -2   5  184.49    4.89
  -1   2  -5    9.44    0.58
  -1   2  -5    9.66    0.59
   1  -2   5    8.43    0.58
   1  -2   5   10.13    0.59
  -2   2  -5   27.83    1.04
  -2   2  -5   26.49    1.03
   2  -2   5   25.77    1.01
   2  -2   5   26.63    1.05
  -3   2  -5  132.92    3.76
  -3   2  -5  131.62    3.76
   3  -2   5  131.18    3.76
   3  -2   5  134.78    3.74
  -4   2  -5    7.48    0.66
  -4   2  -5    8.54    0.69
  -4   2  -5    7.94    0.60
   4  -2   5    8.20    0.67
   4  -2   5    7.34    0.65
  -5   2  -5   14.09    0.93
  -5   2  -5   12.71    0.80
  -5   2  -5   12.48    0.85
   5  -2   5   13.72    0.90
  -6   2  -5   50.59    1.87
  -6   2  -5   48.19    1.74
   6  -2   5   51.17    1.86
  -7   2  -5   11.63    0.98
  -7   2  -5   10.66    0.91
   7  -2   5   10.76    0.90
  -8   2  -5    6.76    0.79
  -8   2  -5    8.66    0.89
   8  -2   5    8.44    0.89
  -9   2  -5   32.12    1.61
  -9   2  -5   30.66    1.55
   9  -2   5   29.87    1.57
 -10   2  -5    7.67    0.98
 -10   2  -5    6.38    0.92
  10  -2   5    7.58    0.92
 -11   2  -5   -0.43    0.66
 -11   2  -5   -0.79    0.71
 -14  -1   5    0.33    0.58
 -13  -1   5   17.67    1.53
 -13  -1   5   17.04    1.14
 -12  -1   5    9.51    1.06
 -12  -1   5   10.52    0.85
 -11  -1   5    1.40    0.68
 -11  -1   5    1.12    0.48
 -10  -1   5   22.03    0.97
 -10  -1   5   21.36    1.03
 -10  -1   5   21.50    1.34
   9   1  -5   34.55    1.30
  -9  -1   5   43.87    1.46
  -9  -1   5   45.06    1.41
  -9  -1   5   43.65    1.75
  -8  -1   5   16.47    0.80
  -8  -1   5   16.07    0.73
  -8  -1   5   16.38    1.08
   7   1  -5   29.86    1.21
  -7  -1   5   27.72    1.00
  -7  -1   5   27.18    1.23
  -7  -1   5   26.67    0.94
   6   1  -5   74.94    2.28
  -6  -1   5   74.28    2.31
  -6  -1   5   74.96    2.08
  -6  -1   5   72.19    2.11
   5   1  -5   29.88    1.13
  -5  -1   5   30.55    1.01
  -5  -1   5   31.87    1.16
  -5  -1   5   32.03    0.99
   4   1  -5  193.21    5.24
  -4  -1   5  194.16    5.25
  -4  -1   5  195.72    5.09
  -4  -1   5  192.58    5.99
   3   1  -5   38.75    1.22
  -3  -1   5   39.28    1.15
  -3  -1   5   39.81    1.23
  -3  -1   5   40.68    1.14
  -3  -1   5   38.80    1.51
   2   1  -5   50.82    1.77
   2   1  -5   47.55    1.38
   2   1  -5   47.26    1.39
  -2  -1   5   48.33    1.78
  -2  -1   5   47.71    1.40
  -2  -1   5   49.69    1.40
   1   1  -5  106.15    2.88
   1   1  -5  103.21    2.87
   1   1  -5  104.21    3.41
  -1  -1   5  107.36    2.90
  -1  -1   5  108.29    2.89
   0   1  -5  175.74    4.71
   0   1  -5  167.32    4.69
   0   1  -5  180.47    5.48
   0  -1   5  177.79    4.70
   0  -1   5  176.97    4.72
  -1   1  -5    9.66    0.59
  -1   1  -5   10.30    0.60
   1  -1   5    9.17    0.60
   1  -1   5   10.57    0.60
  -2   1  -5   25.99    1.01
  -2   1  -5   24.06    0.99
   2  -1   5   24.90    1.02
   2  -1   5   25.69    0.99
  -3   1  -5  167.19    4.62
  -3   1  -5  167.65    4.62
  -3   1  -5  164.49    4.50
   3  -1   5  163.09    4.62
   3  -1   5  169.02    4.61
  -4   1  -5   22.83    0.94
  -4   1  -5   23.08    1.04
  -4   1  -5   21.66    1.05
   4  -1   5   22.33    1.06
   4  -1   5   21.27    1.01
  -5   1  -5   22.15    1.01
  -5   1  -5   21.03    1.12
   5  -1   5   21.30    1.09
  -6   1  -5   49.04    1.86
  -6   1  -5   49.93    1.77
   6  -1   5   49.44    1.86
  -7   1  -5   21.27    1.23
  -7   1  -5   20.25    1.16
   7  -1   5   21.27    1.21
  -8   1  -5    0.82    0.59
  -8   1  -5    0.90    0.59
   8  -1   5    1.26    0.57
  -9   1  -5   32.36    1.63
  -9   1  -5   35.77    1.72
   9  -1   5   34.14    1.67
 -10   1  -5    7.73    0.98
 -10   1  -5    7.40    0.97
  10  -1   5    8.04    0.94
 -11   1  -5   -0.84    0.62
 -11   1  -5   -0.23    0.73
 -14   0   5    0.18    0.52
 -13   0   5    9.40    0.82
 -13   0   5    9.54    1.11
 -12   0   5   36.04    1.82
 -12   0   5   37.14    1.49
 -11   0   5   13.36    1.12
 -11   0   5   13.44    0.87
 -10   0   5   14.62    0.76
 -10   0   5   14.32    0.82
 -10   0   5   14.76    1.15
  -9   0   5   45.45    1.44
  -9   0   5   43.82    1.79
  -8   0   5   49.70    1.54
  -8   0   5   48.96    1.83
  -8   0   5   49.93    1.51
  -7   0   5   21.57    1.08
  -6   0   5  148.96    4.21
  -5   0   5   87.09    2.55
  -4   0   5   42.52    1.35
  -4   0   5   42.04    1.62
  -3   0   5   85.72    2.86
  -3   0   5   86.04    2.39
   2   0  -5  148.97    3.91
   2   0  -5  144.64    4.64
  -2   0   5  147.98    4.66
  -2   0   5  151.78    3.93
  -2   0   5  149.29    3.92
   1   0  -5   18.96    0.92
   1   0  -5   17.58    0.67
   1   0  -5   18.59    0.69
  -1   0   5   17.16    0.69
  -1   0   5   18.61    0.70
   0   0  -5  143.31    4.03
   0   0  -5  146.79    4.69
   0   0  -5  153.11    4.05
   0   0   5  147.77    4.05
   0   0   5  155.51    4.04
  -1   0  -5  241.49    6.41
  -1   0  -5  236.75    6.41
   1   0   5  237.57    6.42
   1   0   5  245.84    6.40
  -2   0  -5   24.40    1.00
  -2   0  -5   24.71    1.01
   2   0   5   25.57    0.99
   2   0   5   23.45    1.00
  -3   0  -5   36.87    1.34
  -3   0  -5   37.00    1.24
  -3   0  -5   33.29    1.33
   3   0   5   36.52    1.36
   3   0   5   36.12    1.18
   3   0   5   36.47    1.31
  -4   0  -5   82.23    2.40
  -4   0  -5   80.80    2.49
  -4   0  -5   77.47    2.49
   4   0   5   78.17    2.45
   4   0   5   76.29    2.49
   4   0   5   81.13    2.34
  -5   0  -5    5.44    0.67
  -5   0  -5    5.35    0.60
   5   0   5    5.52    0.65
  -6   0  -5   30.23    1.42
  -6   0  -5   30.19    1.34
   6   0   5   31.26    1.43
  -7   0  -5   65.99    2.32
  -7   0  -5   67.07    2.40
   7   0   5   68.23    2.41
  -8   0  -5   -0.31    0.58
  -8   0  -5    1.64    0.63
   8   0   5    1.26    0.58
  -9   0  -5   11.54    1.09
  -9   0  -5   11.51    1.03
   9   0   5   10.74    1.05
 -10   0  -5   23.26    1.50
 -10   0  -5   19.15    1.49
  10   0   5   23.32    1.49
 -11   0  -5   -1.38    0.72
 -14   1   5    2.52    0.60
 -13   1   5   -0.19    0.72
 -12   1   5   33.18    1.74
 -11   1   5   21.23    1.37
 -11   1   5   22.06    0.96
 -10   1   5    0.80    0.31
 -10   1   5    0.87    0.58
  -9   1   5   16.19    1.11
  -9   1   5   18.03    0.75
  -9   1   5   17.37    0.79
  -8   1   5   52.88    1.91
  -8   1   5   54.55    1.59
  -7   1   5    7.11    0.63
  -6   1   5  115.40    3.34
  -5   1   5  116.18    3.29
  -3   1   5   25.04    1.14
   2  -1  -5   42.38    1.23
  -2   1   5   42.89    1.26
  -2   1   5   43.93    1.64
  -2   1   5   42.91    1.25
   1  -1  -5    1.45    0.38
   1  -1  -5    1.01    0.26
   1  -1  -5    1.07    0.25
  -1   1   5    1.46    0.43
  -1   1   5    1.22    0.27
  -1   1   5    0.99    0.26
   0  -1  -5   49.83    1.55
   0  -1  -5   50.71    1.83
   0  -1  -5   51.04    1.55
   0   1   5   51.89    1.55
   0   1   5   49.35    1.56
  -1  -1  -5  198.78    6.03
  -1  -1  -5  191.24    5.26
  -1  -1  -5  195.66    5.27
   1   1   5  197.35    5.26
   1   1   5  190.12    5.27
  -2  -1  -5   -0.10    0.32
  -2  -1  -5    0.60    0.35
  -2  -1  -5    0.02    0.30
   2   1   5   -0.08    0.29
   2   1   5    0.09    0.26
   2   1   5    0.01    0.31
  -3  -1  -5   18.50    0.96
  -3  -1  -5   18.27    0.91
  -3  -1  -5   18.86    0.89
   3   1   5   19.76    0.82
   3   1   5   18.99    0.91
   3   1   5   18.08    0.95
  -4  -1  -5   24.68    1.17
  -4  -1  -5   25.80    1.12
   4   1   5   22.72    1.14
   4   1   5   25.44    1.00
   4   1   5   23.36    1.08
  -5  -1  -5    0.05    0.48
  -5  -1  -5    0.42    0.47
   5   1   5    0.45    0.36
   5   1   5    0.47    0.46
  -6  -1  -5   28.40    1.37
  -6  -1  -5   28.82    1.42
   6   1   5   29.18    1.23
   6   1   5   29.91    1.41
  -7  -1  -5   41.13    1.79
  -7  -1  -5   44.73    1.86
   7   1   5   45.24    1.66
   7   1   5   43.16    1.84
  -8  -1  -5    5.26    0.82
  -8  -1  -5    5.93    0.83
   8   1   5    5.67    0.84
  -9  -1  -5    7.63    0.97
  -9  -1  -5    7.78    0.98
   9   1   5   10.69    1.07
 -10  -1  -5   14.84    1.29
 -10  -1  -5   17.72    1.44
  10   1   5   15.49    1.32
 -13   2   5   -0.24    0.71
 -12   2   5   39.44    1.84
 -12   2   5   37.33    1.42
 -11   2   5   17.81    0.89
 -11   2   5   18.42    0.86
 -11   2   5   18.07    1.30
 -10   2   5    2.93    0.40
 -10   2   5    2.71    0.38
 -10   2   5    2.98    0.65
  -9   2   5   83.85    2.74
  -8   2   5   17.82    1.04
  -7   2   5    0.82    0.42
  -6   2   5  198.54    5.47
  -3   2   5  111.92    3.68
  -3   2   5  113.15    2.99
   2  -2  -5   42.01    1.22
   2  -2  -5   39.92    1.22
  -2   2   5   40.21    1.24
  -2   2   5   40.95    1.61
  -2   2   5   42.69    1.24
   1  -2  -5    3.25    0.34
  -1   2   5    3.77    0.37
  -1   2   5    3.22    0.35
  -1   2   5    2.91    0.49
  -1   2   5    2.02    0.40
   0  -2  -5   80.67    2.41
   0  -2  -5   84.08    2.41
   0  -2  -5   82.26    2.76
   0   2   5   81.83    2.41
   0   2   5   85.75    2.39
   0   2   5   85.62    2.41
  -1  -2  -5   94.45    2.76
  -1  -2  -5   97.36    3.14
  -1  -2  -5   93.35    2.74
  -1  -2  -5   95.25    2.78
   1   2   5   99.35    2.70
   1   2   5   96.14    2.76
   1   2   5   92.42    2.77
  -2  -2  -5   42.78    1.50
  -2  -2  -5   44.76    1.54
  -2  -2  -5   42.14    1.67
  -2  -2  -5   45.67    1.52
   2   2   5   44.96    1.43
   2   2   5   41.98    1.53
   2   2   5   42.97    1.51
  -3  -2  -5   32.10    1.31
  -3  -2  -5   33.64    1.35
  -3  -2  -5   32.69    1.42
   3   2   5   33.95    1.22
   3   2   5   34.89    1.30
   3   2   5   31.37    1.32
  -4  -2  -5   63.88    2.16
  -4  -2  -5   63.56    2.11
   4   2   5   61.50    2.14
   4   2   5   61.96    1.99
  -5  -2  -5    1.17    0.56
  -5  -2  -5    1.57    0.52
   5   2   5    1.30    0.43
   5   2   5    1.74    0.53
  -6  -2  -5   15.30    1.13
  -6  -2  -5   17.19    1.17
   6   2   5   16.04    1.13
   6   2   5   16.08    0.96
  -7  -2  -5   41.08    1.81
  -7  -2  -5   38.82    1.77
   7   2   5   41.10    1.81
  -8  -2  -5    6.94    0.91
  -8  -2  -5    7.30    0.93
   8   2   5    5.79    0.84
  -9  -2  -5    3.10    0.81
   9   2   5    3.50    0.80
 -10  -2  -5    8.34    1.09
  10   2   5   10.14    1.12
 -14   3   5   19.39    1.09
 -13   3   5    1.38    0.76
 -13   3   5    0.84    0.45
 -12   3   5   16.15    1.29
 -12   3   5   15.11    0.87
 -11   3   5   61.45    1.88
 -11   3   5   58.90    2.29
 -11   3   5   59.63    1.86
 -10   3   5    1.89    0.61
 -10   3   5    2.07    0.35
  -9   3   5   27.22    1.34
  -8   3   5   68.78    2.29
  -3   3   5   10.11    0.49
   2  -3  -5  167.19    4.32
   2  -3  -5  155.62    4.33
  -2   3   5  165.98    4.34
  -2   3   5  158.04    4.33
  -2   3   5  160.84    5.11
   1  -3  -5   27.37    0.97
   1  -3  -5   26.09    0.98
  -1   3   5   25.88    0.98
  -1   3   5   25.69    1.22
  -1   3   5   28.46    1.11
  -1   3   5   28.62    0.99
   0  -3  -5   18.37    0.84
   0  -3  -5   18.52    0.83
   0   3   5   20.18    0.85
   0   3   5   19.05    0.91
   0   3   5   17.93    0.83
  -1  -3  -5   79.26    2.67
  -1  -3  -5   78.03    2.40
  -1  -3  -5   79.80    2.40
   1   3   5   78.80    2.40
   1   3   5   78.00    2.41
   1   3   5   83.75    2.40
  -2  -3  -5   34.29    1.36
  -2  -3  -5   30.38    1.31
   2   3   5   35.21    1.25
   2   3   5   29.31    1.26
   2   3   5   33.22    1.27
  -3  -3  -5   11.15    0.82
  -3  -3  -5   12.52    0.93
   3   3   5   11.61    0.78
   3   3   5   10.97    0.80
   3   3   5   10.47    0.83
  -4  -3  -5   53.72    1.96
  -4  -3  -5   53.34    2.00
   4   3   5   54.15    1.82
   4   3   5   51.45    1.94
  -5  -3  -5   28.90    1.42
  -5  -3  -5   25.54    1.30
   5   3   5   28.36    1.38
   5   3   5   26.95    1.23
  -6  -3  -5    7.79    0.89
   6   3   5    8.76    0.89
  -7  -3  -5   22.55    1.46
   7   3   5   24.72    1.45
  -8  -3  -5    8.95    1.06
   8   3   5    7.62    0.99
  -9  -3  -5    1.31    0.77
  -9  -3  -5    2.40    0.85
   9   3   5    2.08    0.77
 -14   4   5   17.09    1.04
 -13   4   5   -0.96    0.64
 -13   4   5    0.22    0.43
 -12   4   5    5.59    0.83
 -12   4   5    6.49    0.58
 -11   4   5   39.28    1.37
 -11   4   5   41.49    1.38
 -11   4   5   39.40    1.80
 -10   4   5    2.83    0.39
 -10   4   5    2.65    0.63
  -9   4   5   10.55    0.87
  -4   4   5   31.91    1.07
  -4   4   5   32.19    1.06
   3  -4  -5   20.08    0.70
   3  -4  -5   16.08    0.71
  -3   4   5   17.27    0.73
   2  -4  -5   51.13    1.55
   2  -4  -5   49.61    1.58
  -2   4   5   48.59    1.57
  -2   4   5   50.21    1.94
  -2   4   5   52.63    1.59
   1  -4  -5    7.27    0.58
   1  -4  -5    7.81    0.57
  -1   4   5    5.65    0.51
  -1   4   5    7.32    0.67
  -1   4   5    6.61    0.58
  -1   4   5    6.51    0.67
   0  -4  -5    6.16    0.55
   0  -4  -5    5.94    0.58
   0   4   5    6.45    0.57
   0   4   5    6.37    0.65
   0   4   5    6.10    0.57
  -1  -4  -5   83.53    2.53
   1   4   5   81.53    2.50
   1   4   5   78.32    2.51
   1   4   5   82.97    2.52
  -2  -4  -5    6.53    0.70
  -2  -4  -5    6.83    0.71
  -2  -4  -5    6.03    0.59
   2   4   5    7.11    0.65
   2   4   5    7.20    0.65
   2   4   5    7.33    0.67
  -3  -4  -5    6.15    0.76
  -3  -4  -5    7.33    0.76
  -3  -4  -5    6.46    0.60
   3   4   5    7.19    0.74
   3   4   5    7.48    0.68
  -4  -4  -5   51.27    2.00
  -4  -4  -5   52.45    1.98
  -4  -4  -5   50.02    1.89
   4   4   5   50.61    1.96
   4   4   5   51.61    1.83
  -5  -4  -5   21.58    1.30
  -5  -4  -5   17.44    1.04
  -5  -4  -5   22.81    1.35
   5   4   5   19.84    1.13
   5   4   5   23.52    1.31
  -6  -4  -5    0.20    0.58
  -6  -4  -5    1.23    0.67
   6   4   5    0.59    0.60
  -7  -4  -5   18.12    1.44
  -7  -4  -5   17.29    1.37
   7   4   5   17.00    1.34
  -8  -4  -5    4.51    0.93
  -8  -4  -5    5.91    0.97
   8   4   5    4.81    0.94
  -9  -4  -5    0.27    0.77
  -9  -4  -5    1.48    0.82
   9   4   5    0.57    0.70
 -14   5   5   28.44    1.29
 -13   5   5    2.61    0.49
 -13   5   5    2.83    0.77
 -12   5   5    4.85    0.53
 -12   5   5    4.99    0.83
 -11   5   5   53.72    1.70
 -11   5   5   51.67    2.11
 -10   5   5   17.63    0.79
 -10   5   5   16.32    1.14
 -10   5   5   17.18    0.80
  -9   5   5   11.81    0.65
  -7   5   5   27.69    0.99
  -6   5   5   -0.11    0.31
  -5   5   5  154.26    3.98
  -5   5   5  136.90    3.94
   4  -5  -5   31.84    1.01
  -4   5   5   28.81    1.10
  -4   5   5   30.08    1.10
   3  -5  -5    2.99    0.37
   3  -5  -5    3.51    0.42
  -3   5   5    2.21    0.39
  -3   5   5    4.03    0.45
   2  -5  -5  115.47    3.12
   2  -5  -5  104.25    3.14
  -2   5   5  113.29    3.30
  -2   5   5  109.85    3.66
  -2   5   5  104.66    3.12
   1  -5  -5   34.10    1.29
   1  -5  -5   32.97    1.25
  -1   5   5   33.71    1.28
  -1   5   5   33.55    1.52
  -1   5   5   33.93    1.27
  -1   5   5   35.81    1.46
   0  -5  -5   13.58    0.86
   0   5   5   12.92    1.01
   0   5   5   13.20    0.98
   0   5   5   13.30    0.82
   0   5   5   14.15    0.85
  -1  -5  -5   60.24    2.07
   1   5   5   63.37    2.06
   1   5   5   59.82    2.07
   1   5   5   63.69    2.12
  -2  -5  -5   45.00    1.70
  -2  -5  -5   41.75    1.71
   2   5   5   43.74    1.67
   2   5   5   42.83    1.67
   2   5   5   44.03    1.64
  -3  -5  -5    1.26    0.57
  -3  -5  -5    1.44    0.64
   3   5   5    2.11    0.58
   3   5   5    1.23    0.53
  -4  -5  -5   34.55    1.67
  -4  -5  -5   37.66    1.66
   4   5   5   35.01    1.52
   4   5   5   36.63    1.66
  -5  -5  -5   31.10    1.65
  -5  -5  -5   32.15    1.62
   5   5   5   31.75    1.61
  -6  -5  -5   -0.42    0.57
  -6  -5  -5   -0.02    0.66
   6   5   5   -0.85    0.56
  -7  -5  -5    7.95    1.07
  -7  -5  -5    7.15    0.99
   7   5   5    6.53    0.94
  -8  -5  -5   14.09    1.30
  -8  -5  -5   13.86    1.29
   8   5   5   12.74    1.23
 -14   6   5   15.96    1.00
 -13   6   5   21.59    1.02
 -13   6   5   15.84    1.43
 -12   6   5    0.48    0.41
 -12   6   5    0.14    0.63
 -11   6   5   15.72    0.83
 -11   6   5   13.39    1.18
 -10   6   5   57.48    1.80
  -9   6   5    1.31    0.38
  -8   6   5   18.81    0.84
  -8   6   5   17.54    0.80
  -7   6   5   98.90    2.79
  -7   6   5   95.80    2.74
  -6   6   5   -0.30    0.33
  -6   6   5    0.44    0.37
   5  -6  -5   35.16    1.15
  -5   6   5   34.94    1.28
  -5   6   5   37.79    1.31
   4  -6  -5   92.03    2.67
   4  -6  -5   93.03    2.65
  -4   6   5   93.69    2.75
  -4   6   5   95.54    2.74
   3  -6  -5    7.50    0.61
   3  -6  -5    7.20    0.61
  -3   6   5    8.73    0.67
  -3   6   5    7.81    0.66
   2  -6  -5   27.39    1.15
  -2   6   5   26.79    1.15
  -2   6   5   25.54    1.36
  -2   6   5   27.98    1.38
   1  -6  -5   90.49    2.81
  -1   6   5   92.72    3.18
  -1   6   5   93.43    2.80
  -1   6   5   95.63    2.96
  -1   6   5   87.85    2.79
   0  -6  -5    5.45    0.65
   0   6   5    4.93    0.73
   0   6   5    5.69    0.62
   0   6   5    5.97    0.71
   0   6   5    5.32    0.63
  -1  -6  -5    5.48    0.70
   1   6   5    5.09    0.67
   1   6   5    5.95    0.75
   1   6   5    5.62    0.65
  -2  -6  -5   59.59    2.15
   2   6   5   58.42    2.12
   2   6   5   57.20    2.13
  -3  -6  -5    7.95    0.87
  -3  -6  -5    7.88    0.87
   3   6   5    6.78    0.81
   3   6   5    7.39    0.85
  -4  -6  -5   10.56    1.02
  -4  -6  -5   10.10    1.02
   4   6   5    9.80    0.99
  -5  -6  -5   23.85    1.51
  -5  -6  -5   21.37    1.46
   5   6   5   21.88    1.45
  -6  -6  -5    1.55    0.75
  -6  -6  -5    1.28    0.77
   6   6   5    1.25    0.69
  -7  -6  -5    5.26    0.99
  -7  -6  -5    4.83    0.99
   7   6   5    4.81    0.95
  -8  -6  -5    7.28    1.13
  -8  -6  -5   10.18    1.20
   8   6   5    9.95    1.21
 -14   7   5   12.40    0.92
 -13   7   5    9.66    1.05
 -13   7   5    8.51    0.70
 -12   7   5    0.20    0.41
 -12   7   5   -0.21    0.60
 -11   7   5   21.25    0.99
 -10   7   5    5.19    0.57
 -10   7   5    5.23    0.52
  -9   7   5   11.22    0.75
  -9   7   5   10.93    0.73
  -8   7   5   55.10    1.80
  -8   7   5   55.30    1.76
  -7   7   5   21.64    0.96
  -7   7   5   23.66    1.04
  -6   7   5    2.51    0.45
  -6   7   5    1.76    0.44
   5  -7  -5   52.79    1.69
   5  -7  -5   52.55    1.68
  -5   7   5   55.18    1.82
  -5   7   5   58.36    1.84
   4  -7  -5   29.40    1.17
  -4   7   5   31.37    1.27
  -4   7   5   33.06    1.28
   3  -7  -5   16.27    0.91
  -3   7   5   17.61    0.97
  -3   7   5   19.09    1.22
  -3   7   5   17.31    0.99
   2  -7  -5   28.13    1.25
  -2   7   5   29.04    1.48
  -2   7   5   26.59    1.26
  -2   7   5   30.93    1.51
   1  -7  -5   21.20    1.14
  -1   7   5   22.39    1.31
  -1   7   5   22.00    1.10
  -1   7   5   21.73    1.33
  -1   7   5   20.20    1.14
   0  -7  -5   18.39    1.12
   0   7   5   17.37    1.22
   0   7   5   18.30    1.10
   0   7   5   17.47    1.04
  -1  -7  -5   21.29    1.26
   1   7   5   21.99    1.25
   1   7   5   21.75    1.31
  -2  -7  -5   26.83    1.47
   2   7   5   28.74    1.48
  -3  -7  -5    7.79    0.90
  -3  -7  -5    7.12    0.93
   3   7   5    9.25    0.99
  -4  -7  -5    3.89    0.82
  -4  -7  -5    3.28    0.82
   4   7   5    4.74    0.83
  -5  -7  -5    6.82    0.96
  -5  -7  -5    5.37    0.93
   5   7   5    6.72    1.00
  -6  -7  -5    2.85    0.83
  -6  -7  -5    1.38    0.78
   6   7   5    3.65    0.91
  -7  -7  -5    0.21    0.81
  -7  -7  -5    1.05    0.82
   7   7   5    0.59    0.76
 -13   8   5   20.37    1.09
 -12   8   5    2.57    0.51
 -12   8   5    1.48    0.64
 -11   8   5    6.75    0.62
 -10   8   5   25.21    1.12
  -9   8   5   14.73    0.89
  -9   8   5   13.69    0.86
  -8   8   5   20.41    1.05
  -8   8   5   19.85    1.00
  -7   8   5   62.92    2.07
  -7   8   5   63.20    2.03
  -6   8   5    6.96    0.65
  -6   8   5    7.62    0.70
   5  -8  -5    8.14    0.66
  -5   8   5   11.45    0.86
  -5   8   5    9.24    0.76
   4  -8  -5   82.95    2.67
  -4   8   5   93.03    2.77
  -4   8   5   89.89    2.76
   3  -8  -5    4.69    0.59
  -3   8   5    3.19    0.58
  -3   8   5    5.11    0.82
  -3   8   5    4.88    0.64
   2  -8  -5    6.23    0.74
  -2   8   5    6.18    0.87
  -2   8   5    6.49    0.74
  -2   8   5    7.30    0.82
   1  -8  -5   39.34    1.64
  -1   8   5   39.06    1.76
  -1   8   5   36.63    1.62
  -1   8   5   38.48    1.57
   0  -8  -5   19.23    1.22
   0   8   5   20.68    1.23
  -1  -8  -5    8.34    0.92
   1   8   5    6.64    0.83
  -2  -8  -5   27.93    1.56
   2   8   5   28.29    1.54
  -3  -8  -5    5.22    0.91
   3   8   5    5.17    0.86
  -4  -8  -5    0.60    0.71
  -4  -8  -5    2.05    0.71
   4   8   5   -0.40    0.67
  -5  -8  -5    7.11    1.12
  -5  -8  -5    5.77    0.96
   5   8   5    7.05    1.01
  -6  -8  -5    6.59    1.13
  -6  -8  -5    5.83    1.03
   6   8   5    5.81    1.09
 -13   9   5   11.46    0.94
 -12   9   5   12.28    0.95
 -11   9   5    0.31    0.48
 -10   9   5   20.25    1.08
  -9   9   5   13.89    0.95
  -8   9   5    4.19    0.59
  -7   9   5   22.41    1.14
  -7   9   5   20.41    1.12
   6  -9  -5   20.68    0.97
  -6   9   5   23.55    1.16
  -6   9   5   22.77    1.15
   5  -9  -5    2.58    0.46
  -5   9   5    3.26    0.56
  -5   9   5    3.21    0.60
   4  -9  -5   10.25    0.82
  -4   9   5   10.94    0.94
  -4   9   5   11.54    0.90
   3  -9  -5   10.57    0.91
  -3   9   5   12.01    0.99
  -3   9   5   10.02    0.85
   2  -9  -5    3.24    0.66
  -2   9   5    2.95    0.64
  -2   9   5    4.08    0.73
   1  -9  -5   16.34    1.14
  -1   9   5   15.35    1.17
  -1   9   5   18.18    1.25
   0  -9  -5   14.65    1.18
   0   9   5   12.90    1.11
  -1  -9  -5    0.53    0.63
   1   9   5    0.28    0.62
  -2  -9  -5    9.34    1.07
   2   9   5   11.31    1.13
  -3  -9  -5   10.42    1.15
   3   9   5    9.59    1.13
  -4  -9  -5    0.77    0.77
   4   9   5    0.37    0.74
  -5  -9  -5    8.09    1.18
   5   9   5    6.97    1.11
 -12  10   5   11.01    0.96
 -11  10   5    0.82    0.56
 -10  10   5   23.96    1.24
  -9  10   5    4.57    0.67
  -8  10   5   -0.49    0.49
  -7  10   5   39.63    1.63
  -6  10   5   16.81    1.11
   5 -10  -5    0.62    0.43
  -5  10   5    0.42    0.54
  -5  10   5    0.21    0.52
   4 -10  -5    7.83    0.75
  -4  10   5    8.69    0.83
  -4  10   5    8.74    0.86
   3 -10  -5    2.76    0.63
  -3  10   5    4.06    0.71
  -3  10   5    3.89    0.74
  -3  10   5    2.93    0.59
   2 -10  -5    0.54    0.54
  -2  10   5    0.67    0.63
  -2  10   5    0.37    0.57
   1 -10  -5   18.79    1.29
  -1  10   5   21.04    1.41
  -1  10   5   20.91    1.38
   0 -10  -5   14.97    1.24
   0  10   5   12.79    1.13
  -1 -10  -5    0.95    0.69
   1  10   5    0.37    0.67
  -2 -10  -5    4.84    0.92
   2  10   5    6.69    1.03
  -3 -10  -5   10.87    1.22
   3  10   5    9.79    1.18
  -4 -10  -5   -0.10    0.79
   4  10   5    0.58    0.83
 -12  11   5   18.75    1.19
 -11  11   5    1.35    0.60
 -10  11   5   11.06    0.92
  -9  11   5   20.23    1.25
  -8  11   5   -0.11    0.57
  -7  11   5    6.73    0.81
  -6  11   5   30.24    1.50
  -5  11   5    0.69    0.61
  -4  11   5    1.10    0.66
  -3  11   5   30.79    1.66
  -3  11   5   26.18    1.51
   2 -11  -5   -0.26    0.51
  -2  11   5    0.37    0.64
  -2  11   5    0.28    0.61
   1 -11  -5    2.21    0.69
  -1  11   5    0.31    0.66
  -1  11   5    3.17    0.77
   0 -11  -5   19.97    1.44
   0  11   5   19.75    1.48
  -1 -11  -5    0.74    0.74
   1  11   5    1.41    0.77
  -2 -11  -5    1.04    0.79
   2  11   5    0.92    0.81
  -3 -11  -5    6.20    1.10
   3  11   5    5.99    1.05
 -10  12   5    8.49    0.88
  -9  12   5    2.89    0.72
  -8  12   5    3.11    0.76
  -7  12   5    3.74    0.77
  -6  12   5    4.94    0.80
  -5  12   5   12.18    1.06
  -4  12   5    5.23    0.85
  -3  12   5   13.87    1.29
  -3  12   5   11.07    1.06
  -2  12   5    4.73    0.89
  -1  12   5    5.10    0.92
   0  12   5    1.49    0.79
   1  12   5    4.45    0.95
  -9  13   5    8.30    0.96
  -8  13   5    3.11    0.78
  -7  13   5    0.50    0.69
  -6  13   5   17.41    1.36
  -5  13   5    1.43    0.72
  -4  13   5    2.23    0.76
  -4  13   5    1.80    0.75
  -3  13   5   16.62    1.40
  -2  13   5    0.91    0.75
  -1  13   5   -0.52    0.66
   1  15  -6    4.23    0.90
  -1 -15   6    2.41    0.88
   0  15  -6    1.10    0.77
   0 -15   6    0.28    0.82
  -1  15  -6   21.69    1.65
   1 -15   6   22.98    1.72
  -2  15  -6    7.11    1.08
   2 -15   6    7.03    1.09
  -3  15  -6    0.29    0.77
   3 -15   6   -1.23    0.70
  -4  15  -6   15.01    1.40
   4 -15   6   11.74    1.27
  -5  15  -6    7.67    1.11
   5 -15   6    6.04    1.02
   4  14  -6    1.53    0.71
  -4 -14   6    2.40    0.93
   3  14  -6    1.75    0.73
  -3 -14   6    1.30    0.83
   2  14  -6    4.87    0.86
  -2 -14   6    5.86    1.05
   1  14  -6    4.86    0.92
  -1 -14   6    4.40    0.93
   0  14  -6    1.52    0.72
   0 -14   6    1.71    0.84
  -1  14  -6    7.69    1.06
   1 -14   6    7.82    1.06
  -2  14  -6    4.12    0.87
   2 -14   6    4.53    0.94
  -3  14  -6   -0.68    0.72
   3 -14   6    0.80    0.77
  -4  14  -6    7.90    1.05
   4 -14   6    7.60    1.07
  -5  14  -6    8.21    1.12
   5 -14   6    9.21    1.11
  -6  14  -6    0.70    0.81
   6 -14   6    1.31    0.77
  -7  14  -6   11.67    1.29
   5  13  -6    5.99    0.95
  -5 -13   6    9.04    1.16
   4  13  -6    3.43    0.82
  -4 -13   6    3.68    0.93
   3  13  -6    2.94    0.77
  -3 -13   6    1.96    0.83
   2  13  -6   10.91    1.12
  -2 -13   6   11.67    1.21
   1  13  -6   18.35    1.36
  -1 -13   6   15.66    1.38
   0  13  -6    0.25    0.64
   0 -13   6    0.49    0.70
  -1  13  -6   40.02    1.91
   1 -13   6   36.63    1.95
  -2  13  -6   17.80    1.37
   2 -13   6   14.24    1.32
  -3  13  -6   -0.03    0.69
   3 -13   6   -0.42    0.66
  -4  13  -6   29.19    1.71
   4 -13   6   26.13    1.68
  -5  13  -6   45.40    2.10
   5 -13   6   44.30    2.14
  -6  13  -6    0.65    0.73
   6 -13   6    0.53    0.64
  -7  13  -6    9.88    1.16
   7 -13   6    9.45    1.07
  -8  13  -6   26.13    1.73
  -7 -12   6    7.33    1.10
   6  12  -6    0.15    0.61
  -6 -12   6    0.08    0.82
  -6 -12   6   -0.15    0.71
   5  12  -6    3.94    0.82
  -5 -12   6    3.92    0.85
  -5 -12   6    3.95    0.93
   4  12  -6   11.13    1.09
  -4 -12   6   12.84    1.20
   3  12  -6    3.40    0.73
  -3 -12   6    3.11    0.81
   2  12  -6    8.00    0.94
  -2 -12   6   10.54    1.10
   1  12  -6   33.91    1.70
  -1 -12   6   36.41    1.88
   0  12  -6    2.09    0.64
   0 -12   6    2.68    0.81
  -1  12  -6   15.79    1.27
   1 -12   6   16.25    1.35
  -2  12  -6   29.40    1.63
   2 -12   6   33.85    1.78
  -3  12  -6    7.80    0.98
   3 -12   6    7.29    0.95
  -4  12  -6   15.86    1.30
   4 -12   6   15.36    1.31
  -5  12  -6   33.79    1.76
   5 -12   6   34.50    1.78
  -6  12  -6   12.80    1.14
   6 -12   6   11.25    1.10
  -7  12  -6    2.86    0.79
   7 -12   6    3.32    0.78
  -8  12  -6   17.00    1.46
   8 -12   6   16.99    1.34
  -9  12  -6    4.22    0.94
  -8 -11   6    4.71    0.93
  -7 -11   6    7.71    1.04
  -7 -11   6   10.12    1.27
   6  11  -6    3.78    0.75
  -6 -11   6    3.39    0.85
  -6 -11   6    1.99    0.89
   5  11  -6    6.19    0.88
  -5 -11   6    6.36    0.94
  -5 -11   6    5.31    0.98
   4  11  -6   14.53    1.19
  -4 -11   6   12.14    1.14
  -4 -11   6   13.06    1.23
   3  11  -6   10.93    0.99
  -3 -11   6   10.43    1.07
   2  11  -6   22.37    1.38
   2  11  -6   24.24    1.30
  -2 -11   6   27.18    1.54
   1  11  -6   18.13    1.20
  -1 -11   6   15.00    1.31
   0  11  -6    2.30    0.62
   0 -11   6    3.62    0.76
  -1  11  -6    7.47    0.85
   1 -11   6    6.73    0.90
  -2  11  -6   50.92    2.05
   2 -11   6   49.14    2.10
  -3  11  -6    5.89    0.82
   3 -11   6    6.46    0.88
  -4  11  -6   16.51    1.25
   4 -11   6   18.14    1.30
  -5  11  -6   14.46    1.21
   5 -11   6   14.25    1.22
  -6  11  -6    5.17    0.85
   6 -11   6    5.28    0.82
  -7  11  -6    5.01    0.88
   7 -11   6    5.05    0.83
  -8  11  -6   17.23    1.39
   8 -11   6   15.12    1.28
  -9  11  -6    5.76    0.94
  -9 -10   6    1.46    0.80
  -8 -10   6    2.57    0.84
  -8 -10   6    2.29    0.92
   7  10  -6   31.83    1.59
  -7 -10   6   29.11    1.93
  -7 -10   6   31.52    1.75
   6  10  -6    9.54    0.98
  -6 -10   6    9.00    1.06
  -6 -10   6   11.88    1.22
   5  10  -6    2.36    0.62
  -5 -10   6    1.88    0.82
  -5 -10   6    3.08    0.77
   4  10  -6   80.72    2.75
  -4 -10   6   74.57    2.87
  -4 -10   6   79.54    2.81
   3  10  -6   11.09    0.86
   3  10  -6   11.34    0.96
  -3 -10   6   12.77    1.09
  -3 -10   6   13.16    1.10
   2  10  -6    4.21    0.63
   2  10  -6    4.54    0.70
  -2 -10   6    4.94    0.80
   1  10  -6   84.96    2.85
  -1 -10   6   86.31    2.95
   0  10  -6   19.24    1.16
   0 -10   6   18.29    1.28
  -1  10  -6    0.94    0.52
  -1  10  -6    0.29    0.58
   1 -10   6    0.72    0.59
  -2  10  -6   87.50    3.04
  -2  10  -6   95.88    3.04
   2 -10   6   91.04    3.05
  -3  10  -6    9.71    0.89
  -3  10  -6    8.50    0.90
   3 -10   6   10.62    0.97
  -4  10  -6    0.03    0.56
   4 -10   6    0.17    0.55
  -5  10  -6   20.53    1.30
   5 -10   6   22.64    1.34
  -6  10  -6   22.34    1.38
   6 -10   6   23.03    1.39
  -7  10  -6    0.23    0.65
   7 -10   6    0.04    0.56
  -8  10  -6   36.94    1.83
   8 -10   6   34.77    1.74
  -9  10  -6   19.63    1.49
   9 -10   6   20.89    1.37
 -10  10  -6   -0.61    0.65
 -10  10  -6   -0.55    0.63
 -10  -9   6    7.87    1.08
  -9  -9   6    9.44    1.25
  -9  -9   6   11.26    1.17
  -8  -9   6   -0.05    0.65
  -8  -9   6    0.77    0.82
   7   9  -6    7.75    0.84
  -7  -9   6    8.92    1.10
  -7  -9   6    8.63    1.00
   6   9  -6   16.46    1.12
  -6  -9   6   17.12    1.46
  -6  -9   6   16.20    1.26
   5   9  -6    2.27    0.55
  -5  -9   6    1.91    0.76
  -5  -9   6    1.76    0.67
   4   9  -6   45.31    1.83
  -4  -9   6   47.09    1.94
  -4  -9   6   46.25    2.03
   3   9  -6    8.43    0.84
   3   9  -6    6.96    0.67
  -3  -9   6    8.18    0.86
  -3  -9   6    7.72    0.92
   2   9  -6    0.20    0.52
   2   9  -6    0.13    0.48
   2   9  -6    0.12    0.47
  -2  -9   6   -0.18    0.55
   1   9  -6   19.31    1.12
   1   9  -6   21.42    1.21
  -1  -9   6   18.93    1.24
   0   9  -6   37.73    1.64
   0   9  -6   36.49    1.56
   0  -9   6   39.45    1.67
  -1   9  -6    1.40    0.59
  -1   9  -6    1.93    0.56
   1  -9   6    1.29    0.55
  -2   9  -6   16.34    1.08
  -2   9  -6   17.38    1.18
   2  -9   6   14.94    1.11
  -3   9  -6   35.78    1.59
  -3   9  -6   35.86    1.56
   3  -9   6   36.66    1.62
  -4   9  -6   14.04    1.08
   4  -9   6   15.04    1.09
  -5   9  -6   26.87    1.42
   5  -9   6   29.37    1.45
  -6   9  -6   20.34    1.31
   6  -9   6   21.93    1.32
  -7   9  -6    3.83    0.76
   7  -9   6    4.30    0.73
  -8   9  -6   29.20    1.61
   8  -9   6   30.87    1.57
  -9   9  -6   18.22    1.26
  -9   9  -6   20.84    1.43
   9  -9   6   20.32    1.33
 -10   9  -6    1.46    0.69
 -10   9  -6    3.81    0.83
 -10  -8   6    3.67    0.82
  -9  -8   6    6.94    1.08
  -9  -8   6   10.58    1.11
   8   8  -6    0.44    0.50
  -8  -8   6    0.23    0.59
  -8  -8   6    0.91    0.81
   7   8  -6    9.09    0.85
  -7  -8   6    7.59    0.90
  -7  -8   6    8.19    1.06
   6   8  -6    7.06    0.76
  -6  -8   6    8.05    0.88
  -6  -8   6    7.14    0.78
  -6  -8   6    6.91    0.93
   5   8  -6   11.03    0.90
  -5  -8   6   11.52    0.91
  -5  -8   6   12.48    1.09
  -5  -8   6   12.02    1.03
   4   8  -6   44.27    1.74
  -4  -8   6   47.25    1.86
  -4  -8   6   45.12    1.76
  -4  -8   6   45.74    1.95
   3   8  -6   13.21    1.00
   3   8  -6   14.69    0.93
   3   8  -6   13.55    0.92
  -3  -8   6   12.95    1.14
  -3  -8   6   13.58    1.04
  -3  -8   6   14.24    0.97
   2   8  -6    0.50    0.52
   2   8  -6   -0.12    0.42
   2   8  -6    0.10    0.46
  -2  -8   6    0.61    0.50
  -2  -8   6    0.49    0.54
  -2  -8   6    0.05    0.40
   1   8  -6   43.16    1.58
   1   8  -6   41.78    1.64
  -1  -8   6   42.16    1.58
  -1  -8   6   38.72    1.65
   0   8  -6   49.57    1.81
   0   8  -6   45.59    1.70
   0  -8   6   46.69    1.70
   0  -8   6   44.59    1.76
  -1   8  -6    2.81    0.62
  -1   8  -6    2.88    0.54
   1  -8   6    1.82    0.53
  -2   8  -6   54.75    1.96
  -2   8  -6   58.14    2.03
   2  -8   6   55.02    2.02
  -3   8  -6  100.87    3.12
   3  -8   6   99.64    3.15
  -4   8  -6    1.89    0.57
   4  -8   6    0.93    0.50
  -5   8  -6   64.40    2.30
   5  -8   6   65.41    2.33
  -6   8  -6   39.42    1.69
   6  -8   6   37.26    1.67
  -7   8  -6    6.95    0.87
   7  -8   6   10.01    0.95
  -8   8  -6    9.11    0.82
  -8   8  -6    7.79    0.90
   8  -8   6    7.94    0.89
  -9   8  -6   37.84    1.83
  -9   8  -6   36.13    1.66
   9  -8   6   35.69    1.73
 -10   8  -6    3.63    0.74
 -10   8  -6    5.25    0.89
  10  -8   6    3.97    0.75
 -11  -7   6    0.04    0.68
 -10  -7   6    5.17    0.89
 -10  -7   6    5.68    1.01
  -9  -7   6   28.53    1.76
  -9  -7   6   26.65    1.53
   8   7  -6    0.02    0.46
  -8  -7   6    0.19    0.55
  -8  -7   6   -0.16    0.67
  -8  -7   6   -0.36    0.47
   7   7  -6   17.42    1.05
  -7  -7   6   18.08    1.20
  -7  -7   6   19.09    1.11
  -7  -7   6   19.83    1.41
   6   7  -6   49.56    1.80
  -6  -7   6   49.18    1.84
  -6  -7   6   45.48    1.89
  -6  -7   6   47.84    2.04
   5   7  -6   -0.53    0.46
   5   7  -6   -0.06    0.39
  -5  -7   6   -0.16    0.57
  -5  -7   6    0.11    0.41
  -5  -7   6    0.52    0.48
   4   7  -6    7.17    0.70
   4   7  -6    6.82    0.72
  -4  -7   6    4.57    0.61
  -4  -7   6    6.37    0.78
  -4  -7   6    5.16    0.69
   3   7  -6  167.10    4.73
   3   7  -6  178.01    4.82
   3   7  -6  168.84    5.27
  -3  -7   6  166.99    4.88
  -3  -7   6  154.60    4.77
  -3  -7   6  167.68    4.76
   2   7  -6    8.00    0.73
   2   7  -6    8.78    0.72
   2   7  -6    7.61    0.70
  -2  -7   6    7.98    0.79
  -2  -7   6    7.88    0.73
  -2  -7   6    7.50    0.67
   1   7  -6   21.08    1.03
   1   7  -6   21.73    1.08
  -1  -7   6   23.20    1.04
  -1  -7   6   20.99    1.10
   0   7  -6  135.17    3.86
   0   7  -6  131.48    3.89
   0  -7   6  131.15    3.90
   0  -7   6  137.19    3.87
  -1   7  -6    7.84    0.67
  -1   7  -6    7.64    0.70
   1  -7   6    6.65    0.64
   1  -7   6    7.73    0.72
  -2   7  -6    7.75    0.71
  -2   7  -6    7.35    0.65
   2  -7   6    6.89    0.70
   2  -7   6    5.86    0.60
  -3   7  -6  137.22    4.04
   3  -7   6  140.14    4.08
  -4   7  -6   17.64    1.07
   4  -7   6   16.46    1.05
  -5   7  -6    7.08    0.76
   5  -7   6    6.56    0.75
  -6   7  -6   86.16    2.85
   6  -7   6   85.36    2.85
  -7   7  -6   22.38    1.18
  -7   7  -6   22.86    1.33
   7  -7   6   22.80    1.30
  -8   7  -6    0.58    0.59
  -8   7  -6    0.59    0.52
   8  -7   6    0.98    0.56
  -9   7  -6   30.05    1.65
  -9   7  -6   29.34    1.47
   9  -7   6   29.57    1.54
 -10   7  -6    5.80    0.94
 -10   7  -6    8.15    0.89
  10  -7   6    9.79    1.01
 -11   7  -6    0.20    0.69
 -11   7  -6   -0.61    0.63
 -12  -6   6    3.33    0.82
 -11  -6   6    5.02    0.84
 -11  -6   6    5.48    1.04
 -10  -6   6    7.53    1.06
 -10  -6   6   10.06    1.00
  -9  -6   6   16.71    1.44
  -9  -6   6   18.75    1.24
   8   6  -6    9.21    0.78
  -8  -6   6    7.79    0.75
  -8  -6   6    8.24    0.86
  -8  -6   6    8.28    0.96
   7   6  -6   20.20    1.06
  -7  -6   6   19.96    1.19
  -7  -6   6   22.36    1.13
  -7  -6   6   23.26    1.39
   6   6  -6   16.02    0.91
   6   6  -6   15.21    1.08
  -6  -6   6   14.21    0.93
  -6  -6   6   14.22    1.16
  -6  -6   6   15.59    1.05
   5   6  -6   47.43    1.74
   5   6  -6   46.09    1.62
  -5  -6   6   44.96    1.67
  -5  -6   6   43.96    1.71
  -5  -6   6   47.79    1.86
   4   6  -6   10.04    0.83
   4   6  -6   10.11    0.73
  -4  -6   6    9.30    0.82
  -4  -6   6    9.77    0.81
  -4  -6   6    8.96    0.75
   3   6  -6   33.65    1.38
   3   6  -6   32.90    1.35
   3   6  -6   31.74    1.29
   3   6  -6   31.00    1.21
  -3  -6   6   32.33    1.38
  -3  -6   6   31.44    1.25
  -3  -6   6   28.57    1.29
   2   6  -6   45.91    1.79
   2   6  -6   45.35    1.60
   2   6  -6   41.21    1.59
   2   6  -6   45.20    1.55
  -2  -6   6   47.91    1.59
  -2  -6   6   47.47    1.65
  -2  -6   6   47.29    1.69
   1   6  -6   15.99    0.84
   1   6  -6   14.76    0.79
   1   6  -6   13.74    0.83
  -1  -6   6   14.76    0.87
  -1  -6   6   14.86    0.81
   0   6  -6   25.19    1.07
   0   6  -6   24.91    1.08
   0   6  -6   23.99    1.04
   0  -6   6   24.01    1.09
   0  -6   6   24.79    1.06
  -1   6  -6   21.68    0.99
  -1   6  -6   21.14    1.03
  -1   6  -6   22.29    1.00
   1  -6   6   21.99    1.04
   1  -6   6   21.86    0.98
  -2   6  -6    9.41    0.76
  -2   6  -6    9.44    0.73
   2  -6   6    9.84    0.79
   2  -6   6   10.71    0.74
  -3   6  -6   37.31    1.46
   3  -6   6   36.69    1.49
   3  -6   6   38.31    1.45
  -4   6  -6   38.00    1.53
   4  -6   6   38.02    1.55
  -5   6  -6    4.82    0.69
   5  -6   6    6.04    0.72
  -6   6  -6   39.62    1.53
  -6   6  -6   41.60    1.70
   6  -6   6   41.06    1.69
  -7   6  -6   26.36    1.38
  -7   6  -6   24.81    1.22
   7  -6   6   24.56    1.33
  -8   6  -6    4.33    0.75
  -8   6  -6    3.73    0.63
   8  -6   6    4.07    0.69
  -9   6  -6   17.53    1.23
  -9   6  -6   22.62    1.43
   9  -6   6   21.01    1.32
 -10   6  -6    8.90    1.03
 -10   6  -6    7.63    0.89
  10  -6   6    8.02    0.95
 -11   6  -6   -1.37    0.61
 -11   6  -6   -0.29    0.64
 -12  -5   6    6.96    0.93
 -11  -5   6    7.15    0.88
 -11  -5   6    6.05    1.01
 -10  -5   6   19.23    1.22
 -10  -5   6   15.07    1.03
 -10  -5   6   15.19    1.28
   9   5  -6   25.34    1.19
  -9  -5   6   26.03    1.39
  -9  -5   6   26.73    1.60
  -9  -5   6   27.36    1.30
  -9  -5   6   29.16    1.26
   8   5  -6   10.66    0.79
  -8  -5   6   10.20    0.81
  -8  -5   6   11.04    1.02
  -8  -5   6   10.77    0.91
  -8  -5   6   10.13    0.87
   7   5  -6   14.22    0.84
  -7  -5   6   13.82    0.99
  -7  -5   6   14.80    1.18
  -7  -5   6   15.23    0.90
  -7  -5   6   13.61    0.96
   6   5  -6   44.67    1.68
   6   5  -6   42.90    1.52
  -6  -5   6   45.62    1.60
  -6  -5   6   41.97    1.64
  -6  -5   6   43.31    1.77
   5   5  -6   34.23    1.35
   5   5  -6   33.27    1.24
  -5  -5   6   32.93    1.43
  -5  -5   6   31.17    1.32
  -5  -5   6   32.89    1.30
   4   5  -6   26.82    1.11
   4   5  -6   29.71    1.19
   4   5  -6   26.12    1.06
  -4  -5   6   26.15    1.15
  -4  -5   6   29.43    1.17
  -4  -5   6   29.40    1.28
   3   5  -6  112.01    3.14
   3   5  -6  104.70    3.14
   3   5  -6  111.02    3.53
   3   5  -6  102.17    3.05
  -3  -5   6  106.58    3.18
  -3  -5   6  104.64    3.13
  -3  -5   6  111.73    3.11
   2   5  -6   40.51    1.45
   2   5  -6   41.58    1.41
   2   5  -6   42.83    1.44
   2   5  -6   44.40    1.70
  -2  -5   6   41.21    1.48
  -2  -5   6   43.94    1.44
  -2  -5   6   42.23    1.51
   1   5  -6    2.85    0.39
   1   5  -6    2.73    0.43
   1   5  -6    2.98    0.41
  -1  -5   6    2.57    0.43
  -1  -5   6    3.59    0.42
   0   5  -6  105.46    2.99
   0   5  -6  101.91    2.95
   0   5  -6   99.60    2.99
   0  -5   6  102.90    3.02
   0  -5   6  107.67    3.00
  -1   5  -6   70.06    2.14
  -1   5  -6   70.11    2.15
  -1   5  -6   68.12    2.08
   1  -5   6   71.59    2.14
   1  -5   6   65.15    2.15
  -2   5  -6    8.48    0.65
  -2   5  -6    8.14    0.69
   2  -5   6    7.53    0.64
   2  -5   6    7.93    0.70
  -3   5  -6  111.65    3.27
  -3   5  -6  109.72    3.26
   3  -5   6  111.22    3.24
   3  -5   6  107.67    3.28
  -4   5  -6   79.91    2.52
   4  -5   6   76.64    2.51
  -5   5  -6    0.37    0.39
  -5   5  -6   -0.39    0.46
   5  -5   6    0.36    0.45
  -6   5  -6   52.10    1.96
  -6   5  -6   51.52    1.79
   6  -5   6   52.20    1.95
  -7   5  -6   27.63    1.30
  -7   5  -6   29.32    1.47
   7  -5   6   30.08    1.44
  -8   5  -6    1.71    0.57
  -8   5  -6    0.50    0.59
   8  -5   6    0.19    0.50
  -9   5  -6   19.42    1.25
  -9   5  -6   22.47    1.41
   9  -5   6   19.37    1.30
 -10   5  -6   15.89    1.28
 -10   5  -6   20.85    1.45
  10  -5   6   21.83    1.38
 -11   5  -6   -1.09    0.71
 -11   5  -6   -0.23    0.70
 -13  -4   6   -0.06    0.60
 -12  -4   6   19.44    1.59
 -12  -4   6   16.73    1.22
 -11  -4   6    9.23    1.10
 -11  -4   6    6.50    0.76
 -11  -4   6    8.88    0.89
 -10  -4   6    1.53    0.72
 -10  -4   6    1.55    0.52
 -10  -4   6    1.17    0.56
   9   4  -6   34.19    1.32
  -9  -4   6   34.08    1.36
  -9  -4   6   34.62    1.54
  -9  -4   6   35.08    1.71
  -9  -4   6   34.95    1.48
   8   4  -6   27.39    1.16
  -8  -4   6   29.97    1.21
  -8  -4   6   29.80    1.50
  -8  -4   6   28.50    1.34
  -8  -4   6   31.48    1.39
   7   4  -6    0.23    0.33
   7   4  -6    0.07    0.44
  -7  -4   6    0.44    0.44
  -7  -4   6    0.66    0.38
  -7  -4   6    0.94    0.55
  -7  -4   6    0.38    0.44
   6   4  -6   50.28    1.72
   6   4  -6   44.44    1.51
  -6  -4   6   46.09    1.77
  -6  -4   6   45.31    1.65
  -6  -4   6   48.84    1.62
  -6  -4   6   47.04    1.81
   5   4  -6   20.85    0.90
   5   4  -6   21.76    0.87
   5   4  -6   25.16    1.06
  -5  -4   6   21.88    0.99
  -5  -4   6   20.18    0.98
  -5  -4   6   22.42    1.13
  -5  -4   6   22.85    1.11
   4   4  -6    3.60    0.42
   4   4  -6    2.57    0.43
   4   4  -6    3.25    0.38
  -4  -4   6    2.80    0.44
  -4  -4   6    3.84    0.46
  -4  -4   6    3.10    0.50
   3   4  -6  154.42    4.22
   3   4  -6  161.22    4.30
   3   4  -6  161.41    4.92
   3   4  -6  155.01    4.29
  -3  -4   6  157.30    4.29
  -3  -4   6  134.68    4.29
  -3  -4   6  163.82    4.27
   2   4  -6  291.39    7.66
   2   4  -6  293.70    8.78
   2   4  -6  278.86    7.64
   2   4  -6  285.61    7.60
  -2  -4   6  301.50    7.63
  -2  -4   6  282.46    7.69
  -2  -4   6  280.29    7.63
   1   4  -6    8.44    0.55
   1   4  -6    9.03    0.58
  -1  -4   6    8.23    0.59
  -1  -4   6    8.59    0.57
   0   4  -6   84.59    2.47
   0   4  -6   83.24    2.47
   0  -4   6   81.65    2.48
   0  -4   6   87.37    2.47
  -1   4  -6  118.55    3.34
  -1   4  -6  115.59    3.33
   1  -4   6  114.66    3.35
   1  -4   6  119.13    3.32
  -2   4  -6    0.37    0.31
  -2   4  -6    1.25    0.39
   2  -4   6    0.41    0.32
   2  -4   6    0.69    0.37
  -3   4  -6   48.51    1.71
  -3   4  -6   50.31    1.73
   3  -4   6   51.05    1.71
   3  -4   6   49.96    1.75
  -4   4  -6  113.41    3.15
  -4   4  -6  110.94    3.32
   4  -4   6  108.50    3.33
  -5   4  -6   27.11    1.09
  -5   4  -6   26.46    1.29
   5  -4   6   26.45    1.27
  -6   4  -6   44.05    1.59
  -6   4  -6   44.34    1.77
   6  -4   6   43.16    1.74
  -7   4  -6   10.78    0.96
  -7   4  -6   10.11    0.87
   7  -4   6   11.35    0.97
  -8   4  -6    2.44    0.67
  -8   4  -6    1.64    0.58
   8  -4   6    1.92    0.61
  -9   4  -6   12.56    1.10
  -9   4  -6   10.92    0.97
   9  -4   6   11.76    1.07
 -10   4  -6   16.14    1.30
 -10   4  -6   19.87    1.45
  10  -4   6   18.36    1.34
 -11   4  -6    3.37    0.83
 -13  -3   6    0.37    0.58
 -12  -3   6   14.66    1.09
 -12  -3   6   14.83    1.11
 -12  -3   6   13.97    1.28
 -11  -3   6    6.24    0.96
 -11  -3   6    7.14    0.77
 -11  -3   6    5.98    0.73
 -10  -3   6   -0.15    0.44
 -10  -3   6    0.44    0.66
 -10  -3   6    0.43    0.37
 -10  -3   6    0.22    0.47
   9   3  -6   19.28    0.91
  -9  -3   6   22.14    1.32
  -9  -3   6   21.24    0.96
  -9  -3   6   22.49    1.10
  -9  -3   6   20.63    1.18
   8   3  -6   23.71    0.98
  -8  -3   6   24.78    1.34
  -8  -3   6   24.07    1.27
  -8  -3   6   25.97    1.16
  -8  -3   6   27.12    1.06
   7   3  -6    2.60    0.50
   7   3  -6    2.70    0.35
   7   3  -6    2.61    0.37
  -7  -3   6    2.20    0.52
  -7  -3   6    3.01    0.42
  -7  -3   6    3.84    0.53
  -7  -3   6    2.75    0.59
   6   3  -6   73.08    2.11
   6   3  -6   73.12    2.11
   6   3  -6   78.90    2.34
  -6  -3   6   72.73    2.20
  -6  -3   6   72.32    2.56
  -6  -3   6   69.65    2.22
  -6  -3   6   72.83    2.36
   5   3  -6   41.60    1.28
   5   3  -6   41.30    1.30
   5   3  -6   43.84    1.47
  -5  -3   6   39.80    1.38
  -5  -3   6   39.40    1.62
  -5  -3   6   42.45    1.49
  -5  -3   6   41.20    1.39
   4   3  -6    4.05    0.39
   4   3  -6    4.12    0.45
   4   3  -6    4.27    0.36
  -4  -3   6    4.26    0.47
  -4  -3   6    3.72    0.53
  -4  -3   6    3.79    0.41
  -4  -3   6    3.71    0.40
   3   3  -6  215.20    5.70
   3   3  -6  206.08    5.67
   3   3  -6  209.73    5.61
   3   3  -6  216.21    6.56
  -3  -3   6  212.55    5.72
  -3  -3   6  206.85    5.66
  -3  -3   6  218.30    5.65
   2   3  -6  225.88    6.14
   2   3  -6  239.18    7.14
   2   3  -6  232.37    6.13
   2   3  -6  230.54    6.16
  -2  -3   6  234.82    6.14
  -2  -3   6  226.31    6.16
   1   3  -6   30.84    1.35
   1   3  -6   30.56    1.06
   1   3  -6   30.73    1.07
  -1  -3   6   28.55    1.07
  -1  -3   6   33.82    1.09
   0   3  -6  128.63    3.63
   0   3  -6  127.76    3.63
   0  -3   6  130.76    3.65
   0  -3   6  138.08    3.64
  -1   3  -6   56.93    1.85
  -1   3  -6   60.11    1.87
   1  -3   6   58.92    1.88
   1  -3   6   62.25    1.85
  -2   3  -6    3.46    0.47
  -2   3  -6    3.87    0.46
   2  -3   6    3.79    0.49
   2  -3   6    3.73    0.46
  -3   3  -6   87.37    2.59
  -3   3  -6   83.55    2.58
   3  -3   6   84.42    2.60
   3  -3   6   82.74    2.55
  -4   3  -6   67.27    2.21
  -4   3  -6   65.56    1.99
   4  -3   6   65.94    2.20
   4  -3   6   67.11    2.17
  -5   3  -6   29.48    1.15
  -5   3  -6   29.00    1.34
   5  -3   6   29.91    1.33
  -6   3  -6   18.23    0.99
  -6   3  -6   17.26    1.14
   6  -3   6   16.88    1.09
  -7   3  -6   24.52    1.20
  -7   3  -6   25.01    1.36
   7  -3   6   24.60    1.33
  -8   3  -6    8.16    0.82
  -8   3  -6    7.91    0.89
   8  -3   6   11.33    0.98
  -9   3  -6    8.50    0.91
  -9   3  -6    9.60    1.01
   9  -3   6   10.30    1.00
 -10   3  -6   21.37    1.46
 -10   3  -6   24.69    1.55
  10  -3   6   25.65    1.54
 -11   3  -6    6.90    1.03
 -13  -2   6    0.74    0.57
 -13  -2   6    0.11    0.79
 -12  -2   6    4.92    0.69
 -12  -2   6    5.14    0.91
 -11  -2   6   36.09    1.82
 -11  -2   6   36.89    1.50
 -10  -2   6    1.88    0.50
 -10  -2   6    1.21    0.65
 -10  -2   6    1.64    0.40
  -9  -2   6   13.09    0.84
  -9  -2   6   13.76    0.73
  -9  -2   6   12.72    1.08
   8   2  -6  119.94    3.61
  -8  -2   6  118.79    3.35
  -8  -2   6  119.39    3.42
  -8  -2   6  121.26    3.67
   7   2  -6    8.51    0.74
  -7  -2   6    7.35    0.54
  -7  -2   6    7.03    0.70
  -7  -2   6    8.28    0.74
  -7  -2   6    7.79    0.66
   6   2  -6   37.87    1.35
  -6  -2   6   34.75    1.17
  -6  -2   6   35.43    1.37
  -6  -2   6   33.91    1.49
  -6  -2   6   33.94    1.21
   5   2  -6  463.97   12.04
  -5  -2   6  436.77   11.82
  -5  -2   6  460.12   12.05
  -5  -2   6  448.06   13.63
  -5  -2   6  463.85   11.84
   4   2  -6    0.02    0.07
   4   2  -6    0.56    0.28
   4   2  -6    0.85    0.23
  -4  -2   6    0.51    0.24
  -4  -2   6    0.02    0.30
  -4  -2   6   -0.17    0.35
  -4  -2   6    0.03    0.24
   3   2  -6    3.19    0.51
   3   2  -6    4.12    0.36
   3   2  -6    3.91    0.35
   3   2  -6    4.12    0.32
  -3  -2   6    3.48    0.36
  -3  -2   6    4.24    0.36
  -3  -2   6    3.57    0.34
  -3  -2   6    3.75    0.53
   2   2  -6  273.17    7.35
   2   2  -6  291.24    8.56
   2   2  -6  279.34    7.34
  -2  -2   6  285.99    7.36
  -2  -2   6  272.00    7.36
   1   2  -6   40.76    1.31
   1   2  -6   42.39    1.31
  -1  -2   6   43.60    1.32
  -1  -2   6   39.72    1.32
   0   2  -6    0.56    0.28
   0   2  -6    0.24    0.27
   0  -2   6    0.18    0.28
   0  -2   6    0.28    0.29
  -1   2  -6  224.48    6.10
  -1   2  -6  226.25    6.10
   1  -2   6  229.14    6.10
   1  -2   6  227.51    6.13
  -2   2  -6   42.20    1.47
  -2   2  -6   45.06    1.47
   2  -2   6   39.73    1.46
   2  -2   6   41.47    1.43
  -3   2  -6    5.45    0.58
  -3   2  -6    6.13    0.59
   3  -2   6    6.49    0.62
   3  -2   6    5.80    0.57
  -4   2  -6  162.96    4.75
  -4   2  -6  168.11    4.59
   4  -2   6  168.84    4.77
   4  -2   6  170.69    4.75
  -5   2  -6   14.32    0.83
  -5   2  -6   14.98    0.98
   5  -2   6   14.17    0.97
  -6   2  -6    3.38    0.61
  -6   2  -6    3.57    0.58
   6  -2   6    3.44    0.63
  -7   2  -6   82.49    2.80
  -7   2  -6   82.01    2.62
   7  -2   6   79.28    2.76
  -8   2  -6   19.42    1.23
  -8   2  -6   21.17    1.35
   8  -2   6   19.87    1.28
  -9   2  -6    0.74    0.64
  -9   2  -6   -0.76    0.59
   9  -2   6    0.61    0.60
 -10   2  -6   25.26    1.56
 -10   2  -6   28.49    1.68
  10  -2   6   31.62    1.68
 -14  -1   6   16.17    1.15
 -13  -1   6    5.70    0.72
 -13  -1   6    5.61    0.99
 -12  -1   6    2.31    0.56
 -12  -1   6    1.69    0.76
 -11  -1   6   29.44    1.61
 -11  -1   6   29.15    1.25
 -10  -1   6   21.26    1.32
 -10  -1   6   21.44    1.01
 -10  -1   6   21.42    0.92
  -9  -1   6    9.90    0.62
  -9  -1   6   10.08    0.90
  -9  -1   6   11.13    0.73
  -8  -1   6   59.72    2.09
  -8  -1   6   58.46    1.75
  -8  -1   6   58.51    1.81
  -7  -1   6   49.55    1.47
  -7  -1   6   49.87    1.77
  -7  -1   6   47.98    1.51
  -6  -1   6    7.95    0.75
  -6  -1   6    9.15    0.73
  -5  -1   6   97.84    2.84
  -5  -1   6   97.75    3.28
  -4  -1   6  141.12    4.58
  -4  -1   6  145.61    3.94
  -3  -1   6    1.22    0.43
  -3  -1   6    2.97    0.27
  -3  -1   6    2.38    0.30
  -3  -1   6    2.17    0.27
   2   1  -6    8.15    0.44
   2   1  -6    7.95    0.69
   2   1  -6    8.79    0.45
  -2  -1   6    8.79    0.47
  -2  -1   6    8.32    0.76
  -2  -1   6    7.74    0.47
   1   1  -6  102.38    3.33
   1   1  -6   97.12    2.77
   1   1  -6  101.69    2.78
  -1  -1   6   97.99    2.79
  -1  -1   6  102.87    2.78
   0   1  -6    5.56    0.45
   0   1  -6    5.59    0.45
   0   1  -6    5.30    0.59
   0  -1   6    5.51    0.48
   0  -1   6    4.38    0.43
  -1   1  -6   36.19    1.26
  -1   1  -6   35.13    1.25
   1  -1   6   37.49    1.25
   1  -1   6   34.80    1.26
  -2   1  -6  118.81    3.41
  -2   1  -6  120.68    3.42
   2  -1   6  119.14    3.40
   2  -1   6  117.58    3.42
  -3   1  -6    4.07    0.53
  -3   1  -6    3.56    0.52
   3  -1   6    3.20    0.49
   3  -1   6    2.93    0.47
  -4   1  -6   29.99    1.28
   4  -1   6   28.46    1.28
  -5   1  -6   36.13    1.55
  -5   1  -6   37.74    1.39
   5  -1   6   37.60    1.54
  -6   1  -6   -0.56    0.44
  -6   1  -6    0.43    0.50
   6  -1   6   -0.25    0.44
  -7   1  -6   24.00    1.36
  -7   1  -6   23.31    1.25
   7  -1   6   23.58    1.34
  -8   1  -6   28.04    1.52
  -8   1  -6   26.03    1.39
   8  -1   6   27.43    1.51
  -9   1  -6   -0.42    0.60
  -9   1  -6   -0.29    0.61
   9  -1   6   -0.22    0.57
 -10   1  -6    7.38    1.03
 -10   1  -6    7.13    0.93
  10  -1   6    8.80    1.04
 -14   0   6    3.58    0.65
 -13   0   6   15.17    1.32
 -13   0   6   15.58    1.00
 -12   0   6    7.49    0.95
 -12   0   6    8.27    0.71
 -11   0   6   18.15    0.92
 -11   0   6   17.02    1.29
 -10   0   6   17.01    0.77
 -10   0   6   17.50    0.85
 -10   0   6   16.37    1.20
  -9   0   6    4.58    0.40
  -9   0   6    4.39    0.68
  -9   0   6    5.09    0.48
  -8   0   6   55.92    1.98
  -7   0   6   75.46    2.40
  -6   0   6   16.87    0.88
  -5   0   6   63.61    2.31
  -5   0   6   64.05    1.95
  -4   0   6   94.02    3.18
  -4   0   6   95.31    2.68
  -3   0   6    5.83    0.37
  -3   0   6    6.32    0.43
  -3   0   6    7.84    0.74
  -3   0   6    6.80    0.38
   2   0  -6   42.13    1.63
   2   0  -6   41.19    1.24
   2   0  -6   42.79    1.25
  -2   0   6   40.30    1.27
  -2   0   6   42.59    1.68
  -2   0   6   43.57    1.27
   1   0  -6   74.77    2.11
   1   0  -6   73.08    2.55
   1   0  -6   71.10    2.10
  -1   0   6   75.80    2.11
  -1   0   6   74.16    2.12
   0   0  -6    0.12    0.27
   0   0  -6    0.12    0.26
   0   0  -6   -0.47    0.33
   0   0   6   -0.07    0.26
   0   0   6   -0.02    0.27
  -1   0  -6  154.13    4.35
  -1   0  -6  158.61    5.03
  -1   0  -6  153.65    4.35
   1   0   6  157.06    4.36
   1   0   6  165.85    4.35
  -2   0  -6   63.94    2.00
  -2   0  -6   62.61    1.98
   2   0   6   61.49    2.00
   2   0   6   62.03    1.97
  -3   0  -6    0.73    0.42
   3   0   6    0.56    0.36
   3   0   6    1.08    0.42
  -4   0  -6   32.15    1.23
  -4   0  -6   32.11    1.36
   4   0   6   30.03    1.35
  -5   0  -6   52.73    1.87
  -5   0  -6   56.49    2.02
   5   0   6   56.18    2.02
  -6   0  -6   -0.28    0.49
  -6   0  -6    0.16    0.51
   6   0   6   -0.11    0.47
  -7   0  -6   15.72    1.15
  -7   0  -6   18.49    1.23
   7   0   6   17.74    1.22
  -8   0  -6   31.18    1.55
  -8   0  -6   30.59    1.62
   8   0   6   28.55    1.58
  -9   0  -6   -0.78    0.63
  -9   0  -6    0.50    0.66
   9   0   6    1.70    0.65
 -10   0  -6    6.96    0.99
 -10   0  -6    5.71    0.97
  10   0   6    7.21    1.00
 -14   1   6    7.86    0.75
 -13   1   6    9.73    0.77
 -13   1   6    9.91    1.12
 -12   1   6   -0.10    0.67
 -12   1   6    0.41    0.41
 -11   1   6   35.18    1.30
 -11   1   6   36.73    1.26
 -11   1   6   36.91    1.72
 -10   1   6   28.06    1.00
 -10   1   6   27.78    1.44
  -9   1   6    1.39    0.55
  -8   1   6   49.42    1.81
  -7   1   6  104.76    3.13
  -6   1   6    3.71    0.49
  -5   1   6   53.62    1.69
  -4   1   6  105.95    3.54
  -3   1   6    2.85    0.26
  -3   1   6    3.07    0.53
  -3   1   6    3.14    0.26
   2  -1  -6   36.04    1.11
   2  -1  -6   35.88    1.11
  -2   1   6   35.82    1.51
  -2   1   6   36.09    1.14
  -2   1   6   37.27    1.13
   1  -1  -6  177.52    5.56
   1  -1  -6  175.18    4.77
   1  -1  -6  178.86    4.77
  -1   1   6  185.33    4.78
  -1   1   6  172.11    4.77
   0  -1  -6   30.98    1.09
   0  -1  -6   29.55    1.31
   0  -1  -6   29.89    1.09
   0   1   6   30.65    1.08
   0   1   6   29.70    1.10
  -1  -1  -6   38.41    1.51
  -1  -1  -6   34.63    1.26
  -1  -1  -6   31.59    1.22
   1   1   6   32.94    1.25
   1   1   6   34.57    1.24
  -2  -1  -6  114.44    3.33
  -2  -1  -6  120.38    3.82
  -2  -1  -6  115.34    3.35
   2   1   6  113.86    3.31
   2   1   6  109.20    3.33
  -3  -1  -6    8.86    0.66
  -3  -1  -6    8.95    0.78
   3   1   6    8.67    0.60
   3   1   6    8.28    0.70
   3   1   6    8.21    0.72
  -4  -1  -6   10.00    0.85
  -4  -1  -6   11.18    0.85
   4   1   6   11.56    0.72
   4   1   6   11.41    0.91
  -5  -1  -6   58.26    2.08
  -5  -1  -6   56.52    1.95
   5   1   6   52.52    2.04
   5   1   6   55.31    1.84
  -6  -1  -6   10.55    0.96
  -6  -1  -6   13.31    1.04
   6   1   6   12.72    0.82
   6   1   6   12.20    1.05
  -7  -1  -6    2.87    0.67
  -7  -1  -6    3.16    0.71
   7   1   6    2.59    0.64
  -8  -1  -6   21.42    1.43
  -8  -1  -6   22.23    1.42
   8   1   6   22.53    1.43
  -9  -1  -6    6.32    0.95
  -9  -1  -6    6.58    0.95
   9   1   6    4.50    0.85
 -10  -1  -6    3.42    0.88
  10   1   6    2.67    0.79
 -14   2   6    8.17    0.74
 -13   2   6    9.21    1.08
 -12   2   6    0.87    0.69
 -11   2   6   27.56    1.51
 -10   2   6   38.89    1.70
  -9   2   6    1.58    0.54
  -8   2   6   28.86    1.30
  -7   2   6   25.65    1.14
  -6   2   6   31.00    1.19
  -4   2   6   62.13    2.30
  -3   2   6   14.73    0.96
  -3   2   6   15.50    0.59
  -3   2   6   14.35    0.58
   2  -2  -6  110.35    2.90
   2  -2  -6  103.17    2.90
  -2   2   6  108.59    2.92
  -2   2   6  101.76    3.52
  -2   2   6  104.82    2.92
   1  -2  -6   30.34    1.05
  -1   2   6   31.05    1.06
  -1   2   6   29.74    1.07
  -1   2   6   31.25    1.42
   0  -2  -6   21.53    0.93
   0  -2  -6   25.45    1.14
   0  -2  -6   23.44    0.93
   0   2   6   22.54    0.93
   0   2   6   21.19    0.93
  -1  -2  -6   17.04    0.99
  -1  -2  -6   17.68    0.89
  -1  -2  -6   15.66    0.82
   1   2   6   17.73    0.87
   1   2   6   16.83    0.84
  -2  -2  -6   12.95    0.91
  -2  -2  -6   11.72    0.83
  -2  -2  -6   11.15    0.79
   2   2   6   11.85    0.81
   2   2   6   11.13    0.76
   2   2   6   12.11    0.68
  -3  -2  -6   31.13    1.26
  -3  -2  -6   29.43    1.31
  -3  -2  -6   28.77    1.39
   3   2   6   29.50    1.12
   3   2   6   27.45    1.27
   3   2   6   28.14    1.22
  -4  -2  -6   14.81    1.06
  -4  -2  -6   17.23    1.07
  -4  -2  -6   16.61    1.04
   4   2   6   15.68    0.87
   4   2   6   15.64    1.03
  -5  -2  -6   19.73    1.21
  -5  -2  -6   20.84    1.20
   5   2   6   19.81    1.21
   5   2   6   20.43    1.01
  -6  -2  -6   16.29    1.20
  -6  -2  -6   18.38    1.23
   6   2   6   18.30    1.22
   6   2   6   17.33    0.98
  -7  -2  -6    5.95    0.84
  -7  -2  -6    4.46    0.82
   7   2   6    6.37    0.87
  -8  -2  -6    8.74    1.00
  -8  -2  -6    9.66    1.04
   8   2   6    7.80    0.97
  -9  -2  -6    6.45    0.96
   9   2   6    5.56    0.93
 -13   3   6   26.13    1.63
 -12   3   6    2.59    0.44
 -12   3   6    2.95    0.77
 -11   3   6   10.55    0.99
 -10   3   6   74.11    2.57
  -9   3   6    5.62    0.70
  -8   3   6   25.02    1.21
   3  -3  -6   17.54    0.63
  -3   3   6   14.41    1.03
  -3   3   6   16.43    0.66
  -3   3   6   16.16    0.67
   2  -3  -6   14.33    0.67
   2  -3  -6   15.64    0.67
  -2   3   6   16.48    0.70
  -2   3   6   14.99    1.01
  -2   3   6   14.33    0.67
   1  -3  -6  151.52    4.23
   1  -3  -6  155.40    4.22
  -1   3   6  161.89    4.99
  -1   3   6  154.53    4.30
  -1   3   6  144.18    4.22
  -1   3   6  157.42    4.23
   0  -3  -6   12.88    0.72
   0  -3  -6   13.17    0.76
   0   3   6   14.68    0.81
   0   3   6   12.87    0.75
   0   3   6   13.53    0.75
  -1  -3  -6    0.85    0.41
   1   3   6    0.02    0.34
   1   3   6    0.54    0.39
   1   3   6    0.08    0.34
  -2  -3  -6   71.30    2.48
  -2  -3  -6   69.32    2.25
   2   3   6   66.36    2.26
   2   3   6   68.96    2.24
   2   3   6   73.31    2.17
  -3  -3  -6   25.39    1.25
  -3  -3  -6   23.25    1.23
   3   3   6   25.07    1.09
   3   3   6   26.59    1.25
  -4  -3  -6   -0.10    0.52
  -4  -3  -6   -0.51    0.42
   4   3   6    0.37    0.48
   4   3   6    0.16    0.39
  -5  -3  -6   52.79    2.22
  -5  -3  -6   60.39    2.20
   5   3   6   60.95    2.02
   5   3   6   61.89    2.24
  -6  -3  -6   11.09    1.00
   6   3   6    8.52    0.92
  -7  -3  -6    1.07    0.71
   7   3   6    0.81    0.62
  -8  -3  -6   16.80    1.44
   8   3   6   17.32    1.43
  -9  -3  -6    9.27    1.17
  -9  -3  -6    9.20    1.09
   9   3   6    9.79    1.18
 -14   4   6    0.88    0.43
 -13   4   6   21.85    1.52
 -13   4   6   23.59    1.03
 -12   4   6    7.27    0.90
 -11   4   6    2.61    0.68
 -10   4   6   55.02    2.09
  -9   4   6   22.27    1.20
  -4   4   6   71.18    2.05
   3  -4  -6  103.28    2.64
   3  -4  -6   89.15    2.66
  -3   4   6   91.86    3.27
  -3   4   6   97.33    2.68
  -3   4   6   90.06    2.66
   2  -4  -6    2.30    0.36
   2  -4  -6    1.91    0.38
  -2   4   6    2.60    0.39
  -2   4   6    1.61    0.37
  -2   4   6    2.71    0.54
  -2   4   6    1.77    0.54
   1  -4  -6   30.74    1.14
   1  -4  -6   30.38    1.16
  -1   4   6   27.95    1.14
  -1   4   6   32.49    1.31
  -1   4   6   31.94    1.17
  -1   4   6   30.58    1.48
   0  -4  -6   55.77    1.88
   0   4   6   57.49    1.87
   0   4   6   56.43    1.88
   0   4   6   58.06    1.92
  -1  -4  -6    3.10    0.56
   1   4   6    3.18    0.54
   1   4   6    2.77    0.50
   1   4   6    2.91    0.48
  -2  -4  -6   26.91    1.29
  -2  -4  -6   26.00    1.26
  -2  -4  -6   28.04    1.26
   2   4   6   26.04    1.24
   2   4   6   28.43    1.22
   2   4   6   27.61    1.22
  -3  -4  -6   54.96    2.04
  -3  -4  -6   54.67    2.07
  -3  -4  -6   57.56    2.08
   3   4   6   55.65    2.06
   3   4   6   57.68    1.93
  -4  -4  -6    0.18    0.57
  -4  -4  -6    0.09    0.53
  -4  -4  -6    0.12    0.40
   4   4   6   -0.73    0.48
   4   4   6   -0.14    0.45
  -5  -4  -6   11.17    1.09
  -5  -4  -6   13.33    1.15
   5   4   6   14.00    1.16
  -6  -4  -6   12.52    1.13
  -6  -4  -6   15.36    1.29
   6   4   6   14.52    1.24
  -7  -4  -6   -0.12    0.65
  -7  -4  -6    0.56    0.69
   7   4   6    0.08    0.63
  -8  -4  -6    7.76    1.03
  -8  -4  -6    6.39    1.06
   8   4   6    6.98    1.11
 -14   5   6    0.98    0.45
 -13   5   6    7.44    0.95
 -12   5   6    8.23    0.94
 -11   5   6    3.07    0.68
 -10   5   6   52.21    2.03
  -5   5   6    2.78    0.39
  -5   5   6    3.01    0.41
   4  -5  -6   54.74    1.59
  -4   5   6   52.87    1.69
   3  -5  -6   51.08    1.54
   3  -5  -6   47.70    1.58
  -3   5   6   46.71    2.01
  -3   5   6   49.29    1.60
  -3   5   6   48.72    1.58
   2  -5  -6    7.59    0.65
   2  -5  -6    6.79    0.57
  -2   5   6    7.74    0.76
  -2   5   6    6.40    0.58
  -2   5   6    7.47    0.83
  -2   5   6    6.63    0.59
   1  -5  -6   46.58    1.65
  -1   5   6   46.82    1.62
  -1   5   6   46.59    1.96
  -1   5   6   49.04    1.78
  -1   5   6   46.24    1.64
   0  -5  -6    8.39    0.74
   0   5   6    9.31    0.76
   0   5   6    9.26    0.75
   0   5   6    8.93    0.79
  -1  -5  -6    7.57    0.74
   1   5   6    7.34    0.71
   1   5   6    6.60    0.70
   1   5   6    8.20    0.77
  -2  -5  -6   54.09    2.01
   2   5   6   52.57    2.00
   2   5   6   56.52    1.96
  -3  -5  -6   22.71    1.30
  -3  -5  -6   23.81    1.32
   3   5   6   24.04    1.23
   3   5   6   22.77    1.31
  -4  -5  -6    0.96    0.61
  -4  -5  -6    1.04    0.63
   4   5   6    0.93    0.58
  -5  -5  -6   12.25    1.13
  -5  -5  -6   10.56    1.05
   5   5   6   14.03    1.24
  -6  -5  -6    9.95    1.07
  -6  -5  -6   10.86    1.11
   6   5   6   11.94    1.15
  -7  -5  -6    2.26    0.78
  -7  -5  -6    1.51    0.77
   7   5   6    1.20    0.76
  -8  -5  -6    6.15    1.06
  -8  -5  -6    7.48    1.13
   8   5   6    6.64    1.04
 -14   6   6    0.70    0.41
 -13   6   6   13.98    1.23
 -12   6   6   16.36    1.32
 -11   6   6   -0.84    0.52
  -7   6   6   13.92    0.76
  -6   6   6   68.52    2.11
  -6   6   6   73.85    2.15
  -5   6   6    1.75    0.41
  -5   6   6    1.82    0.41
   4  -6  -6   19.73    0.81
   4  -6  -6   18.66    0.83
  -4   6   6   19.51    0.96
  -4   6   6   20.31    0.93
   3  -6  -6  118.96    3.47
  -3   6   6  124.09    3.67
  -3   6   6  119.87    3.48
  -3   6   6  120.68    4.12
   2  -6  -6    6.44    0.63
  -2   6   6    5.98    0.80
  -2   6   6    6.45    0.64
  -2   6   6    6.56    0.62
  -2   6   6    7.48    0.81
   1  -6  -6   10.92    0.85
  -1   6   6   11.66    1.11
  -1   6   6   11.97    0.82
  -1   6   6   10.98    0.86
  -1   6   6   12.15    1.07
   0  -6  -6   81.82    2.61
   0   6   6   78.32    2.55
   0   6   6   78.43    2.58
   0   6   6   80.31    2.64
  -1  -6  -6    0.10    0.48
   1   6   6    0.45    0.50
   1   6   6    0.38    0.57
   1   6   6    0.66    0.45
  -2  -6  -6   12.62    1.04
   2   6   6   11.64    1.02
   2   6   6   11.18    0.92
  -3  -6  -6   43.87    1.86
  -3  -6  -6   44.29    1.91
   3   6   6   47.76    1.96
  -4  -6  -6    3.05    0.73
  -4  -6  -6    2.81    0.73
   4   6   6    2.34    0.72
  -5  -6  -6    3.07    0.78
  -5  -6  -6    2.20    0.76
   5   6   6    1.59    0.71
  -6  -6  -6   19.44    1.49
  -6  -6  -6   21.59    1.58
   6   6   6   21.08    1.55
  -7  -6  -6    3.40    0.90
  -7  -6  -6    3.21    0.94
   7   6   6    2.67    0.83
 -13   7   6    8.73    1.08
 -12   7   6   23.18    1.52
  -9   7   6   64.21    2.00
  -9   7   6   62.80    1.93
  -8   7   6   28.64    1.11
  -8   7   6   29.88    1.17
  -7   7   6    5.98    0.57
  -7   7   6    5.29    0.53
  -6   7   6   40.40    1.46
  -6   7   6   42.00    1.47
  -5   7   6   19.46    1.00
  -5   7   6   20.64    0.99
   4  -7  -6    6.64    0.58
  -4   7   6    6.92    0.65
  -4   7   6    6.48    0.67
   3  -7  -6   23.94    1.09
  -3   7   6   22.22    1.43
  -3   7   6   21.12    1.13
  -3   7   6   24.05    1.37
   2  -7  -6   25.50    1.23
  -2   7   6   29.03    1.56
  -2   7   6   28.33    1.47
  -2   7   6   26.52    1.26
  -2   7   6   28.14    1.23
   1  -7  -6    0.62    0.50
  -1   7   6    0.60    0.44
  -1   7   6    0.50    0.48
  -1   7   6   -0.52    0.56
  -1   7   6    1.12    0.64
   0  -7  -6   34.55    1.52
   0   7   6   32.53    1.50
   0   7   6   31.69    1.55
   0   7   6   33.82    1.45
  -1  -7  -6    8.69    0.90
   1   7   6    7.70    0.87
  -2  -7  -6    4.21    0.79
   2   7   6    3.86    0.77
  -3  -7  -6    8.76    1.01
   3   7   6    8.17    1.00
  -4  -7  -6   13.99    1.25
  -4  -7  -6   15.24    1.26
   4   7   6   12.85    1.23
  -5  -7  -6    1.47    0.79
  -5  -7  -6    2.13    0.78
   5   7   6    3.08    0.86
  -6  -7  -6    5.14    0.93
  -6  -7  -6    5.31    1.02
   6   7   6    4.39    0.95
 -12   8   6   15.48    1.31
 -11   8   6    7.38    0.62
 -10   8   6    5.16    0.54
  -9   8   6   22.27    1.02
  -8   8   6   15.72    0.87
  -8   8   6   15.25    0.92
  -7   8   6    7.58    0.65
  -7   8   6    7.80    0.68
   6  -8  -6   29.10    1.08
  -6   8   6   33.17    1.31
  -6   8   6   31.71    1.30
   5  -8  -6   10.16    0.69
  -5   8   6    9.51    0.78
  -5   8   6   10.07    0.82
   4  -8  -6    1.90    0.44
  -4   8   6    2.38    0.51
  -4   8   6    2.44    0.56
   3  -8  -6   31.50    1.34
  -3   8   6   34.05    1.72
  -3   8   6   30.46    1.42
   2  -8  -6   14.16    0.98
  -2   8   6   12.55    1.21
  -2   8   6   11.90    0.89
  -2   8   6   12.81    1.02
   1  -8  -6    0.14    0.52
  -1   8   6    0.40    0.43
  -1   8   6   -0.36    0.48
  -1   8   6    0.25    0.61
   0  -8  -6   25.61    1.42
   0   8   6   27.11    1.44
  -1  -8  -6    4.60    0.77
   1   8   6    4.59    0.77
  -2  -8  -6    0.12    0.63
   2   8   6    0.13    0.61
  -3  -8  -6   11.60    1.18
   3   8   6   13.42    1.25
  -4  -8  -6    3.73    0.92
   4   8   6    4.06    0.90
  -5  -8  -6    0.21    0.76
   5   8   6    0.18    0.70
 -13   9   6    0.29    0.47
 -12   9   6   18.10    1.01
 -11   9   6   12.32    0.89
 -10   9   6   -0.44    0.42
  -9   9   6   25.96    1.20
  -8   9   6   17.98    1.03
  -7   9   6    0.26    0.49
  -6   9   6   33.91    1.42
  -6   9   6   34.64    1.45
   5  -9  -6   23.26    1.09
  -5   9   6   25.84    1.24
  -5   9   6   26.83    1.28
   4  -9  -6    0.46    0.44
  -4   9   6   -0.31    0.47
  -4   9   6    0.66    0.48
   3  -9  -6   30.43    1.39
  -3   9   6   32.29    1.50
  -3   9   6   35.10    1.78
   2  -9  -6   28.26    1.40
  -2   9   6   24.60    1.31
  -2   9   6   30.15    1.63
  -2   9   6   28.33    1.46
   1  -9  -6   -0.92    0.48
  -1   9   6    1.46    0.63
  -1   9   6    0.87    0.68
   0  -9  -6    5.48    0.82
   0   9   6    5.10    0.82
  -1  -9  -6   19.99    1.40
   1   9   6   16.50    1.34
  -2  -9  -6   -0.30    0.63
   2   9   6    0.42    0.66
  -3  -9  -6    4.03    0.94
   3   9   6    4.04    0.88
  -4  -9  -6    5.94    1.03
   4   9   6    6.99    1.15
 -12  10   6    4.85    0.65
 -11  10   6   13.46    0.99
 -10  10   6    0.71    0.52
  -9  10   6    9.14    0.79
  -8  10   6   16.76    1.10
  -7  10   6    1.14    0.57
  -6  10   6   11.09    0.93
  -5  10   6   12.51    1.08
  -4  10   6    0.42    0.56
  -4  10   6    0.12    0.62
  -3  10   6   10.91    1.12
  -3  10   6   11.24    1.01
   2 -10  -6   10.31    0.96
  -2  10   6    9.45    0.97
  -2  10   6    9.01    1.01
   1 -10  -6    5.89    0.83
  -1  10   6    5.44    0.89
  -1  10   6    4.26    0.82
   0 -10  -6    6.10    0.89
   0  10   6    7.33    0.96
  -1 -10  -6    4.50    0.89
   1  10   6    6.25    1.01
  -2 -10  -6    3.00    0.90
   2  10   6    2.11    0.82
  -3 -10  -6    2.44    0.92
   3  10   6    3.73    0.93
 -11  11   6   14.74    1.11
 -10  11   6   -0.69    0.54
  -9  11   6    6.99    0.78
  -8  11   6   15.07    1.14
  -7  11   6    2.15    0.64
  -6  11   6    5.39    0.78
  -5  11   6   18.85    1.27
  -4  11   6   -1.18    0.55
  -4  11   6    0.16    0.65
  -3  11   6    2.59    0.81
  -3  11   6    2.50    0.69
  -2  11   6   14.89    1.41
  -2  11   6   17.76    1.37
  -1  11   6    0.38    0.67
   0  11   6    0.36    0.73
   1  11   6    6.78    1.06
   2  11   6    1.12    0.79
 -10  12   6    1.60    0.67
  -9  12   6    1.62    0.66
  -8  12   6   16.79    1.25
  -7  12   6    6.84    0.88
  -6  12   6    1.91    0.71
  -5  12   6    9.25    0.99
  -4  12   6    8.38    0.98
  -4  12   6    8.63    1.05
  -3  12   6    1.20    0.70
  -3  12   6   -1.14    0.65
  -2  12   6    5.64    0.91
  -1  12   6    3.63    0.87
   0  12   6   -0.90    0.73
  -8  13   6    5.59    0.86
  -7  13   6    3.44    0.81
  -6  13   6    0.07    0.65
  -5  13   6    3.34    0.84
  -5  13   6    4.58    0.91
  -4  13   6    6.97    0.96
  -3  13   6    0.34    0.71
   1  15  -7    9.68    1.20
  -1 -15   7    8.72    1.16
   0  15  -7    0.78    0.75
   0 -15   7   -0.21    0.73
  -1  15  -7    1.33    0.82
   1 -15   7    1.84    0.92
  -2  15  -7   11.75    1.28
   2 -15   7   12.30    1.32
  -3  15  -7    4.03    0.99
   3 -15   7    1.99    0.86
  -4  15  -7    1.37    0.84
   4 -15   7    0.02    0.74
   4  14  -7    7.44    1.01
  -4 -14   7    7.33    1.10
   3  14  -7    8.46    1.04
  -3 -14   7    8.45    1.19
   2  14  -7   -1.54    0.59
  -2 -14   7   -0.90    0.75
   1  14  -7    6.41    0.93
  -1 -14   7    8.28    1.10
   0  14  -7   14.38    1.30
   0 -14   7   16.10    1.44
  -1  14  -7    0.55    0.70
   1 -14   7    0.94    0.80
  -2  14  -7    7.04    1.04
   2 -14   7    5.91    1.03
  -3  14  -7   24.06    1.65
   3 -14   7   23.30    1.72
  -4  14  -7    1.28    0.82
   4 -14   7   -0.77    0.65
  -5  14  -7   10.06    1.15
   5 -14   7    7.72    1.06
  -6  14  -7   22.67    1.70
   6 -14   7   20.57    1.61
  -5 -13   7   -0.93    0.73
   4  13  -7    5.24    0.91
  -4 -13   7    6.53    1.02
   3  13  -7    5.65    0.87
  -3 -13   7    5.90    0.98
   2  13  -7   -0.64    0.62
  -2 -13   7    0.09    0.74
   1  13  -7    5.52    0.91
  -1 -13   7    4.30    0.94
   0  13  -7   19.55    1.40
   0 -13   7   16.44    1.42
  -1  13  -7    0.70    0.66
   1 -13   7   -0.37    0.72
  -2  13  -7    6.10    0.98
   2 -13   7    7.44    1.03
  -3  13  -7    9.93    1.08
   3 -13   7   10.08    1.13
  -4  13  -7    2.46    0.78
   4 -13   7    1.86    0.76
  -5  13  -7    4.72    0.92
   5 -13   7    5.92    0.98
  -6  13  -7   17.95    1.53
   6 -13   7   13.47    1.26
  -7  13  -7    2.40    0.85
   7 -13   7    1.71    0.75
  -7 -12   7    6.24    1.03
  -6 -12   7    9.69    1.14
  -6 -12   7    9.55    1.20
   5  12  -7   -0.15    0.56
  -5 -12   7    0.71    0.75
  -5 -12   7    0.04    0.74
   4  12  -7    7.36    0.90
  -4 -12   7    9.29    1.09
   3  12  -7   21.85    1.41
  -3 -12   7   21.60    1.52
   2  12  -7    3.12    0.78
  -2 -12   7    3.17    0.85
   1  12  -7   10.11    1.02
  -1 -12   7   12.83    1.19
   0  12  -7   38.65    1.80
   0 -12   7   35.85    1.89
  -1  12  -7    8.63    0.99
   1 -12   7    7.00    0.99
  -2  12  -7   16.84    1.33
   2 -12   7   16.66    1.39
  -3  12  -7   46.28    2.06
   3 -12   7   47.29    2.12
  -4  12  -7   13.18    1.17
   4 -12   7    9.01    1.05
  -5  12  -7    6.94    0.96
   5 -12   7    6.92    0.97
  -6  12  -7   54.73    2.31
   6 -12   7   49.95    2.26
  -7  12  -7    6.94    1.00
   7 -12   7    8.72    1.04
  -8  12  -7    0.86    0.78
   8 -12   7    1.05    0.72
  -8 -11   7    4.69    0.95
  -7 -11   7    1.70    0.77
  -7 -11   7    3.98    1.00
   6  11  -7   10.00    1.03
  -6 -11   7   10.07    1.13
  -6 -11   7   11.32    1.23
   5  11  -7    5.93    0.85
  -5 -11   7    8.06    1.08
  -5 -11   7    5.93    0.90
   4  11  -7    3.25    0.69
  -4 -11   7    2.40    0.77
  -4 -11   7    2.60    0.76
   3  11  -7   21.31    1.33
  -3 -11   7   22.44    1.46
   2  11  -7   19.70    1.25
   2  11  -7   18.40    1.28
  -2 -11   7   20.89    1.43
   1  11  -7    3.98    0.77
  -1 -11   7    5.29    0.85
   0  11  -7   12.51    1.11
   0 -11   7   11.63    1.11
  -1  11  -7   49.53    2.06
   1 -11   7   53.10    2.18
  -2  11  -7    5.95    0.83
   2 -11   7    6.15    0.88
  -3  11  -7   36.76    1.72
   3 -11   7   37.39    1.79
  -4  11  -7   39.18    1.80
   4 -11   7   35.70    1.80
  -5  11  -7    2.03    0.71
   5 -11   7    1.95    0.70
  -6  11  -7   16.45    1.34
   6 -11   7   18.21    1.36
  -7  11  -7   37.99    1.89
   7 -11   7   33.07    1.77
  -8  11  -7   -0.39    0.72
   8 -11   7    1.28    0.67
  -9  11  -7    6.07    1.01
  -9 -10   7   11.16    1.20
  -8 -10   7    2.65    0.78
  -8 -10   7    2.08    0.91
  -7 -10   7    2.18    0.76
  -7 -10   7    1.36    0.84
   6  10  -7   22.09    1.32
  -6 -10   7   22.67    1.64
  -6 -10   7   22.78    1.47
   5  10  -7   10.57    0.94
  -5 -10   7   10.61    1.06
  -5 -10   7   12.02    1.19
   4  10  -7    0.30    0.51
  -4 -10   7    0.75    0.60
  -4 -10   7    0.50    0.70
   3  10  -7   27.53    1.39
   3  10  -7   27.26    1.35
  -3 -10   7   26.91    1.50
   2  10  -7   11.03    1.04
   2  10  -7   14.05    1.05
  -2 -10   7   13.99    1.19
   1  10  -7    0.45    0.49
  -1 -10   7    0.62    0.61
   0  10  -7   46.87    1.96
   0  10  -7   50.57    1.94
   0 -10   7   51.92    2.05
  -1  10  -7   14.30    1.12
  -1  10  -7   12.80    1.07
   1 -10   7   13.68    1.15
  -2  10  -7   -0.42    0.50
  -2  10  -7    0.33    0.55
   2 -10   7   -0.05    0.54
  -3  10  -7   71.45    2.49
  -3  10  -7   67.50    2.47
   3 -10   7   69.54    2.54
  -4  10  -7   12.50    1.03
   4 -10   7   11.17    1.03
  -5  10  -7    0.20    0.59
   5 -10   7    0.80    0.61
  -6  10  -7   25.91    1.51
   6 -10   7   25.01    1.49
  -7  10  -7   19.61    1.42
   7 -10   7   19.83    1.38
  -8  10  -7    2.67    0.77
   8 -10   7    3.19    0.74
  -9  10  -7   12.91    1.23
  -9  10  -7   11.15    0.97
   9 -10   7   11.88    1.13
 -10  -9   7    0.37    0.74
  -9  -9   7   26.41    1.62
  -9  -9   7   22.88    1.84
  -8  -9   7   11.96    1.13
  -8  -9   7   12.11    1.26
   7   9  -7    2.42    0.61
  -7  -9   7    2.64    0.86
  -7  -9   7    2.33    0.68
   6   9  -7   33.21    1.55
  -6  -9   7   35.74    1.87
  -6  -9   7   34.85    1.69
   5   9  -7   69.81    2.47
  -5  -9   7   73.83    2.73
  -5  -9   7   73.33    2.61
   4   9  -7   10.49    0.94
   4   9  -7    9.66    0.82
  -4  -9   7   10.74    1.03
  -4  -9   7    9.18    0.94
   3   9  -7   34.30    1.48
   3   9  -7   33.34    1.54
  -3  -9   7   35.29    1.65
  -3  -9   7   32.87    1.58
   2   9  -7   41.56    1.80
   2   9  -7   41.24    1.70
   2   9  -7   42.62    1.66
  -2  -9   7   39.10    1.76
   1   9  -7    4.27    0.67
   1   9  -7    6.32    0.76
  -1  -9   7    4.11    0.72
   0   9  -7   59.72    2.16
   0   9  -7   60.79    2.14
   0  -9   7   59.92    2.22
  -1   9  -7   66.93    2.35
  -1   9  -7   66.27    2.31
   1  -9   7   67.33    2.39
  -2   9  -7    5.70    0.74
  -2   9  -7    5.48    0.70
   2  -9   7    5.71    0.76
  -3   9  -7   27.02    1.38
  -3   9  -7   27.39    1.37
   3  -9   7   26.24    1.40
  -4   9  -7   35.51    1.61
   4  -9   7   33.48    1.61
  -5   9  -7    3.63    0.71
   5  -9   7    4.19    0.75
  -6   9  -7    8.66    0.96
   6  -9   7    7.22    0.88
  -7   9  -7   35.72    1.76
   7  -9   7   35.97    1.73
  -8   9  -7    7.26    0.80
  -8   9  -7    7.96    0.95
   8  -9   7    7.07    0.89
  -9   9  -7    4.20    0.71
  -9   9  -7    4.17    0.83
   9  -9   7    4.79    0.81
 -10   9  -7   20.68    1.57
 -11  -8   7   12.46    1.20
 -10  -8   7    0.12    0.68
 -10  -8   7    0.92    0.86
  -9  -8   7    3.99    0.83
  -9  -8   7    4.86    0.97
  -8  -8   7   29.81    1.61
  -8  -8   7   32.27    1.84
   7   8  -7    8.25    0.78
  -7  -8   7    8.72    0.85
  -7  -8   7    8.57    1.04
  -7  -8   7    8.83    0.94
   6   8  -7    6.20    0.70
  -6  -8   7    5.42    0.87
  -6  -8   7    6.87    0.83
  -6  -8   7    5.68    0.70
   5   8  -7   63.40    2.18
  -5  -8   7   61.66    2.30
  -5  -8   7   64.06    2.24
  -5  -8   7   65.03    2.44
   4   8  -7    2.62    0.59
   4   8  -7    3.42    0.59
   4   8  -7    3.15    0.54
  -4  -8   7    2.90    0.55
  -4  -8   7    4.27    0.69
  -4  -8   7    2.70    0.72
   3   8  -7    5.37    0.65
   3   8  -7    5.51    0.68
   3   8  -7    5.81    0.68
  -3  -8   7    6.31    0.75
  -3  -8   7    6.34    0.67
  -3  -8   7    5.93    0.81
   2   8  -7   17.38    0.99
   2   8  -7   18.40    1.07
   2   8  -7   16.00    1.14
  -2  -8   7   17.57    1.01
  -2  -8   7   18.02    1.13
   1   8  -7    3.27    0.58
   1   8  -7    1.36    0.47
  -1  -8   7    2.40    0.58
  -1  -8   7    1.77    0.46
   0   8  -7    8.31    0.74
   0   8  -7    8.10    0.75
   0  -8   7   10.05    0.84
   0  -8   7    7.26    0.70
  -1   8  -7   50.80    1.84
  -1   8  -7   48.44    1.81
   1  -8   7   49.30    1.87
  -2   8  -7   18.39    1.12
  -2   8  -7   17.29    1.06
   2  -8   7   18.34    1.14
  -3   8  -7    0.00    0.49
  -3   8  -7    0.46    0.50
   3  -8   7    0.78    0.50
  -4   8  -7   20.75    1.23
   4  -8   7   21.73    1.25
  -5   8  -7   17.06    1.17
   5  -8   7   16.16    1.15
  -6   8  -7    4.02    0.74
   6  -8   7    4.18    0.73
  -7   8  -7   28.48    1.36
  -7   8  -7   32.65    1.62
   7  -8   7   30.06    1.55
  -8   8  -7   11.30    1.11
  -8   8  -7   11.64    0.99
   8  -8   7   11.60    1.06
  -9   8  -7    2.75    0.75
  -9   8  -7    2.10    0.65
   9  -8   7    3.05    0.70
 -10   8  -7   27.07    1.68
  10  -8   7   22.92    1.54
 -11  -7   7   14.90    1.30
 -10  -7   7    1.67    0.69
 -10  -7   7    1.27    0.82
  -9  -7   7    6.81    0.88
  -9  -7   7    6.51    0.99
   8   7  -7   23.36    1.19
  -8  -7   7   22.75    1.38
  -8  -7   7   25.33    1.61
   7   7  -7    1.39    0.48
  -7  -7   7    0.79    0.60
  -7  -7   7    0.56    0.47
  -7  -7   7    0.46    0.68
   6   7  -7   15.28    0.94
  -6  -7   7   17.60    1.28
  -6  -7   7   15.24    0.98
  -6  -7   7   14.75    1.06
   5   7  -7   11.43    0.92
   5   7  -7   12.03    0.85
  -5  -7   7   12.83    1.05
  -5  -7   7   10.89    0.94
  -5  -7   7   13.47    0.92
   4   7  -7    0.24    0.44
   4   7  -7    0.68    0.39
   4   7  -7   -0.05    0.40
  -4  -7   7    0.41    0.49
  -4  -7   7    0.44    0.58
  -4  -7   7    1.05    0.45
   3   7  -7   22.77    1.20
   3   7  -7   22.65    1.03
   3   7  -7   21.03    1.10
  -3  -7   7   21.18    1.14
  -3  -7   7   21.04    1.05
  -3  -7   7   19.98    1.20
   2   7  -7   91.15    3.07
   2   7  -7   86.70    2.69
   2   7  -7   86.93    2.67
  -2  -7   7   84.99    2.74
  -2  -7   7   84.59    2.73
  -2  -7   7   87.28    2.69
   1   7  -7    3.99    0.55
   1   7  -7    3.13    0.51
  -1  -7   7    2.71    0.46
  -1  -7   7    2.62    0.54
   0   7  -7   39.25    1.47
   0   7  -7   38.06    1.47
   0  -7   7   39.88    1.48
   0  -7   7   38.56    1.53
  -1   7  -7   69.46    2.26
  -1   7  -7   67.21    2.27
   1  -7   7   70.61    2.33
   1  -7   7   73.19    2.27
  -2   7  -7   22.88    1.15
  -2   7  -7   24.47    1.14
   2  -7   7   23.20    1.20
  -3   7  -7    0.04    0.47
   3  -7   7    0.49    0.48
  -4   7  -7  119.19    3.60
   4  -7   7  115.76    3.62
  -5   7  -7   24.02    1.30
   5  -7   7   23.83    1.30
  -6   7  -7    4.21    0.72
  -6   7  -7    3.58    0.54
   6  -7   7    4.21    0.73
  -7   7  -7   65.42    2.42
  -7   7  -7   62.81    2.19
   7  -7   7   66.05    2.42
  -8   7  -7   11.53    1.06
  -8   7  -7   10.75    0.96
   8  -7   7   10.34    1.02
  -9   7  -7   -0.57    0.56
  -9   7  -7   -0.27    0.64
   9  -7   7    0.49    0.57
 -10   7  -7   21.39    1.57
  10  -7   7   21.73    1.45
 -12  -6   7    5.43    0.89
 -11  -6   7   12.35    1.10
 -11  -6   7    9.57    1.22
 -10  -6   7   15.16    1.20
 -10  -6   7   14.32    1.33
  -9  -6   7    4.83    0.90
  -9  -6   7    5.51    0.79
   8   6  -7   25.00    1.16
  -8  -6   7   25.45    1.24
  -8  -6   7   29.40    1.58
  -8  -6   7   26.24    1.36
   7   6  -7   20.22    1.01
  -7  -6   7   21.95    1.37
  -7  -6   7   21.04    1.11
  -7  -6   7   21.50    1.21
   6   6  -7   10.22    0.76
   6   6  -7    9.88    0.88
  -6  -6   7   11.56    0.82
  -6  -6   7   10.25    0.86
  -6  -6   7   12.12    0.98
   5   6  -7   19.18    0.93
   5   6  -7   17.95    1.03
  -5  -6   7   16.89    0.98
  -5  -6   7   18.34    1.18
  -5  -6   7   18.85    1.06
   4   6  -7   54.31    1.78
   4   6  -7   48.27    1.67
   4   6  -7   48.78    1.91
  -4  -6   7   50.43    1.75
  -4  -6   7   47.54    1.76
  -4  -6   7   48.20    1.84
   3   6  -7   18.26    1.07
   3   6  -7   18.07    0.88
   3   6  -7   17.85    0.95
  -3  -6   7   16.06    1.04
  -3  -6   7   18.84    0.92
  -3  -6   7   17.20    0.98
   2   6  -7  112.72    3.31
   2   6  -7  111.15    3.31
   2   6  -7  117.23    3.85
  -2  -6   7  122.11    3.36
  -2  -6   7  109.86    3.37
  -2  -6   7  115.57    3.39
   1   6  -7  115.01    3.27
   1   6  -7  109.17    3.23
  -1  -6   7  114.48    3.28
  -1  -6   7  110.92    3.32
   0   6  -7    6.20    0.55
   0   6  -7    6.63    0.64
   0  -6   7    6.93    0.62
   0  -6   7    6.52    0.63
  -1   6  -7   40.57    1.50
  -1   6  -7   39.09    1.44
   1  -6   7   42.64    1.50
   1  -6   7   41.20    1.54
  -2   6  -7  154.83    4.35
  -2   6  -7  147.75    4.25
   2  -6   7  157.78    4.35
   2  -6   7  146.96    4.36
  -3   6  -7    1.15    0.51
   3  -6   7    0.47    0.46
  -4   6  -7   82.76    2.62
   4  -6   7   75.22    2.59
  -5   6  -7   78.31    2.43
  -5   6  -7   77.60    2.65
   5  -6   7   82.00    2.69
  -6   6  -7   -0.63    0.40
  -6   6  -7    0.48    0.54
   6  -6   7   -0.11    0.48
  -7   6  -7   22.03    1.35
  -7   6  -7   19.38    1.11
   7  -6   7   22.12    1.30
  -8   6  -7   41.15    1.86
  -8   6  -7   37.80    1.61
   8  -6   7   39.27    1.80
  -9   6  -7   -0.10    0.54
  -9   6  -7    0.10    0.66
   9  -6   7   -0.55    0.53
 -10   6  -7    6.02    0.96
  10  -6   7    5.24    0.87
 -12  -5   7    1.14    0.67
 -11  -5   7   10.89    1.19
 -11  -5   7   10.79    1.00
 -10  -5   7   16.06    1.40
 -10  -5   7   14.29    1.08
 -10  -5   7   14.66    1.13
  -9  -5   7   -0.45    0.47
  -9  -5   7    0.16    0.50
  -9  -5   7    0.02    0.64
   8   5  -7   22.53    1.01
  -8  -5   7   22.18    1.09
  -8  -5   7   22.51    1.20
  -8  -5   7   23.38    1.25
  -8  -5   7   23.83    1.42
   7   5  -7   27.85    1.14
  -7  -5   7   29.76    1.26
  -7  -5   7   28.39    1.48
  -7  -5   7   29.91    1.34
   6   5  -7    0.49    0.31
   6   5  -7   -0.06    0.42
  -6  -5   7    0.45    0.57
  -6  -5   7    0.90    0.39
  -6  -5   7    0.24    0.40
   5   5  -7    9.92    0.64
   5   5  -7    9.32    0.78
  -5  -5   7   10.84    0.84
  -5  -5   7    9.10    0.73
  -5  -5   7    8.70    0.72
   4   5  -7   76.71    2.48
   4   5  -7   83.95    2.86
   4   5  -7   82.05    2.43
   4   5  -7   87.00    2.54
  -4  -5   7   82.67    2.58
  -4  -5   7   81.68    2.52
  -4  -5   7   82.68    2.49
   3   5  -7    0.15    0.29
   3   5  -7   -0.13    0.34
   3   5  -7   -0.18    0.30
   3   5  -7    0.22    0.42
  -3  -5   7   -0.22    0.30
  -3  -5   7   -0.82    0.41
  -3  -5   7    0.35    0.37
   2   5  -7   41.37    1.71
   2   5  -7   42.17    1.38
   2   5  -7   38.73    1.37
   2   5  -7   38.85    1.42
  -2  -5   7   41.80    1.46
  -2  -5   7   39.76    1.44
  -2  -5   7   41.64    1.41
   1   5  -7   57.48    1.79
   1   5  -7   59.20    1.89
   1   5  -7   61.00    1.87
  -1  -5   7   59.89    1.86
  -1  -5   7   56.18    1.88
   0   5  -7   14.24    0.78
   0   5  -7   15.51    0.81
   0  -5   7   14.55    0.83
   0  -5   7   15.14    0.80
  -1   5  -7   57.42    1.84
  -1   5  -7   55.12    1.83
   1  -5   7   56.28    1.82
   1  -5   7   50.67    1.83
  -2   5  -7   49.83    1.73
   2  -5   7   47.76    1.74
   2  -5   7   49.13    1.69
  -3   5  -7    0.13    0.41
   3  -5   7   -0.41    0.39
  -4   5  -7   32.73    1.18
  -4   5  -7   30.87    1.40
   4  -5   7   32.20    1.42
  -5   5  -7   71.42    2.39
  -5   5  -7   66.68    2.12
   5  -5   7   67.51    2.36
  -6   5  -7    3.14    0.69
  -6   5  -7    3.54    0.54
   6  -5   7    3.95    0.67
  -7   5  -7   20.99    1.14
  -7   5  -7   22.24    1.35
   7  -5   7   24.68    1.34
  -8   5  -7   27.37    1.54
  -8   5  -7   25.30    1.29
   8  -5   7   26.42    1.47
  -9   5  -7    5.17    0.88
  -9   5  -7    3.44    0.71
   9  -5   7    4.97    0.82
 -10   5  -7    4.63    0.90
  10  -5   7    4.33    0.84
 -13  -4   7    2.60    0.70
 -12  -4   7    0.22    0.83
 -12  -4   7    1.13    0.63
 -11  -4   7   26.71    1.67
 -11  -4   7   23.12    1.33
 -11  -4   7   24.09    1.38
 -10  -4   7   11.22    0.98
 -10  -4   7   13.83    1.20
 -10  -4   7   12.37    1.04
   9   4  -7    0.90    0.34
  -9  -4   7    0.83    0.42
  -9  -4   7    0.79    0.51
  -9  -4   7    0.87    0.66
  -9  -4   7    1.45    0.54
   8   4  -7   59.50    1.93
  -8  -4   7   63.62    2.12
  -8  -4   7   65.35    2.31
  -8  -4   7   60.83    2.34
  -8  -4   7   63.59    2.03
   7   4  -7   22.44    1.14
   7   4  -7   21.83    0.89
  -7  -4   7   22.83    1.24
  -7  -4   7   22.07    1.02
  -7  -4   7   22.14    1.26
  -7  -4   7   23.35    1.11
   6   4  -7   13.09    0.66
   6   4  -7   12.93    0.87
  -6  -4   7   13.90    0.78
  -6  -4   7   12.03    0.96
  -6  -4   7   12.51    0.79
  -6  -4   7   12.61    0.98
   5   4  -7   64.30    1.91
   5   4  -7   61.99    1.94
   5   4  -7   68.03    2.08
  -5  -4   7   61.18    2.00
  -5  -4   7   64.95    2.02
  -5  -4   7   64.82    2.12
   4   4  -7   65.74    1.96
   4   4  -7   65.73    2.05
   4   4  -7   67.18    2.03
   4   4  -7   67.05    2.40
  -4  -4   7   67.07    2.02
  -4  -4   7   64.84    2.04
  -4  -4   7   66.35    2.09
   3   4  -7    8.04    0.60
   3   4  -7    8.32    0.79
   3   4  -7    8.07    0.55
   3   4  -7    8.79    0.60
  -3  -4   7    9.14    0.69
  -3  -4   7    9.13    0.59
  -3  -4   7    8.77    0.63
   2   4  -7   82.25    2.45
   2   4  -7   86.85    2.95
   2   4  -7   85.36    2.41
   2   4  -7   85.46    2.49
  -2  -4   7   82.92    2.49
  -2  -4   7   85.61    2.46
   1   4  -7   44.92    1.50
   1   4  -7   46.02    1.52
   1   4  -7   47.75    1.88
  -1  -4   7   45.09    1.52
  -1  -4   7   46.87    1.51
   0   4  -7   12.34    0.72
   0   4  -7   11.97    0.69
   0  -4   7   13.13    0.72
   0  -4   7   11.66    0.73
  -1   4  -7   74.21    2.37
  -1   4  -7   80.40    2.40
   1  -4   7   76.51    2.40
   1  -4   7   80.65    2.38
  -2   4  -7   69.43    2.17
   2  -4   7   67.89    2.14
   2  -4   7   65.02    2.17
  -3   4  -7   13.03    0.88
   3  -4   7   12.47    0.89
   3  -4   7   13.21    0.81
  -4   4  -7   15.75    1.01
   4  -4   7   16.74    1.01
  -5   4  -7  108.60    3.37
  -5   4  -7  107.65    3.13
   5  -4   7  108.51    3.38
  -6   4  -7    5.60    0.77
  -6   4  -7    7.27    0.64
   6  -4   7    7.41    0.82
  -7   4  -7   14.60    0.98
  -7   4  -7   17.10    1.22
   7  -4   7   14.14    1.12
  -8   4  -7   35.07    1.75
  -8   4  -7   33.35    1.50
   8  -4   7   35.47    1.68
  -9   4  -7    8.58    0.90
  -9   4  -7   11.22    1.11
   9  -4   7    9.53    1.04
 -10   4  -7    1.04    0.80
  10  -4   7    1.77    0.72
 -13  -3   7   10.68    1.00
 -12  -3   7    0.87    0.56
 -12  -3   7    1.44    0.60
 -12  -3   7    1.60    0.78
 -11  -3   7   14.34    1.22
 -11  -3   7   12.40    1.10
 -11  -3   7   14.41    1.02
 -10  -3   7   31.15    1.56
 -10  -3   7   32.32    1.63
 -10  -3   7   29.85    1.35
  -9  -3   7    4.06    0.47
  -9  -3   7    3.69    0.66
  -9  -3   7    5.43    0.76
  -9  -3   7    4.29    0.60
  -8  -3   7   17.60    1.13
  -8  -3   7   14.98    0.93
  -8  -3   7   16.25    0.82
  -8  -3   7   17.90    1.15
   7   3  -7   81.42    2.49
  -7  -3   7   78.53    2.53
  -7  -3   7   77.35    2.30
  -7  -3   7   75.15    2.35
  -7  -3   7   72.06    2.73
   6   3  -7   33.39    1.27
   6   3  -7   30.27    1.01
  -6  -3   7   28.61    1.13
  -6  -3   7   33.17    1.31
  -6  -3   7   30.01    1.14
  -6  -3   7   29.60    1.42
   5   3  -7   92.55    2.58
   5   3  -7   94.18    2.73
  -5  -3   7   92.02    3.16
  -5  -3   7   87.99    2.64
  -5  -3   7   95.64    2.66
  -5  -3   7   91.15    2.75
   4   3  -7   22.35    0.91
   4   3  -7   20.60    0.84
   4   3  -7   22.33    0.80
  -4  -3   7   22.30    0.86
  -4  -3   7   21.29    0.93
  -4  -3   7   21.11    0.87
  -4  -3   7   23.13    1.21
   3   3  -7   51.76    1.58
   3   3  -7   51.69    1.56
   3   3  -7   52.19    1.61
   3   3  -7   52.33    1.98
  -3  -3   7   52.52    1.61
  -3  -3   7   52.36    1.59
  -3  -3   7   51.12    1.60
   2   3  -7   13.49    0.94
   2   3  -7   13.83    0.66
   2   3  -7   14.51    0.68
  -2  -3   7   14.93    0.68
  -2  -3   7   14.26    0.70
   1   3  -7  160.20    4.96
   1   3  -7  154.99    4.21
   1   3  -7  152.52    4.20
  -1  -3   7  156.39    4.20
  -1  -3   7  143.48    4.21
   0   3  -7  112.28    3.27
   0   3  -7  115.39    3.26
   0  -3   7  113.41    3.28
   0  -3   7  119.20    3.27
  -1   3  -7   33.76    1.25
  -1   3  -7   33.27    1.23
   1  -3   7   33.76    1.24
   1  -3   7   32.17    1.26
  -2   3  -7  111.59    3.27
  -2   3  -7  114.78    3.29
   2  -3   7  106.77    3.28
   2  -3   7  113.49    3.26
  -3   3  -7   97.10    2.93
   3  -3   7   95.16    2.89
   3  -3   7   95.10    2.94
  -4   3  -7   22.12    1.15
   4  -3   7   20.58    1.13
  -5   3  -7   22.54    1.25
   5  -3   7   22.11    1.20
  -6   3  -7   33.57    1.56
  -6   3  -7   33.43    1.33
   6  -3   7   32.95    1.54
  -7   3  -7    3.01    0.60
  -7   3  -7    3.14    0.67
   7  -3   7    3.55    0.67
  -8   3  -7   15.36    1.22
  -8   3  -7   14.00    1.11
   8  -3   7   19.65    1.30
  -9   3  -7   14.67    1.23
  -9   3  -7   18.04    1.41
   9  -3   7   18.67    1.34
 -10   3  -7    1.24    0.76
  10  -3   7    1.46    0.69
 -13  -2   7   17.17    1.53
 -13  -2   7   18.43    1.17
 -12  -2   7   -0.02    0.72
 -12  -2   7   -0.25    0.49
 -11  -2   7    5.15    0.63
 -11  -2   7    4.36    0.86
 -10  -2   7   25.05    1.42
 -10  -2   7   23.63    0.99
 -10  -2   7   23.54    1.11
 -10  -2   7   24.60    1.39
  -9  -2   7    5.00    0.73
  -9  -2   7    5.72    0.60
  -9  -2   7    4.93    0.46
  -9  -2   7    4.18    0.66
   8   2  -7    1.28    0.44
  -8  -2   7    0.59    0.52
  -8  -2   7    0.32    0.39
  -8  -2   7    0.73    0.29
  -8  -2   7    1.08    0.55
   7   2  -7   66.62    2.07
  -7  -2   7   59.49    2.32
  -7  -2   7   61.63    2.10
  -7  -2   7   59.46    1.89
  -7  -2   7   60.74    1.84
   6   2  -7   20.46    0.95
  -6  -2   7   18.61    0.80
  -6  -2   7   21.01    1.01
  -6  -2   7   20.49    0.82
  -6  -2   7   20.21    1.15
   5   2  -7   37.42    1.29
  -5  -2   7   35.37    1.57
  -5  -2   7   37.56    1.18
  -5  -2   7   35.13    1.17
  -5  -2   7   36.71    1.31
   4   2  -7   48.75    1.50
  -4  -2   7   47.02    1.52
  -4  -2   7   49.36    1.44
  -4  -2   7   45.73    1.44
  -4  -2   7   48.17    1.89
   3   2  -7   63.80    2.31
   3   2  -7   70.09    1.87
   3   2  -7   64.11    1.82
  -3  -2   7   62.64    1.84
  -3  -2   7   61.32    1.85
  -3  -2   7   61.28    1.85
   2   2  -7   14.26    0.91
   2   2  -7   13.12    0.62
   2   2  -7   12.91    0.61
  -2  -2   7   14.66    0.64
  -2  -2   7   12.44    0.64
   1   2  -7  316.80    9.81
   1   2  -7  316.75    8.46
   1   2  -7  315.28    8.44
  -1  -2   7  320.30    8.48
  -1  -2   7  335.78    8.47
   0   2  -7   92.96    3.22
   0   2  -7   90.81    2.69
   0   2  -7   93.11    2.70
   0  -2   7   93.84    2.72
   0  -2   7   95.75    2.69
  -1   2  -7    1.62    0.39
  -1   2  -7    1.04    0.34
   1  -2   7    1.55    0.36
   1  -2   7    1.16    0.37
  -2   2  -7  108.95    3.25
  -2   2  -7  118.09    3.31
   2  -2   7  109.66    3.22
   2  -2   7  106.54    3.25
  -3   2  -7   41.31    1.53
   3  -2   7   38.50    1.46
   3  -2   7   38.39    1.51
  -4   2  -7    0.86    0.49
   4  -2   7    0.85    0.46
  -5   2  -7   24.61    1.28
   5  -2   7   24.19    1.27
  -6   2  -7   24.43    1.17
  -6   2  -7   26.92    1.40
   6  -2   7   27.07    1.38
  -7   2  -7    2.67    0.61
  -7   2  -7    3.50    0.70
   7  -2   7    3.04    0.69
  -8   2  -7   19.94    1.26
  -8   2  -7   24.17    1.46
   8  -2   7   19.33    1.36
  -9   2  -7    9.48    1.07
  -9   2  -7    8.05    0.93
   9  -2   7    9.55    1.05
 -10   2  -7    0.09    0.69
  10  -2   7    1.88    0.75
 -14  -1   7    3.33    0.65
 -13  -1   7   31.75    1.84
 -13  -1   7   31.96    1.42
 -12  -1   7    9.62    0.77
 -12  -1   7    7.85    1.01
 -11  -1   7    2.32    0.51
 -11  -1   7    1.35    0.68
 -10  -1   7   42.18    1.41
 -10  -1   7   43.64    1.85
 -10  -1   7   44.38    1.53
  -9  -1   7   31.74    1.17
  -9  -1   7   30.22    1.06
  -9  -1   7   31.57    1.49
  -8  -1   7    3.61    0.62
  -7  -1   7  111.09    3.24
  -7  -1   7  104.51    3.67
  -6  -1   7   40.92    1.47
  -6  -1   7   39.88    1.73
  -5  -1   7    0.26    0.46
  -5  -1   7    0.13    0.32
  -4  -1   7  244.29    6.11
  -4  -1   7  227.38    7.26
  -4  -1   7  233.00    6.25
  -4  -1   7  228.44    6.11
   3   1  -7   93.60    2.48
   3   1  -7   86.95    3.07
  -3  -1   7   91.30    2.50
  -3  -1   7   87.13    3.10
  -3  -1   7   91.24    2.49
   2   1  -7   17.14    0.69
   2   1  -7   17.20    1.00
   2   1  -7   17.46    0.69
  -2  -1   7   18.24    0.74
  -2  -1   7   19.25    0.73
   1   1  -7  129.91    4.24
   1   1  -7  127.97    3.56
   1   1  -7  131.28    3.57
  -1  -1   7  128.83    3.56
  -1  -1   7  130.38    3.59
   0   1  -7  157.92    4.38
   0   1  -7  160.55    5.14
   0   1  -7  158.79    4.38
   0  -1   7  158.02    4.40
   0  -1   7  162.52    4.38
  -1   1  -7    3.38    0.45
  -1   1  -7    3.95    0.49
  -1   1  -7    3.24    0.60
   1  -1   7    4.24    0.49
   1  -1   7    3.80    0.48
  -2   1  -7   31.17    1.26
   2  -1   7   31.91    1.23
   2  -1   7   30.49    1.26
  -3   1  -7   45.16    1.64
   3  -1   7   43.20    1.65
   3  -1   7   44.54    1.60
  -4   1  -7   -0.03    0.46
   4  -1   7    0.69    0.45
  -5   1  -7   16.82    1.12
   5  -1   7   17.59    1.10
  -6   1  -7   58.21    2.19
  -6   1  -7   56.45    1.99
   6  -1   7   59.94    2.21
  -7   1  -7    4.35    0.76
  -7   1  -7    4.24    0.67
   7  -1   7    6.38    0.83
  -8   1  -7    7.80    0.96
  -8   1  -7    5.78    0.81
   8  -1   7    9.54    1.00
  -9   1  -7   19.17    1.49
   9  -1   7   21.98    1.48
 -10   1  -7    0.93    0.77
  10  -1   7    0.27    0.61
 -14   0   7    1.73    0.56
 -13   0   7   21.42    1.54
 -13   0   7   18.51    1.06
 -12   0   7   51.89    2.25
 -12   0   7   55.93    1.84
 -11   0   7    0.85    0.63
 -10   0   7    6.27    0.78
  -9   0   7   87.79    2.86
  -8   0   7    2.11    0.52
  -7   0   7   35.71    1.40
  -6   0   7  140.85    4.71
  -6   0   7  145.91    4.06
  -5   0   7    6.34    0.71
  -5   0   7    5.15    0.48
  -4   0   7   34.32    1.54
  -4   0   7   35.91    1.17
  -3   0   7  108.07    3.63
  -3   0   7  109.64    2.92
  -3   0   7  105.61    2.93
   2   0  -7    0.44    0.24
   2   0  -7    0.37    0.23
   2   0  -7    0.95    0.40
  -2   0   7    0.32    0.24
  -2   0   7    0.35    0.45
  -2   0   7    0.68    0.26
   1   0  -7    6.39    0.47
   1   0  -7    5.95    0.47
   1   0  -7    6.83    0.67
  -1   0   7    5.89    0.48
  -1   0   7    6.73    0.52
   0   0  -7  169.30    4.54
   0   0  -7  167.10    5.30
   0   0  -7  161.47    4.53
   0   0   7  169.55    4.53
   0   0   7  159.90    4.54
  -1   0  -7    8.51    0.66
  -1   0  -7    8.73    0.87
  -1   0  -7    8.33    0.63
   1   0   7    7.69    0.65
   1   0   7    9.12    0.65
  -2   0  -7   12.34    0.81
  -2   0  -7   10.98    0.98
   2   0   7   12.49    0.82
   2   0   7   12.32    0.78
  -3   0  -7   40.00    1.55
   3   0   7   39.68    1.55
   3   0   7   40.26    1.50
  -4   0  -7    1.67    0.52
   4   0   7    1.84    0.54
  -5   0  -7   17.68    1.13
  -5   0  -7   17.03    0.99
   5   0   7   16.78    1.12
  -6   0  -7   48.70    1.86
  -6   0  -7   53.35    2.05
   6   0   7   49.53    2.03
  -7   0  -7    8.48    0.97
  -7   0  -7    9.66    0.87
   7   0   7    9.02    0.97
  -8   0  -7    4.04    0.75
  -8   0  -7    2.84    0.78
   8   0   7    3.57    0.75
  -9   0  -7   19.42    1.49
   9   0   7   20.15    1.47
 -14   1   7    0.78    0.50
 -13   1   7    9.79    1.10
 -13   1   7   11.50    0.83
 -12   1   7   28.26    1.62
 -12   1   7   28.72    1.15
 -11   1   7    7.97    0.88
 -10   1   7   16.98    1.19
  -9   1   7   13.49    1.02
  -8   1   7    3.12    0.56
  -7   1   7   47.71    1.68
  -6   1   7   79.84    2.42
  -5   1   7   34.14    1.55
  -5   1   7   33.30    1.18
  -4   1   7   33.51    1.13
  -4   1   7   34.58    1.55
  -3   1   7   52.15    2.07
  -3   1   7   52.93    1.55
  -3   1   7   54.29    1.54
   2  -1  -7   21.38    0.81
   2  -1  -7   23.34    0.82
  -2   1   7   23.34    0.84
  -2   1   7   21.11    0.83
  -2   1   7   21.53    1.23
   1  -1  -7   48.73    1.53
   1  -1  -7   48.23    1.52
   1  -1  -7   48.32    1.87
  -1   1   7   47.40    1.54
  -1   1   7   48.57    1.52
   0  -1  -7   58.23    1.88
   0  -1  -7   60.41    1.88
   0  -1  -7   62.25    2.26
   0   1   7   58.77    1.89
   0   1   7   61.36    1.88
  -1  -1  -7   25.37    1.29
  -1  -1  -7   25.14    1.08
   1   1   7   24.19    1.08
   1   1   7   24.16    1.03
  -2  -1  -7    9.78    0.92
  -2  -1  -7   11.01    0.82
   2   1   7   11.68    0.82
   2   1   7   10.83    0.76
  -3  -1  -7   52.34    2.18
  -3  -1  -7   55.40    1.96
   3   1   7   56.14    2.01
   3   1   7   56.22    1.97
  -4  -1  -7   15.76    0.97
  -4  -1  -7   16.01    1.07
   4   1   7   16.53    0.81
   4   1   7   16.32    1.08
  -5  -1  -7   10.78    0.94
  -5  -1  -7    9.77    0.95
   5   1   7   12.09    1.03
   5   1   7   10.66    0.74
  -6  -1  -7   47.03    1.84
  -6  -1  -7   47.12    1.98
   6   1   7   47.01    1.96
  -7  -1  -7    9.85    1.01
  -7  -1  -7    8.84    0.93
   7   1   7    7.33    0.93
  -8  -1  -7    0.73    0.67
  -8  -1  -7    1.59    0.70
   8   1   7    0.23    0.63
  -9  -1  -7    9.23    1.13
   9   1   7   11.73    1.21
 -14   2   7    5.14    0.59
 -13   2   7    3.26    0.83
 -12   2   7   27.78    1.58
 -11   2   7    8.88    0.92
 -10   2   7   28.81    1.45
  -9   2   7   36.51    1.55
  -8   2   7   11.48    0.88
  -7   2   7   21.22    1.03
  -6   2   7   89.04    2.66
  -5   2   7   86.26    3.08
  -4   2   7   21.25    1.24
  -3   2   7   93.89    2.68
  -3   2   7   97.50    3.37
  -3   2   7   99.66    2.68
   2  -2  -7   58.58    1.77
   2  -2  -7   63.25    1.77
  -2   2   7   60.35    1.79
  -2   2   7   59.65    2.30
  -2   2   7   56.22    1.78
   1  -2  -7   21.01    0.87
   1  -2  -7   21.79    1.13
  -1   2   7   20.63    0.87
  -1   2   7   19.24    0.88
   0  -2  -7   52.46    1.76
   0  -2  -7   56.64    2.07
   0  -2  -7   53.94    1.74
   0   2   7   55.05    1.75
   0   2   7   51.62    1.76
  -1  -2  -7   57.48    2.21
  -1  -2  -7   60.24    1.96
   1   2   7   57.81    1.94
   1   2   7   58.76    1.90
  -2  -2  -7    5.08    0.62
  -2  -2  -7    4.31    0.64
   2   2   7    4.03    0.53
   2   2   7    5.20    0.64
  -3  -2  -7   30.49    1.48
  -3  -2  -7   28.98    1.29
  -3  -2  -7   32.29    1.40
   3   2   7   31.19    1.16
   3   2   7   30.52    1.38
  -4  -2  -7   62.17    2.21
  -4  -2  -7   60.34    2.08
   4   2   7   58.45    1.92
   4   2   7   60.08    2.18
  -5  -2  -7    5.30    0.75
  -5  -2  -7    3.30    0.64
   5   2   7    3.50    0.68
   5   2   7    4.22    0.53
  -6  -2  -7   11.32    1.06
  -6  -2  -7   11.24    0.98
   6   2   7   12.43    1.08
   6   2   7   10.79    0.84
  -7  -2  -7   21.34    1.44
  -7  -2  -7   19.12    1.34
   7   2   7   20.67    1.43
  -8  -2  -7    0.61    0.73
   8   2   7    1.26    0.72
 -13   3   7    0.15    0.72
 -12   3   7   17.60    1.33
 -11   3   7   10.86    0.97
 -10   3   7    1.14    0.60
  -9   3   7   47.80    1.83
  -8   3   7   38.08    1.52
  -5   3   7   58.84    2.33
  -4   3   7    1.68    0.27
  -4   3   7    0.63    0.54
   3  -3  -7   73.45    2.02
  -3   3   7   67.78    2.05
  -3   3   7   71.87    2.66
  -3   3   7   70.88    2.05
   2  -3  -7   45.36    1.40
   2  -3  -7   42.11    1.41
  -2   3   7   45.04    1.90
  -2   3   7   44.56    1.54
  -2   3   7   41.67    1.42
  -2   3   7   44.34    1.43
   1  -3  -7    0.35    0.32
   1  -3  -7    0.47    0.31
  -1   3   7    0.46    0.31
  -1   3   7    0.37    0.32
  -1   3   7    0.75    0.42
   0  -3  -7   41.37    1.49
   0   3   7   39.05    1.47
   0   3   7   43.73    1.44
   0   3   7   40.96    1.46
  -1  -3  -7   32.44    1.48
   1   3   7   37.16    1.27
   1   3   7   35.24    1.35
   1   3   7   30.95    1.34
  -2  -3  -7    1.18    0.47
   2   3   7    1.63    0.42
   2   3   7    1.25    0.46
   2   3   7    1.64    0.45
  -3  -3  -7   30.70    1.47
  -3  -3  -7   32.02    1.39
   3   3   7   32.86    1.26
   3   3   7   32.72    1.47
  -4  -3  -7   29.63    1.41
   4   3   7   30.07    1.48
   4   3   7   29.97    1.25
  -5  -3  -7    1.02    0.59
   5   3   7    0.42    0.53
   5   3   7    1.04    0.46
  -6  -3  -7    9.07    0.92
   6   3   7    8.45    0.96
  -7  -3  -7    8.73    1.00
   7   3   7   10.50    1.13
  -8  -3  -7    2.43    0.83
   8   3   7    2.64    0.82
 -13   4   7   -0.12    0.66
 -12   4   7   24.29    1.48
 -11   4   7   13.31    1.17
 -10   4   7    0.71    0.55
  -9   4   7   51.65    1.92
  -4   4   7    5.28    0.44
  -4   4   7    5.29    0.75
  -4   4   7    5.56    0.48
   3  -4  -7   73.27    2.18
   3  -4  -7   75.45    2.14
  -3   4   7   76.31    2.19
  -3   4   7   74.00    2.79
  -3   4   7   72.02    2.18
   2  -4  -7   41.38    1.38
   2  -4  -7   40.81    1.42
  -2   4   7   38.81    1.41
  -2   4   7   41.74    1.86
  -2   4   7   42.53    1.42
  -2   4   7   44.01    1.59
   1  -4  -7    0.35    0.36
  -1   4   7    0.14    0.46
  -1   4   7    0.25    0.35
  -1   4   7    0.60    0.62
  -1   4   7    0.10    0.33
   0  -4  -7   24.08    1.11
   0   4   7   24.60    1.14
   0   4   7   23.30    1.08
   0   4   7   22.78    1.06
  -1  -4  -7   47.01    1.74
   1   4   7   43.55    1.68
   1   4   7   47.90    1.65
   1   4   7   44.04    1.65
  -2  -4  -7   10.81    0.91
  -2  -4  -7   11.23    0.85
   2   4   7    9.82    0.83
   2   4   7   10.90    0.91
  -3  -4  -7   23.53    1.29
  -3  -4  -7   20.09    1.13
  -3  -4  -7   19.09    1.18
   3   4   7   22.66    1.09
   3   4   7   24.15    1.27
  -4  -4  -7   24.16    1.35
  -4  -4  -7   25.64    1.43
   4   4   7   25.16    1.20
   4   4   7   25.35    1.40
  -5  -4  -7    2.95    0.74
  -5  -4  -7    4.06    0.79
   5   4   7    2.87    0.71
  -6  -4  -7    6.95    0.94
  -6  -4  -7    5.89    0.91
   6   4   7    6.93    0.94
  -7  -4  -7   11.95    1.13
  -7  -4  -7   11.05    1.24
   7   4   7   11.52    1.24
 -13   5   7    0.90    0.71
 -12   5   7    4.83    0.82
 -11   5   7   37.25    1.73
 -10   5   7    0.68    0.55
  -5   5   7   70.94    2.12
   4  -5  -7    5.01    0.39
  -4   5   7    5.04    0.48
  -4   5   7    3.75    0.74
  -4   5   7    4.50    0.48
   3  -5  -7    4.39    0.43
   3  -5  -7    2.63    0.43
  -3   5   7    3.26    0.74
  -3   5   7    3.51    0.47
  -3   5   7    3.67    0.46
  -3   5   7    4.86    0.66
   2  -5  -7   76.93    2.44
  -2   5   7   79.21    2.46
  -2   5   7   79.45    2.99
  -2   5   7   80.04    2.44
  -2   5   7   85.92    2.63
   1  -5  -7    3.26    0.53
  -1   5   7    2.90    0.62
  -1   5   7    4.14    0.53
  -1   5   7    4.02    0.75
  -1   5   7    3.25    0.50
   0  -5  -7    3.44    0.58
   0   5   7    2.37    0.61
   0   5   7    3.10    0.55
   0   5   7    3.36    0.53
  -1  -5  -7   63.17    2.15
   1   5   7   61.39    2.09
   1   5   7   57.40    2.12
   1   5   7   58.82    2.07
  -2  -5  -7   12.12    1.01
   2   5   7   11.55    1.00
   2   5   7   12.32    0.95
  -3  -5  -7    1.40    0.60
   3   5   7    1.51    0.53
   3   5   7    2.48    0.65
  -4  -5  -7   15.26    1.25
  -4  -5  -7   15.21    1.18
   4   5   7   15.36    1.23
  -5  -5  -7    8.04    0.98
  -5  -5  -7    5.64    0.84
   5   5   7    6.12    0.96
  -6  -5  -7    3.66    0.80
  -6  -5  -7    1.22    0.74
   6   5   7    3.30    0.82
  -7  -5  -7    8.52    1.14
   7   5   7    9.57    1.15
 -13   6   7   -0.33    0.66
 -12   6   7    4.41    0.82
 -11   6   7    6.11    0.83
  -6   6   7   17.53    0.86
  -6   6   7   19.86    0.87
  -5   6   7   37.91    1.38
   4  -6  -7   10.68    0.66
  -4   6   7   11.94    0.75
  -4   6   7   12.13    0.80
  -4   6   7   11.86    1.08
   3  -6  -7    6.78    0.62
  -3   6   7    7.49    0.89
  -3   6   7    6.81    0.65
  -3   6   7    8.71    0.71
  -3   6   7    7.68    0.82
   2  -6  -7   17.05    1.00
  -2   6   7   19.76    1.22
  -2   6   7   19.30    0.97
  -2   6   7   20.98    1.40
  -2   6   7   18.02    1.02
   1  -6  -7   30.28    1.36
  -1   6   7   28.66    1.35
  -1   6   7   29.53    1.67
  -1   6   7   33.80    1.50
  -1   6   7   31.88    1.31
   0  -6  -7   11.81    0.97
   0   6   7   10.31    0.85
   0   6   7    8.96    0.86
   0   6   7   12.58    0.98
  -1  -6  -7   33.69    1.53
   1   6   7   32.52    1.51
   1   6   7   33.64    1.55
  -2  -6  -7   10.20    0.96
   2   6   7   12.01    1.04
   2   6   7    8.90    0.86
  -3  -6  -7    2.11    0.67
   3   6   7    0.34    0.61
  -4  -6  -7   11.12    1.13
   4   6   7    9.42    1.05
  -5  -6  -7    3.05    0.88
  -5  -6  -7    3.14    0.79
   5   6   7    5.04    0.94
  -6  -6  -7    0.48    0.79
  -6  -6  -7    0.52    0.66
   6   6   7   -0.55    0.69
 -12   7   7    4.59    0.85
  -7   7   7   13.59    0.80
  -7   7   7   13.47    0.79
  -6   7   7    1.09    0.42
  -6   7   7    1.49    0.46
  -5   7   7   54.98    1.86
   4  -7  -7   18.19    0.92
  -4   7   7   20.25    1.45
  -4   7   7   19.39    0.97
  -4   7   7   22.32    1.29
  -4   7   7   20.01    1.07
   3  -7  -7   -0.14    0.39
  -3   7   7    0.10    0.37
  -3   7   7   -0.09    0.45
  -3   7   7   -0.10    0.65
  -3   7   7    0.37    0.60
   2  -7  -7   38.81    1.62
  -2   7   7   43.33    2.02
  -2   7   7   41.89    1.66
  -2   7   7   45.45    1.83
  -2   7   7   41.95    1.60
   1  -7  -7   36.20    1.55
  -1   7   7   34.33    1.48
  -1   7   7   36.80    1.57
  -1   7   7   35.80    1.63
  -1   7   7   36.27    1.84
   0  -7  -7    1.84    0.63
   0   7   7    2.35    0.66
   0   7   7    1.86    0.59
  -1  -7  -7   29.10    1.52
   1   7   7   28.88    1.52
  -2  -7  -7   11.36    1.09
   2   7   7   10.60    1.04
  -3  -7  -7   -0.43    0.65
   3   7   7   -0.73    0.61
  -4  -7  -7    9.89    1.17
   4   7   7   10.69    1.16
  -5  -7  -7    7.03    1.09
   5   7   7    7.58    1.10
 -12   8   7    1.50    0.67
  -9   8   7    0.29    0.40
  -8   8   7   18.63    0.94
  -7   8   7   61.62    2.03
  -7   8   7   63.88    2.04
  -6   8   7   -0.18    0.46
  -6   8   7   -0.82    0.41
   5  -8  -7    4.88    0.50
  -5   8   7    5.81    0.67
   4  -8  -7   34.09    1.35
  -4   8   7   36.54    1.49
  -4   8   7   33.52    1.86
  -4   8   7   34.56    1.41
   3  -8  -7   -0.09    0.43
  -3   8   7    0.09    0.51
  -3   8   7   -0.72    0.65
  -3   8   7    0.13    0.40
   2  -8  -7   12.24    1.00
  -2   8   7   17.21    1.39
  -2   8   7   14.30    1.08
  -2   8   7   12.36    0.94
   1  -8  -7   24.28    1.35
  -1   8   7   26.37    1.39
  -1   8   7   25.53    1.29
   0  -8  -7    0.08    0.54
   0   8   7   -0.41    0.52
  -1  -8  -7    3.33    0.77
   1   8   7    3.75    0.76
  -2  -8  -7    9.20    1.07
   2   8   7   10.84    1.12
  -3  -8  -7    0.93    0.75
   3   8   7    0.92    0.75
  -4  -8  -7    4.17    0.97
   4   8   7    2.33    0.86
 -10   9   7   10.18    0.82
  -9   9   7    1.72    0.52
  -8   9   7   24.80    1.19
  -7   9   7   25.04    1.23
  -6   9   7    3.05    0.61
  -5   9   7   13.29    1.04
  -4   9   7    9.39    1.10
  -4   9   7   11.77    1.02
  -3   9   7    0.64    0.59
  -3   9   7    0.01    0.70
   2  -9  -7   15.46    1.13
  -2   9   7   17.75    1.48
  -2   9   7   14.63    1.20
   1  -9  -7    8.18    0.90
  -1   9   7    8.91    0.97
   0  -9  -7    1.66    0.67
   0   9   7    2.47    0.73
  -1  -9  -7    3.18    0.79
   1   9   7    2.54    0.80
  -2  -9  -7    7.99    1.08
   2   9   7    6.31    0.98
  -3  -9  -7    1.11    0.81
   3   9   7    0.83    0.77
 -11  10   7    6.49    0.66
 -10  10   7   22.21    1.17
  -9  10   7    2.40    0.59
  -8  10   7    6.47    0.73
  -7  10   7   27.06    1.35
  -6  10   7    6.00    0.76
  -5  10   7    3.57    0.83
  -5  10   7    3.25    0.68
  -4  10   7   30.94    1.54
  -4  10   7   32.99    1.89
  -3  10   7    3.27    0.73
  -3  10   7    1.31    0.78
  -2  10   7    2.34    0.86
  -2  10   7    3.17    0.73
  -1  10   7   13.29    1.19
   0  10   7    5.58    0.93
   1  10   7   -0.03    0.68
   2  10   7    9.32    1.18
 -11  11   7    2.32    0.61
 -10  11   7    4.83    0.71
  -9  11   7    6.19    0.78
  -8  11   7    1.23    0.61
  -7  11   7    6.23    0.82
  -6  11   7   10.11    0.95
  -5  11   7    3.50    0.90
  -5  11   7    3.41    0.75
  -4  11   7    6.36    1.00
  -4  11   7    9.22    0.99
  -3  11   7    8.70    0.99
  -3  11   7    8.13    1.09
  -2  11   7    1.37    0.84
  -2  11   7    2.13    0.75
  -1  11   7    2.17    0.83
   0  11   7    8.80    1.16
   1  11   7    0.63    0.79
  -9  12   7    1.26    0.66
  -8  12   7    0.72    0.65
  -7  12   7   17.60    1.31
  -6  12   7    2.48    0.74
  -6  12   7    1.94    0.78
  -5  12   7    0.01    0.76
  -5  12   7   -0.45    0.60
  -4  12   7   11.12    1.09
  -4  12   7    8.87    1.14
  -3  12   7    0.33    0.73
  -2  12   7    0.16    0.70
   0  15  -8    3.75    0.85
   0 -15   8    4.76    1.03
  -1  15  -8    3.40    0.96
   1 -15   8    2.68    0.98
  -2  15  -8   -0.05    0.72
   2 -15   8    0.43    0.79
   3  14  -8    8.57    1.11
  -3 -14   8    7.27    1.15
   2  14  -8    7.52    1.07
  -2 -14   8    9.58    1.19
   1  14  -8   -0.47    0.63
  -1 -14   8   -0.82    0.76
   0  14  -8    8.46    1.07
   0 -14   8    8.69    1.16
  -1  14  -8    8.33    1.09
   1 -14   8    7.75    1.08
  -2  14  -8    1.57    0.79
   2 -14   8    1.10    0.77
  -3  14  -8   10.61    1.16
   3 -14   8    8.43    1.14
  -4  14  -8   21.13    1.62
   4 -14   8   20.93    1.68
  -5  14  -8    2.08    0.86
   5 -14   8    0.83    0.80
  -5 -13   8   14.02    1.34
   4  13  -8    0.57    0.63
  -4 -13   8    1.19    0.75
   3  13  -8    2.16    0.73
  -3 -13   8    3.41    0.87
   2  13  -8   24.92    1.56
  -2 -13   8   28.14    1.72
   1  13  -8    3.62    0.82
  -1 -13   8    3.62    0.87
   0  13  -8   -0.01    0.64
   0 -13   8    0.43    0.79
  -1  13  -8   28.11    1.67
   1 -13   8   28.59    1.77
  -2  13  -8    5.71    0.92
   2 -13   8    6.23    1.00
  -3  13  -8    1.17    0.71
   3 -13   8    1.64    0.79
  -4  13  -8   28.48    1.71
   4 -13   8   26.96    1.75
  -5  13  -8   12.33    1.22
   5 -13   8   11.61    1.21
  -6  13  -8    0.47    0.77
   6 -13   8    0.44    0.70
  -7 -12   8    1.75    0.76
  -6 -12   8    4.01    0.96
  -6 -12   8    3.43    0.90
   5  12  -8    9.90    1.01
  -5 -12   8    9.94    1.12
  -5 -12   8    9.75    1.12
   4  12  -8    5.87    0.83
  -4 -12   8    7.21    1.04
   3  12  -8    2.35    0.68
  -3 -12   8    2.47    0.81
   2  12  -8    9.17    1.00
  -2 -12   8    8.67    1.06
   1  12  -8    5.18    0.82
  -1 -12   8    6.60    0.96
   0  12  -8    0.75    0.63
   0 -12   8    0.13    0.70
  -1  12  -8   24.62    1.49
   1 -12   8   24.18    1.59
  -2  12  -8    7.88    0.93
   2 -12   8    7.77    1.02
  -3  12  -8    1.87    0.72
   3 -12   8    0.83    0.67
  -4  12  -8   12.27    1.13
   4 -12   8   11.02    1.13
  -5  12  -8    9.87    1.08
   5 -12   8   10.03    1.12
  -6  12  -8    2.04    0.78
   6 -12   8    2.21    0.74
  -7  12  -8   12.66    1.26
   7 -12   8   13.86    1.25
  -8 -11   8    4.28    0.94
  -7 -11   8    4.10    0.87
  -7 -11   8    8.04    1.15
  -6 -11   8    2.94    0.79
  -6 -11   8    2.42    0.86
   5  11  -8   23.71    1.38
  -5 -11   8   22.15    1.47
  -5 -11   8   21.03    1.57
   4  11  -8    9.39    0.96
  -4 -11   8    8.70    1.04
   3  11  -8    1.53    0.59
  -3 -11   8    1.66    0.74
   2  11  -8   21.22    1.29
  -2 -11   8   18.19    1.38
   1  11  -8   33.86    1.60
  -1 -11   8   30.52    1.68
   0  11  -8    0.40    0.55
   0 -11   8    0.54    0.65
  -1  11  -8   56.50    2.23
   1 -11   8   57.84    2.33
  -2  11  -8   41.46    1.85
   2 -11   8   41.43    1.93
  -3  11  -8   -0.29    0.58
   3 -11   8   -0.43    0.60
  -4  11  -8   25.95    1.52
   4 -11   8   26.78    1.57
  -5  11  -8   26.74    1.58
   5 -11   8   27.80    1.60
  -6  11  -8   -0.26    0.65
   6 -11   8   -0.28    0.60
  -7  11  -8   19.31    1.51
   7 -11   8   19.51    1.45
  -8  11  -8   26.81    1.69
   8 -11   8   26.78    1.66
  -9 -10   8   -0.05    0.66
  -8 -10   8    4.45    1.00
  -8 -10   8    3.45    0.83
  -7 -10   8    9.00    1.02
  -7 -10   8   10.94    1.23
   6  10  -8   -0.69    0.44
  -6 -10   8   -0.60    0.72
  -6 -10   8   -0.34    0.58
   5  10  -8   18.85    1.17
  -5 -10   8   18.94    1.45
  -5 -10   8   16.56    1.29
   4  10  -8   21.00    1.25
  -4 -10   8   19.59    1.35
  -4 -10   8   22.29    1.44
   3  10  -8    1.36    0.58
   3  10  -8    2.03    0.55
  -3 -10   8    2.15    0.67
   2  10  -8   24.02    1.29
  -2 -10   8   22.19    1.38
   1  10  -8   64.75    2.30
  -1 -10   8   62.75    2.40
   0  10  -8    0.18    0.50
   0  10  -8    0.21    0.52
   0 -10   8    0.39    0.59
  -1  10  -8   13.66    1.10
  -1  10  -8   15.25    1.11
   1 -10   8   14.94    1.18
  -2  10  -8   52.87    2.05
  -2  10  -8   54.74    2.10
   2 -10   8   54.42    2.16
  -3  10  -8    9.38    0.88
  -3  10  -8   11.13    1.02
   3 -10   8    9.10    0.98
  -4  10  -8   18.69    1.28
  -4  10  -8   16.91    1.18
   4 -10   8   19.83    1.34
  -5  10  -8   26.09    1.48
   5 -10   8   23.21    1.46
  -6  10  -8    8.65    0.99
   6 -10   8    8.23    0.96
  -7  10  -8    6.01    0.95
   7 -10   8    6.93    0.92
  -8  10  -8   29.09    1.73
   8 -10   8   29.03    1.67
 -10  -9   8    3.53    0.87
  -9  -9   8    1.34    0.72
  -9  -9   8    0.40    0.85
  -8  -9   8   15.51    1.27
  -8  -9   8   12.72    1.28
  -7  -9   8    8.31    1.05
  -7  -9   8    7.99    0.97
   6   9  -8    1.13    0.52
  -6  -9   8    1.45    0.62
  -6  -9   8    0.60    0.73
   5   9  -8   25.83    1.29
  -5  -9   8   26.83    1.58
  -5  -9   8   24.93    1.41
   4   9  -8   28.61    1.36
   4   9  -8   29.41    1.40
  -4  -9   8   26.45    1.46
  -4  -9   8   28.53    1.55
   3   9  -8    9.34    0.92
   3   9  -8   11.96    0.91
   3   9  -8    9.68    0.90
  -3  -9   8   12.54    1.08
  -3  -9   8   11.45    0.98
   2   9  -8   35.46    1.48
   2   9  -8   32.77    1.48
  -2  -9   8   32.40    1.56
   1   9  -8   29.95    1.40
   1   9  -8   31.92    1.43
  -1  -9   8   31.45    1.51
   0   9  -8   12.98    1.01
   0   9  -8   13.65    1.00
   0  -9   8   12.97    1.05
  -1   9  -8   16.63    1.08
  -1   9  -8   18.28    1.13
   1  -9   8   17.08    1.17
  -2   9  -8   48.79    1.90
  -2   9  -8   51.15    1.90
   2  -9   8   47.22    1.95
  -3   9  -8   11.12    0.98
  -3   9  -8   10.03    0.91
   3  -9   8   10.88    1.00
  -4   9  -8   38.59    1.60
  -4   9  -8   37.30    1.70
   4  -9   8   36.79    1.72
  -5   9  -8   29.88    1.56
   5  -9   8   30.74    1.59
  -6   9  -8   10.57    1.03
   6  -9   8    9.11    1.02
  -7   9  -8    3.03    0.60
  -7   9  -8    4.40    0.82
   7  -9   8    5.32    0.82
  -8   9  -8   21.98    1.55
   8  -9   8   24.43    1.51
  -9   9  -8   11.10    1.17
   9  -9   8    9.46    1.05
 -10  -8   8   21.75    1.52
 -10  -8   8   23.45    1.80
  -9  -8   8    1.30    0.67
  -9  -8   8    1.64    0.84
  -8  -8   8    9.06    1.09
  -8  -8   8    8.73    0.93
   7   8  -8   51.31    1.90
  -7  -8   8   51.01    2.06
  -7  -8   8   52.88    2.24
   6   8  -8   13.32    0.94
  -6  -8   8   12.86    1.15
  -6  -8   8   13.98    1.10
  -6  -8   8   14.98    0.99
   5   8  -8    0.35    0.42
  -5  -8   8    0.87    0.62
  -5  -8   8    0.99    0.56
  -5  -8   8    0.85    0.47
   4   8  -8  144.22    4.34
   4   8  -8  154.35    4.30
   4   8  -8  148.66    4.81
  -4  -8   8  148.87    4.36
  -4  -8   8  149.98    4.47
  -4  -8   8  136.81    4.36
   3   8  -8   46.18    1.93
   3   8  -8   40.31    1.69
   3   8  -8   45.46    1.69
  -3  -8   8   46.50    1.82
  -3  -8   8   46.06    1.72
  -3  -8   8   47.48    1.87
   2   8  -8    0.27    0.42
   2   8  -8   -0.62    0.42
  -2  -8   8   -0.89    0.44
  -2  -8   8   -0.04    0.41
   1   8  -8  114.04    3.43
   1   8  -8  113.83    3.45
  -1  -8   8  115.14    3.55
  -1  -8   8  116.58    3.48
   0   8  -8   24.52    1.20
   0   8  -8   24.16    1.18
   0  -8   8   23.88    1.27
  -1   8  -8    1.54    0.49
  -1   8  -8    1.68    0.51
   1  -8   8    1.02    0.52
  -2   8  -8   80.56    2.65
  -2   8  -8   79.67    2.57
   2  -8   8   79.91    2.69
  -3   8  -8    4.66    0.69
  -3   8  -8    6.94    0.70
   3  -8   8    6.20    0.76
  -4   8  -8   -0.14    0.55
   4  -8   8   -0.08    0.53
  -5   8  -8   67.33    2.42
   5  -8   8   65.10    2.43
  -6   8  -8   25.96    1.48
   6  -8   8   29.55    1.54
  -7   8  -8    0.25    0.59
  -7   8  -8    0.07    0.47
   7  -8   8    0.41    0.56
  -8   8  -8   35.56    1.82
   8  -8   8   31.77    1.71
  -9   8  -8    9.19    1.10
   9  -8   8    9.37    1.04
 -11  -7   8   -0.20    0.65
 -10  -7   8   19.84    1.62
 -10  -7   8   19.46    1.37
  -9  -7   8    7.40    1.05
  -9  -7   8    7.90    0.91
  -8  -7   8    0.62    0.74
  -8  -7   8    0.49    0.55
   7   7  -8   35.21    1.42
  -7  -7   8   34.48    1.50
  -7  -7   8   36.18    1.60
  -7  -7   8   35.67    1.76
   6   7  -8   57.35    1.93
  -6  -7   8   55.59    2.00
  -6  -7   8   58.28    2.21
  -6  -7   8   52.36    2.03
   5   7  -8    1.23    0.50
   5   7  -8    1.45    0.44
  -5  -7   8    1.06    0.63
  -5  -7   8    2.73    0.54
  -5  -7   8    1.59    0.55
   4   7  -8   57.01    2.24
   4   7  -8   59.36    2.05
   4   7  -8   58.79    1.97
  -4  -7   8   56.48    2.08
  -4  -7   8   59.36    2.17
  -4  -7   8   63.18    2.07
   3   7  -8   49.96    2.00
   3   7  -8   48.91    1.70
   3   7  -8   49.25    1.75
  -3  -7   8   45.45    1.83
  -3  -7   8   47.45    1.79
  -3  -7   8   49.34    1.74
   2   7  -8    1.91    0.48
   2   7  -8    2.41    0.61
   2   7  -8    3.12    0.51
  -2  -7   8    2.74    0.55
  -2  -7   8    2.80    0.49
   1   7  -8   16.94    0.93
   1   7  -8   19.49    0.99
  -1  -7   8   17.31    1.03
  -1  -7   8   19.69    0.99
   0   7  -8    4.21    0.60
   0   7  -8    5.88    0.57
   0  -7   8    5.16    0.58
   0  -7   8    5.30    0.65
  -1   7  -8    0.49    0.44
  -1   7  -8    0.77    0.42
   1  -7   8    0.67    0.43
   1  -7   8   -0.18    0.44
  -2   7  -8   11.42    0.91
   2  -7   8    8.84    0.84
  -3   7  -8   21.17    1.19
  -3   7  -8   22.57    1.07
   3  -7   8   20.25    1.20
  -4   7  -8    9.56    0.86
   4  -7   8    9.10    0.87
  -5   7  -8   27.46    1.45
   5  -7   8   30.06    1.48
  -6   7  -8   22.71    1.11
  -6   7  -8   24.93    1.40
   6  -7   8   23.73    1.36
  -7   7  -8    1.42    0.67
  -7   7  -8    0.45    0.48
   7  -7   8    1.45    0.62
  -8   7  -8   19.64    1.44
   8  -7   8   20.89    1.38
  -9   7  -8   10.63    1.15
   9  -7   8   10.84    1.12
 -12  -6   8    9.96    1.05
 -11  -6   8    2.60    0.69
 -11  -6   8    1.46    0.89
 -10  -6   8   10.58    1.17
 -10  -6   8   10.03    1.01
  -9  -6   8   22.39    1.55
  -9  -6   8   24.90    1.37
   8   6  -8    2.95    0.51
  -8  -6   8    1.80    0.71
  -8  -6   8    2.13    0.53
  -8  -6   8    3.60    0.66
   7   6  -8   32.64    1.29
  -7  -6   8   34.20    1.64
  -7  -6   8   34.98    1.42
  -7  -6   8   32.68    1.47
   6   6  -8   34.86    1.32
   6   6  -8   33.08    1.44
  -6  -6   8   36.05    1.62
  -6  -6   8   34.02    1.46
  -6  -6   8   34.57    1.43
   5   6  -8   10.07    0.69
   5   6  -8    8.11    0.72
  -5  -6   8    9.31    0.79
  -5  -6   8    9.02    0.87
  -5  -6   8    9.93    0.81
   4   6  -8   34.48    1.31
   4   6  -8   38.99    1.41
   4   6  -8   35.87    1.59
  -4  -6   8   36.60    1.52
  -4  -6   8   36.16    1.38
  -4  -6   8   34.51    1.44
   3   6  -8   27.80    1.12
   3   6  -8   27.38    1.15
   3   6  -8   26.76    1.38
  -3  -6   8   26.95    1.15
  -3  -6   8   27.60    1.21
  -3  -6   8   27.93    1.27
   2   6  -8    6.14    0.57
   2   6  -8    6.23    0.75
   2   6  -8    6.64    0.58
  -2  -6   8    7.44    0.67
  -2  -6   8    7.02    0.62
   1   6  -8   30.54    1.22
   1   6  -8   29.00    1.14
  -1  -6   8   33.81    1.25
  -1  -6   8   29.39    1.28
   0   6  -8   29.00    1.20
   0  -6   8   26.80    1.23
   0  -6   8   29.12    1.19
  -1   6  -8    2.55    0.51
   1  -6   8    3.16    0.51
   1  -6   8    2.63    0.51
  -2   6  -8   37.33    1.50
   2  -6   8   36.68    1.52
  -3   6  -8  107.05    3.27
   3  -6   8  103.19    3.27
  -4   6  -8    7.82    0.82
   4  -6   8    9.63    0.88
  -5   6  -8   31.20    1.24
  -5   6  -8   35.49    1.55
   5  -6   8   31.39    1.51
  -6   6  -8   35.24    1.38
  -6   6  -8   35.43    1.68
   6  -6   8   35.98    1.66
  -7   6  -8    0.07    0.47
  -7   6  -8   -0.23    0.56
   7  -6   8    0.05    0.54
  -8   6  -8   11.85    1.11
   8  -6   8   11.36    1.08
  -9   6  -8   35.02    1.85
   9  -6   8   33.96    1.81
 -12  -5   8   15.23    1.22
 -11  -5   8    0.38    0.76
 -11  -5   8   -0.32    0.54
 -10  -5   8   10.54    0.94
 -10  -5   8   10.86    1.13
 -10  -5   8   12.24    1.03
  -9  -5   8   45.67    2.00
  -9  -5   8   48.27    1.87
  -9  -5   8   51.52    2.11
   8   5  -8    0.89    0.34
  -8  -5   8    0.56    0.42
  -8  -5   8    0.39    0.50
  -8  -5   8    0.81    0.63
  -8  -5   8    0.16    0.56
   7   5  -8   27.88    1.09
  -7  -5   8   27.65    1.27
  -7  -5   8   28.08    1.46
  -7  -5   8   30.23    1.24
   6   5  -8   32.71    1.34
   6   5  -8   30.99    1.16
  -6  -5   8   32.08    1.46
  -6  -5   8   31.08    1.30
  -6  -5   8   31.88    1.30
   5   5  -8   -0.09    0.39
   5   5  -8    0.06    0.28
  -5  -5   8    0.70    0.52
  -5  -5   8    0.08    0.38
  -5  -5   8    0.11    0.38
   4   5  -8   16.77    0.79
   4   5  -8   16.59    1.05
   4   5  -8   17.15    0.88
  -4  -5   8   17.02    0.85
  -4  -5   8   16.60    0.91
  -4  -5   8   15.65    0.98
   3   5  -8  114.56    3.87
   3   5  -8  113.78    3.27
   3   5  -8  111.73    3.26
  -3  -5   8  114.42    3.33
  -3  -5   8  116.30    3.36
  -3  -5   8  117.91    3.31
   2   5  -8    5.86    0.48
   2   5  -8    5.32    0.70
   2   5  -8    5.90    0.55
  -2  -5   8    6.01    0.55
  -2  -5   8    4.92    0.54
  -2  -5   8    5.00    0.54
   1   5  -8   14.67    1.09
   1   5  -8   15.26    0.82
  -1  -5   8   12.94    0.82
  -1  -5   8   15.46    0.80
   0   5  -8  154.21    4.35
   0  -5   8  149.90    4.37
   0  -5   8  159.41    4.36
  -1   5  -8   11.77    0.82
   1  -5   8   12.11    0.78
   1  -5   8   12.51    0.86
  -2   5  -8   13.14    0.91
   2  -5   8   13.41    0.84
   2  -5   8   13.07    0.93
  -3   5  -8  165.05    4.78
   3  -5   8  166.61    4.81
  -4   5  -8   56.38    2.08
   4  -5   8   58.25    2.10
  -5   5  -8   10.85    0.94
   5  -5   8   10.90    0.94
  -6   5  -8   53.52    2.11
   6  -5   8   53.69    2.11
  -7   5  -8    5.77    0.65
  -7   5  -8    7.67    0.94
   7  -5   8    6.08    0.82
  -8   5  -8    4.45    0.81
   8  -5   8    4.23    0.81
  -9   5  -8   25.83    1.63
   9  -5   8   26.47    1.59
 -13  -4   8    9.69    0.99
 -12  -4   8    4.52    0.96
 -12  -4   8    5.71    0.78
 -11  -4   8    4.51    0.75
 -11  -4   8    6.27    0.96
 -11  -4   8    7.26    0.80
 -10  -4   8   21.29    1.33
 -10  -4   8   22.61    1.49
 -10  -4   8   21.21    1.19
  -9  -4   8   13.52    1.12
  -9  -4   8   13.35    0.83
  -9  -4   8   14.23    1.20
  -9  -4   8   15.58    1.01
  -8  -4   8   17.87    1.22
  -8  -4   8   18.63    1.03
  -8  -4   8   19.95    1.25
  -8  -4   8   19.39    0.95
   7   4  -8   12.82    0.89
  -7  -4   8   13.03    1.03
  -7  -4   8   12.54    0.84
  -7  -4   8   12.01    0.78
  -7  -4   8   12.99    1.07
   6   4  -8    5.30    0.46
   6   4  -8    5.30    0.60
   6   4  -8    5.86    0.47
  -6  -4   8    4.80    0.52
  -6  -4   8    4.73    0.65
  -6  -4   8    5.66    0.56
  -6  -4   8    5.62    0.75
   5   4  -8   16.81    0.82
   5   4  -8   19.88    0.80
   5   4  -8   21.84    0.98
  -5  -4   8   21.06    1.05
  -5  -4   8   20.85    0.91
  -5  -4   8   19.82    0.93
   4   4  -8   20.72    0.92
   4   4  -8   20.94    0.92
   4   4  -8   22.39    1.19
   4   4  -8   20.89    0.85
  -4  -4   8   22.07    0.92
  -4  -4   8   20.30    0.93
  -4  -4   8   22.92    1.01
   3   4  -8   19.73    0.90
   3   4  -8   21.64    1.18
   3   4  -8   20.44    0.86
   3   4  -8   21.81    0.86
  -3  -4   8   21.02    0.92
  -3  -4   8   20.61    0.94
  -3  -4   8   22.28    0.91
   2   4  -8   56.50    1.78
   2   4  -8   55.62    1.80
   2   4  -8   59.49    2.23
  -2  -4   8   56.18    1.82
  -2  -4   8   58.16    1.80
   1   4  -8   14.47    0.76
   1   4  -8   14.97    0.78
   1   4  -8   13.93    1.04
  -1  -4   8   14.73    0.80
  -1  -4   8   15.73    0.78
   0   4  -8   21.66    0.98
   0  -4   8   20.91    1.00
   0  -4   8   21.72    0.96
  -1   4  -8   64.75    2.08
   1  -4   8   63.80    2.11
   1  -4   8   64.05    2.06
  -2   4  -8   56.05    1.89
   2  -4   8   53.33    1.90
   2  -4   8   53.20    1.84
  -3   4  -8   48.92    1.80
   3  -4   8   47.56    1.80
  -4   4  -8   19.50    1.15
   4  -4   8   17.68    1.11
  -5   4  -8    5.11    0.72
   5  -4   8    6.41    0.76
  -6   4  -8   20.50    1.30
   6  -4   8   17.13    1.20
  -7   4  -8   20.03    1.32
  -7   4  -8   15.64    1.02
   7  -4   8   16.37    1.23
  -8   4  -8    2.76    0.74
   8  -4   8    3.48    0.73
  -9   4  -8   12.61    1.24
   9  -4   8   11.64    1.16
 -13  -3   8    7.36    0.83
 -12  -3   8   16.31    1.11
 -12  -3   8   16.62    1.45
 -12  -3   8   15.42    1.26
 -11  -3   8    8.00    0.91
 -11  -3   8    9.74    1.03
 -11  -3   8    8.62    0.80
 -10  -3   8   11.65    1.09
 -10  -3   8   12.15    0.92
 -10  -3   8   12.17    1.05
  -9  -3   8   37.34    1.44
  -9  -3   8   36.32    1.66
  -9  -3   8   35.50    1.31
  -9  -3   8   38.14    1.75
   8   3  -8   17.09    1.08
  -8  -3   8   18.38    1.15
  -8  -3   8   16.68    0.83
  -8  -3   8   17.59    1.17
  -8  -3   8   16.68    0.93
   7   3  -8    4.41    0.56
  -7  -3   8    5.87    0.67
  -7  -3   8    4.49    0.47
  -7  -3   8    6.25    0.77
  -7  -3   8    5.12    0.54
   6   3  -8  136.91    3.81
  -6  -3   8  128.99    3.66
  -6  -3   8  129.79    3.68
  -6  -3   8  129.97    4.38
  -6  -3   8  132.23    3.83
   5   3  -8   12.04    0.60
   5   3  -8   13.41    0.74
  -5  -3   8   12.65    1.04
  -5  -3   8   11.99    0.66
  -5  -3   8   12.86    0.80
  -5  -3   8   12.34    0.69
   4   3  -8   12.01    0.66
   4   3  -8   12.40    0.58
   4   3  -8   12.37    0.65
  -4  -3   8   12.98    0.64
  -4  -3   8   12.04    0.73
  -4  -3   8   12.63    0.68
   3   3  -8   88.02    2.54
   3   3  -8   93.04    2.58
   3   3  -8   89.75    3.14
  -3  -3   8   87.26    2.58
  -3  -3   8   90.39    2.56
   2   3  -8   39.00    1.29
   2   3  -8   39.22    1.30
   2   3  -8   39.25    1.69
  -2  -3   8   39.45    1.30
  -2  -3   8   35.85    1.31
   1   3  -8    9.00    0.89
   1   3  -8    8.34    0.57
   1   3  -8    8.81    0.61
  -1  -3   8    8.79    0.60
  -1  -3   8    7.41    0.62
   0   3  -8  111.14    3.17
   0   3  -8  112.35    3.19
   0   3  -8  107.69    3.81
   0  -3   8  106.91    3.20
   0  -3   8  111.20    3.17
  -1   3  -8   31.74    1.26
   1  -3   8   31.23    1.23
   1  -3   8   30.64    1.27
  -2   3  -8   31.89    1.33
   2  -3   8   33.30    1.30
   2  -3   8   30.42    1.32
  -3   3  -8  101.38    3.13
   3  -3   8  102.70    3.16
  -4   3  -8    9.70    0.87
   4  -3   8    9.04    0.85
  -5   3  -8    0.11    0.50
   5  -3   8   -0.71    0.45
  -6   3  -8   47.61    1.96
   6  -3   8   47.97    1.97
  -7   3  -8   34.20    1.69
  -7   3  -8   32.17    1.41
   7  -3   8   34.54    1.67
  -8   3  -8   -0.34    0.60
   8  -3   8    0.16    0.60
  -9   3  -8   14.04    1.29
   9  -3   8   14.21    1.30
 -13  -2   8    0.17    0.55
 -13  -2   8    0.26    0.52
 -13  -2   8   -1.18    0.70
 -12  -2   8   28.93    1.62
 -12  -2   8   27.46    1.33
 -12  -2   8   28.77    1.70
 -11  -2   8    8.67    1.00
 -11  -2   8    9.90    0.98
 -11  -2   8   10.64    0.82
 -10  -2   8    0.34    0.54
 -10  -2   8    0.37    0.43
 -10  -2   8    0.44    0.59
 -10  -2   8   -0.04    0.29
  -9  -2   8   48.08    1.54
  -9  -2   8   50.99    1.95
  -9  -2   8   47.49    2.08
  -9  -2   8   50.05    1.66
  -8  -2   8   32.46    1.44
  -8  -2   8   31.08    1.09
  -8  -2   8   29.77    1.57
  -8  -2   8   32.21    1.18
  -7  -2   8    0.34    0.29
  -7  -2   8    0.33    0.52
  -7  -2   8    0.09    0.44
  -7  -2   8    0.09    0.31
  -6  -2   8  105.28    3.69
  -6  -2   8  106.99    3.00
  -6  -2   8  107.43    2.98
  -6  -2   8  110.02    3.18
  -5  -2   8   72.63    2.11
  -5  -2   8   75.00    2.25
  -5  -2   8   72.75    2.71
  -5  -2   8   74.51    2.11
  -4  -2   8    3.89    0.64
  -4  -2   8    3.95    0.38
  -4  -2   8    4.81    0.40
  -4  -2   8    4.18    0.44
   3   2  -8   34.63    1.53
   3   2  -8   35.67    1.14
   3   2  -8   33.40    1.10
  -3  -2   8   32.81    1.16
  -3  -2   8   35.41    1.15
   2   2  -8  101.10    2.94
   2   2  -8  109.70    3.61
   2   2  -8  107.81    2.97
  -2  -2   8  102.08    2.98
  -2  -2   8  107.12    2.97
   1   2  -8    1.67    0.35
   1   2  -8    2.14    0.37
   1   2  -8    1.63    0.51
  -1  -2   8    1.85    0.40
  -1  -2   8    1.86    0.35
   0   2  -8  113.93    3.27
   0   2  -8  112.64    3.27
   0   2  -8  111.42    3.89
   0  -2   8  117.82    3.27
   0  -2   8  114.75    3.30
  -1   2  -8   80.54    2.45
   1  -2   8   77.41    2.46
   1  -2   8   80.35    2.43
  -2   2  -8    2.10    0.51
   2  -2   8    2.22    0.46
   2  -2   8    1.81    0.47
  -3   2  -8   34.18    1.44
   3  -2   8   33.44    1.44
  -4   2  -8   76.88    2.58
   4  -2   8   77.45    2.59
  -5   2  -8    5.31    0.74
   5  -2   8    3.94    0.66
  -6   2  -8   24.88    1.43
   6  -2   8   26.00    1.41
  -7   2  -8   33.80    1.64
  -7   2  -8   26.38    1.35
   7  -2   8   31.69    1.61
  -8   2  -8    3.14    0.78
   8  -2   8    1.89    0.67
  -9   2  -8    6.73    0.99
   9  -2   8    6.75    0.97
 -14  -1   8    6.03    0.88
 -14  -1   8    6.93    0.78
 -13  -1   8    0.20    0.50
 -13  -1   8   -0.53    0.70
 -12  -1   8   17.80    1.42
 -12  -1   8   19.57    1.05
 -11  -1   8    5.18    0.85
 -10  -1   8    1.51    0.63
 -10  -1   8    1.53    0.60
  -9  -1   8   29.62    1.60
  -9  -1   8   34.47    1.50
  -8  -1   8   29.41    1.54
  -8  -1   8   28.10    1.32
  -7  -1   8    0.83    0.43
  -7  -1   8    0.00    0.52
  -6  -1   8   51.82    1.70
  -6  -1   8   47.63    2.05
  -5  -1   8   69.95    2.09
  -5  -1   8   67.61    2.57
  -4  -1   8    5.98    0.52
  -4  -1   8    6.23    0.43
  -4  -1   8    6.54    0.71
  -4  -1   8    6.24    0.45
   3   1  -8   73.14    2.05
   3   1  -8   74.28    2.63
  -3  -1   8   73.40    2.07
  -3  -1   8   69.14    2.08
  -3  -1   8   70.85    2.68
   2   1  -8   53.67    1.65
   2   1  -8   57.33    1.66
   2   1  -8   54.78    2.12
  -2  -1   8   54.07    1.66
  -2  -1   8   52.34    1.68
   1   1  -8   19.76    0.84
   1   1  -8   19.26    0.84
   1   1  -8   18.75    1.12
  -1  -1   8   19.76    0.84
  -1  -1   8   19.05    0.86
   0   1  -8  154.11    4.34
   0   1  -8  157.25    4.35
   0   1  -8  158.61    5.13
   0  -1   8  160.48    4.35
   0  -1   8  152.57    4.37
  -1   1  -8   86.47    2.57
   1  -1   8   84.47    2.54
   1  -1   8   80.03    2.56
  -2   1  -8   19.13    1.01
   2  -1   8   17.24    0.98
   2  -1   8   19.49    0.95
  -3   1  -8   32.52    1.40
   3  -1   8   31.45    1.40
  -4   1  -8   39.16    1.61
   4  -1   8   36.02    1.59
  -5   1  -8    9.99    0.93
   5  -1   8   10.64    0.96
  -6   1  -8    5.65    0.81
   6  -1   8    6.40    0.86
  -7   1  -8   14.95    1.10
  -7   1  -8   16.55    1.29
   7  -1   8   17.13    1.31
  -8   1  -8    8.56    1.06
   8  -1   8    8.77    1.06
  -9   1  -8    5.94    1.02
   9  -1   8    5.63    0.94
 -14   0   8   17.82    1.06
 -13   0   8    1.70    0.50
 -13   0   8    0.85    0.74
 -12   0   8   14.05    1.17
 -11   0   8   47.27    2.00
 -10   0   8    0.14    0.56
  -9   0   8   26.43    1.32
  -8   0   8  128.80    3.81
  -8   0   8  128.13    4.40
  -7   0   8    9.54    0.79
  -7   0   8   10.16    0.97
  -6   0   8   13.65    0.81
  -6   0   8   14.86    1.12
  -5   0   8  189.37    5.08
  -5   0   8  182.10    5.98
  -4   0   8   10.07    0.94
   3   0  -8   65.08    1.81
  -3   0   8   62.40    2.44
  -3   0   8   64.22    1.84
  -3   0   8   62.88    1.86
   2   0  -8  244.45    6.14
   2   0  -8  226.78    6.11
   2   0  -8  225.41    7.22
  -2   0   8  224.54    6.15
  -2   0   8  230.28    6.13
   1   0  -8   11.15    0.91
   1   0  -8    9.57    0.63
   1   0  -8   12.02    0.65
  -1   0   8   10.34    0.67
  -1   0   8   11.32    0.66
   0   0  -8   12.06    0.97
   0   0  -8   12.51    0.76
   0   0   8   12.77    0.77
   0   0   8   13.85    0.76
  -1   0  -8  154.98    4.36
   1   0   8  154.20    4.34
   1   0   8  152.61    4.37
  -2   0  -8   30.53    1.32
   2   0   8   32.21    1.28
   2   0   8   30.58    1.32
  -3   0  -8    1.54    0.52
   3   0   8    1.98    0.53
  -4   0  -8   55.33    2.07
   4   0   8   56.08    2.09
  -5   0  -8   20.02    1.24
   5   0   8   18.45    1.23
  -6   0  -8    0.41    0.50
  -6   0  -8   -0.54    0.54
   6   0   8    0.87    0.59
  -7   0  -8   23.02    1.48
   7   0   8   23.32    1.49
  -8   0  -8    9.21    1.08
   8   0   8    9.31    1.07
 -13   1   8    2.47    0.80
 -12   1   8    6.55    0.88
 -11   1   8   69.96    2.54
 -10   1   8   31.10    1.51
  -9   1   8    2.67    0.59
  -8   1   8   49.86    1.81
  -7   1   8   50.21    2.17
  -7   1   8   53.87    1.79
  -6   1   8    1.78    0.59
  -6   1   8    2.77    0.44
  -5   1   8   56.92    2.31
  -5   1   8   59.22    1.81
  -4   1   8   57.93    2.34
  -4   1   8   59.57    1.78
  -4   1   8   61.39    1.70
   3  -1  -8   25.74    0.85
  -3   1   8   24.27    0.90
  -3   1   8   23.78    1.37
  -3   1   8   25.65    0.89
   2  -1  -8   67.11    2.09
   2  -1  -8   75.48    2.10
  -2   1   8   72.58    2.11
  -2   1   8   72.22    2.13
   1  -1  -8   33.06    1.18
   1  -1  -8   32.16    1.20
   1  -1  -8   32.97    1.50
  -1   1   8   34.83    1.20
  -1   1   8   32.75    1.22
   0  -1  -8   -0.03    0.34
   0  -1  -8    0.05    0.45
   0   1   8   -0.13    0.30
   0   1   8   -0.49    0.31
  -1  -1  -8   13.66    0.88
   1   1   8   13.02    0.78
   1   1   8   13.86    0.88
  -2  -1  -8   52.99    1.83
   2   1   8   46.59    1.79
   2   1   8   48.48    1.74
  -3  -1  -8    0.22    0.48
   3   1   8   -1.03    0.38
  -4  -1  -8   24.62    1.35
   4   1   8   26.29    1.37
  -5  -1  -8   34.17    1.60
  -5  -1  -8   31.64    1.41
   5   1   8   31.38    1.60
  -6  -1  -8    1.42    0.64
  -6  -1  -8   -0.28    0.53
   6   1   8    0.51    0.57
  -7  -1  -8   11.82    1.14
   7   1   8   11.70    1.12
  -8  -1  -8    8.10    1.04
   8   1   8    9.22    1.13
 -13   2   8   13.97    1.24
 -12   2   8    5.57    0.85
 -11   2   8   33.45    1.63
 -10   2   8   32.31    1.51
  -9   2   8    0.92    0.50
  -8   2   8   16.32    0.98
  -7   2   8   23.56    1.07
  -6   2   8    1.87    0.59
  -6   2   8    2.77    0.43
  -5   2   8   60.64    2.43
  -4   2   8   16.47    0.67
  -4   2   8   16.48    0.66
  -4   2   8   17.48    1.20
   3  -2  -8    2.41    0.30
  -3   2   8    1.93    0.34
  -3   2   8    1.67    0.31
  -3   2   8    2.30    0.62
   2  -2  -8   34.59    1.19
   2  -2  -8   35.26    1.19
  -2   2   8   34.40    1.20
  -2   2   8   34.29    1.22
  -2   2   8   34.89    1.72
   1  -2  -8   27.31    1.36
  -1   2   8   27.21    1.10
  -1   2   8   28.09    1.08
   0  -2  -8   -0.35    0.33
   0  -2  -8   -0.60    0.40
   0   2   8    0.21    0.33
   0   2   8   -0.46    0.33
  -1  -2  -8   37.37    1.43
   1   2   8   34.44    1.40
   1   2   8   33.62    1.34
  -2  -2  -8   24.93    1.22
   2   2   8   24.51    1.21
   2   2   8   23.13    1.13
  -3  -2  -8    0.46    0.51
   3   2   8    0.47    0.51
  -4  -2  -8   36.97    1.64
  -4  -2  -8   34.01    1.46
   4   2   8   34.51    1.31
   4   2   8   35.82    1.62
  -5  -2  -8   19.80    1.31
  -5  -2  -8   19.16    1.17
   5   2   8   18.83    0.98
   5   2   8   19.37    1.29
  -6  -2  -8    1.21    0.60
  -6  -2  -8    0.17    0.61
   6   2   8    0.63    0.61
   7   2   8   13.14    1.22
   8   2   8   13.31    1.29
 -13   3   8   13.57    1.21
 -12   3   8    0.15    0.62
 -11   3   8   30.16    1.54
 -10   3   8   32.93    1.53
  -9   3   8   -0.96    0.44
  -8   3   8   22.34    1.14
  -6   3   8    5.65    0.84
  -5   3   8   45.40    2.04
  -4   3   8   90.20    2.61
  -4   3   8   95.90    3.41
  -4   3   8   94.97    2.61
   3  -3  -8    5.56    0.42
   3  -3  -8    3.54    0.37
  -3   3   8    5.87    0.47
  -3   3   8    5.57    0.79
  -3   3   8    4.55    0.45
   2  -3  -8   16.53    0.81
   2  -3  -8   16.53    0.78
  -2   3   8   17.42    0.82
  -2   3   8   19.86    1.33
  -2   3   8   17.30    0.83
   1  -3  -8   52.73    1.79
  -1   3   8   53.87    1.80
  -1   3   8   56.84    1.79
   0  -3  -8    3.44    0.53
   0   3   8    2.69    0.50
   0   3   8    3.01    0.48
   1   3   8   19.79    1.06
   1   3   8   17.77    0.98
   2   3   8   68.51    2.06
   2   3   8   62.24    2.25
  -3  -3  -8    1.57    0.48
   3   3   8    2.13    0.56
   3   3   8    1.95    0.46
  -4  -3  -8    7.85    0.79
   4   3   8    7.96    0.89
   4   3   8    7.99    0.68
  -5  -3  -8   18.69    1.23
   5   3   8   20.18    1.36
   6   3   8    1.01    0.64
   7   3   8    4.55    0.91
 -13   4   8    6.88    0.94
 -12   4   8    1.06    0.64
 -11   4   8   18.48    1.28
 -10   4   8   25.44    1.34
  -9   4   8    4.10    0.61
  -6   4   8    1.81    0.67
  -5   4   8   27.00    0.93
  -5   4   8   24.91    1.54
  -4   4   8   62.44    2.54
  -4   4   8   61.93    1.87
  -4   4   8   61.35    1.85
   3  -4  -8   33.51    1.16
   3  -4  -8   32.23    1.19
  -3   4   8   33.64    1.23
  -3   4   8   35.29    1.22
  -3   4   8   35.85    1.40
  -3   4   8   35.25    1.77
   2  -4  -8   32.64    1.27
  -2   4   8   35.42    1.28
  -2   4   8   36.90    1.42
  -2   4   8   31.88    1.28
  -2   4   8   35.66    1.81
   1  -4  -8    8.66    0.73
  -1   4   8    9.97    0.87
  -1   4   8    7.99    0.70
  -1   4   8    8.54    0.69
   0  -4  -8   14.55    0.94
   0   4   8   14.68    0.86
   0   4   8   15.52    0.94
   0   4   8   12.11    0.88
  -1  -4  -8   24.72    1.26
   1   4   8   22.77    1.20
   1   4   8   25.83    1.14
   1   4   8   24.48    1.16
  -2  -4  -8   23.05    1.27
   2   4   8   24.32    1.26
   2   4   8   22.28    1.08
  -3  -4  -8   14.31    1.14
   3   4   8   10.92    0.97
   3   4   8   11.16    0.87
  -4  -4  -8    6.72    0.87
  -4  -4  -8    5.07    0.72
   4   4   8    5.01    0.63
   4   4   8    6.82    0.85
  -5  -4  -8    9.06    1.07
  -5  -4  -8    9.20    0.96
   5   4   8    8.76    1.02
  -6  -4  -8    7.71    1.08
   6   4   8    6.93    0.97
  -7  -4  -8    1.75    0.87
   7   4   8    2.92    0.89
 -13   5   8   13.92    1.19
 -12   5   8   -0.21    0.60
 -11   5   8    4.10    0.74
 -10   5   8   52.01    2.01
  -5   5   8    8.77    0.60
  -5   5   8    9.12    0.67
  -5   5   8    9.09    1.01
  -4   5   8   56.93    2.45
  -4   5   8   57.98    1.81
  -4   5   8   58.45    1.85
   3  -5  -8    7.01    0.60
  -3   5   8    8.05    0.65
  -3   5   8    7.49    0.61
  -3   5   8    8.07    0.81
  -3   5   8    7.58    0.93
   2  -5  -8   -0.16    0.35
  -2   5   8    0.00    0.40
  -2   5   8    0.35    0.53
  -2   5   8   -0.31    0.66
  -2   5   8    0.27    0.35
   1  -5  -8   78.72    2.50
  -1   5   8   79.16    2.47
  -1   5   8   77.13    2.53
  -1   5   8   76.20    2.49
   0  -5  -8    3.17    0.59
   0   5   8    4.35    0.63
   0   5   8    3.54    0.54
   0   5   8    2.86    0.57
  -1  -5  -8    2.03    0.58
   1   5   8    2.70    0.60
   1   5   8    2.47    0.56
  -2  -5  -8   38.69    1.72
   2   5   8   39.23    1.74
   2   5   8   40.23    1.59
  -3  -5  -8    7.13    0.89
   3   5   8    6.91    0.89
   3   5   8    6.51    0.72
  -4  -5  -8    0.61    0.65
   4   5   8   -0.22    0.61
  -5  -5  -8   16.75    1.27
  -5  -5  -8   17.93    1.43
   5   5   8   16.70    1.43
  -6  -5  -8    6.37    1.05
   6   5   8    7.27    1.05
 -13   6   8   22.89    1.57
 -12   6   8    3.59    0.78
 -11   6   8   -0.03    0.56
  -6   6   8   16.47    0.86
  -6   6   8   17.16    0.79
  -5   6   8    3.86    0.53
  -5   6   8    3.45    0.44
  -5   6   8    3.42    0.82
   4  -6  -8   22.00    0.98
  -4   6   8   27.58    1.65
  -4   6   8   28.45    1.16
  -4   6   8   26.92    1.10
   3  -6  -8   14.13    0.87
  -3   6   8   15.85    0.87
  -3   6   8   16.59    0.96
  -3   6   8   17.65    1.17
  -3   6   8   15.11    1.38
   2  -6  -8    0.99    0.43
  -2   6   8    0.82    0.73
  -2   6   8    1.19    0.47
  -2   6   8    0.15    0.58
  -2   6   8    0.68    0.41
   1  -6  -8   37.83    1.58
  -1   6   8   37.69    1.58
  -1   6   8   39.11    1.52
  -1   6   8   37.84    1.62
   0  -6  -8   20.77    1.20
   0   6   8   17.92    1.18
   0   6   8   19.72    1.10
   0   6   8   21.45    1.22
  -1  -6  -8    0.02    0.54
   1   6   8    0.08    0.53
   1   6   8   -0.12    0.52
  -2  -6  -8    9.39    0.99
   2   6   8    9.33    0.98
  -3  -6  -8   15.96    1.29
   3   6   8   16.63    1.33
  -4  -6  -8   -0.31    0.64
   4   6   8    0.19    0.63
  -5  -6  -8    2.61    0.84
   5   6   8    4.17    0.92
 -12   7   8   17.23    1.35
  -7   7   8   17.01    0.90
  -6   7   8   16.53    0.94
  -6   7   8   17.11    0.86
  -5   7   8   -0.07    0.44
  -5   7   8   -0.24    0.64
  -5   7   8    0.63    0.36
   4  -7  -8   23.66    1.08
  -4   7   8   27.49    1.17
  -4   7   8   27.64    1.71
  -4   7   8   30.36    1.47
  -4   7   8   26.70    1.25
   3  -7  -8   21.66    1.11
  -3   7   8   22.83    1.62
  -3   7   8   23.79    1.13
  -3   7   8   24.40    1.22
  -3   7   8   25.34    1.40
   2  -7  -8   -0.18    0.45
  -2   7   8   -0.37    0.39
  -2   7   8    0.55    0.60
  -2   7   8    0.14    0.72
  -2   7   8    0.63    0.50
   1  -7  -8   17.38    1.15
  -1   7   8   17.80    1.07
  -1   7   8   16.92    1.23
  -1   7   8   19.68    1.20
   0  -7  -8   15.45    1.16
   0   7   8   16.83    1.20
  -1  -7  -8    2.02    0.69
   1   7   8    1.33    0.66
  -2  -7  -8   11.35    1.11
   2   7   8    9.72    1.09
  -3  -7  -8    9.75    1.12
   3   7   8   10.55    1.16
  -4  -7  -8    1.54    0.78
   4   7   8    1.73    0.78
 -12   8   8   11.36    1.07
  -8   8   8   -0.16    0.39
  -7   8   8   20.34    1.06
  -6   8   8   25.23    1.69
  -6   8   8   24.75    1.19
  -5   8   8    1.34    0.54
  -5   8   8    1.56    0.73
  -4   8   8   10.72    1.16
  -4   8   8   11.51    0.93
  -3   8   8   53.79    2.41
  -3   8   8   48.34    1.94
   2  -8  -8    3.18    0.67
  -2   8   8    2.29    0.84
  -2   8   8    1.87    0.63
   1  -8  -8    4.84    0.75
  -1   8   8    4.25    0.76
   0  -8  -8   25.59    1.45
   0   8   8   25.25    1.46
  -1  -8  -8    1.46    0.70
   1   8   8    1.80    0.71
  -2  -8  -8    0.95    0.74
   2   8   8    2.61    0.84
  -3  -8  -8   12.50    1.33
   3   8   8   10.69    1.18
  -9   9   8   14.40    0.92
  -8   9   8    7.20    0.70
  -7   9   8    2.95    0.61
  -6   9   8   24.60    1.29
  -6   9   8   28.14    1.79
  -5   9   8    8.44    0.83
  -5   9   8    7.81    1.08
  -4   9   8    4.28    0.71
  -4   9   8    6.08    1.01
  -3   9   8   15.01    1.50
  -3   9   8   13.67    1.17
  -2   9   8   10.41    1.01
  -2   9   8    7.86    1.11
  -1   9   8    2.21    0.73
   0   9   8    4.61    0.83
   1   9   8    5.78    0.97
   2   9   8    1.77    0.83
 -10  10   8    3.29    0.62
  -9  10   8   14.45    1.03
  -8  10   8    6.89    0.74
  -7  10   8    0.22    0.58
  -6  10   8   18.72    1.64
  -6  10   8   19.49    1.25
  -5  10   8    4.95    0.99
  -5  10   8    7.51    0.86
  -4  10   8    1.28    0.66
  -4  10   8   -0.20    0.77
  -3  10   8   14.85    1.21
  -3  10   8   13.99    1.34
  -2  10   8    1.37    0.71
  -1  10   8    0.62    0.68
   0  10   8    6.57    1.02
   1  10   8    1.94    0.83
 -10  11   8    0.52    0.55
  -9  11   8   16.92    1.18
  -8  11   8    9.28    0.88
  -7  11   8    1.06    0.62
  -6  11   8    9.89    1.24
  -6  11   8   10.42    0.97
  -5  11   8   11.52    1.03
  -5  11   8    9.04    1.20
  -4  11   8   -0.10    0.82
  -4  11   8   -0.35    0.63
  -3  11   8    4.51    1.03
  -3  11   8    4.69    0.88
  -2  11   8    8.32    1.04
  -1  11   8    0.34    0.74
  -8  12   8    3.99    0.74
  -7  12   8    0.42    0.78
  -7  12   8    0.04    0.62
  -6  12   8    4.12    0.81
  -6  12   8    4.93    1.00
  -5  12   8    6.43    0.91
  -5  12   8    2.77    0.95
  -4  12   8    0.05    0.70
  -3 -14   9    3.84    0.96
   2  14  -9    1.34    0.75
  -2 -14   9    1.19    0.82
   1  14  -9    7.11    1.02
  -1 -14   9    9.40    1.20
   0  14  -9    5.64    0.98
   0 -14   9    3.36    0.92
  -1  14  -9    2.53    0.85
   1 -14   9    1.49    0.78
  -2  14  -9   10.07    1.16
   2 -14   9    8.91    1.15
  -3  14  -9    5.68    1.00
   3 -14   9    4.37    0.99
  -4  14  -9    1.41    0.79
   4 -14   9    0.60    0.77
  -5 -13   9    0.39    0.77
  -4 -13   9   11.37    1.22
   3  13  -9   -0.08    0.62
  -3 -13   9   -0.41    0.70
   2  13  -9    4.07    0.81
  -2 -13   9    4.41    0.93
   1  13  -9   15.87    1.33
  -1 -13   9   12.71    1.26
   0  13  -9    4.03    0.87
   0 -13   9    2.79    0.85
  -1  13  -9    2.00    0.80
   1 -13   9    2.16    0.80
  -2  13  -9   26.89    1.65
   2 -13   9   24.97    1.68
  -3  13  -9    5.97    0.97
   3 -13   9    5.31    0.96
  -4  13  -9   -1.09    0.66
   4 -13   9    1.20    0.78
  -5  13  -9   28.09    1.73
   5 -13   9   23.25    1.69
  -6 -12   9    6.48    0.99
  -6 -12   9    6.07    0.99
  -5 -12   9    1.14    0.76
   4  12  -9   10.58    1.04
  -4 -12   9   13.12    1.22
   3  12  -9   12.93    1.15
  -3 -12   9   14.59    1.26
   2  12  -9   -0.05    0.57
  -2 -12   9    0.25    0.69
   1  12  -9   12.30    1.09
  -1 -12   9    9.73    1.16
   0  12  -9   34.67    1.73
   0 -12   9   31.88    1.80
  -1  12  -9    0.60    0.65
   1 -12   9    0.37    0.70
  -2  12  -9   18.67    1.38
   2 -12   9   18.46    1.44
  -3  12  -9   32.71    1.74
   3 -12   9   34.79    1.86
  -4  12  -9   -0.66    0.62
   4 -12   9    0.27    0.63
  -5  12  -9   12.03    1.20
   5 -12   9   10.39    1.13
  -6  12  -9   24.22    1.67
   6 -12   9   26.82    1.70
  -8 -11   9   -0.21    0.65
  -7 -11   9    5.19    1.01
  -7 -11   9    4.80    0.84
  -6 -11   9   12.71    1.25
  -6 -11   9   13.53    1.22
   5  11  -9    0.11    0.55
  -5 -11   9   -0.84    0.61
  -5 -11   9    0.02    0.69
   4  11  -9    4.88    0.72
  -4 -11   9    4.84    0.87
   3  11  -9   14.35    1.11
  -3 -11   9   10.83    1.08
   2  11  -9    2.54    0.66
  -2 -11   9    2.21    0.73
   1  11  -9    8.55    0.91
  -1 -11   9   10.05    1.08
   0  11  -9   24.82    1.41
   0 -11   9   24.38    1.52
  -1  11  -9    2.25    0.67
   1 -11   9    1.61    0.71
  -2  11  -9   10.47    1.00
   2 -11   9   10.00    1.05
  -3  11  -9   18.51    1.33
   3 -11   9   20.20    1.40
  -4  11  -9    0.96    0.66
   4 -11   9    0.75    0.66
  -5  11  -9    6.43    0.96
   5 -11   9    5.17    0.87
  -6  11  -9   25.40    1.62
   6 -11   9   26.60    1.63
  -7  11  -9    3.04    0.83
   7 -11   9    1.39    0.73
  -9 -10   9    1.96    0.78
  -8 -10   9    0.84    0.78
  -8 -10   9    0.29    0.62
  -7 -10   9   11.71    1.24
  -7 -10   9    9.75    1.07
  -6 -10   9   15.61    1.28
  -6 -10   9   16.47    1.43
   5  10  -9    0.86    0.50
  -5 -10   9    2.11    0.76
  -5 -10   9    1.70    0.70
   4  10  -9   11.55    0.97
  -4 -10   9   13.86    1.19
  -4 -10   9   11.14    1.09
   3  10  -9   22.34    1.25
  -3 -10   9   23.51    1.41
   2  10  -9    5.05    0.71
  -2 -10   9    5.74    0.85
   1  10  -9   21.90    1.25
   1  10  -9   19.15    1.17
  -1 -10   9   20.36    1.34
   0  10  -9   63.73    2.26
   0  10  -9   55.02    2.11
   0 -10   9   60.88    2.32
  -1  10  -9   13.13    1.04
  -1  10  -9   14.25    1.11
   1 -10   9   14.25    1.17
  -2  10  -9   12.64    1.10
  -2  10  -9   13.07    1.05
   2 -10   9   15.52    1.23
  -3  10  -9   63.86    2.39
   3 -10   9   63.31    2.44
  -4  10  -9    5.19    0.80
   4 -10   9    4.66    0.80
  -5  10  -9    8.93    0.99
   5 -10   9    8.11    1.00
  -6  10  -9   37.91    1.89
   6 -10   9   39.48    1.91
  -7  10  -9    6.34    0.95
   7 -10   9    6.41    0.93
  -8  10  -9    0.80    0.71
   8 -10   9    0.80    0.68
 -10  -9   9    2.63    0.79
  -9  -9   9    5.57    0.89
  -9  -9   9    7.51    1.12
  -8  -9   9    4.25    0.97
  -8  -9   9    3.95    0.80
  -7  -9   9    5.82    0.88
  -7  -9   9    6.11    1.01
   6   9  -9   11.83    0.95
  -6  -9   9   15.55    1.36
  -6  -9   9   13.88    1.15
   5   9  -9   16.86    1.06
  -5  -9   9   17.19    1.33
  -5  -9   9   17.50    1.24
   4   9  -9    8.74    0.82
  -4  -9   9    9.34    0.95
  -4  -9   9    8.46    0.92
   3   9  -9   38.96    1.58
   3   9  -9   34.93    1.55
  -3  -9   9   40.68    1.73
   2   9  -9   23.71    1.21
   2   9  -9   22.58    1.20
  -2  -9   9   22.00    1.31
   1   9  -9   25.79    1.28
   1   9  -9   24.27    1.23
  -1  -9   9   25.53    1.39
   0   9  -9   55.69    1.99
   0   9  -9   57.52    2.09
   0  -9   9   57.41    2.17
  -1   9  -9   45.99    1.85
  -1   9  -9   47.76    1.77
   1  -9   9   46.91    1.93
  -2   9  -9    1.77    0.62
  -2   9  -9    2.28    0.56
   2  -9   9    1.00    0.56
  -3   9  -9   33.90    1.59
  -3   9  -9   31.78    1.51
   3  -9   9   30.95    1.61
  -4   9  -9   38.90    1.76
   4  -9   9   37.32    1.76
  -5   9  -9    1.87    0.67
   5  -9   9    1.93    0.63
  -6   9  -9    9.64    1.03
   6  -9   9    9.97    1.05
  -7   9  -9   20.63    1.47
   7  -9   9   23.70    1.49
  -8   9  -9    1.33    0.78
   8  -9   9   -1.07    0.55
 -10  -8   9    0.63    0.85
 -10  -8   9    0.22    0.64
  -9  -8   9   20.00    1.33
  -9  -8   9   15.55    1.38
  -8  -8   9    7.39    1.03
  -8  -8   9    6.43    0.85
  -7  -8   9    1.52    0.73
  -7  -8   9    1.35    0.61
   6   8  -9   16.23    0.98
  -6  -8   9   18.55    1.10
  -6  -8   9   17.30    1.17
  -6  -8   9   18.79    1.34
   5   8  -9    6.64    0.69
  -5  -8   9    7.63    0.85
  -5  -8   9    9.03    0.94
  -5  -8   9    6.76    0.76
   4   8  -9    2.98    0.54
   4   8  -9    1.68    0.52
  -4  -8   9    2.76    0.58
  -4  -8   9    2.98    0.70
  -4  -8   9    2.56    0.63
   3   8  -9   79.96    2.55
   3   8  -9   75.58    2.53
  -3  -8   9   79.31    2.63
  -3  -8   9   81.58    2.59
  -3  -8   9   76.68    2.62
   2   8  -9   29.45    1.30
   2   8  -9   26.64    1.25
  -2  -8   9   29.13    1.40
  -2  -8   9   29.72    1.30
   1   8  -9    6.56    0.67
   1   8  -9    8.04    0.77
  -1  -8   9    7.60    0.78
   0   8  -9   67.19    2.17
   0   8  -9   66.88    2.28
   0  -8   9   66.76    2.34
  -1   8  -9   34.11    1.47
  -1   8  -9   32.47    1.32
   1  -8   9   30.92    1.49
  -2   8  -9    3.25    0.63
   2  -8   9    2.63    0.63
  -3   8  -9   36.87    1.65
   3  -8   9   39.29    1.72
  -4   8  -9   30.35    1.52
   4  -8   9   28.97    1.50
  -5   8  -9    1.43    0.64
   5  -8   9    1.96    0.65
  -6   8  -9   30.50    1.60
   6  -8   9   29.02    1.57
  -7   8  -9   19.16    1.41
   7  -8   9   17.98    1.35
  -8   8  -9   -0.54    0.65
   8  -8   9   -0.17    0.60
 -11  -7   9    3.62    0.80
 -10  -7   9   -0.24    0.75
 -10  -7   9    1.34    0.63
  -9  -7   9   36.18    1.68
  -9  -7   9   36.82    1.95
  -8  -7   9   15.09    1.26
  -8  -7   9   12.62    1.06
   7   7  -9    2.34    0.46
  -7  -7   9    2.35    0.74
  -7  -7   9    0.72    0.55
   6   7  -9   35.92    1.41
  -6  -7   9   37.64    1.55
  -6  -7   9   36.25    1.59
  -6  -7   9   38.65    1.72
   5   7  -9   46.21    1.77
   5   7  -9   48.33    1.69
  -5  -7   9   46.92    1.79
  -5  -7   9   49.09    1.91
  -5  -7   9   48.63    1.84
   4   7  -9    1.63    0.43
   4   7  -9    1.54    0.48
  -4  -7   9    1.23    0.59
  -4  -7   9    1.14    0.44
  -4  -7   9    1.79    0.55
   3   7  -9  110.80    3.24
   3   7  -9  111.26    3.24
  -3  -7   9  104.32    3.31
  -3  -7   9  109.86    3.33
  -3  -7   9  106.43    3.27
   2   7  -9   82.66    2.55
   2   7  -9   80.50    2.49
  -2  -7   9   80.82    2.57
  -2  -7   9   79.54    2.61
   1   7  -9   14.68    0.86
   1   7  -9   16.49    0.96
  -1  -7   9   16.91    0.95
  -1  -7   9   16.61    1.02
   0   7  -9   29.08    1.28
   0  -7   9   27.65    1.32
   0  -7   9   28.21    1.25
  -1   7  -9   71.81    2.34
   1  -7   9   66.58    2.35
  -2   7  -9    7.60    0.79
   2  -7   9    9.44    0.87
  -3   7  -9   24.77    1.30
   3  -7   9   23.99    1.32
  -4   7  -9   36.88    1.66
   4  -7   9   36.34    1.66
  -5   7  -9    3.84    0.73
   5  -7   9    4.98    0.76
  -6   7  -9   13.52    1.14
   6  -7   9   12.26    1.10
  -7   7  -9   28.86    1.64
   7  -7   9   30.15    1.61
  -8   7  -9    2.48    0.82
   8  -7   9    4.27    0.82
   9  -7   9    3.50    0.80
 -12  -6   9    5.29    0.85
 -11  -6   9   19.09    1.33
 -11  -6   9   19.52    1.63
 -10  -6   9    1.19    0.63
 -10  -6   9    0.56    0.78
  -9  -6   9   11.11    0.98
  -9  -6   9   11.47    1.12
  -8  -6   9   43.12    1.74
  -8  -6   9   41.45    1.89
   7   6  -9    8.64    0.65
  -7  -6   9    8.05    0.73
  -7  -6   9    9.64    0.93
  -7  -6   9    8.04    0.77
   6   6  -9   11.23    0.71
   6   6  -9   10.46    0.86
  -6  -6   9   10.81    0.93
  -6  -6   9   11.14    0.90
  -6  -6   9   11.96    0.86
   5   6  -9   96.00    2.92
   5   6  -9  102.24    3.04
  -5  -6   9   97.99    3.05
  -5  -6   9  101.71    3.04
  -5  -6   9   99.58    3.13
   4   6  -9    7.27    0.64
   4   6  -9    7.96    0.66
  -4  -6   9    7.49    0.70
  -4  -6   9    8.06    0.70
  -4  -6   9    7.75    0.76
   3   6  -9   20.80    0.96
   3   6  -9   19.80    0.94
  -3  -6   9   19.92    1.09
  -3  -6   9   20.27    1.06
  -3  -6   9   20.58    0.99
   2   6  -9   58.38    1.88
  -2  -6   9   51.54    1.90
  -2  -6   9   57.52    1.89
   1   6  -9   37.89    1.41
  -1  -6   9   35.24    1.43
  -1  -6   9   35.29    1.38
   0   6  -9    2.92    0.54
   0  -6   9    2.97    0.53
   0  -6   9    1.72    0.46
  -1   6  -9   13.79    0.94
   1  -6   9   14.86    0.91
   1  -6   9   14.96    0.99
  -2   6  -9    0.91    0.51
   2  -6   9    0.72    0.49
  -3   6  -9    2.04    0.56
   3  -6   9    0.30    0.48
  -4   6  -9   30.57    1.46
   4  -6   9   28.76    1.46
  -5   6  -9    4.29    0.76
   5  -6   9    4.03    0.72
  -6   6  -9    7.67    0.92
   6  -6   9    8.60    0.91
  -7   6  -9   24.75    1.51
   7  -6   9   23.18    1.45
  -8   6  -9    7.94    1.00
   8  -6   9    6.70    0.97
  -9   6  -9    2.88    0.83
   9  -6   9    2.27    0.74
 -12  -5   9    1.53    0.68
 -12  -5   9    0.57    0.88
 -11  -5   9   17.76    1.51
 -11  -5   9   15.87    1.19
 -11  -5   9   16.17    1.28
 -10  -5   9    1.67    0.66
 -10  -5   9    2.84    0.79
 -10  -5   9    2.30    0.64
  -9  -5   9    8.48    0.79
  -9  -5   9    5.79    0.82
  -9  -5   9    7.61    0.94
  -8  -5   9   47.41    1.94
  -8  -5   9   45.33    1.73
  -8  -5   9   45.61    1.68
   7   5  -9    5.06    0.63
   7   5  -9    5.77    0.50
  -7  -5   9    6.56    0.69
  -7  -5   9    7.09    0.80
  -7  -5   9    4.69    0.57
   6   5  -9   43.52    1.47
   6   5  -9   46.21    1.67
  -6  -5   9   45.16    1.64
  -6  -5   9   44.41    1.74
  -6  -5   9   45.74    1.64
   5   5  -9   56.59    1.83
   5   5  -9   65.43    1.99
  -5  -5   9   56.76    1.94
  -5  -5   9   58.21    1.92
  -5  -5   9   58.07    2.04
   4   5  -9    7.92    0.61
   4   5  -9    7.31    0.60
  -4  -5   9    8.32    0.67
  -4  -5   9    7.86    0.66
  -4  -5   9    7.24    0.70
   3   5  -9    9.93    0.65
   3   5  -9    8.56    0.65
  -3  -5   9   11.11    0.81
  -3  -5   9    9.34    0.74
  -3  -5   9    9.85    0.68
   2   5  -9   74.18    2.31
  -2  -5   9   78.33    2.34
  -2  -5   9   74.26    2.36
   1   5  -9    9.99    0.73
  -1  -5   9   10.52    0.73
  -1  -5   9   10.68    0.78
   0   5  -9   17.13    0.94
   0  -5   9   17.19    0.90
   0  -5   9   15.68    0.94
  -1   5  -9   32.51    1.38
   1  -5   9   36.33    1.36
   1  -5   9   31.39    1.40
  -2   5  -9    6.54    0.68
   2  -5   9    4.80    0.66
  -3   5  -9    0.88    0.52
   3  -5   9    0.89    0.50
  -4   5  -9   85.18    2.85
   4  -5   9   86.00    2.86
  -5   5  -9   16.45    1.19
   5  -5   9   15.49    1.15
  -6   5  -9    4.19    0.75
   6  -5   9    3.17    0.70
  -7   5  -9   43.47    1.98
   7  -5   9   41.70    1.94
  -8   5  -9   10.62    1.12
   8  -5   9   12.53    1.19
  -9   5  -9    0.11    0.69
   9  -5   9   -0.01    0.59
 -13  -4   9    7.67    0.87
 -12  -4   9    3.92    0.95
 -12  -4   9    3.23    0.71
 -12  -4   9    3.14    0.76
 -11  -4   9   12.63    1.21
 -11  -4   9   13.84    1.08
 -11  -4   9   12.72    1.19
 -10  -4   9   10.63    1.03
 -10  -4   9   12.58    1.14
 -10  -4   9   12.12    0.95
  -9  -4   9    7.40    0.88
  -9  -4   9    7.29    0.86
  -9  -4   9    7.22    0.71
  -8  -4   9   43.84    1.99
  -8  -4   9   42.45    1.56
  -8  -4   9   45.25    1.83
  -8  -4   9   46.30    1.62
   7   4  -9   38.52    1.52
  -7  -4   9   41.37    1.64
  -7  -4   9   38.98    1.44
  -7  -4   9   39.12    1.84
  -7  -4   9   38.50    1.43
   6   4  -9   73.24    2.28
  -6  -4   9   70.86    2.20
  -6  -4   9   68.54    2.19
  -6  -4   9   70.27    2.32
   5   4  -9   32.34    1.17
   5   4  -9   25.84    1.05
   5   4  -9   27.67    1.01
  -5  -4   9   28.07    1.10
  -5  -4   9   28.19    1.12
  -5  -4   9   29.58    1.22
   4   4  -9   47.92    1.52
   4   4  -9   42.92    1.56
   4   4  -9   47.88    1.55
  -4  -4   9   49.18    1.63
  -4  -4   9   48.35    1.60
  -4  -4   9   50.75    1.59
   3   4  -9    3.76    0.43
  -3  -4   9    4.39    0.46
  -3  -4   9    4.33    0.50
   2   4  -9   42.22    1.45
  -2  -4   9   41.74    1.49
  -2  -4   9   43.22    1.47
   1   4  -9   80.27    2.42
  -1  -4   9   75.53    2.44
  -1  -4   9   81.45    2.42
   0   4  -9    0.51    0.39
   0  -4   9    0.33    0.40
   0  -4   9    0.42    0.34
  -1   4  -9   62.13    2.02
   1  -4   9   56.73    2.03
   1  -4   9   60.27    1.99
  -2   4  -9  171.33    4.80
   2  -4   9  169.31    4.88
   2  -4   9  160.36    4.81
  -3   4  -9    9.31    0.83
   3  -4   9    8.59    0.84
  -4   4  -9   21.62    1.24
   4  -4   9   20.01    1.21
  -5   4  -9   70.22    2.51
   5  -4   9   67.92    2.49
  -6   4  -9   -0.34    0.55
   6  -4   9   -0.44    0.51
  -7   4  -9   17.28    1.31
   7  -4   9   15.01    1.26
  -8   4  -9   30.19    1.73
   8  -4   9   29.26    1.67
  -9   4  -9   -0.51    0.67
   9  -4   9    0.57    0.66
 -13  -3   9    8.98    0.88
 -12  -3   9    0.77    0.75
 -12  -3   9    1.22    0.68
 -12  -3   9   -0.10    0.50
 -11  -3   9   15.18    1.32
 -11  -3   9   15.37    1.03
 -11  -3   9   14.79    1.28
 -10  -3   9   17.59    1.30
 -10  -3   9   17.95    1.02
 -10  -3   9   17.52    1.29
  -9  -3   9    3.66    0.71
  -9  -3   9    3.87    0.54
  -9  -3   9    4.00    0.47
  -9  -3   9    3.59    0.72
  -8  -3   9   27.72    1.33
  -8  -3   9   25.84    1.05
  -8  -3   9   25.87    1.49
  -8  -3   9   27.28    1.10
   7   3  -9   20.40    1.02
  -7  -3   9   20.08    0.92
  -7  -3   9   20.33    0.92
  -7  -3   9   19.43    1.31
  -7  -3   9   21.64    1.13
   6   3  -9    0.49    0.35
  -6  -3   9    0.38    0.45
  -6  -3   9    0.42    0.33
  -6  -3   9    0.13    0.53
  -6  -3   9    0.23    0.33
   5   3  -9    7.22    0.59
  -5  -3   9    7.87    0.58
  -5  -3   9    7.85    0.63
  -5  -3   9    8.15    0.60
   4   3  -9   35.05    1.23
   4   3  -9   35.59    1.19
  -4  -3   9   37.15    1.25
  -4  -3   9   38.10    1.28
  -4  -3   9   37.88    1.29
   3   3  -9    1.91    0.34
   3   3  -9    1.50    0.33
  -3  -3   9    1.81    0.38
  -3  -3   9    1.85    0.35
   2   3  -9   28.61    1.09
   2   3  -9   29.65    1.11
  -2  -3   9   29.89    1.11
  -2  -3   9   29.60    1.15
   1   3  -9   76.18    2.30
  -1  -3   9   75.59    2.35
  -1  -3   9   74.84    2.29
   0   3  -9    9.24    0.72
   0  -3   9    8.85    0.67
   0  -3   9    8.30    0.73
  -1   3  -9   65.25    2.10
   1  -3   9   62.25    2.05
   1  -3   9   60.70    2.10
  -2   3  -9   78.28    2.48
   2  -3   9   74.30    2.43
   2  -3   9   74.07    2.49
  -3   3  -9    1.10    0.52
   3  -3   9    1.13    0.51
  -4   3  -9   17.18    1.14
   4  -3   9   20.26    1.20
  -5   3  -9   35.28    1.63
   5  -3   9   33.30    1.62
  -6   3  -9    3.56    0.75
   6  -3   9    5.47    0.81
  -7   3  -9   13.67    1.21
   7  -3   9   17.06    1.28
  -8   3  -9   14.43    1.30
   8  -3   9   12.28    1.18
 -13  -2   9    4.84    0.97
 -13  -2   9    4.60    0.85
 -13  -2   9    5.22    0.70
 -12  -2   9    1.31    0.75
 -12  -2   9    0.32    0.49
 -12  -2   9   -0.43    0.61
 -11  -2   9   28.07    1.59
 -11  -2   9   28.81    1.25
 -11  -2   9   29.58    1.67
 -10  -2   9   15.12    0.88
 -10  -2   9   16.86    1.22
 -10  -2   9   15.24    1.28
  -9  -2   9    2.07    0.60
  -9  -2   9    1.34    0.60
  -8  -2   9   50.58    2.18
  -8  -2   9   52.66    1.91
  -7  -2   9    9.81    0.85
  -7  -2   9    9.87    0.96
  -6  -2   9   51.40    2.17
  -6  -2   9   51.92    1.58
  -6  -2   9   50.82    1.57
  -6  -2   9   51.96    1.76
  -5  -2   9   69.54    2.00
  -5  -2   9   66.26    2.01
  -5  -2   9   70.24    2.12
  -5  -2   9   69.27    2.66
   4   2  -9   31.64    1.02
  -4  -2   9   32.72    1.13
  -4  -2   9   33.37    1.11
   3   2  -9    5.50    0.47
   3   2  -9    6.04    0.48
  -3  -2   9    6.13    0.50
  -3  -2   9    6.25    0.51
   2   2  -9   88.72    2.61
   2   2  -9   89.36    2.60
  -2  -2   9   90.44    2.66
  -2  -2   9   93.54    2.64
   1   2  -9   94.62    2.77
  -1  -2   9   91.13    2.81
  -1  -2   9   99.02    2.79
   0   2  -9    9.30    0.72
   0  -2   9    9.17    0.68
   0  -2   9    8.81    0.72
  -1   2  -9   65.82    2.10
   1  -2   9   59.89    2.03
   1  -2   9   61.51    2.08
  -2   2  -9   19.05    1.05
   2  -2   9   18.59    0.99
   2  -2   9   17.20    1.04
  -3   2  -9    3.53    0.62
   3  -2   9    2.75    0.60
  -4   2  -9   36.75    1.62
   4  -2   9   36.00    1.62
  -5   2  -9   44.25    1.86
   5  -2   9   42.45    1.86
  -6   2  -9    8.40    0.95
   6  -2   9    8.33    0.95
  -7   2  -9    7.13    0.94
   7  -2   9    6.96    0.92
  -8   2  -9   19.03    1.49
   8  -2   9   22.30    1.55
 -14  -1   9    4.80    0.87
 -13  -1   9   19.89    1.53
 -13  -1   9   19.85    1.47
 -12  -1   9    1.17    0.73
 -12  -1   9    1.70    0.68
 -11  -1   9    6.59    0.89
 -11  -1   9    8.56    0.96
 -10  -1   9   28.35    1.46
 -10  -1   9   27.10    1.61
  -9  -1   9    4.35    0.77
  -9  -1   9    4.94    0.68
  -8  -1   9   11.61    1.13
  -8  -1   9   12.27    0.92
  -7  -1   9   91.57    2.78
  -7  -1   9   88.43    3.29
  -6  -1   9   32.43    1.26
  -5  -1   9   34.76    1.23
  -5  -1   9   35.59    1.70
  -5  -1   9   34.56    1.13
  -4  -1   9   60.73    1.83
  -4  -1   9   62.49    1.80
  -4  -1   9   61.35    2.46
   3   1  -9   17.63    0.74
   3   1  -9   18.31    0.74
  -3  -1   9   19.80    0.78
  -3  -1   9   18.45    0.80
   2   1  -9    8.40    0.57
   2   1  -9    8.21    0.56
  -2  -1   9    7.13    0.57
  -2  -1   9    7.65    0.60
   1   1  -9   96.64    2.78
  -1  -1   9   99.47    2.79
  -1  -1   9   89.25    2.79
   0   1  -9   37.30    1.39
   0  -1   9   37.02    1.37
   0  -1   9   38.72    1.43
  -1   1  -9   11.18    0.82
   1  -1   9   11.81    0.77
   1  -1   9   10.73    0.81
  -2   1  -9   21.08    1.13
   2  -1   9   21.45    1.14
   2  -1   9   21.30    1.06
  -3   1  -9   16.18    1.07
   3  -1   9   17.12    1.08
  -4   1  -9   15.32    1.09
   4  -1   9   13.29    1.06
  -5   1  -9   39.50    1.77
   5  -1   9   39.85    1.80
  -6   1  -9   23.89    1.47
   6  -1   9   26.75    1.51
  -7   1  -9   -0.58    0.63
   7  -1   9    1.36    0.67
  -8   1  -9   18.71    1.48
   8  -1   9   15.36    1.35
 -14   0   9    1.35    0.68
 -13   0   9   16.95    1.46
 -13   0   9   18.31    1.44
 -12   0   9    2.20    0.71
 -12   0   9    1.30    0.69
 -11   0   9    6.94    0.84
 -11   0   9    7.02    0.93
 -10   0   9   13.08    1.09
 -10   0   9   13.86    1.23
  -9   0   9   -0.34    0.58
  -9   0   9    0.40    0.51
  -8   0   9   13.93    1.23
  -8   0   9   15.05    0.97
  -7   0   9   72.81    2.80
  -7   0   9   70.47    2.28
  -6   0   9   14.99    1.17
  -6   0   9   15.66    0.86
  -5   0   9   10.43    1.04
  -5   0   9   11.89    0.69
  -4   0   9   87.51    2.42
  -4   0   9   84.65    3.16
  -4   0   9   86.32    2.44
   3   0  -9   36.35    1.17
  -3   0   9   37.33    1.21
  -3   0   9   36.36    1.24
   2   0  -9   13.26    0.69
   2   0  -9   12.98    0.67
  -2   0   9   14.04    0.74
  -2   0   9   13.86    0.70
   1   0  -9   51.27    1.70
  -1   0   9   52.30    1.73
  -1   0   9   53.50    1.71
   0   0  -9   20.39    0.98
   0   0   9   19.51    0.98
   0   0   9   19.95    0.96
  -1   0  -9   -0.34    0.37
   1   0   9    0.07    0.39
   1   0   9   -0.25    0.35
  -2   0  -9   47.13    1.75
   2   0   9   44.43    1.74
   2   0   9   45.96    1.70
  -3   0  -9   28.00    1.37
   3   0   9   28.34    1.38
  -4   0  -9    0.18    0.53
   4   0   9   -0.06    0.47
  -5   0  -9   34.52    1.68
   5   0   9   33.08    1.67
  -6   0  -9   12.15    1.13
   6   0   9   12.72    1.14
  -7   0  -9    0.80    0.67
   7   0   9    0.35    0.61
  -8   0  -9    7.10    1.01
   8   0   9    7.36    1.09
 -13   1   9   12.50    1.19
 -12   1   9    4.46    0.85
 -11   1   9   10.85    0.97
 -10   1   9   47.51    1.89
  -9   1   9   14.23    1.02
  -9   1   9   15.70    1.28
  -8   1   9   22.66    1.14
  -8   1   9   22.76    1.45
  -7   1   9   94.64    2.83
  -7   1   9   91.82    3.44
  -6   1   9   78.62    2.37
  -6   1   9   76.99    2.97
  -5   1   9    0.21    0.31
  -5   1   9    0.12    0.54
  -4   1   9  148.27    4.96
  -4   1   9  144.86    3.98
  -4   1   9  148.11    3.96
   3  -1  -9   88.13    2.49
  -3   1   9   91.14    3.30
  -3   1   9   88.90    2.53
  -3   1   9   86.58    2.54
   2  -1  -9    6.79    0.56
   2  -1  -9    7.39    0.54
  -2   1   9    7.47    0.62
  -2   1   9    7.55    0.57
   1  -1  -9   54.08    1.82
  -1   1   9   57.28    1.86
  -1   1   9   58.33    1.83
   0  -1  -9   48.57    1.65
   0   1   9   42.68    1.63
   0   1   9   45.98    1.61
  -1  -1  -9    0.88    0.46
   1   1   9    0.82    0.43
   1   1   9    0.18    0.37
  -2  -1  -9   38.93    1.57
   2   1   9   35.75    1.55
  -3  -1  -9   63.63    2.29
   3   1   9   64.28    2.31
  -4  -1  -9    0.29    0.53
   4   1   9    0.38    0.53
  -5  -1  -9    7.78    0.92
   5   1   9    6.68    0.91
  -6  -1  -9   15.51    1.30
   6   1   9   16.82    1.32
  -7  -1  -9    0.22    0.69
   7   1   9    1.14    0.70
 -13   2   9    7.25    0.97
 -12   2   9   20.77    1.43
 -11   2   9    1.31    0.61
 -10   2   9   27.76    1.40
  -9   2   9   96.72    3.04
  -8   2   9    0.84    0.46
  -8   2   9    0.99    0.59
  -7   2   9   26.83    1.16
  -7   2   9   25.08    1.57
  -6   2   9  103.32    3.72
  -6   2   9  100.91    2.99
  -5   2   9    8.01    0.92
  -4   2   9   14.57    0.68
  -4   2   9   15.36    0.67
  -4   2   9   14.48    1.22
   3  -2  -9   64.06    1.90
  -3   2   9   67.17    2.67
  -3   2   9   64.41    1.95
  -3   2   9   65.23    1.98
   2  -2  -9    2.30    0.39
  -2   2   9    1.57    0.36
  -2   2   9    2.81    0.45
  -1   2   9   13.37    0.77
  -1   2   9   12.09    0.79
   0  -2  -9   55.40    1.93
   0   2   9   55.95    1.95
   0   2   9   59.52    1.92
  -1  -2  -9    5.83    0.67
   1   2   9    4.85    0.64
   1   2   9    6.11    0.64
  -2  -2  -9   18.18    1.10
   2   2   9   15.67    1.07
  -3  -2  -9   30.81    1.48
   3   2   9   29.28    1.47
  -4  -2  -9    5.99    0.83
   4   2   9    6.85    0.86
  -5  -2  -9    2.85    0.72
   5   2   9    3.08    0.73
   6   2   9   15.27    1.34
   7   2   9    4.06    0.92
 -13   3   9    8.26    1.03
 -12   3   9   21.78    1.42
 -11   3   9    2.39    0.65
 -10   3   9   27.71    1.38
  -9   3   9   35.87    1.52
  -8   3   9   18.46    1.38
  -8   3   9   19.44    1.05
  -7   3   9   19.92    1.44
  -7   3   9   21.38    1.03
  -6   3   9   20.91    1.47
  -5   3   9    7.79    0.95
  -4   3   9   16.25    0.72
  -4   3   9   17.21    1.30
  -4   3   9   15.76    0.74
   3  -3  -9   17.25    0.79
  -3   3   9   20.12    1.46
  -3   3   9   18.63    0.82
  -3   3   9   16.99    0.83
   2  -3  -9    1.70    0.40
  -2   3   9    0.40    0.34
  -2   3   9    1.36    0.40
   1  -3  -9    8.58    0.74
  -1   3   9    9.10    0.75
  -1   3   9    8.30    0.67
   0  -3  -9   36.34    1.42
   0   3   9   33.33    1.35
   0   3   9   33.05    1.40
   1   3   9    8.14    0.72
   1   3   9    8.11    0.78
   2   3   9    9.06    0.86
   3   3   9   19.67    1.27
   4   3   9    9.68    1.03
   5   3   9    4.34    0.80
   6   3   9   19.24    1.46
 -13   4   9    8.06    1.02
 -12   4   9   34.19    1.70
 -11   4   9   10.33    0.96
 -10   4   9   16.22    1.10
  -9   4   9   48.67    1.85
  -7   4   9    8.51    1.03
  -6   4   9   50.27    2.31
  -5   4   9   11.83    0.61
  -5   4   9   12.84    0.68
  -5   4   9   11.38    1.13
  -4   4   9    2.94    0.79
  -4   4   9    2.09    0.39
  -4   4   9    2.73    0.37
   3  -4  -9   46.29    1.57
  -3   4   9   50.64    1.76
  -3   4   9   46.62    1.57
  -3   4   9   46.58    1.61
  -3   4   9   47.71    2.24
   2  -4  -9   18.44    0.96
  -2   4   9   19.89    0.97
  -2   4   9   21.42    1.10
  -2   4   9   20.11    0.95
   1  -4  -9    4.79    0.59
  -1   4   9    5.04    0.58
  -1   4   9    3.84    0.58
   0  -4  -9   46.98    1.75
   0   4   9   46.01    1.69
   0   4   9   43.90    1.72
  -1  -4  -9   17.67    1.13
   1   4   9   19.96    1.14
  -2  -4  -9    1.02    0.59
   2   4   9    1.28    0.55
  -3  -4  -9   16.80    1.25
   3   4   9   17.21    1.23
  -4  -4  -9   10.33    1.11
   4   4   9    9.68    1.09
  -5  -4  -9    2.47    0.80
   5   4   9    1.21    0.72
  -6  -4  -9    9.91    1.18
   6   4   9   11.23    1.26
 -13   5   9    3.69    0.80
 -12   5   9    5.30    0.82
 -11   5   9   19.21    1.26
 -10   5   9    0.82    0.52
  -7   5   9    1.93    0.74
  -6   5   9   21.47    1.57
  -5   5   9   26.29    1.00
  -5   5   9   25.62    1.68
  -5   5   9   26.79    1.06
  -4   5   9    0.17    0.32
  -4   5   9    0.63    0.69
  -4   5   9    0.40    0.37
  -4   5   9   -0.51    0.48
   3  -5  -9    9.55    0.72
  -3   5   9   11.31    0.74
  -3   5   9    9.33    1.11
  -3   5   9   10.80    0.81
  -3   5   9   11.71    1.01
   2  -5  -9   60.56    2.10
  -2   5   9   63.89    2.09
  -2   5   9   62.43    2.75
  -2   5   9   68.40    2.23
  -2   5   9   65.07    2.15
   1  -5  -9    1.28    0.50
  -1   5   9    2.49    0.48
  -1   5   9    2.57    0.56
  -1   5   9    2.98    0.59
   0  -5  -9   20.00    1.14
   0   5   9   17.73    1.08
   0   5   9   19.02    1.15
   0   5   9   17.95    1.05
  -1  -5  -9   15.32    1.09
   1   5   9   13.35    0.98
   1   5   9   15.29    1.13
  -2  -5  -9   -1.15    0.49
   2   5   9    0.33    0.54
  -3  -5  -9    9.11    1.02
   3   5   9    9.09    0.99
  -4  -5  -9    5.95    0.96
   4   5   9    5.62    0.91
  -5  -5  -9   -0.11    0.71
   5   5   9    0.98    0.74
 -13   6   9   -0.42    0.68
 -12   6   9   14.47    1.27
 -11   6   9    4.24    0.76
  -7   6   9    0.64    0.70
  -6   6   9   29.72    1.85
  -6   6   9   31.86    1.23
  -6   6   9   32.11    1.14
  -5   6   9   15.07    0.78
  -5   6   9   13.95    1.38
  -5   6   9   12.38    0.85
   4  -6  -9   -0.03    0.23
  -4   6   9   -0.23    0.33
  -4   6   9    0.81    0.43
  -4   6   9    0.43    0.57
  -4   6   9    0.22    0.67
   3  -6  -9   22.61    1.10
  -3   6   9   25.46    1.20
  -3   6   9   23.17    1.10
  -3   6   9   26.53    1.35
  -3   6   9   25.66    1.73
   2  -6  -9   16.09    1.00
  -2   6   9   16.30    0.96
  -2   6   9   18.57    1.17
  -2   6   9   17.44    1.07
   1  -6  -9   -0.22    0.47
  -1   6   9    0.27    0.50
  -1   6   9    0.51    0.44
  -1   6   9    0.49    0.55
   0  -6  -9   13.68    1.08
   0   6   9   12.43    1.07
   0   6   9   13.10    1.07
  -1  -6  -9   10.07    1.02
   1   6   9   10.79    1.01
  -2  -6  -9    1.00    0.63
   2   6   9    1.94    0.68
  -3  -6  -9    6.83    0.96
   3   6   9    7.98    1.03
  -4  -6  -9    8.82    1.07
   4   6   9    9.38    1.10
 -12   7   9   10.15    1.02
  -7   7   9    1.22    0.77
  -7   7   9    2.12    0.47
  -6   7   9    3.45    0.90
  -6   7   9    2.83    0.53
  -5   7   9   31.65    1.36
  -5   7   9   30.10    1.89
  -4   7   9   -0.50    0.46
  -4   7   9   -0.04    0.77
  -3   7   9   11.77    0.99
  -3   7   9   14.00    1.14
  -3   7   9   11.94    1.28
  -2   7   9   20.62    1.32
  -2   7   9   22.62    1.26
  -1   7   9    1.30    0.59
   0   7   9    3.11    0.71
   1   7   9   18.55    1.37
   2   7   9    1.33    0.75
   3   7   9   -0.21    0.68
 -12   8   9    4.24    0.81
  -8   8   9   16.76    0.95
  -7   8   9    5.84    0.66
  -7   8   9    5.17    1.00
  -6   8   9    4.81    0.97
  -6   8   9    4.71    0.65
  -5   8   9    7.45    0.79
  -5   8   9    7.88    1.14
  -4   8   9    3.09    0.66
  -4   8   9    3.40    0.94
  -3   8   9    8.99    0.90
  -3   8   9    8.27    1.15
  -2   8   9   15.25    1.19
  -1   8   9    6.20    0.84
   0   8   9    0.60    0.65
   1   8   9   11.06    1.18
   2   8   9    4.00    0.92
  -8   9   9   16.06    1.04
  -7   9   9    7.75    0.75
  -7   9   9    7.42    1.13
  -6   9   9    1.67    0.90
  -6   9   9    1.83    0.60
  -5   9   9   23.81    1.33
  -5   9   9   21.70    1.76
  -4   9   9    5.69    0.79
  -4   9   9    2.86    0.92
  -3   9   9    1.23    0.86
  -3   9   9    1.89    0.69
  -2   9   9   15.05    1.23
  -1   9   9    9.16    1.05
   0   9   9   -1.27    0.61
   1   9   9    6.63    0.98
  -9  10   9   -0.25    0.50
  -8  10   9    5.43    1.03
  -8  10   9    6.76    0.76
  -7  10   9   18.29    1.76
  -7  10   9   17.06    1.15
  -6  10   9   -0.69    0.55
  -6  10   9   -0.96    0.77
  -5  10   9    8.03    0.89
  -5  10   9    4.95    1.06
  -4  10   9   18.57    1.71
  -4  10   9   17.32    1.30
  -3  10   9   -0.59    0.85
  -3  10   9   -0.75    0.63
  -2  10   9    1.87    0.78
  -1  10   9   12.75    1.24
  -9  11   9    2.44    0.64
  -8  11   9    7.64    1.18
  -8  11   9    8.03    0.86
  -7  11   9    4.96    0.81
  -7  11   9    4.86    1.08
  -6  11   9    0.47    0.90
  -6  11   9    1.83    0.71
  -5  11   9    7.66    0.93
  -5  11   9    7.05    1.17
  -4  11   9    5.15    1.14
  -4  11   9    4.15    0.83
  -3  11   9    2.67    0.79
  -2 -14  10    6.63    1.08
   1  14 -10    1.26    0.73
  -1 -14  10    0.42    0.79
   0  14 -10   20.27    1.56
   0 -14  10   20.24    1.67
  -1  14 -10   12.04    1.22
   1 -14  10    8.51    1.15
  -2  14 -10   -0.75    0.69
   2 -14  10    1.04    0.82
  -4 -13  10    1.29    0.77
  -3 -13  10    7.21    1.09
   2  13 -10    6.21    0.98
  -2 -13  10    6.27    1.03
   1  13 -10    2.54    0.79
  -1 -13  10    1.57    0.82
   0  13 -10    8.89    1.04
   0 -13  10    9.28    1.13
  -1  13 -10    7.08    1.02
   1 -13  10    7.73    1.07
  -2  13 -10    0.48    0.71
   2 -13  10    0.51    0.74
  -3  13 -10    7.97    1.03
   3 -13  10    4.39    0.95
  -4  13 -10    9.08    1.11
   4 -13  10    9.13    1.17
  -6 -12  10    7.01    1.02
  -6 -12  10    7.56    1.04
  -5 -12  10    6.86    0.99
  -4 -12  10    0.18    0.72
   3  12 -10    6.12    0.90
  -3 -12  10    6.21    0.96
   2  12 -10   10.82    1.09
  -2 -12  10    8.26    1.11
   1  12 -10    2.35    0.69
  -1 -12  10    2.29    0.78
   0  12 -10   10.14    1.07
   0 -12  10   10.13    1.11
  -1  12 -10   20.69    1.42
   1 -12  10   16.10    1.41
  -2  12 -10    0.06    0.60
   2 -12  10    0.30    0.67
  -3  12 -10   13.30    1.23
   3 -12  10   14.40    1.30
  -4  12 -10   22.25    1.55
   4 -12  10   20.68    1.57
  -5  12 -10    0.20    0.75
   5 -12  10    1.52    0.78
  -7 -11  10    0.64    0.70
  -7 -11  10    2.19    0.85
  -6 -11  10    3.51    0.88
  -6 -11  10    6.40    0.96
  -5 -11  10   23.71    1.57
  -5 -11  10   25.67    1.57
   4  11 -10    1.40    0.57
  -4 -11  10    1.72    0.73
   3  11 -10    1.10    0.55
  -3 -11  10    0.25    0.64
   2  11 -10   45.53    1.92
  -2 -11  10   44.67    2.05
   1  11 -10    0.90    0.59
  -1 -11  10    1.28    0.69
   0  11 -10    3.77    0.75
   0 -11  10    1.59    0.74
  -1  11 -10   57.61    2.31
   1 -11  10   62.42    2.44
  -2  11 -10   10.24    1.06
   2 -11  10    8.38    1.05
  -3  11 -10    2.53    0.75
   3 -11  10    2.19    0.74
  -4  11 -10   33.03    1.77
   4 -11  10   34.15    1.82
  -5  11 -10   10.44    1.09
   5 -11  10   10.47    1.12
  -6  11 -10    0.16    0.72
   6 -11  10    0.33    0.69
  -8 -10  10    6.13    0.92
  -8 -10  10    5.39    1.01
  -7 -10  10    5.31    0.86
  -7 -10  10    5.79    0.98
  -6 -10  10    1.66    0.71
  -6 -10  10    3.07    0.84
  -5 -10  10   11.93    1.12
  -5 -10  10   11.71    1.10
   4  10 -10    8.82    0.86
  -4 -10  10    8.58    0.94
   3  10 -10    3.78    0.63
  -3 -10  10    3.93    0.78
   2  10 -10    8.92    0.90
  -2 -10  10    8.95    0.99
   1  10 -10   12.36    1.02
   1  10 -10    8.69    0.83
  -1 -10  10   10.69    1.03
   0  10 -10    1.58    0.60
   0 -10  10    1.53    0.62
  -1  10 -10   17.73    1.22
   1 -10  10   20.40    1.34
  -2  10 -10   15.97    1.20
   2 -10  10   14.56    1.23
  -3  10 -10    1.69    0.65
   3 -10  10    2.15    0.70
  -4  10 -10   23.01    1.44
   4 -10  10   19.87    1.43
  -5  10 -10   11.78    1.15
   5 -10  10   11.05    1.13
  -6  10 -10    1.38    0.75
   6 -10  10    2.23    0.74
  -7  10 -10   17.78    1.46
   7 -10  10   15.70    1.37
  -9  -9  10    8.26    1.11
  -9  -9  10    6.95    0.93
  -8  -9  10   12.40    1.23
  -8  -9  10   10.62    1.05
  -7  -9  10    4.68    0.90
  -7  -9  10    3.59    0.76
  -6  -9  10    2.08    0.75
  -6  -9  10    0.76    0.64
   5   9 -10   25.04    1.23
  -5  -9  10   24.17    1.46
  -5  -9  10   23.44    1.38
   4   9 -10   18.30    1.06
  -4  -9  10   17.22    1.23
  -4  -9  10   16.15    1.18
   3   9 -10    4.01    0.63
   3   9 -10    2.56    0.58
  -3  -9  10    2.96    0.65
   2   9 -10   31.48    1.41
   2   9 -10   30.09    1.34
  -2  -9  10   29.42    1.50
   1   9 -10   26.34    1.31
   1   9 -10   23.65    1.18
  -1  -9  10   26.44    1.40
   0   9 -10    1.19    0.48
   0   9 -10    2.62    0.60
   0  -9  10    2.46    0.64
  -1   9 -10   42.06    1.77
   1  -9  10   43.28    1.86
  -2   9 -10   28.25    1.46
   2  -9  10   27.32    1.49
  -3   9 -10    0.54    0.58
   3  -9  10    0.41    0.58
  -4   9 -10   46.26    2.01
   4  -9  10   46.77    2.03
  -5   9 -10   34.65    1.72
   5  -9  10   30.86    1.69
  -6   9 -10   -0.78    0.62
   6  -9  10    0.53    0.65
  -7   9 -10   17.55    1.44
   7  -9  10   14.20    1.28
 -10  -8  10    3.40    0.77
 -10  -8  10    2.69    0.93
  -9  -8  10   -0.36    0.57
  -9  -8  10    0.22    0.73
  -8  -8  10   16.61    1.21
  -8  -8  10   17.32    1.43
  -7  -8  10   16.67    1.35
  -7  -8  10   12.49    1.11
  -6  -8  10    1.11    0.59
  -6  -8  10    1.17    0.66
   5   8 -10   23.64    1.14
  -5  -8  10   23.12    1.27
  -5  -8  10   21.87    1.21
  -5  -8  10   22.43    1.37
   4   8 -10   42.78    1.57
   4   8 -10   36.42    1.53
  -4  -8  10   39.08    1.59
  -4  -8  10   37.77    1.70
  -4  -8  10   41.15    1.69
   3   8 -10    4.12    0.58
   3   8 -10    5.42    0.64
  -3  -8  10    3.78    0.61
  -3  -8  10    4.68    0.69
   2   8 -10   48.99    1.80
   2   8 -10   48.31    1.71
  -2  -8  10   45.91    1.87
  -2  -8  10   49.98    1.82
   1   8 -10   44.48    1.61
   1   8 -10   48.83    1.79
  -1  -8  10   47.46    1.84
   0   8 -10   -0.47    0.43
   0  -8  10    0.21    0.51
  -1   8 -10   36.49    1.59
   1  -8  10   37.68    1.65
  -2   8 -10   60.50    2.19
   2  -8  10   55.87    2.19
  -3   8 -10    9.31    0.96
   3  -8  10    9.64    0.96
  -4   8 -10   23.34    1.39
   4  -8  10   24.29    1.41
  -5   8 -10   37.67    1.81
   5  -8  10   41.86    1.90
  -6   8 -10    4.22    0.83
   6  -8  10    4.00    0.76
  -7   8 -10    2.61    0.81
   7  -8  10    3.03    0.79
 -11  -7  10    4.87    0.82
 -10  -7  10    5.30    0.80
 -10  -7  10    4.21    0.96
  -9  -7  10    3.11    0.68
  -9  -7  10    2.13    0.85
  -8  -7  10   16.38    1.33
  -8  -7  10   14.73    1.10
  -7  -7  10   15.50    1.26
  -7  -7  10   14.90    1.09
   6   7 -10    2.40    0.45
  -6  -7  10    2.65    0.67
  -6  -7  10    1.66    0.58
  -6  -7  10    2.60    0.55
   5   7 -10   33.80    1.40
   5   7 -10   32.74    1.31
  -5  -7  10   35.06    1.57
  -5  -7  10   31.64    1.40
  -5  -7  10   34.31    1.48
   4   7 -10   31.06    1.30
   4   7 -10   31.03    1.29
  -4  -7  10   30.27    1.33
  -4  -7  10   33.97    1.47
  -4  -7  10   32.83    1.42
   3   7 -10    1.92    0.44
   3   7 -10    3.17    0.50
  -3  -7  10    2.50    0.49
  -3  -7  10    2.44    0.59
   2   7 -10   45.60    1.63
  -2  -7  10   41.09    1.61
  -2  -7  10   43.77    1.69
   1   7 -10   41.63    1.59
  -1  -7  10   42.75    1.60
  -1  -7  10   39.19    1.64
   0   7 -10    4.72    0.65
   0  -7  10    3.54    0.60
  -1   7 -10   47.05    1.80
   1  -7  10   45.06    1.83
  -2   7 -10   83.84    2.77
   2  -7  10   82.44    2.81
  -3   7 -10   32.30    1.54
   3  -7  10   33.19    1.57
  -4   7 -10    9.32    0.95
   4  -7  10   11.37    1.02
  -5   7 -10   27.20    1.50
   5  -7  10   23.31    1.42
  -6   7 -10   10.53    1.08
   6  -7  10   12.59    1.13
  -7   7 -10    1.04    0.72
   7  -7  10    1.39    0.67
  -8   7 -10   24.03    1.65
   8  -7  10   23.60    1.58
 -11  -6  10    4.76    0.98
 -11  -6  10    5.35    0.80
 -10  -6  10   40.26    1.74
 -10  -6  10   40.42    2.02
  -9  -6  10    2.26    0.77
  -9  -6  10    3.18    0.63
  -8  -6  10    8.77    0.81
  -8  -6  10    8.60    0.94
  -7  -6  10   54.65    1.95
  -7  -6  10   53.44    2.12
  -7  -6  10   55.14    1.97
   6   6 -10    8.63    0.64
   6   6 -10    8.42    0.74
  -6  -6  10    8.57    0.86
  -6  -6  10    8.09    0.73
  -6  -6  10    8.33    0.77
   5   6 -10    8.11    0.66
   5   6 -10    8.70    0.71
  -5  -6  10    8.75    0.81
  -5  -6  10    8.96    0.77
  -5  -6  10    9.04    0.75
   4   6 -10  121.21    3.45
   4   6 -10  116.88    3.43
  -4  -6  10  120.29    3.50
  -4  -6  10  117.85    3.55
  -4  -6  10  116.49    3.52
   3   6 -10   12.39    0.79
   3   6 -10   12.37    0.75
  -3  -6  10   13.28    0.89
  -3  -6  10   11.44    0.87
  -3  -6  10   11.84    0.81
   2   6 -10    7.66    0.67
  -2  -6  10    7.28    0.66
  -2  -6  10    5.43    0.63
   1   6 -10  124.83    3.63
  -1  -6  10  118.71    3.66
  -1  -6  10  125.96    3.64
   0   6 -10   27.18    1.26
   0  -6  10   26.32    1.29
   0  -6  10   29.45    1.25
  -1   6 -10    6.25    0.73
   1  -6  10    4.76    0.70
  -2   6 -10   97.32    3.08
   2  -6  10   95.64    3.10
  -3   6 -10   45.41    1.83
   3  -6  10   45.29    1.86
  -4   6 -10    2.50    0.66
   4  -6  10    2.13    0.62
  -5   6 -10   27.40    1.50
   5  -6  10   25.76    1.45
  -6   6 -10   15.31    1.29
   6  -6  10   15.81    1.26
  -7   6 -10    0.36    0.68
   7  -6  10   -0.34    0.57
  -8   6 -10   25.26    1.65
   8  -6  10   23.47    1.59
 -12  -5  10    5.32    0.77
 -12  -5  10    6.59    1.09
 -11  -5  10    1.59    0.80
 -11  -5  10    1.21    0.58
 -11  -5  10    2.32    0.75
 -10  -5  10   33.87    1.87
 -10  -5  10   36.22    1.56
 -10  -5  10   37.31    1.86
  -9  -5  10   24.94    1.22
  -9  -5  10   23.77    1.48
  -8  -5  10    0.35    0.46
  -8  -5  10   -0.13    0.59
   7   5 -10   55.26    1.95
  -7  -5  10   53.59    2.03
  -7  -5  10   52.86    1.88
  -7  -5  10   55.29    1.89
   6   5 -10   29.27    1.25
   6   5 -10   28.55    1.08
  -6  -5  10   28.74    1.35
  -6  -5  10   28.60    1.23
  -6  -5  10   28.74    1.22
   5   5 -10    0.59    0.31
   5   5 -10    0.41    0.37
  -5  -5  10    0.00    0.34
  -5  -5  10    0.06    0.39
  -5  -5  10    0.59    0.49
   4   5 -10   39.15    1.39
   4   5 -10   39.25    1.39
  -4  -5  10   37.74    1.47
  -4  -5  10   42.19    1.47
  -4  -5  10   42.73    1.53
   3   5 -10   46.54    1.60
  -3  -5  10   48.38    1.65
  -3  -5  10   47.96    1.67
   2   5 -10    0.32    0.35
  -2  -5  10    0.05    0.40
  -2  -5  10    0.40    0.34
   1   5 -10   32.49    1.30
  -1  -5  10   31.96    1.27
  -1  -5  10   29.77    1.32
   0   5 -10   52.90    1.83
   0  -5  10   49.98    1.87
   0  -5  10   51.68    1.81
  -1   5 -10    0.24    0.42
   1  -5  10    0.74    0.41
   1  -5  10    1.29    0.51
  -2   5 -10   22.27    1.19
   2  -5  10   20.33    1.20
  -3   5 -10   11.90    1.01
   3  -5  10   11.51    0.99
  -4   5 -10    3.39    0.68
   4  -5  10    3.78    0.72
  -5   5 -10   13.91    1.19
   5  -5  10   14.92    1.17
  -6   5 -10   14.85    1.26
   6  -5  10   12.87    1.16
  -7   5 -10    0.75    0.69
   7  -5  10   -0.26    0.59
  -8   5 -10   11.53    1.21
   8  -5  10   13.07    1.29
 -12  -4  10   11.60    1.18
 -12  -4  10   14.50    1.05
 -12  -4  10   12.65    1.25
 -11  -4  10    2.41    0.74
 -11  -4  10    2.59    0.60
 -11  -4  10    1.96    0.80
 -10  -4  10   11.25    1.06
 -10  -4  10   10.08    1.04
 -10  -4  10   10.61    0.89
  -9  -4  10   28.40    1.50
  -9  -4  10   28.06    1.22
  -9  -4  10   26.10    1.61
  -8  -4  10   -0.13    0.59
  -8  -4  10    0.68    0.43
  -8  -4  10    0.53    0.55
  -8  -4  10    0.51    0.36
   7   4 -10   57.85    1.97
  -7  -4  10   56.87    2.05
  -7  -4  10   56.92    1.87
  -7  -4  10   57.92    1.91
   6   4 -10   28.57    1.19
  -6  -4  10   27.19    1.28
  -6  -4  10   28.81    1.13
  -6  -4  10   28.52    1.15
   5   4 -10    4.56    0.49
   5   4 -10    4.93    0.43
  -5  -4  10    3.66    0.53
  -5  -4  10    5.13    0.55
  -5  -4  10    4.74    0.52
   4   4 -10   30.86    1.14
  -4  -4  10   33.22    1.21
  -4  -4  10   31.20    1.22
   3   4 -10   41.20    1.43
  -3  -4  10   40.33    1.48
  -3  -4  10   43.62    1.46
   2   4 -10    0.44    0.35
  -2  -4  10    0.02    0.38
  -2  -4  10    1.30    0.38
   1   4 -10   46.07    1.61
  -1  -4  10   45.16    1.67
  -1  -4  10   46.31    1.60
   0   4 -10   49.00    1.70
   0  -4  10   44.73    1.69
   0  -4  10   45.11    1.64
  -1   4 -10    0.50    0.48
   1  -4  10    0.35    0.44
   1  -4  10    0.61    0.39
  -2   4 -10   25.55    1.27
   2  -4  10   24.63    1.26
  -3   4 -10   12.23    1.01
   3  -4  10   11.24    0.97
  -4   4 -10    1.94    0.62
   4  -4  10    1.23    0.54
  -5   4 -10   21.22    1.34
   5  -4  10   18.07    1.28
  -6   4 -10   32.51    1.67
   6  -4  10   30.30    1.65
  -7   4 -10    1.61    0.73
   7  -4  10    0.47    0.65
  -8   4 -10    9.06    1.12
   8  -4  10    7.76    1.02
 -13  -3  10    9.06    0.85
 -13  -3  10    6.89    0.98
 -12  -3  10   18.76    1.08
 -12  -3  10   15.64    1.38
 -12  -3  10   18.41    1.46
 -11  -3  10    0.78    0.70
 -11  -3  10    0.64    0.64
 -11  -3  10    0.12    0.45
 -10  -3  10   11.23    1.14
 -10  -3  10   13.24    1.10
 -10  -3  10   15.03    0.86
  -9  -3  10   36.22    1.35
  -9  -3  10   37.95    1.89
  -9  -3  10   37.51    1.32
  -9  -3  10   37.31    1.65
  -8  -3  10    1.04    0.38
  -8  -3  10    0.88    0.63
  -8  -3  10    1.21    0.52
  -8  -3  10    0.52    0.35
  -7  -3  10   34.97    1.80
  -7  -3  10   34.33    1.23
  -7  -3  10   33.99    1.26
  -7  -3  10   34.79    1.42
  -6  -3  10   71.16    2.14
  -6  -3  10   69.29    2.81
  -6  -3  10   74.42    2.28
  -6  -3  10   69.74    2.13
  -5  -3  10    0.20    0.31
  -5  -3  10   -0.21    0.38
  -5  -3  10    0.42    0.33
   4   3 -10   24.29    1.04
   4   3 -10   26.15    0.95
  -4  -3  10   27.18    1.07
  -4  -3  10   26.27    1.01
   3   3 -10   73.63    2.25
  -3  -3  10   78.32    2.31
  -3  -3  10   77.58    2.34
   2   3 -10    8.49    0.64
  -2  -3  10    7.72    0.62
  -2  -3  10    8.70    0.68
   1   3 -10   20.62    0.98
  -1  -3  10   20.55    1.03
  -1  -3  10   21.96    0.97
   0   3 -10   67.72    2.19
   0  -3  10   67.58    2.16
   0  -3  10   66.23    2.22
  -1   3 -10   17.40    1.01
   1  -3  10   18.30    1.04
   1  -3  10   16.72    0.96
  -2   3 -10    0.79    0.50
   2  -3  10    1.40    0.51
  -3   3 -10   72.29    2.47
   3  -3  10   69.59    2.47
  -4   3 -10   12.69    1.07
   4  -3  10   12.55    1.06
  -5   3 -10    6.60    0.85
   5  -3  10    5.66    0.82
  -6   3 -10   39.26    1.84
   6  -3  10   34.42    1.79
  -7   3 -10    6.80    0.98
   7  -3  10    8.18    1.03
  -8   3 -10    3.06    0.83
   8  -3  10    2.91    0.83
 -13  -2  10   10.77    1.16
 -13  -2  10   11.30    1.20
 -12  -2  10   11.04    1.14
 -12  -2  10   11.51    1.12
 -11  -2  10    7.82    0.93
 -11  -2  10    6.94    0.98
 -10  -2  10   16.99    1.35
 -10  -2  10   20.45    1.29
  -9  -2  10   15.94    1.30
  -9  -2  10   17.22    1.13
  -8  -2  10    0.15    0.59
  -8  -2  10   -0.34    0.46
  -7  -2  10   20.73    1.06
  -7  -2  10   17.96    1.35
  -6  -2  10   15.00    0.71
  -6  -2  10   14.48    0.87
  -6  -2  10   14.92    0.70
  -6  -2  10   14.14    1.24
  -5  -2  10   16.30    1.33
  -5  -2  10   17.57    0.74
  -5  -2  10   16.85    0.77
  -4  -2  10   26.95    1.00
  -4  -2  10   26.72    1.04
   3   2 -10   13.88    0.70
  -3  -2  10   13.27    0.76
  -3  -2  10   15.17    0.75
   2   2 -10   31.64    1.17
  -2  -2  10   29.89    1.21
  -2  -2  10   31.45    1.17
   1   2 -10   21.24    0.99
  -1  -2  10   22.32    0.98
  -1  -2  10   21.11    1.01
   0   2 -10   31.49    1.29
   0  -2  10   29.58    1.24
   0  -2  10   31.19    1.32
  -1   2 -10   54.58    1.92
   1  -2  10   53.47    1.94
   1  -2  10   54.27    1.87
  -2   2 -10   19.01    1.11
   2  -2  10   18.98    1.12
  -3   2 -10   38.66    1.68
   3  -2  10   40.38    1.71
  -4   2 -10   15.92    1.14
   4  -2  10   14.10    1.12
  -5   2 -10    7.35    0.86
   5  -2  10    4.56    0.78
  -6   2 -10    9.86    1.09
   6  -2  10    9.49    1.10
  -7   2 -10    9.41    1.10
   7  -2  10   12.44    1.19
 -13  -1  10    7.72    1.06
 -13  -1  10    7.05    0.99
 -12  -1  10   24.59    1.66
 -12  -1  10   26.01    1.58
 -11  -1  10    3.94    0.77
 -11  -1  10    2.35    0.77
 -10  -1  10    9.34    0.90
 -10  -1  10    8.36    1.00
  -9  -1  10   27.97    1.67
  -9  -1  10   31.17    1.40
  -8  -1  10   10.55    0.82
  -8  -1  10   10.12    1.02
  -7  -1  10    0.94    0.47
  -7  -1  10    0.76    0.58
  -6  -1  10   48.01    2.16
  -6  -1  10   47.62    1.63
  -5  -1  10   27.73    0.96
  -5  -1  10   29.09    1.61
  -5  -1  10   26.94    0.99
  -4  -1  10    8.60    0.55
  -4  -1  10    8.21    0.59
   3   1 -10   88.33    2.57
   3   1 -10   88.39    2.58
  -3  -1  10   90.65    2.64
  -3  -1  10   93.85    2.62
   2   1 -10   18.10    0.86
  -2  -1  10   19.84    0.87
  -2  -1  10   19.27    0.92
   1   1 -10    6.63    0.61
  -1  -1  10    6.11    0.61
  -1  -1  10    7.72    0.63
   0   1 -10  117.54    3.47
   0  -1  10  118.47    3.45
   0  -1  10  118.37    3.51
  -1   1 -10   28.56    1.26
   1  -1  10   25.76    1.17
   1  -1  10   25.60    1.24
  -2   1 -10    9.41    0.86
   2  -1  10   11.57    0.92
  -3   1 -10   49.47    1.96
   3  -1  10   52.65    2.02
  -4   1 -10   17.72    1.20
   4  -1  10   16.46    1.22
  -5   1 -10   -0.23    0.56
   5  -1  10    0.28    0.57
  -6   1 -10   22.17    1.48
   6  -1  10   20.24    1.45
  -7   1 -10    8.92    1.10
   7  -1  10   10.32    1.17
 -13   0  10   -1.41    0.64
 -13   0  10    0.07    0.66
 -12   0  10   37.14    2.01
 -12   0  10   36.35    1.80
 -11   0  10   10.40    1.11
 -11   0  10   10.98    1.00
 -10   0  10   -0.43    0.62
 -10   0  10   -0.72    0.49
  -9   0  10   26.95    1.29
  -9   0  10   24.59    1.61
  -8   0  10   28.58    1.68
  -8   0  10   30.70    1.32
  -7   0  10    9.72    0.80
  -7   0  10   10.51    1.04
  -6   0  10   53.87    2.36
  -6   0  10   55.73    1.79
  -5   0  10   41.70    1.99
  -5   0  10   41.59    1.31
  -4   0  10    0.16    0.26
  -4   0  10    0.13    0.58
  -4   0  10   -0.17    0.28
   3   0 -10   75.91    2.22
   3   0 -10   73.94    2.22
  -3   0  10   78.54    2.26
  -3   0  10   78.54    2.30
   2   0 -10   35.10    1.26
  -2   0  10   36.24    1.28
  -2   0  10   35.21    1.31
   1   0 -10    0.35    0.36
  -1   0  10    0.32    0.32
  -1   0  10    0.14    0.37
   0   0 -10   40.79    1.51
   0   0  10   37.66    1.50
   0   0  10   38.94    1.46
  -1   0 -10   25.43    1.19
   1   0  10   23.07    1.11
   1   0  10   22.01    1.18
  -2   0 -10    2.96    0.62
   2   0  10    2.38    0.58
  -3   0 -10   21.60    1.26
   3   0  10   21.38    1.27
  -4   0 -10   25.41    1.46
   4   0  10   29.48    1.51
  -5   0 -10    0.42    0.61
   5   0  10    0.57    0.60
  -6   0 -10   15.38    1.35
   6   0  10   17.47    1.39
  -7   0 -10   11.05    1.19
   7   0  10   10.84    1.18
 -14   1  10    5.64    1.00
 -13   1  10   -0.76    0.66
 -13   1  10    1.22    0.75
 -12   1  10   15.71    1.39
 -12   1  10   11.90    1.09
 -11   1  10   18.55    1.49
 -11   1  10   19.80    1.28
 -10   1  10    0.19    0.51
 -10   1  10   -0.52    0.57
  -9   1  10   17.65    1.09
  -9   1  10   17.06    1.35
  -8   1  10   22.87    1.14
  -8   1  10   22.46    1.51
  -7   1  10    2.31    0.48
  -7   1  10    2.21    0.74
  -6   1  10   63.73    2.65
  -6   1  10   62.76    1.99
  -5   1  10   39.86    1.27
  -5   1  10   40.48    1.98
  -4   1  10    0.01    0.62
  -4   1  10   -0.05    0.28
  -4   1  10    0.08    0.25
  -3   1  10   59.61    1.87
  -3   1  10   59.28    1.83
   2  -1 -10   46.48    1.53
  -2   1  10   45.07    1.57
  -2   1  10   44.66    1.54
   1  -1 -10    4.72    0.55
  -1   1  10    5.58    0.56
  -1   1  10    5.03    0.59
   0  -1 -10   26.41    1.20
   0   1  10   26.69    1.15
   0   1  10   24.67    1.20
  -1  -1 -10   24.95    1.23
   1   1  10   24.72    1.23
   1   1  10   24.44    1.16
  -2  -1 -10   10.93    0.94
   2   1  10    9.90    0.88
  -3  -1 -10   23.96    1.31
   3   1  10   19.91    1.29
  -4  -1 -10   15.56    1.20
   4   1  10   14.02    1.17
  -5  -1 -10    3.41    0.77
   5   1  10    2.40    0.74
  -6  -1 -10    6.62    0.95
   6   1  10    7.40    1.05
 -13   2  10   -0.27    0.67
 -12   2  10    9.01    0.99
 -11   2  10   34.29    1.61
 -11   2  10   31.85    1.92
 -10   2  10    0.62    0.52
 -10   2  10    0.27    0.59
  -9   2  10   16.35    1.38
  -9   2  10   16.14    1.04
  -8   2  10   76.86    2.44
  -8   2  10   73.83    3.03
  -7   2  10    8.30    0.73
  -7   2  10    7.85    1.00
  -6   2  10   38.38    1.92
  -6   2  10   33.98    1.30
  -5   2  10  147.33    3.99
  -5   2  10  147.23    5.09
  -5   2  10  148.09    4.09
  -4   2  10   22.04    0.87
  -4   2  10   22.50    1.55
  -4   2  10   21.15    0.89
   3  -2 -10   13.50    0.69
  -3   2  10   15.24    1.41
  -3   2  10   14.61    0.75
  -3   2  10   14.25    0.78
   2  -2 -10  105.69    3.16
  -2   2  10  113.26    3.18
  -2   2  10  109.55    3.21
  -1   2  10   14.75    0.91
  -1   2  10   14.78    0.83
   0   2  10    1.26    0.41
   0   2  10    1.74    0.49
  -1  -2 -10   78.52    2.60
   1   2  10   77.17    2.60
  -2  -2 -10   13.53    1.09
   2   2  10   12.24    1.03
  -3  -2 -10    0.71    0.57
   3   2  10    0.56    0.54
  -4  -2 -10   22.85    1.44
   4   2  10   27.54    1.51
   5   2  10    4.38    0.84
   6   2  10    0.72    0.69
 -13   3  10    2.58    0.79
 -12   3  10    4.76    0.81
 -11   3  10   23.47    1.35
 -10   3  10    9.90    1.12
 -10   3  10   12.78    1.00
  -9   3  10    5.46    0.67
  -9   3  10    4.93    0.87
  -8   3  10   31.46    1.81
  -8   3  10   28.88    1.29
  -7   3  10   12.66    0.83
  -7   3  10   13.08    1.30
  -6   3  10    6.52    0.92
  -5   3  10   60.26    1.78
  -5   3  10   60.70    2.63
  -5   3  10   59.52    1.80
  -4   3  10   66.02    2.01
  -4   3  10   66.14    2.80
  -4   3  10   64.62    1.97
   3  -3 -10    0.46    0.33
  -3   3  10    0.56    0.73
  -3   3  10    1.05    0.39
  -3   3  10    1.03    0.34
   2  -3 -10   12.30    0.78
  -2   3  10   13.73    0.84
  -2   3  10   14.60    0.81
   1  -3 -10   26.16    1.21
  -1   3  10   26.44    1.22
  -1   3  10   28.27    1.18
   0  -3 -10    1.76    0.52
   0   3  10    1.72    0.52
   0   3  10    1.85    0.45
  -1  -3 -10   14.57    1.05
   1   3  10   15.68    1.05
   2   3  10   17.56    1.18
   3   3  10    0.00    0.55
   4   3  10    6.15    0.90
  -5  -3 -10   13.32    1.24
   5   3  10   12.00    1.20
 -13   4  10    2.82    0.77
 -12   4  10   -0.61    0.55
 -11   4  10   22.88    1.34
 -10   4  10   14.80    1.07
  -9   4  10    5.03    0.65
  -9   4  10    4.79    0.92
  -8   4  10   21.47    1.60
  -8   4  10   22.68    1.11
  -7   4  10   25.92    1.70
  -6   4  10    4.24    0.87
  -5   4  10   29.61    1.06
  -5   4  10   31.89    1.86
  -5   4  10   28.89    1.11
  -4   4  10    7.86    0.73
  -4   4  10    7.56    0.59
  -4   4  10    6.52    0.59
  -4   4  10    7.04    1.03
   3  -4 -10    1.76    0.41
  -3   4  10    3.00    0.48
  -3   4  10    1.95    0.82
  -3   4  10    2.21    0.39
   2  -4 -10   24.79    1.15
  -2   4  10   26.64    1.14
  -2   4  10   26.49    1.18
   1  -4 -10    6.94    0.70
  -1   4  10    7.14    0.73
  -1   4  10    6.13    0.64
   0  -4 -10    1.56    0.54
   0   4  10    1.42    0.50
   0   4  10    1.13    0.45
  -1  -4 -10   22.64    1.28
   1   4  10   22.21    1.28
  -2  -4 -10    5.76    0.82
   2   4  10    7.53    0.87
  -3  -4 -10   -0.03    0.62
   3   4  10    0.93    0.62
  -4  -4 -10    9.29    1.11
   4   4  10    9.37    1.09
  -5  -4 -10    6.75    1.03
   5   4  10    7.14    1.04
 -13   5  10    5.83    0.86
 -12   5  10   -0.24    0.58
 -11   5  10   24.33    1.37
 -10   5  10   21.98    1.27
  -9   5  10    0.25    0.68
  -8   5  10   27.24    1.80
  -7   5  10   34.21    1.98
  -6   5  10    0.07    0.36
  -6   5  10    0.68    0.70
  -5   5  10   12.25    0.69
  -5   5  10   11.45    1.23
  -5   5  10   11.47    0.78
  -4   5  10   20.90    0.95
  -4   5  10   22.43    1.22
  -4   5  10   18.14    1.65
  -4   5  10   21.80    1.04
  -3   5  10    3.66    0.94
  -3   5  10    3.20    0.57
  -3   5  10    3.11    0.48
  -3   5  10    2.81    0.60
   2  -5 -10   17.56    1.03
  -2   5  10   17.21    0.96
  -2   5  10   18.45    1.06
   1  -5 -10   23.98    1.26
  -1   5  10   25.00    1.29
   0  -5 -10   -0.82    0.45
   0   5  10   -0.54    0.50
  -1  -5 -10    5.44    0.80
   1   5  10    5.49    0.81
  -2  -5 -10   20.69    1.34
   2   5  10   18.62    1.35
  -3  -5 -10   -0.04    0.63
   3   5  10   -0.38    0.60
   4   5  10    4.21    0.93
 -12   6  10    0.72    0.61
 -11   6  10    5.83    0.78
  -9   6  10    0.36    0.75
  -8   6  10   12.90    1.33
  -7   6  10   16.98    1.57
  -6   6  10    5.61    0.58
  -6   6  10    2.56    0.92
  -5   6  10    6.65    0.66
  -5   6  10    5.27    1.03
  -5   6  10    6.39    0.77
  -4   6  10   28.19    1.45
  -4   6  10   29.06    1.29
  -4   6  10   26.30    1.88
  -3   6  10    1.99    0.90
  -3   6  10    4.84    0.65
  -3   6  10    4.49    0.70
  -2   6  10    6.17    0.76
  -2   6  10    6.77    0.79
  -1   6  10   12.49    1.04
   0   6  10    6.58    0.89
   1   6  10    3.47    0.78
   2   6  10    7.53    0.95
   3   6  10    4.07    0.87
 -12   7  10   -0.45    0.59
 -11   7  10    5.59    0.78
  -9   7  10    3.30    0.94
  -8   7  10    7.64    1.16
  -7   7  10   25.93    1.13
  -7   7  10   23.32    1.80
  -6   7  10    3.30    0.92
  -6   7  10    3.83    0.58
  -5   7  10    6.33    0.72
  -5   7  10    4.48    1.02
  -4   7  10   30.92    1.44
  -4   7  10   33.63    2.09
  -3   7  10    3.41    0.63
  -3   7  10    2.76    0.96
  -2   7  10    0.36    0.55
  -1   7  10   19.33    1.31
   0   7  10    3.65    0.80
   1   7  10    1.84    0.77
   2   7  10    8.34    1.09
  -9   8  10    6.69    1.12
  -8   8  10    1.54    0.92
  -7   8  10   21.53    1.80
  -7   8  10   19.64    1.09
  -6   8  10   12.30    1.00
  -6   8  10   11.60    1.30
  -5   8  10    2.58    0.64
  -5   8  10    1.50    0.93
  -4   8  10   16.46    1.54
  -4   8  10   16.39    1.19
  -3   8  10    7.97    0.90
  -3   8  10    7.98    1.22
  -2   8  10   -0.45    0.56
  -1   8  10    5.04    0.83
   0   8  10    7.50    0.99
   1   8  10    0.98    0.74
  -9   9  10    4.70    1.10
  -8   9  10   -0.56    0.79
  -8   9  10    0.13    0.50
  -7   9  10   11.48    1.00
  -7   9  10   10.53    1.33
  -6   9  10    7.39    0.79
  -6   9  10    6.09    1.12
  -5   9  10    0.54    0.57
  -5   9  10   -0.37    0.86
  -4   9  10    6.82    1.20
  -4   9  10   10.86    1.04
  -3   9  10    3.03    0.78
  -2   9  10   -0.60    0.63
  -1   9  10    6.13    0.97
  -9  10  10    7.08    1.18
  -9  10  10    8.86    0.76
  -8  10  10    1.14    0.57
  -8  10  10   -0.47    0.81
  -7  10  10    8.50    0.85
  -7  10  10    6.19    1.21
  -6  10  10    7.52    1.21
  -6  10  10    9.08    0.89
  -5  10  10   -0.21    0.88
  -5  10  10   -0.65    0.61
  -4  10  10    0.60    0.98
  -4  10  10    0.89    0.68
  -3  10  10    8.86    1.04
  -4 -13  11    9.07    1.11
  -3 -13  11    1.28    0.76
  -2 -13  11    9.84    1.15
   1  13 -11   22.36    1.56
  -1 -13  11   24.82    1.71
   0  13 -11    4.74    0.88
   0 -13  11    4.25    0.94
  -1  13 -11    5.14    0.93
   1 -13  11    7.27    1.09
  -2  13 -11   23.82    1.63
   2 -13  11   25.41    1.75
  -3  13 -11    5.06    0.95
   3 -13  11    4.57    0.94
  -6 -12  11    2.36    0.83
  -5 -12  11    1.56    0.78
  -4 -12  11   13.24    1.26
  -3 -12  11    9.21    1.15
   2  12 -11    2.16    0.68
  -2 -12  11    1.13    0.74
   1  12 -11   10.51    1.05
  -1 -12  11   10.64    1.14
   0  12 -11   10.84    1.08
   0 -12  11    7.98    1.02
  -1  12 -11    0.36    0.64
   1 -12  11    0.39    0.71
  -2  12 -11   11.29    1.13
   2 -12  11   11.96    1.24
  -3  12 -11    3.37    0.83
   3 -12  11   -0.03    0.68
  -4  12 -11    0.32    0.73
   4 -12  11    0.09    0.72
  -7 -11  11   14.29    1.30
  -7 -11  11   17.17    1.51
  -6 -11  11    1.59    0.74
  -6 -11  11    2.48    0.82
  -5 -11  11    2.04    0.69
  -4 -11  11   22.13    1.48
   3  11 -11    1.57    0.61
  -3 -11  11    1.88    0.71
   2  11 -11    4.75    0.76
  -2 -11  11    3.86    0.82
   1  11 -11   23.14    1.38
  -1 -11  11   22.18    1.47
   0  11 -11    3.09    0.72
   0 -11  11    1.96    0.74
  -1  11 -11    0.61    0.62
   1 -11  11    1.50    0.71
  -2  11 -11   26.74    1.55
   2 -11  11   23.35    1.55
  -3  11 -11    3.60    0.81
   3 -11  11    2.15    0.75
  -4  11 -11    1.76    0.75
   4 -11  11    1.57    0.75
  -5  11 -11   32.95    1.83
   5 -11  11   31.95    1.83
  -8 -10  11    2.06    0.85
  -8 -10  11    2.10    0.76
  -7 -10  11    9.01    1.05
  -7 -10  11   12.75    1.23
  -6 -10  11   18.31    1.36
  -6 -10  11   21.35    1.49
  -5 -10  11    1.85    0.67
  -5 -10  11    0.45    0.61
  -4 -10  11   18.92    1.31
   3  10 -11   25.13    1.32
  -3 -10  11   23.90    1.46
   2  10 -11    0.72    0.52
  -2 -10  11    1.14    0.64
   1  10 -11   16.89    1.16
  -1 -10  11   18.18    1.30
   0  10 -11   32.22    1.58
   0 -10  11   32.72    1.66
  -1  10 -11    0.22    0.53
   1 -10  11    0.35    0.60
  -2  10 -11   14.23    1.19
   2 -10  11   17.66    1.33
  -3  10 -11   47.06    2.06
   3 -10  11   47.98    2.13
  -4  10 -11   -0.77    0.58
   4 -10  11    0.02    0.61
  -5  10 -11   15.53    1.37
   5 -10  11   17.82    1.40
  -6  10 -11   28.06    1.69
   6 -10  11   30.10    1.74
  -9  -9  11    8.93    1.12
  -9  -9  11    9.58    1.04
  -8  -9  11    0.14    0.71
  -8  -9  11    0.06    0.61
  -7  -9  11    4.51    0.87
  -7  -9  11    3.56    0.78
  -6  -9  11   21.29    1.43
  -6  -9  11   18.22    1.30
  -5  -9  11   -1.25    0.49
  -5  -9  11    0.09    0.58
   4   9 -11    7.98    0.77
  -4  -9  11    7.03    0.87
   3   9 -11   23.07    1.22
  -3  -9  11   22.86    1.35
   2   9 -11   -0.14    0.43
  -2  -9  11    0.41    0.55
   1   9 -11    5.13    0.70
  -1  -9  11    4.96    0.77
   0   9 -11   27.58    1.38
   0  -9  11   25.57    1.44
  -1   9 -11    0.08    0.52
   1  -9  11    1.07    0.60
  -2   9 -11    7.93    0.89
   2  -9  11    6.88    0.88
  -3   9 -11   33.28    1.66
   3  -9  11   29.94    1.64
  -4   9 -11    1.09    0.66
   4  -9  11    1.86    0.68
  -5   9 -11    7.62    0.98
   5  -9  11    9.26    1.03
  -6   9 -11   27.20    1.67
   6  -9  11   27.41    1.66
 -10  -8  11   16.35    1.28
 -10  -8  11   17.75    1.56
  -9  -8  11    6.91    0.89
  -9  -8  11    6.05    1.00
  -8  -8  11    1.68    0.74
  -8  -8  11    0.49    0.59
  -7  -8  11   23.32    1.37
  -7  -8  11   22.13    1.46
  -6  -8  11   15.08    1.21
  -6  -8  11   11.58    1.01
  -5  -8  11    1.60    0.59
  -5  -8  11    2.96    0.67
   4   8 -11   27.86    1.28
   4   8 -11   29.06    1.27
  -4  -8  11   27.46    1.41
  -4  -8  11   29.35    1.35
   3   8 -11   26.40    1.23
   3   8 -11   24.96    1.15
  -3  -8  11   25.26    1.35
  -3  -8  11   27.37    1.27
   2   8 -11   10.17    0.85
  -2  -8  11   12.13    0.99
   1   8 -11   20.59    1.13
  -1  -8  11   19.15    1.20
   0   8 -11   33.02    1.51
   0  -8  11   34.96    1.59
  -1   8 -11    6.42    0.76
   1  -8  11    6.31    0.79
  -2   8 -11   17.53    1.19
   2  -8  11   17.91    1.24
  -3   8 -11   47.12    1.98
   3  -8  11   47.36    2.02
  -4   8 -11    4.92    0.80
   4  -8  11    4.68    0.83
  -5   8 -11   16.54    1.33
   5  -8  11   15.55    1.28
  -6   8 -11   25.82    1.62
   6  -8  11   27.76    1.62
   7  -8  11    4.01    0.91
 -11  -7  11    1.68    0.63
 -11  -7  11    1.33    0.94
 -10  -7  11    5.99    0.82
 -10  -7  11    7.59    1.07
  -9  -7  11   12.35    1.10
  -9  -7  11   15.57    1.35
  -8  -7  11   11.46    0.98
  -8  -7  11    8.50    1.01
  -7  -7  11    8.52    0.84
  -7  -7  11    6.36    0.86
  -6  -7  11   23.58    1.26
  -6  -7  11   25.30    1.38
   5   7 -11   20.31    1.08
   5   7 -11   21.12    1.04
  -5  -7  11   24.46    1.30
  -5  -7  11   21.74    1.12
  -5  -7  11   21.70    1.19
   4   7 -11    9.52    0.76
   4   7 -11    8.67    0.75
  -4  -7  11    9.93    0.83
  -4  -7  11    9.84    0.81
  -4  -7  11    9.08    0.83
   3   7 -11   41.67    1.56
  -3  -7  11   40.35    1.64
  -3  -7  11   39.70    1.58
   2   7 -11   56.53    1.96
  -2  -7  11   55.23    2.03
  -2  -7  11   56.41    1.97
   1   7 -11   11.21    0.88
  -1  -7  11   11.92    0.94
   0   7 -11   35.16    1.52
   0  -7  11   36.34    1.59
  -1   7 -11   20.95    1.21
   1  -7  11   21.33    1.25
  -2   7 -11    7.61    0.87
   2  -7  11    6.74    0.81
  -3   7 -11   37.88    1.73
   3  -7  11   40.36    1.80
  -4   7 -11   26.16    1.48
   4  -7  11   23.55    1.42
  -5   7 -11    4.77    0.82
   5  -7  11    3.92    0.80
  -6   7 -11   17.80    1.40
   6  -7  11   15.71    1.33
  -7   7 -11   24.83    1.65
   7  -7  11   25.11    1.60
 -11  -6  11   -0.31    0.54
 -11  -6  11    0.15    0.76
 -10  -6  11   -0.70    0.48
 -10  -6  11   -0.38    0.67
  -9  -6  11   19.17    1.17
  -9  -6  11   20.60    1.43
  -8  -6  11    5.45    0.71
  -8  -6  11    5.88    0.87
  -7  -6  11    3.79    0.70
  -7  -6  11    2.78    0.57
   6   6 -11   34.59    1.41
  -6  -6  11   35.18    1.55
  -6  -6  11   32.79    1.43
  -6  -6  11   34.64    1.42
   5   6 -11    8.65    0.66
   5   6 -11    8.19    0.68
  -5  -6  11    9.95    0.77
  -5  -6  11    9.55    0.81
  -5  -6  11    9.67    0.83
   4   6 -11    0.23    0.35
   4   6 -11    0.13    0.33
  -4  -6  11    0.65    0.40
  -4  -6  11    0.21    0.43
   3   6 -11   66.57    2.09
  -3  -6  11   60.61    2.14
  -3  -6  11   63.23    2.10
   2   6 -11   21.15    1.03
  -2  -6  11   19.75    1.01
  -2  -6  11   20.07    1.09
   1   6 -11    1.65    0.48
  -1  -6  11    1.41    0.50
  -1  -6  11    1.71    0.46
   0   6 -11   63.87    2.13
   0  -6  11   56.78    2.14
  -1   6 -11   17.60    1.08
   1  -6  11   15.60    1.08
  -2   6 -11    0.65    0.50
   2  -6  11    0.53    0.52
  -3   6 -11   39.77    1.74
   3  -6  11   38.00    1.74
  -4   6 -11   25.03    1.46
   4  -6  11   26.86    1.49
  -5   6 -11    2.18    0.71
   5  -6  11    3.87    0.77
  -6   6 -11   20.27    1.48
   6  -6  11   19.64    1.40
  -7   6 -11   22.21    1.56
   7  -6  11   19.36    1.49
 -12  -5  11   12.03    1.31
 -12  -5  11   14.29    1.08
 -11  -5  11    5.31    0.96
 -11  -5  11    5.72    0.74
 -10  -5  11   -0.45    0.66
 -10  -5  11    0.44    0.51
  -9  -5  11   40.19    1.57
  -9  -5  11   39.73    1.85
  -8  -5  11   22.59    1.33
  -8  -5  11   22.76    1.13
   7   5 -11    1.40    0.44
  -7  -5  11    1.95    0.49
  -7  -5  11    1.54    0.51
  -7  -5  11    2.03    0.59
   6   5 -11   57.80    1.94
  -6  -5  11   57.14    1.94
  -6  -5  11   56.38    1.92
  -6  -5  11   59.67    2.05
   5   5 -11   41.20    1.46
   5   5 -11   40.85    1.41
  -5  -5  11   43.53    1.60
  -5  -5  11   42.11    1.55
  -5  -5  11   40.91    1.51
   4   5 -11    0.85    0.35
  -4  -5  11    1.51    0.45
  -4  -5  11    0.68    0.38
   3   5 -11   80.60    2.44
  -3  -5  11   78.74    2.51
  -3  -5  11   78.73    2.46
   2   5 -11   32.25    1.31
  -2  -5  11   32.93    1.38
  -2  -5  11   33.68    1.31
   1   5 -11    2.00    0.50
  -1  -5  11    1.54    0.50
  -1  -5  11    0.38    0.37
   0   5 -11   53.29    1.87
   0  -5  11   46.80    1.87
   0  -5  11   53.69    1.85
  -1   5 -11   84.27    2.67
   1  -5  11   76.55    2.67
  -2   5 -11    0.29    0.50
   2  -5  11    0.62    0.50
  -3   5 -11   16.06    1.13
   3  -5  11   16.07    1.17
  -4   5 -11   44.32    1.93
   4  -5  11   44.85    1.95
  -5   5 -11   12.66    1.14
   5  -5  11   12.10    1.11
  -6   5 -11    3.66    0.82
   6  -5  11    3.87    0.77
  -7   5 -11   23.62    1.61
   7  -5  11   22.76    1.57
 -12  -4  11    7.05    0.75
 -12  -4  11    5.13    0.98
 -12  -4  11    5.62    0.96
 -11  -4  11   33.01    1.94
 -11  -4  11   34.02    1.82
 -11  -4  11   36.60    1.46
 -10  -4  11   -0.30    0.41
 -10  -4  11   -0.15    0.66
 -10  -4  11   -0.35    0.61
  -9  -4  11   18.25    0.96
  -9  -4  11   18.81    1.27
  -9  -4  11   16.43    1.43
  -8  -4  11   59.34    2.16
  -8  -4  11   58.73    1.92
  -7  -4  11   10.26    0.74
  -7  -4  11    9.20    0.74
  -7  -4  11   10.52    0.87
  -6  -4  11   18.57    1.00
  -6  -4  11   15.52    0.88
  -6  -4  11   17.11    0.87
  -5  -4  11   67.57    2.09
  -5  -4  11   66.35    2.11
   4   4 -11    6.04    0.52
  -4  -4  11    7.07    0.63
  -4  -4  11    5.74    0.54
   3   4 -11    8.69    0.63
  -3  -4  11    8.92    0.75
  -3  -4  11    9.14    0.69
   2   4 -11   48.64    1.69
  -2  -4  11   50.08    1.70
  -2  -4  11   49.05    1.77
   1   4 -11    9.49    0.76
  -1  -4  11    8.99    0.79
  -1  -4  11    9.22    0.72
   0   4 -11   17.59    1.01
   0  -4  11   17.51    1.05
   0  -4  11   16.18    0.93
  -1   4 -11   40.13    1.60
   1  -4  11   38.87    1.62
  -2   4 -11    6.99    0.79
   2  -4  11    7.56    0.81
  -3   4 -11    6.14    0.82
   3  -4  11    6.04    0.79
  -4   4 -11   32.52    1.60
   4  -4  11   28.95    1.57
  -5   4 -11   12.37    1.09
   5  -4  11   12.92    1.19
  -6   4 -11    4.79    0.88
   6  -4  11    4.25    0.80
  -7   4 -11   11.62    1.21
   7  -4  11   13.14    1.23
 -13  -3  11    0.11    0.69
 -12  -3  11    5.91    0.97
 -12  -3  11    6.59    0.98
 -11  -3  11   22.57    1.45
 -11  -3  11   20.21    1.54
 -10  -3  11    1.38    0.63
 -10  -3  11    1.92    0.75
  -9  -3  11   17.17    1.12
  -9  -3  11   14.32    1.36
  -8  -3  11   30.82    1.18
  -8  -3  11   32.88    1.17
  -8  -3  11   30.42    1.40
  -8  -3  11   30.13    1.78
  -7  -3  11   31.48    1.81
  -7  -3  11   32.14    1.21
  -7  -3  11   31.35    1.36
  -7  -3  11   33.63    1.20
  -6  -3  11   15.68    0.91
  -6  -3  11   15.93    0.80
  -6  -3  11   14.92    0.77
  -5  -3  11   31.92    1.20
  -5  -3  11   31.56    1.17
   4   3 -11    4.66    0.44
  -4  -3  11    5.75    0.57
  -4  -3  11    5.12    0.50
   3   3 -11    6.81    0.60
  -3  -3  11    7.88    0.63
  -3  -3  11    8.28    0.72
   2   3 -11   64.59    2.04
  -2  -3  11   61.72    2.09
  -2  -3  11   65.28    2.06
   1   3 -11   13.74    0.85
  -1  -3  11   13.94    0.91
  -1  -3  11   12.93    0.81
   0   3 -11   13.58    0.91
   0  -3  11   12.80    0.83
   0  -3  11   12.52    0.91
  -1   3 -11   16.61    1.05
   1  -3  11   16.93    1.07
  -2   3 -11   16.72    1.09
   2  -3  11   14.16    1.07
  -3   3 -11    5.37    0.75
   3  -3  11    5.37    0.75
  -4   3 -11   36.78    1.72
   4  -3  11   35.35    1.72
  -5   3 -11   11.40    1.11
   5  -3  11   10.02    1.04
  -6   3 -11    1.64    0.70
   6  -3  11    1.65    0.71
  -7   3 -11   17.69    1.45
   7  -3  11   17.91    1.46
 -13  -2  11    6.80    0.98
 -13  -2  11    7.98    1.06
 -12  -2  11    5.99    0.98
 -12  -2  11    6.96    0.95
 -11  -2  11   16.90    1.27
 -11  -2  11   16.45    1.43
 -10  -2  11   11.03    1.13
 -10  -2  11   10.20    0.94
  -9  -2  11    9.38    0.85
  -9  -2  11    9.92    1.07
  -8  -2  11   56.08    2.00
  -8  -2  11   56.04    2.48
  -7  -2  11   39.13    1.48
  -7  -2  11   36.48    1.94
  -6  -2  11   11.22    0.66
  -6  -2  11   13.18    1.27
  -6  -2  11   12.20    0.79
  -6  -2  11   11.70    0.64
  -5  -2  11   48.89    1.58
  -5  -2  11   48.15    1.54
  -4  -2  11   21.60    0.91
  -4  -2  11   21.59    0.96
   3   2 -11   11.75    0.69
  -3  -2  11   12.66    0.80
  -3  -2  11   14.51    0.75
   2   2 -11   49.78    1.69
  -2  -2  11   52.08    1.77
  -2  -2  11   52.32    1.73
   1   2 -11   45.49    1.66
  -1  -2  11   49.62    1.68
  -1  -2  11   47.16    1.71
   0   2 -11   -0.25    0.38
   0  -2  11   -0.04    0.35
   0  -2  11    0.16    0.42
  -1   2 -11   21.44    1.14
   1  -2  11   18.61    1.12
  -2   2 -11   41.40    1.73
   2  -2  11   43.33    1.77
  -3   2 -11    1.66    0.59
   3  -2  11    1.88    0.62
  -4   2 -11   20.36    1.32
   4  -2  11   20.72    1.35
  -5   2 -11   20.79    1.40
   5  -2  11   22.77    1.46
  -6   2 -11    0.59    0.69
   6  -2  11    0.52    0.62
 -13  -1  11   12.73    1.20
 -13  -1  11   10.96    1.23
 -12  -1  11    1.22    0.73
 -12  -1  11    0.60    0.64
 -11  -1  11   13.81    1.29
 -11  -1  11   14.97    1.21
 -10  -1  11   16.88    1.20
 -10  -1  11   17.65    1.43
  -9  -1  11    2.78    0.61
  -9  -1  11    3.28    0.82
  -8  -1  11   30.96    1.75
  -8  -1  11   29.52    1.33
  -7  -1  11   14.32    0.91
  -7  -1  11   15.93    1.32
  -6  -1  11   -0.33    0.36
  -6  -1  11    0.31    0.61
  -5  -1  11   22.00    0.91
  -5  -1  11   22.11    0.88
  -5  -1  11   25.32    1.60
  -4  -1  11   42.43    1.41
  -4  -1  11   43.97    1.47
   3   1 -11    2.41    0.37
  -3  -1  11    1.66    0.38
  -3  -1  11    1.20    0.40
   2   1 -11   21.45    0.96
  -2  -1  11   20.82    1.04
  -2  -1  11   22.65    0.98
   1   1 -11   35.24    1.36
  -1  -1  11   35.36    1.36
  -1  -1  11   36.15    1.43
   0   1 -11   10.69    0.83
   0  -1  11   10.42    0.77
   0  -1  11   10.84    0.85
  -1   1 -11   23.11    1.19
   1  -1  11   21.21    1.19
  -2   1 -11   47.06    1.87
   2  -1  11   47.81    1.89
  -3   1 -11    2.25    0.61
   3  -1  11    2.72    0.63
  -4   1 -11   22.13    1.37
   4  -1  11   20.17    1.36
  -5   1 -11   18.87    1.38
   5  -1  11   19.72    1.41
  -6   1 -11    1.41    0.69
   6  -1  11    0.95    0.70
 -13   0  11    7.34    1.13
 -13   0  11    5.38    0.95
 -12   0  11   -0.04    0.59
 -12   0  11    0.05    0.73
 -11   0  11   22.41    1.35
 -11   0  11   24.22    1.68
 -10   0  11   12.64    1.29
 -10   0  11   11.76    1.01
  -9   0  11    0.13    0.48
  -9   0  11    0.68    0.66
  -8   0  11   18.15    1.43
  -8   0  11   19.14    1.05
  -7   0  11   11.04    0.81
  -7   0  11    9.80    1.09
  -6   0  11    8.49    1.03
  -5   0  11   29.17    1.02
  -5   0  11   28.17    1.05
  -5   0  11   31.57    1.78
  -4   0  11   31.48    1.12
  -4   0  11   30.73    1.15
   3   0 -11    5.01    0.47
  -3   0  11    4.42    0.49
  -3   0  11    5.71    0.55
   2   0 -11   26.23    1.09
  -2   0  11   28.17    1.11
  -2   0  11   26.10    1.15
   1   0 -11   35.05    1.38
  -1   0  11   35.35    1.43
  -1   0  11   36.54    1.37
   0   0 -11    5.61    0.65
   0   0  11    4.88    0.64
   0   0  11    4.27    0.57
  -1   0 -11   38.02    1.59
   1   0  11   38.24    1.62
  -2   0 -11   46.66    1.87
   2   0  11   45.34    1.89
  -3   0 -11    3.78    0.71
   3   0  11    4.43    0.75
  -4   0 -11   10.38    1.06
   4   0  11    8.66    1.02
  -5   0 -11   15.01    1.31
   5   0  11   15.72    1.32
  -6   0 -11    1.40    0.78
   6   0  11    2.18    0.75
 -13   1  11   13.04    1.36
 -13   1  11   12.12    1.15
 -12   1  11    2.67    0.70
 -12   1  11    1.79    0.80
 -11   1  11   11.13    0.98
 -11   1  11   11.02    1.20
 -10   1  11   26.05    1.75
 -10   1  11   29.08    1.39
  -9   1  11    8.98    0.80
  -9   1  11    8.64    1.03
  -8   1  11    3.43    0.78
  -8   1  11    2.87    0.57
  -7   1  11   38.05    1.43
  -7   1  11   38.30    2.00
  -6   1  11   13.08    0.76
  -6   1  11   11.82    1.15
  -5   1  11    8.01    0.56
  -5   1  11    9.12    1.12
  -5   1  11    7.45    0.51
  -4   1  11   28.60    1.06
  -4   1  11   29.08    1.10
  -3   1  11    6.35    0.59
  -3   1  11    7.12    0.58
  -2   1  11   11.18    0.72
  -2   1  11    9.00    0.78
   1  -1 -11   49.69    1.78
  -1   1  11   51.75    1.78
  -1   1  11   52.38    1.84
   0  -1 -11    3.81    0.60
   0   1  11    5.02    0.65
   0   1  11    3.29    0.52
  -1  -1 -11   26.82    1.31
   1   1  11   25.11    1.31
  -2  -1 -11   21.55    1.25
   2   1  11   20.74    1.27
  -3  -1 -11    8.35    0.93
   3   1  11    7.97    0.91
  -4  -1 -11    2.16    0.71
   4   1  11    2.46    0.72
  -5  -1 -11    9.82    1.09
   5   1  11   10.17    1.10
 -13   2  11   11.42    1.28
 -13   2  11    8.25    0.99
 -12   2  11    1.46    0.65
 -12   2  11    1.10    0.74
 -11   2  11    5.21    0.78
 -11   2  11    4.73    0.93
 -10   2  11   21.66    1.64
 -10   2  11   23.68    1.28
  -9   2  11   10.86    1.25
  -9   2  11   11.17    0.92
  -8   2  11    6.48    1.04
  -8   2  11    7.38    0.71
  -7   2  11   26.24    1.14
  -7   2  11   26.32    1.69
  -6   2  11    9.19    1.07
  -6   2  11    8.17    0.66
  -5   2  11    6.30    0.50
  -5   2  11    6.45    0.50
  -5   2  11    7.96    1.04
  -4   2  11   42.54    2.20
  -4   2  11   41.57    1.44
  -4   2  11   41.85    1.41
   3  -2 -11    5.08    0.50
  -3   2  11    5.11    0.55
  -3   2  11    5.10    0.52
   2  -2 -11   15.87    0.87
  -2   2  11   14.49    0.83
  -2   2  11   15.08    0.90
  -1   2  11   45.85    1.70
  -1   2  11   44.44    1.64
   0   2  11    8.35    0.82
   0   2  11    9.15    0.80
   1   2  11   -0.11    0.46
   2   2  11   16.19    1.16
   3   2  11   12.08    1.10
   4   2  11   -0.29    0.55
   5   2  11   17.72    1.46
 -13   3  11    9.91    1.22
 -13   3  11    9.34    1.02
 -12   3  11    5.26    0.80
 -12   3  11    4.66    0.93
 -11   3  11    5.24    1.01
 -11   3  11    4.65    0.72
 -10   3  11   38.80    1.64
 -10   3  11   36.93    2.11
  -9   3  11   16.05    1.04
  -9   3  11   17.27    1.48
  -8   3  11    8.72    0.73
  -8   3  11    7.93    1.07
  -7   3  11   52.95    2.53
  -7   3  11   54.38    1.84
  -6   3  11   11.99    0.73
  -6   3  11   11.08    1.20
  -5   3  11    2.84    0.37
  -5   3  11    4.42    0.92
  -5   3  11    3.51    0.44
  -4   3  11   52.03    1.68
  -4   3  11   52.06    1.72
  -4   3  11   53.15    2.54
   3  -3 -11   44.58    1.56
  -3   3  11   46.89    1.63
  -3   3  11   46.35    1.58
   2  -3 -11    1.40    0.44
  -2   3  11    2.07    0.44
  -2   3  11    1.93    0.49
   1  -3 -11   40.14    1.56
  -1   3  11   37.78    1.52
  -1   3  11   39.17    1.58
   0  -3 -11   34.78    1.53
   0   3  11   34.19    1.52
  -1  -3 -11    4.55    0.73
   1   3  11    4.81    0.73
  -2  -3 -11    9.20    0.97
   2   3  11    9.31    0.97
  -3  -3 -11   14.08    1.20
   3   3  11   14.28    1.26
  -4  -3 -11    0.31    0.70
   4   3  11   -0.03    0.62
 -13   4  11    5.66    0.88
 -13   4  11    6.22    1.08
 -12   4  11   22.04    1.71
 -12   4  11   18.69    1.31
 -11   4  11    0.65    0.71
 -11   4  11   -0.21    0.51
 -10   4  11   14.89    1.47
 -10   4  11   13.89    1.06
  -9   4  11   26.13    1.28
  -9   4  11   27.72    1.84
  -8   4  11    0.83    0.72
  -8   4  11   -0.05    0.43
  -7   4  11   19.11    1.60
  -6   4  11   36.51    2.08
  -5   4  11    0.19    0.35
  -5   4  11    0.30    0.32
  -5   4  11    0.38    0.75
  -4   4  11    6.75    1.08
  -4   4  11    7.84    0.67
  -4   4  11    6.76    0.57
  -3   4  11   75.46    2.42
  -2   4  11    2.21    0.52
  -1   4  11    7.32    0.78
   0   4  11   35.79    1.61
   1   4  11    3.23    0.69
   2   4  11    3.08    0.71
   3   4  11    5.89    0.93
   4   4  11    1.01    0.74
 -13   5  11   10.16    1.08
 -12   5  11    9.19    0.94
 -12   5  11    7.77    1.17
 -11   5  11    2.18    0.83
 -11   5  11    1.48    0.60
 -10   5  11   11.62    1.00
 -10   5  11   14.00    1.40
  -9   5  11   12.16    1.40
  -9   5  11   12.70    0.94
  -8   5  11    2.87    0.93
  -7   5  11   10.23    1.25
  -6   5  11   19.02    1.68
  -6   5  11   20.98    0.96
  -5   5  11    3.37    0.63
  -5   5  11    4.46    0.54
  -5   5  11    1.41    0.87
  -4   5  11   24.38    1.87
  -4   5  11   25.09    1.18
  -4   5  11   24.52    1.29
  -3   5  11   14.78    0.99
  -2   5  11    4.49    0.66
  -1   5  11    5.46    0.74
   0   5  11   11.28    1.01
   1   5  11    2.62    0.68
   2   5  11    3.53    0.75
   3   5  11    8.75    1.11
 -12   6  11   13.40    1.18
 -11   6  11    3.54    0.68
 -11   6  11    4.03    0.95
 -10   6  11    2.59    0.93
 -10   6  11    2.97    0.61
  -9   6  11   23.93    1.91
  -8   6  11    6.83    1.13
  -7   6  11    2.05    0.95
  -6   6  11   22.44    1.09
  -6   6  11   19.62    1.78
  -5   6  11    5.98    0.66
  -5   6  11    5.48    0.73
  -5   6  11    5.99    1.10
  -4   6  11    3.67    1.01
  -4   6  11    6.84    0.72
  -3   6  11   14.33    1.05
  -2   6  11   10.24    0.93
  -1   6  11    0.29    0.56
   0   6  11   14.11    1.21
   1   6  11    3.80    0.79
   2   6  11    0.63    0.67
 -12   7  11    5.95    0.84
 -11   7  11    2.55    0.64
 -11   7  11    2.59    0.95
 -10   7  11    0.87    0.85
  -9   7  11   11.46    1.38
  -8   7  11   11.33    1.35
  -7   7  11    1.38    0.90
  -7   7  11    1.78    0.50
  -6   7  11    6.57    0.71
  -6   7  11    6.83    1.23
  -5   7  11    8.95    0.83
  -5   7  11    6.60    1.22
  -4   7  11    0.55    0.52
  -4   7  11    0.01    0.87
  -3   7  11    8.59    0.90
  -2   7  11   12.78    1.11
  -1   7  11   -0.62    0.56
   0   7  11    4.64    0.87
   1   7  11    6.06    1.01
 -11   8  11    3.54    1.03
 -10   8  11    0.62    0.90
  -9   8  11    9.92    1.34
  -8   8  11    7.27    1.22
  -7   8  11   -1.15    0.85
  -7   8  11    1.14    0.54
  -6   8  11   14.86    1.07
  -6   8  11   13.08    1.49
  -5   8  11   10.08    0.92
  -5   8  11    8.33    1.32
  -4   8  11   -0.87    0.91
  -4   8  11    0.86    0.65
  -3   8  11    8.69    0.94
  -2   8  11    7.08    0.93
  -1   8  11    1.18    0.70
  -9   9  11    2.77    1.06
  -8   9  11   10.94    0.96
  -8   9  11   10.15    1.39
  -7   9  11    0.16    0.57
  -7   9  11    0.38    0.93
  -6   9  11    1.81    1.08
  -6   9  11    2.87    0.67
  -5   9  11   13.93    1.59
  -5   9  11   16.52    1.24
  -4   9  11    0.03    0.65
  -4   9  11   -1.60    0.92
  -3   9  11    2.56    0.78
  -2 -13  12    0.79    0.76
  -1 -13  12    5.88    1.04
   0 -13  12   12.89    1.32
  -5 -12  12    2.18    0.82
  -4 -12  12    0.81    0.73
  -3 -12  12   23.66    1.62
  -2 -12  12    5.55    0.93
  -1 -12  12    0.09    0.67
   0  12 -12   28.34    1.64
   0 -12  12   29.16    1.75
  -1  12 -12   24.46    1.55
   1 -12  12   25.26    1.67
  -2  12 -12   -0.79    0.64
   2 -12  12    0.09    0.69
  -3  12 -12   19.42    1.52
   3 -12  12   22.09    1.61
  -6 -11  12    6.63    0.96
  -5 -11  12   11.20    1.11
  -4 -11  12    0.09    0.65
  -3 -11  12   12.48    1.19
  -2 -11  12   15.12    1.31
   1  11 -12    1.13    0.61
  -1 -11  12    0.41    0.62
   0  11 -12    8.69    0.96
   0 -11  12   10.57    1.10
  -1  11 -12   17.71    1.35
   1 -11  12   21.61    1.48
  -2  11 -12    3.03    0.80
   2 -11  12    3.14    0.80
  -3  11 -12   12.13    1.18
   3 -11  12    9.64    1.15
  -4  11 -12    9.61    1.10
   4 -11  12    9.25    1.07
  -8 -10  12    8.32    1.09
  -8 -10  12    6.28    0.93
  -7 -10  12   -0.16    0.64
  -7 -10  12    0.24    0.71
  -6 -10  12   10.72    1.09
  -6 -10  12   10.02    1.05
  -5 -10  12   22.25    1.45
  -4 -10  12    1.05    0.65
  -3 -10  12   16.04    1.27
   2  10 -12   20.01    1.23
  -2 -10  12   19.28    1.32
   1  10 -12    1.09    0.58
  -1 -10  12    0.58    0.61
   0  10 -12   11.16    1.02
   0 -10  12   10.43    1.07
  -1  10 -12   16.11    1.24
   1 -10  12   17.69    1.34
  -2  10 -12    0.56    0.62
   2 -10  12    1.93    0.72
  -3  10 -12    8.97    1.02
   3 -10  12   11.80    1.17
  -4  10 -12   19.32    1.45
   4 -10  12   21.11    1.51
  -5  10 -12   -0.09    0.66
   5 -10  12   -0.05    0.67
  -9  -9  12    4.85    0.97
  -9  -9  12    4.45    0.84
  -8  -9  12   26.92    1.55
  -8  -9  12   28.92    1.74
  -7  -9  12    1.40    0.65
  -7  -9  12    2.01    0.79
  -6  -9  12    7.75    0.92
  -6  -9  12    6.30    0.87
  -5  -9  12   37.16    1.74
  -5  -9  12   36.46    1.69
  -4  -9  12    1.46    0.64
  -3  -9  12    3.07    0.71
   2   9 -12   43.03    1.75
  -2  -9  12   43.32    1.86
   1   9 -12    6.67    0.77
  -1  -9  12    6.80    0.85
   0   9 -12    1.47    0.55
   0  -9  12    3.09    0.69
  -1   9 -12   43.93    1.90
   1  -9  12   46.85    1.99
  -2   9 -12    9.81    0.99
   2  -9  12    8.75    0.99
  -3   9 -12    0.47    0.66
   3  -9  12    1.85    0.68
  -4   9 -12   32.63    1.72
   4  -9  12   33.68    1.78
  -5   9 -12    5.45    0.89
   5  -9  12    4.66    0.85
  -9  -8  12    4.23    0.90
  -9  -8  12    3.53    0.75
  -8  -8  12    8.54    0.99
  -8  -8  12    9.86    0.98
  -7  -8  12    6.59    0.89
  -7  -8  12    5.06    0.76
  -6  -8  12    4.07    0.89
  -6  -8  12    5.22    0.76
  -5  -8  12   12.93    1.10
  -5  -8  12   13.03    1.06
  -4  -8  12    8.95    0.89
   3   8 -12    1.50    0.48
  -3  -8  12    1.17    0.55
   2   8 -12   12.97    0.95
  -2  -8  12   13.29    1.06
   1   8 -12   11.30    0.94
  -1  -8  12   10.43    0.96
   0   8 -12    3.40    0.64
   0  -8  12    3.59    0.71
  -1   8 -12   20.00    1.25
   1  -8  12   20.01    1.30
  -2   8 -12   18.36    1.24
   2  -8  12   18.36    1.28
  -3   8 -12    1.73    0.66
   3  -8  12    0.82    0.64
  -4   8 -12   10.88    1.08
   4  -8  12   11.81    1.11
  -5   8 -12    6.04    0.98
   5  -8  12    5.61    0.89
 -10  -7  12    5.49    0.93
 -10  -7  12    7.09    0.85
  -9  -7  12    6.68    0.96
  -9  -7  12    6.33    0.80
  -8  -7  12   22.51    1.26
  -8  -7  12   19.50    1.40
  -7  -7  12    5.52    0.81
  -7  -7  12    6.12    0.74
  -6  -7  12    6.70    0.81
  -6  -7  12    9.14    0.85
  -5  -7  12   30.88    1.43
  -5  -7  12   29.34    1.41
  -4  -7  12   19.81    1.15
   3   7 -12    2.15    0.50
  -3  -7  12    1.44    0.53
  -3  -7  12    2.47    0.56
   2   7 -12   39.59    1.57
  -2  -7  12   39.60    1.60
  -2  -7  12   38.20    1.63
   1   7 -12   25.56    1.28
  -1  -7  12   28.62    1.39
   0   7 -12    4.64    0.66
   0  -7  12    4.32    0.73
  -1   7 -12   40.23    1.71
   1  -7  12   40.40    1.76
  -2   7 -12   28.04    1.46
   2  -7  12   29.27    1.52
  -3   7 -12    0.49    0.60
   3  -7  12    0.37    0.56
  -4   7 -12   21.72    1.41
   4  -7  12   19.32    1.36
  -5   7 -12   17.31    1.40
   5  -7  12   19.47    1.40
  -6   7 -12    2.21    0.80
   6  -7  12    2.26    0.73
 -11  -6  12   14.41    1.09
 -11  -6  12   13.29    1.26
 -10  -6  12    6.50    0.98
 -10  -6  12    6.77    0.81
  -9  -6  12    1.49    0.72
  -9  -6  12    2.23    0.56
  -8  -6  12   32.03    1.41
  -8  -6  12   31.22    1.58
  -7  -6  12   13.23    0.97
  -7  -6  12   12.67    1.10
  -6  -6  12    1.56    0.52
  -6  -6  12    3.05    0.61
  -5  -6  12   24.89    1.22
  -5  -6  12   25.65    1.26
   4   6 -12   40.32    1.49
  -4  -6  12   42.51    1.57
  -4  -6  12   39.98    1.61
   3   6 -12    6.37    0.64
  -3  -6  12    6.18    0.66
  -3  -6  12    6.92    0.72
   2   6 -12   36.58    1.46
  -2  -6  12   36.60    1.46
  -2  -6  12   34.96    1.52
   1   6 -12   60.53    2.08
  -1  -6  12   58.95    2.08
  -1  -6  12   57.21    2.13
   0   6 -12    3.33    0.59
   0  -6  12    4.16    0.67
  -1   6 -12   37.81    1.64
   1  -6  12   38.71    1.70
  -2   6 -12   20.26    1.25
   2  -6  12   20.03    1.28
  -3   6 -12    4.53    0.77
   3  -6  12    5.15    0.77
  -4   6 -12   15.61    1.25
   4  -6  12   15.21    1.23
  -5   6 -12   25.45    1.59
   5  -6  12   24.22    1.54
  -6   6 -12    0.29    0.69
   6  -6  12    0.13    0.65
 -11  -5  12    7.25    0.75
 -11  -5  12    5.70    0.98
 -10  -5  12    3.43    0.59
 -10  -5  12    4.15    0.85
  -9  -5  12    0.67    0.44
  -9  -5  12    0.56    0.64
  -8  -5  12   18.23    0.99
  -8  -5  12   17.44    1.18
  -7  -5  12   15.30    1.10
  -7  -5  12   16.80    0.96
  -6  -5  12    3.62    0.54
  -6  -5  12    2.27    0.55
  -5  -5  12   31.23    1.30
  -5  -5  12   30.14    1.25
   4   5 -12   27.72    1.13
  -4  -5  12   28.38    1.25
  -4  -5  12   28.45    1.20
   3   5 -12    5.10    0.56
  -3  -5  12    4.80    0.62
  -3  -5  12    3.30    0.51
   2   5 -12   41.27    1.55
  -2  -5  12   43.11    1.66
  -2  -5  12   40.32    1.56
   1   5 -12   39.79    1.54
  -1  -5  12   37.61    1.58
  -1  -5  12   37.55    1.51
   0   5 -12   15.54    1.01
   0  -5  12   13.69    1.01
  -1   5 -12   26.38    1.33
   1  -5  12   27.80    1.41
  -2   5 -12   15.92    1.15
   2  -5  12   19.05    1.21
  -3   5 -12    5.84    0.85
   3  -5  12    5.50    0.83
  -4   5 -12   13.94    1.20
   4  -5  12   12.96    1.21
  -5   5 -12   19.82    1.43
   5  -5  12   20.51    1.44
  -6   5 -12   10.79    1.15
   6  -5  12    8.42    1.09
 -12  -4  12    0.87    0.48
 -12  -4  12   -0.91    0.72
 -12  -4  12   -1.39    0.68
 -11  -4  12    1.82    0.84
 -11  -4  12    3.36    0.85
 -11  -4  12    4.63    0.59
 -10  -4  12   33.38    2.02
 -10  -4  12   38.12    1.39
 -10  -4  12   33.89    1.73
  -9  -4  12    0.26    0.57
  -9  -4  12   -0.07    0.39
  -8  -4  12    5.05    0.57
  -8  -4  12    5.80    0.73
  -7  -4  12   84.98    2.56
  -7  -4  12   83.56    2.69
  -6  -4  12    7.28    0.65
  -6  -4  12    6.38    0.58
  -5  -4  12   14.75    0.87
  -5  -4  12   14.89    0.81
   4   4 -12  110.37    3.21
  -4  -4  12  114.26    3.33
  -4  -4  12  112.00    3.28
   3   4 -12   12.90    0.76
  -3  -4  12   11.44    0.86
  -3  -4  12   11.19    0.77
   2   4 -12   16.00    0.91
  -2  -4  12   16.82    1.00
  -2  -4  12   16.98    0.92
   1   4 -12   92.70    2.79
  -1  -4  12   87.66    2.85
  -1  -4  12   86.34    2.76
   0   4 -12   10.90    0.89
   0  -4  12   11.39    0.93
   0  -4  12   12.70    0.95
  -1   4 -12   -0.09    0.47
   1  -4  12   -0.01    0.49
  -2   4 -12   59.51    2.21
   2  -4  12   58.23    2.24
  -3   4 -12   12.79    1.09
   3  -4  12   12.27    1.09
  -4   4 -12    0.33    0.57
   4  -4  12    0.92    0.57
  -5   4 -12   31.63    1.72
   5  -4  12   31.23    1.73
  -6   4 -12   21.64    1.53
   6  -4  12   22.21    1.56
 -12  -3  12    6.48    0.96
 -12  -3  12    6.96    1.08
 -11  -3  12    0.02    0.72
 -11  -3  12    1.43    0.70
 -10  -3  12   31.02    1.92
 -10  -3  12   33.19    1.59
  -9  -3  12   15.14    1.45
  -9  -3  12   16.08    1.13
  -8  -3  12    0.22    0.47
  -8  -3  12    0.61    0.71
  -7  -3  12   52.49    1.69
  -7  -3  12   53.17    1.85
  -7  -3  12   51.60    1.70
  -6  -3  12   35.18    1.29
  -6  -3  12   34.43    1.26
  -5  -3  12    1.13    0.35
  -5  -3  12    2.07    0.43
   4   3 -12   37.78    1.30
  -4  -3  12   37.63    1.42
  -4  -3  12   37.58    1.37
   3   3 -12   30.82    1.19
  -3  -3  12   31.48    1.23
  -3  -3  12   30.48    1.28
   2   3 -12    1.20    0.41
  -2  -3  12    0.73    0.44
  -2  -3  12    0.47    0.37
   1   3 -12   21.18    1.06
  -1  -3  12   20.35    1.09
  -1  -3  12   19.91    1.02
   0   3 -12   24.93    1.21
   0  -3  12   23.98    1.24
   0  -3  12   23.68    1.16
  -1   3 -12    1.01    0.52
   1  -3  12    0.83    0.49
  -2   3 -12   21.42    1.25
   2  -3  12   19.44    1.27
  -3   3 -12   23.50    1.39
   3  -3  12   23.54    1.41
  -4   3 -12   -0.32    0.53
   4  -3  12   -0.57    0.55
  -5   3 -12   11.29    1.14
   5  -3  12   11.33    1.17
  -6   3 -12   16.62    1.42
   6  -3  12   17.39    1.44
 -12  -2  12   12.14    1.12
 -12  -2  12   11.04    1.22
 -11  -2  12    5.39    0.81
 -11  -2  12    4.56    0.92
 -10  -2  12   13.23    1.09
 -10  -2  12   12.58    1.26
  -9  -2  12   21.76    1.21
  -9  -2  12   20.14    1.57
  -8  -2  12   -0.02    0.45
  -8  -2  12    0.11    0.70
  -7  -2  12   24.39    1.14
  -7  -2  12   26.28    1.69
  -6  -2  12   32.57    1.19
  -6  -2  12   35.22    1.23
  -5  -2  12    0.40    0.35
  -5  -2  12    1.14    0.33
  -4  -2  12   24.72    1.06
  -4  -2  12   23.94    1.01
   3   2 -12   11.81    0.72
  -3  -2  12   11.87    0.74
  -3  -2  12   13.28    0.82
   2   2 -12    3.16    0.49
  -2  -2  12    4.11    0.57
  -2  -2  12    3.02    0.48
   1   2 -12   17.37    0.95
  -1  -2  12   16.12    0.91
  -1  -2  12   13.24    0.96
   0   2 -12   18.94    1.08
   0  -2  12   16.85    1.08
   0  -2  12   18.35    1.02
  -1   2 -12   -0.29    0.44
   1  -2  12    0.25    0.49
  -2   2 -12   21.14    1.26
   2  -2  12   21.18    1.29
  -3   2 -12   20.29    1.30
   3  -2  12   21.23    1.34
  -4   2 -12    1.30    0.64
   4  -2  12   -0.03    0.56
  -5   2 -12   12.21    1.14
   5  -2  12   10.70    1.14
 -13  -1  12   12.58    1.19
 -13  -1  12   11.82    1.33
 -12  -1  12   13.79    1.18
 -12  -1  12   15.12    1.50
 -11  -1  12   -0.04    0.66
 -11  -1  12    0.18    0.57
 -10  -1  12   19.92    1.58
 -10  -1  12   19.28    1.23
  -9  -1  12   33.29    1.92
  -9  -1  12   32.17    1.47
  -8  -1  12   -0.39    0.47
  -8  -1  12   -0.01    0.65
  -7  -1  12   26.52    1.16
  -7  -1  12   27.31    1.73
  -6  -1  12   51.39    2.44
  -5  -1  12    4.05    0.42
  -5  -1  12    3.81    0.46
  -4  -1  12   25.88    1.02
  -4  -1  12   25.75    1.08
   3   1 -12   40.73    1.41
  -3  -1  12   41.36    1.45
  -3  -1  12   41.10    1.51
   2   1 -12    2.12    0.43
  -2  -1  12    2.42    0.49
  -2  -1  12    2.04    0.42
   1   1 -12   11.44    0.83
  -1  -1  12   10.46    0.84
  -1  -1  12   11.05    0.78
   0   1 -12   24.94    1.23
   0  -1  12   24.67    1.19
   0  -1  12   25.50    1.26
  -1   1 -12    8.29    0.84
   1  -1  12    6.80    0.77
  -2   1 -12    8.61    0.88
   2  -1  12    7.86    0.91
  -3   1 -12   29.93    1.55
   3  -1  12   28.14    1.56
  -4   1 -12    2.79    0.72
   4  -1  12    3.84    0.81
  -5   1 -12    8.33    1.05
   5  -1  12    6.49    0.95
 -13   0  12    6.61    1.12
 -13   0  12    7.40    1.02
 -12   0  12   10.88    1.28
 -12   0  12    9.59    1.00
 -11   0  12    4.79    0.75
 -11   0  12    4.63    0.97
 -10   0  12   11.46    1.01
 -10   0  12   12.81    1.28
  -9   0  12   27.23    1.76
  -9   0  12   27.55    1.32
  -8   0  12   -0.29    0.44
  -8   0  12   -0.69    0.60
  -7   0  12   23.61    1.06
  -7   0  12   21.62    1.61
  -6   0  12   23.97    1.67
  -5   0  12   12.21    0.69
  -5   0  12   11.40    0.64
  -4   0  12    9.57    0.69
  -4   0  12    9.30    0.64
   3   0 -12   24.72    1.02
  -3   0  12   25.78    1.12
  -3   0  12   25.87    1.06
   2   0 -12   14.25    0.83
  -2   0  12   13.49    0.89
  -2   0  12   13.60    0.82
   1   0 -12    6.58    0.69
  -1   0  12    6.59    0.71
  -1   0  12    5.99    0.64
   0   0 -12   24.55    1.23
   0   0  12   23.15    1.25
   0   0  12   23.51    1.25
  -1   0 -12   20.30    1.21
   1   0  12   22.48    1.27
  -2   0 -12    5.41    0.77
   2   0  12    6.01    0.81
  -3   0 -12   10.35    1.02
   3   0  12   12.35    1.09
  -4   0 -12    6.36    0.91
   4   0  12    4.62    0.83
  -5   0 -12    1.13    0.71
   5   0  12    0.92    0.69
 -13   1  12    4.67    0.86
 -13   1  12    4.82    1.02
 -12   1  12   19.58    1.69
 -12   1  12   18.21    1.30
 -11   1  12    3.03    0.69
 -11   1  12    4.82    0.97
 -10   1  12    5.19    0.97
 -10   1  12    5.61    0.73
  -9   1  12   25.71    1.73
  -9   1  12   23.73    1.24
  -8   1  12    0.56    0.67
  -8   1  12    0.20    0.46
  -7   1  12    5.71    0.97
  -7   1  12    7.22    0.62
  -6   1  12   41.27    2.20
  -5   1  12   14.53    0.76
  -5   1  12   15.19    0.72
  -5   1  12   14.15    1.36
  -4   1  12    1.09    0.33
  -4   1  12    1.25    0.40
  -3   1  12   31.69    1.30
  -3   1  12   32.31    1.23
  -2   1  12   14.06    0.92
  -2   1  12   13.99    0.83
   1  -1 -12    0.35    0.41
  -1   1  12    0.90    0.46
   0  -1 -12   61.42    2.16
   0   1  12   60.35    2.19
  -1  -1 -12    7.16    0.80
   1   1  12    8.34    0.86
  -2  -1 -12    1.21    0.56
   2   1  12    0.95    0.56
  -3  -1 -12   19.47    1.33
   3   1  12   18.85    1.36
   4   1  12    8.61    1.03
 -13   2  12    0.16    0.76
 -13   2  12    0.06    0.66
 -12   2  12   25.76    1.84
 -12   2  12   22.47    1.42
 -11   2  12   10.26    1.24
 -11   2  12   12.03    0.99
 -10   2  12   -0.03    0.52
 -10   2  12    0.13    0.72
  -9   2  12   11.09    1.28
  -9   2  12   10.63    0.86
  -8   2  12   13.20    0.92
  -8   2  12   14.15    1.41
  -7   2  12    0.54    0.70
  -7   2  12   -0.05    0.38
  -6   2  12   24.49    1.76
  -5   2  12   36.25    1.28
  -5   2  12   34.44    2.07
  -5   2  12   36.89    1.25
  -4   2  12    0.17    0.37
  -4   2  12    0.55    0.33
  -3   2  12   18.55    0.98
  -2   2  12   18.20    1.03
  -1   2  12    3.07    0.59
   0   2  12   26.54    1.37
   1   2  12   12.05    1.06
   2   2  12    0.65    0.56
   3   2  12   10.37    1.08
   4   2  12   14.80    1.34
 -13   3  12    0.11    0.62
 -13   3  12    0.76    0.78
 -12   3  12    5.78    1.04
 -12   3  12    7.97    0.92
 -11   3  12   13.99    1.10
 -11   3  12   14.24    1.51
 -10   3  12   -0.18    0.65
 -10   3  12    0.18    0.50
  -9   3  12    8.47    0.79
  -9   3  12    8.73    1.12
  -8   3  12   31.20    1.96
  -8   3  12   28.56    1.28
  -7   3  12   -0.05    0.38
  -7   3  12    0.22    0.74
  -6   3  12   19.19    1.68
  -5   3  12   13.54    0.78
  -5   3  12   15.82    1.47
  -4   3  12    6.29    0.62
  -3   3  12   26.84    1.22
  -2   3  12   13.47    0.97
  -1   3  12    0.98    0.52
   0   3  12   20.12    1.25
   1   3  12   12.05    1.08
   2   3  12    0.86    0.62
   3   3  12    8.90    1.07
 -12   4  12    5.43    0.80
 -12   4  12    5.91    1.09
 -11   4  12   13.50    1.49
 -11   4  12   13.21    1.09
 -10   4  12   -0.25    0.49
 -10   4  12    1.12    0.78
  -9   4  12   16.23    1.60
  -9   4  12   15.18    1.05
  -8   4  12   47.32    2.47
  -8   4  12   46.98    1.74
  -7   4  12    1.00    0.41
  -7   4  12    0.80    0.79
  -6   4  12   11.90    1.34
  -5   4  12   31.13    1.22
  -5   4  12   25.93    2.00
  -4   4  12    2.21    0.50
  -3   4  12    9.21    0.80
  -2   4  12   28.35    1.37
  -1   4  12    1.55    0.55
   0   4  12    1.54    0.60
   1   4  12   22.66    1.41
   2   4  12    5.70    0.88
 -12   5  12    4.22    0.75
 -12   5  12    3.90    1.03
 -11   5  12   18.18    1.74
 -11   5  12   16.71    1.20
 -10   5  12    4.04    0.66
 -10   5  12    4.13    1.07
  -9   5  12   11.85    0.98
  -9   5  12    8.98    1.23
  -8   5  12   17.04    1.67
  -7   5  12    7.83    1.23
  -6   5  12    1.02    0.91
  -6   5  12    2.77    0.48
  -5   5  12   28.96    2.11
  -5   5  12   31.43    1.30
  -4   5  12    4.89    0.63
  -3   5  12    2.05    0.57
  -2   5  12   10.50    0.95
  -1   5  12   14.94    1.16
   0   5  12   -0.52    0.54
   1   5  12    7.59    0.95
 -11   6  12   11.29    1.44
 -11   6  12   13.39    1.12
 -10   6  12    7.61    0.81
 -10   6  12    6.63    1.17
  -9   6  12    0.50    0.94
  -8   6  12    7.18    1.18
  -7   6  12    6.70    1.20
  -6   6  12    0.97    0.49
  -6   6  12    1.37    0.95
  -5   6  12   19.09    1.08
  -5   6  12   17.13    1.65
  -4   6  12    5.59    0.70
  -3   6  12    0.36    0.54
  -2   6  12   10.90    1.01
  -1   6  12   11.00    1.06
   0   6  12    0.28    0.62
 -11   7  12    8.82    1.36
 -11   7  12   13.03    1.13
 -10   7  12    4.66    1.14
  -9   7  12    1.18    1.00
  -8   7  12    8.99    1.33
  -7   7  12   10.18    0.78
  -7   7  12    7.48    1.26
  -6   7  12    0.00    0.94
  -6   7  12    0.24    0.52
  -5   7  12    7.88    0.84
  -5   7  12    6.61    1.34
  -4   7  12    9.97    0.91
  -3   7  12    0.80    0.63
  -2   7  12    4.33    0.77
  -1   7  12    7.40    0.98
  -9   8  12    0.06    0.91
  -8   8  12    4.42    1.10
  -7   8  12    8.48    0.77
  -7   8  12    7.63    1.34
  -6   8  12    0.21    0.58
  -6   8  12   -2.52    0.87
  -5   8  12    3.09    1.16
  -5   8  12    5.15    0.80
  -4   8  12    6.42    0.86
  -3   8  12    2.42    0.70
  -3 -12  13    0.01    0.67
  -2 -12  13   13.69    1.29
  -1 -12  13    9.41    1.08
   0 -12  13    1.55    0.75
  -5 -11  13   16.27    1.37
  -4 -11  13   11.29    1.20
  -3 -11  13    0.04    0.64
  -2 -11  13   17.75    1.39
  -1 -11  13   16.92    1.40
   0 -11  13    2.02    0.77
   1 -11  13    4.46    0.87
  -2  11 -13   30.95    1.76
   2 -11  13   34.81    1.87
  -7 -10  13    8.57    1.04
  -7 -10  13    6.95    0.94
  -6 -10  13    0.34    0.69
  -5 -10  13    2.97    0.75
  -4 -10  13   21.81    1.41
  -3 -10  13    4.94    0.83
  -2 -10  13    4.00    0.79
  -1 -10  13   19.78    1.37
   0 -10  13    7.18    0.94
  -1  10 -13    2.01    0.70
   1 -10  13    2.29    0.75
  -2  10 -13   28.05    1.59
   2 -10  13   26.84    1.64
  -3  10 -13    7.52    0.97
   3 -10  13    7.87    1.00
  -8  -9  13    3.76    0.78
  -8  -9  13    3.08    0.82
  -7  -9  13   16.11    1.27
  -7  -9  13   18.19    1.39
  -6  -9  13    1.82    0.68
  -6  -9  13    2.81    0.68
  -5  -9  13    6.89    0.88
  -4  -9  13   26.27    1.46
  -3  -9  13    7.15    0.86
  -2  -9  13    3.84    0.76
  -1  -9  13   26.84    1.48
   0   9 -13    6.85    0.84
   0  -9  13    5.38    0.86
  -1   9 -13    5.12    0.78
   1  -9  13    4.37    0.79
  -2   9 -13   28.39    1.59
   2  -9  13   30.84    1.65
  -3   9 -13    8.66    1.02
   3  -9  13    8.96    1.05
  -4   9 -13    0.10    0.67
   4  -9  13    0.37    0.61
  -9  -8  13    9.78    0.96
  -9  -8  13    9.59    1.07
  -8  -8  13    2.17    0.67
  -8  -8  13    2.16    0.75
  -7  -8  13   24.14    1.43
  -7  -8  13   18.88    1.27
  -6  -8  13   24.74    1.39
  -6  -8  13   21.41    1.30
  -5  -8  13    2.08    0.62
  -4  -8  13   21.94    1.29
  -3  -8  13   30.35    1.49
  -2  -8  13   -0.06    0.50
   1   8 -13   19.73    1.22
  -1  -8  13   17.83    1.24
   0   8 -13   30.60    1.49
   0  -8  13   31.09    1.59
  -1   8 -13   -0.01    0.50
   1  -8  13    0.11    0.56
  -2   8 -13   13.88    1.19
   2  -8  13   15.56    1.24
  -3   8 -13   28.24    1.58
   3  -8  13   27.21    1.61
  -4   8 -13    0.45    0.68
   4  -8  13    0.03    0.63
 -10  -7  13    8.98    1.06
 -10  -7  13    7.78    0.85
  -9  -7  13   14.33    1.12
  -9  -7  13   16.46    1.37
  -8  -7  13    1.58    0.66
  -8  -7  13    0.67    0.54
  -7  -7  13   10.79    0.99
  -7  -7  13   12.09    1.02
  -6  -7  13   17.02    1.15
  -6  -7  13   15.52    1.08
  -5  -7  13    0.61    0.50
  -4  -7  13   10.82    0.95
  -3  -7  13   17.67    1.13
  -2  -7  13    0.55    0.53
   1   7 -13   13.19    0.98
  -1  -7  13   12.78    1.07
   0   7 -13   27.01    1.35
   0  -7  13   25.35    1.41
  -1   7 -13    0.09    0.51
   1  -7  13    0.03    0.54
  -2   7 -13    5.08    0.80
   2  -7  13    7.63    0.90
  -3   7 -13   19.92    1.39
   3  -7  13   20.99    1.40
  -4   7 -13    3.05    0.80
   4  -7  13    3.16    0.76
 -10  -6  13   17.35    1.44
 -10  -6  13   16.20    1.08
  -9  -6  13   12.67    0.99
  -9  -6  13   15.88    1.27
  -8  -6  13    0.00    0.48
  -8  -6  13    1.61    0.63
  -7  -6  13   21.89    1.28
  -7  -6  13   22.37    1.19
  -6  -6  13   12.60    1.00
  -6  -6  13   12.39    0.93
  -5  -6  13    3.66    0.60
  -4  -6  13   20.45    1.13
  -3  -6  13   24.80    1.26
  -2  -6  13    8.15    0.85
   1   6 -13   22.34    1.20
  -1  -6  13   23.52    1.28
   0   6 -13   45.81    1.83
   0  -6  13   45.94    1.89
  -1   6 -13    2.66    0.65
   1  -6  13    3.10    0.70
  -2   6 -13    9.33    0.95
   2  -6  13    9.89    1.00
  -3   6 -13   33.04    1.67
   3  -6  13   32.03    1.68
  -4   6 -13    7.66    0.97
   4  -6  13    6.15    0.94
  -5   6 -13    5.00    0.93
   5  -6  13    5.82    0.92
 -11  -5  13    1.78    0.52
 -11  -5  13   -0.19    0.72
 -10  -5  13    7.52    0.96
 -10  -5  13    8.81    0.75
  -9  -5  13   10.93    0.86
  -9  -5  13   11.96    1.04
  -8  -5  13   14.39    0.93
  -8  -5  13   14.54    1.11
  -7  -5  13    7.73    0.77
  -7  -5  13    6.83    0.67
  -6  -5  13   30.13    1.29
  -5  -5  13   13.70    0.91
  -4  -5  13    6.46    0.71
  -3  -5  13   40.09    1.63
   2   5 -13   23.33    1.19
  -2  -5  13   22.22    1.20
   1   5 -13    9.48    0.83
  -1  -5  13    8.40    0.83
   0   5 -13   25.91    1.29
   0  -5  13   24.28    1.34
  -1   5 -13   23.63    1.30
   1  -5  13   22.68    1.32
  -2   5 -13    6.63    0.84
   2  -5  13    5.39    0.81
  -3   5 -13   20.21    1.36
   3  -5  13   21.00    1.40
  -4   5 -13   17.18    1.33
   4  -5  13   16.11    1.33
  -5   5 -13    1.08    0.72
   5  -5  13    1.25    0.69
 -11  -4  13    0.39    0.68
 -10  -4  13    1.93    0.69
  -9  -4  13   13.36    1.06
  -9  -4  13   13.82    0.83
  -8  -4  13    7.75    0.79
  -8  -4  13    8.62    0.68
  -7  -4  13    0.52    0.40
  -7  -4  13    0.35    0.46
  -6  -4  13   34.59    1.36
  -5  -4  13    5.67    0.62
  -4  -4  13    1.50    0.50
  -3  -4  13   56.39    1.99
  -2  -4  13   12.64    0.95
   1   4 -13    1.64    0.51
  -1  -4  13    1.16    0.49
   0   4 -13   25.78    1.28
   0  -4  13   23.52    1.30
  -1   4 -13   18.39    1.19
   1  -4  13   19.56    1.25
  -2   4 -13   -0.14    0.51
   2  -4  13    0.37    0.55
  -3   4 -13   24.80    1.45
   3  -4  13   23.82    1.46
  -4   4 -13    8.78    1.03
   4  -4  13    9.17    1.05
  -5   4 -13   -0.23    0.62
   5  -4  13    2.29    0.72
 -12  -3  13    4.98    1.06
 -12  -3  13    9.92    1.09
 -11  -3  13    2.98    0.94
 -11  -3  13    5.08    0.86
 -10  -3  13    0.40    0.60
 -10  -3  13   -0.18    0.75
  -9  -3  13   34.03    1.55
  -8  -3  13   14.36    1.02
  -7  -3  13    0.10    0.34
  -6  -3  13   52.45    1.76
  -5  -3  13   31.14    1.26
  -4  -3  13    2.90    0.51
  -3  -3  13   72.97    2.38
  -2  -3  13   35.94    1.49
   1   3 -13    1.65    0.48
  -1  -3  13    1.50    0.53
   0   3 -13   33.34    1.47
   0  -3  13   32.02    1.51
  -1   3 -13   34.36    1.56
   1  -3  13   32.10    1.58
  -2   3 -13    1.40    0.62
   2  -3  13    0.36    0.52
  -3   3 -13   14.85    1.23
   3  -3  13   15.69    1.27
  -4   3 -13   16.55    1.31
   4  -3  13   14.67    1.30
 -12  -2  13    2.77    0.75
 -12  -2  13    2.92    0.96
 -11  -2  13   17.44    1.64
 -11  -2  13   21.43    1.35
 -10  -2  13    0.06    0.74
 -10  -2  13   -0.74    0.50
  -9  -2  13   11.07    0.92
  -9  -2  13   11.26    1.26
  -8  -2  13   41.00    2.23
  -8  -2  13   40.92    1.60
  -6  -2  13   17.55    0.86
  -5  -2  13   61.77    1.98
  -4  -2  13   -0.34    0.35
  -3  -2  13   13.36    0.88
  -2  -2  13   42.44    1.66
  -1  -2  13   10.65    0.90
   0   2 -13    4.60    0.70
   0  -2  13    6.43    0.76
  -1   2 -13   26.38    1.39
   1  -2  13   29.37    1.47
  -2   2 -13    7.40    0.87
   2  -2  13    8.45    0.91
  -3   2 -13    2.02    0.71
   3  -2  13    2.26    0.72
   4  -2  13   18.88    1.45
 -12  -1  13   10.85    1.32
 -12  -1  13    9.00    1.01
 -11  -1  13   23.01    1.75
 -11  -1  13   21.17    1.38
 -10  -1  13    1.56    0.82
 -10  -1  13    0.66    0.58
  -9  -1  13   10.88    0.96
  -9  -1  13   10.99    1.25
  -8  -1  13   19.18    1.07
  -8  -1  13   21.86    1.66
  -7  -1  13    4.79    1.00
  -6  -1  13   14.81    0.77
  -5  -1  13   26.88    1.10
  -4  -1  13    4.34    0.55
  -3  -1  13    5.98    0.64
  -2  -1  13   24.81    1.20
  -1  -1  13    7.51    0.77
   0  -1  13    4.25    0.68
   1  -1  13   20.46    1.28
   2  -1  13    6.32    0.85
   3  -1  13    1.18    0.66
   4  -1  13   15.68    1.37
 -12   0  13    9.16    1.00
 -12   0  13   10.57    1.31
 -11   0  13   20.96    1.34
 -11   0  13   22.31    1.77
 -10   0  13   15.26    1.13
 -10   0  13   17.38    1.55
  -9   0  13   11.95    1.33
  -9   0  13   11.26    0.87
  -8   0  13   29.91    1.27
  -8   0  13   26.55    1.85
  -7   0  13   16.07    1.56
  -5   0  13   29.97    1.17
  -4   0  13   32.93    1.30
  -3   0  13    0.71    0.43
  -2   0  13   31.73    1.38
  -1   0  13   24.50    1.28
   0   0  13    3.15    0.63
   1   0  13   16.14    1.18
   2   0  13   14.69    1.20
   3   0  13    1.47    0.65
 -12   1  13    0.30    0.59
 -12   1  13    0.72    0.87
 -11   1  13    9.77    1.23
 -11   1  13   11.32    0.98
 -10   1  13   16.27    1.53
 -10   1  13   13.77    1.07
  -9   1  13    0.97    0.78
  -9   1  13    0.30    0.50
  -8   1  13   19.12    1.62
  -8   1  13   19.52    1.04
  -7   1  13   15.33    1.51
  -6   1  13    1.33    0.84
  -5   1  13   16.02    0.83
  -4   1  13   32.80    1.30
  -3   1  13   -0.21    0.40
  -2   1  13   16.78    1.03
  -1   1  13   21.04    1.19
   0   1  13    1.15    0.56
   1   1  13    6.18    0.83
   2   1  13   14.14    1.22
   3   1  13    0.47    0.63
 -12   2  13   -1.21    0.54
 -12   2  13    0.07    0.75
 -11   2  13   16.71    1.20
 -11   2  13   18.90    1.68
 -10   2  13    4.06    0.96
 -10   2  13    4.05    0.68
  -9   2  13   -0.56    0.69
  -9   2  13    0.00    0.47
  -8   2  13   20.72    1.70
  -8   2  13   20.37    1.06
  -7   2  13    7.25    1.13
  -6   2  13   -0.54    0.75
  -5   2  13   13.77    0.81
  -4   2  13   25.27    1.14
  -3   2  13    1.03    0.46
  -2   2  13   13.66    0.99
  -1   2  13   18.45    1.16
   0   2  13    5.77    0.77
   1   2  13    5.62    0.88
   2   2  13    8.08    1.00
 -12   3  13    0.40    0.90
 -12   3  13   -0.42    0.59
 -11   3  13    7.09    1.16
 -11   3  13    6.42    0.82
 -10   3  13   13.68    1.42
 -10   3  13   12.78    1.05
  -9   3  13    1.00    0.52
  -9   3  13    0.91    0.75
  -8   3  13    3.29    0.55
  -8   3  13    2.57    0.97
  -7   3  13   22.89    1.04
  -7   3  13   22.45    1.86
  -6   3  13    1.27    0.39
  -6   3  13   -0.38    0.80
  -5   3  13    5.55    0.58
  -4   3  13   32.25    1.35
  -3   3  13    4.45    0.61
  -2   3  13    4.20    0.66
  -1   3  13   25.74    1.37
   0   3  13    2.22    0.66
   1   3  13    4.30    0.79
   2   3  13   10.49    1.13
 -12   4  13    1.67    0.67
 -11   4  13    1.59    0.61
 -11   4  13    0.13    0.85
 -10   4  13    5.28    1.06
 -10   4  13    5.79    0.73
  -9   4  13    5.29    1.13
  -9   4  13    6.08    0.72
  -8   4  13    1.03    0.89
  -8   4  13    0.54    0.45
  -7   4  13   10.56    1.37
  -7   4  13   11.66    0.81
  -6   4  13    6.93    1.22
  -6   4  13    8.64    0.73
  -5   4  13    8.79    0.72
  -4   4  13   12.48    0.95
  -3   4  13   10.14    0.87
  -2   4  13    2.99    0.64
  -1   4  13    8.58    0.92
   0   4  13    1.19    0.61
   1   4  13    1.22    0.65
 -11   5  13    1.35    0.62
 -11   5  13    1.56    0.92
 -10   5  13   18.22    1.82
 -10   5  13   18.17    1.22
  -9   5  13    8.41    0.79
  -9   5  13    7.82    1.30
  -8   5  13    0.25    0.87
  -8   5  13    1.89    0.51
  -7   5  13   22.92    1.99
  -6   5  13   11.64    0.86
  -6   5  13    6.88    1.30
  -5   5  13    4.27    0.62
  -5   5  13    0.81    0.97
  -4   5  13   15.29    1.06
  -3   5  13   10.43    0.93
  -2   5  13    0.08    0.56
  -1   5  13    7.20    0.91
   0   5  13    3.73    0.78
 -10   6  13   13.40    1.11
 -10   6  13   10.71    1.45
  -9   6  13   19.23    1.15
  -9   6  13   15.58    1.66
  -8   6  13   -0.39    0.89
  -7   6  13   10.82    1.49
  -6   6  13   13.90    1.64
  -6   6  13   17.49    1.06
  -5   6  13   -0.37    0.48
  -5   6  13   -0.55    0.97
  -4   6  13    7.75    0.84
  -3   6  13   14.07    1.14
  -2   6  13    0.36    0.62
  -9   7  13    6.77    1.27
  -8   7  13   -0.83    0.88
  -7   7  13    4.95    1.27
  -7   7  13    5.51    0.68
  -6   7  13   11.91    1.04
  -6   7  13    8.25    1.43
  -5   7  13    2.45    0.66
  -4   7  13    4.76    0.75
  -3   7  13    6.95    0.93
  -3 -11  14   11.63    1.18
  -2 -11  14    4.62    0.90
  -1 -11  14    7.15    0.95
  -6 -10  14   22.22    1.49
  -5 -10  14    2.80    0.78
  -4 -10  14    2.07    0.71
  -3 -10  14   24.99    1.51
  -2 -10  14    4.42    0.80
  -1 -10  14    1.28    0.64
   0 -10  14   25.48    1.57
   1 -10  14   11.69    1.17
  -7  -9  14   -0.67    0.55
  -6  -9  14   11.29    1.07
  -5  -9  14    4.72    0.79
  -4  -9  14   -0.03    0.58
  -3  -9  14   17.07    1.25
  -2  -9  14   10.39    1.01
  -1  -9  14    1.10    0.62
   0  -9  14   16.73    1.29
   1  -9  14   23.06    1.47
   2  -9  14    2.83    0.74
  -8  -8  14    4.00    0.74
  -7  -8  14   -0.02    0.54
  -6  -8  14    7.30    0.83
  -5  -8  14   16.35    1.18
  -4  -8  14    0.36    0.54
  -3  -8  14   14.57    1.13
  -2  -8  14   22.67    1.35
  -1  -8  14    0.80    0.58
   0  -8  14   18.15    1.28
   1  -8  14   23.51    1.47
   2  -8  14    1.49    0.67
   3  -8  14    6.55    0.92
  -9  -7  14    6.62    0.79
  -8  -7  14   21.45    1.27
  -7  -7  14    0.62    0.54
  -6  -7  14    8.45    0.86
  -5  -7  14   43.77    1.79
  -4  -7  14    3.01    0.63
  -3  -7  14    3.97    0.70
  -2  -7  14   41.63    1.81
  -1  -7  14    6.79    0.84
   0  -7  14    9.97    0.98
   1  -7  14   20.28    1.34
   2  -7  14    2.55    0.70
   3  -7  14    2.55    0.80
 -10  -6  14    3.92    0.82
 -10  -6  14    3.86    0.63
  -9  -6  14    4.97    0.80
  -9  -6  14    3.66    0.65
  -8  -6  14   17.78    1.31
  -8  -6  14   17.55    1.08
  -7  -6  14    9.17    0.85
  -6  -6  14    6.72    0.75
  -5  -6  14   16.30    1.04
  -4  -6  14    9.06    0.85
  -3  -6  14    6.32    0.77
  -2  -6  14   12.61    1.03
  -1  -6  14    9.31    0.92
   0  -6  14    2.33    0.63
   1  -6  14   12.63    1.14
   2  -6  14    9.64    1.04
   3  -6  14    2.91    0.75
 -10  -5  14    2.36    0.52
 -10  -5  14    0.70    0.69
  -9  -5  14    1.87    0.50
  -9  -5  14    2.29    0.70
  -8  -5  14   31.40    1.49
  -8  -5  14   31.60    1.34
  -7  -5  14    8.85    0.75
  -6  -5  14    4.44    0.61
  -5  -5  14   22.45    1.16
  -4  -5  14   11.50    0.92
  -3  -5  14    2.72    0.60
  -2  -5  14   41.65    1.74
  -1  -5  14   10.80    0.97
   0  -5  14   -0.10    0.48
   1  -5  14   36.59    1.73
   2  -5  14   14.88    1.25
   3  -5  14   -0.53    0.54
 -11  -4  14   16.25    1.36
 -10  -4  14    6.58    0.88
  -9  -4  14    0.98    0.41
  -9  -4  14    0.53    0.56
  -8  -4  14   18.54    1.13
  -8  -4  14   20.57    0.99
  -7  -4  14   19.98    1.00
  -6  -4  14    1.10    0.46
  -5  -4  14   23.86    1.16
  -4  -4  14   23.63    1.18
  -3  -4  14    2.58    0.56
  -2  -4  14   24.83    1.27
  -1  -4  14   27.71    1.40
   0  -4  14    1.25    0.59
   1  -4  14   22.68    1.37
   2  -4  14   22.41    1.43
   3  -4  14    0.73    0.62
 -11  -3  14    6.70    1.24
 -11  -3  14    6.28    0.91
 -10  -3  14   11.18    1.00
  -9  -3  14   -0.47    0.50
  -8  -3  14    9.24    0.81
  -7  -3  14   18.83    0.93
  -6  -3  14    2.78    0.50
  -5  -3  14   28.16    1.23
  -4  -3  14   22.97    1.13
  -3  -3  14    1.76    0.50
  -2  -3  14   16.99    1.08
  -1  -3  14   23.06    1.28
   0  -3  14    2.67    0.64
   1  -3  14   18.02    1.26
   2  -3  14   23.45    1.47
   3  -3  14    3.44    0.81
 -11  -2  14    1.39    0.67
 -11  -2  14    0.89    0.89
 -10  -2  14   20.38    1.26
 -10  -2  14   19.62    1.76
  -9  -2  14    0.18    0.53
  -6  -2  14    5.87    0.57
  -5  -2  14    9.12    0.74
  -4  -2  14   61.03    2.07
  -3  -2  14    5.71    0.66
  -2  -2  14    6.99    0.74
  -1  -2  14   46.34    1.85
   0  -2  14    8.66    0.89
   1  -2  14    2.72    0.70
   2  -2  14   29.82    1.62
   3  -2  14    9.18    1.12
 -11  -1  14   -0.97    0.57
 -11  -1  14   -0.88    0.75
 -10  -1  14   12.88    1.43
 -10  -1  14   12.29    0.98
  -9  -1  14    5.80    1.11
  -9  -1  14    4.54    0.69
  -8  -1  14    3.43    1.00
  -6  -1  14   15.27    0.81
  -5  -1  14    0.66    0.39
  -4  -1  14   20.79    1.07
  -3  -1  14   12.04    0.91
  -2  -1  14    0.83    0.48
  -1  -1  14   27.44    1.38
   0  -1  14   13.70    1.11
   1  -1  14    0.53    0.56
   2  -1  14    7.41    0.94
 -11   0  14    0.29    0.83
 -11   0  14    1.02    0.63
 -10   0  14   15.17    1.49
 -10   0  14   12.00    0.97
  -9   0  14    7.05    1.17
  -9   0  14    5.86    0.71
  -8   0  14    4.16    0.97
  -6   0  14   15.49    0.82
  -5   0  14    1.52    0.45
  -4   0  14   12.51    0.88
  -3   0  14    8.46    0.78
  -2   0  14    0.18    0.48
  -1   0  14   23.43    1.32
   0   0  14   12.27    1.08
   1   0  14    1.97    0.64
   2   0  14    6.78    0.96
 -11   1  14   -0.86    0.54
 -11   1  14   -0.94    0.69
 -10   1  14   13.81    1.49
 -10   1  14   11.80    1.03
  -9   1  14   22.22    1.81
  -9   1  14   20.84    1.15
  -8   1  14   -1.00    0.74
  -7   1  14   14.01    1.48
  -6   1  14   22.18    0.96
  -5   1  14    3.68    0.52
  -4   1  14   10.26    0.81
  -3   1  14   28.12    1.30
  -2   1  14   -0.09    0.45
  -1   1  14    6.86    0.80
   0   1  14   18.37    1.24
   1   1  14    3.50    0.77
 -11   2  14   -0.31    0.58
 -11   2  14   -0.27    0.76
 -10   2  14    5.06    0.73
 -10   2  14    6.05    1.09
  -9   2  14   16.27    1.59
  -8   2  14    1.62    0.90
  -7   2  14    9.24    1.32
  -6   2  14    7.43    0.60
  -5   2  14   13.43    0.85
  -4   2  14    5.54    0.66
  -3   2  14   16.29    1.05
  -2   2  14    5.18    0.70
  -1   2  14    2.65    0.66
   0   2  14   11.27    1.08
   1   2  14    5.12    0.84
 -11   3  14   -0.17    0.80
 -10   3  14    5.32    1.10
  -9   3  14   11.81    1.42
  -8   3  14    1.20    0.92
  -7   3  14    2.24    0.99
  -6   3  14   25.19    1.10
  -5   3  14    2.48    0.50
  -4   3  14    3.14    0.58
  -3   3  14   19.67    1.19
  -2   3  14    5.91    0.75
  -1   3  14    0.07    0.54
   0   3  14   16.31    1.28
 -10   4  14    0.49    0.88
  -9   4  14    9.22    1.38
  -8   4  14    7.04    1.25
  -7   4  14   -0.64    0.88
  -6   4  14   20.74    2.03
  -6   4  14   21.62    1.08
  -5   4  14    7.69    0.75
  -4   4  14    0.57    0.49
  -3   4  14   12.40    1.06
  -2   4  14   14.21    1.15
  -1   4  14    0.60    0.59
  -9   5  14    2.82    1.11
  -8   5  14    5.60    1.26
  -7   5  14   -1.87    0.87
  -6   5  14    8.48    0.76
  -6   5  14    6.38    1.35
  -5   5  14    6.87    0.75
  -4   5  14   -0.12    0.49
  -3   5  14    8.85    0.92
  -2   5  14   10.98    1.05
  -8   6  14    8.75    1.44
  -7   6  14   -0.52    1.00
  -6   6  14    5.98    0.73
  -6   6  14    2.74    1.24
  -5   6  14   13.24    1.08
  -5  -9  15   19.22    1.33
  -4  -9  15   17.07    1.28
  -3  -9  15    1.59    0.68
  -2  -9  15   15.87    1.26
  -1  -9  15    9.47    1.04
   0  -9  15   -0.53    0.53
  -7  -8  15   16.66    1.21
  -6  -8  15    1.71    0.62
  -5  -8  15    3.11    0.68
  -4  -8  15   15.97    1.21
  -3  -8  15    4.31    0.76
  -2  -8  15    4.26    0.77
  -1  -8  15   20.90    1.36
   0  -8  15    3.38    0.77
   1  -8  15    1.70    0.68
  -8  -7  15    2.35    0.62
  -7  -7  15   13.95    1.07
  -6  -7  15    1.53    0.58
  -5  -7  15    2.25    0.60
  -4  -7  15   18.87    1.21
  -3  -7  15    2.44    0.66
  -2  -7  15    2.79    0.68
  -1  -7  15   35.11    1.70
   0  -7  15    8.58    0.99
   1  -7  15    2.03    0.70
  -9  -6  15   11.60    0.95
  -8  -6  15    0.99    0.51
  -7  -6  15   17.62    1.09
  -6  -6  15   14.78    1.04
  -5  -6  15    1.59    0.56
  -4  -6  15   28.88    1.43
  -3  -6  15   20.16    1.23
  -2  -6  15    1.27    0.58
  -1  -6  15   15.41    1.17
   0  -6  15   29.95    1.57
   1  -6  15    0.30    0.60
   2  -6  15   15.20    1.32
  -9  -5  15   19.87    1.05
  -8  -5  15    1.28    0.46
  -7  -5  15   11.72    0.89
  -6  -5  15   16.86    1.06
  -5  -5  15   -0.32    0.45
  -4  -5  15   15.69    1.05
  -3  -5  15   26.31    1.35
  -2  -5  15    0.73    0.52
  -1  -5  15    4.41    0.73
   0  -5  15   14.89    1.18
   1  -5  15    0.57    0.59
   2  -5  15    7.97    0.99
  -8  -4  15    0.75    0.45
  -7  -4  15   18.96    1.02
  -6  -4  15   16.11    0.99
  -5  -4  15    0.51    0.45
  -4  -4  15   12.77    0.95
  -3  -4  15   18.38    1.13
  -2  -4  15    6.53    0.79
  -1  -4  15    9.03    0.94
   0  -4  15   15.95    1.20
   1  -4  15    3.96    0.81
   2  -4  15    6.43    0.95
  -7  -3  15    5.71    0.60
  -6  -3  15   31.03    1.28
  -5  -3  15    8.40    0.76
  -4  -3  15    4.15    0.62
  -3  -3  15   23.25    1.25
  -2  -3  15    8.79    0.87
  -1  -3  15    3.59    0.69
   0  -3  15   21.60    1.34
   1  -3  15    7.97    0.95
  -7  -2  15    1.17    0.39
  -6  -2  15   19.73    1.00
  -5  -2  15   13.10    0.89
  -4  -2  15    0.44    0.46
  -3  -2  15   25.99    1.30
  -2  -2  15    7.43    0.82
  -1  -2  15    2.40    0.62
   0  -2  15   18.33    1.26
   1  -2  15    5.79    0.85
 -10  -1  15   -0.59    0.78
  -6  -1  15   18.78    0.96
  -5  -1  15   22.50    1.10
  -4  -1  15    0.63    0.44
  -3  -1  15   24.51    1.25
  -2  -1  15   21.69    1.27
  -1  -1  15    0.63    0.55
   0  -1  15   10.80    1.05
   1  -1  15   13.15    1.17
 -10   0  15    1.23    0.88
  -9   0  15    5.45    1.13
  -6   0  15   12.92    0.82
  -5   0  15   29.27    1.27
  -4   0  15    0.10    0.42
  -3   0  15    9.42    0.85
  -2   0  15   20.98    1.23
  -1   0  15    0.91    0.58
   0   0  15    3.82    0.75
 -10   1  15    1.48    0.93
  -9   1  15    9.05    1.34
  -8   1  15    8.24    1.29
  -6   1  15    6.82    0.60
  -5   1  15   18.52    1.00
  -4   1  15    2.61    0.55
  -3   1  15    7.38    0.80
  -2   1  15   13.39    1.07
  -1   1  15    4.59    0.80
   0   1  15    1.49    0.63
 -10   2  15    4.12    1.07
  -9   2  15    3.76    1.10
  -8   2  15   17.29    1.75
  -6   2  15    3.83    0.53
  -5   2  15   15.29    0.95
  -4   2  15   10.67    0.92
  -3   2  15    0.15    0.51
  -2   2  15   11.03    0.99
  -1   2  15    7.21    0.88
  -9   3  15   -0.97    0.88
  -8   3  15    5.38    1.24
  -6   3  15    1.44    0.47
  -5   3  15    4.05    0.62
  -4   3  15   12.32    0.99
  -3   3  15   -0.46    0.49
  -2   3  15    3.67    0.73
  -8   4  15    7.31    1.38
  -6   4  15   -0.28    0.45
  -5   4  15   12.79    1.00
  -4   4  15    9.51    0.89
  -4  -8  16    0.16    0.57
  -3  -8  16   28.67    1.56
  -6  -7  16   14.01    1.10
  -5  -7  16   11.48    1.03
  -4  -7  16    0.26    0.57
  -3  -7  16   16.44    1.22
  -2  -7  16    7.41    0.92
  -1  -7  16    0.44    0.58
  -7  -6  16    2.11    0.58
  -6  -6  16   10.60    0.94
  -5  -6  16   13.68    1.07
  -4  -6  16    1.12    0.57
  -3  -6  16   11.45    1.03
  -2  -6  16    7.13    0.89
  -1  -6  16    1.56    0.60
  -8  -5  16   19.57    1.09
  -7  -5  16    1.35    0.50
  -6  -5  16    6.68    0.75
  -5  -5  16   23.72    1.27
  -4  -5  16    1.12    0.54
  -3  -5  16    4.46    0.70
  -2  -5  16   31.14    1.56
  -1  -5  16    2.14    0.67
  -8  -4  16   15.18    0.93
  -7  -4  16   11.67    0.88
  -6  -4  16    6.73    0.73
  -5  -4  16   12.16    0.95
  -4  -4  16    7.51    0.79
  -3  -4  16    3.02    0.63
  -2  -4  16   20.83    1.29
  -1  -4  16    5.84    0.84
  -7  -3  16    5.51    0.62
  -6  -3  16    3.50    0.56
  -5  -3  16   21.08    1.15
  -4  -3  16    8.45    0.83
  -3  -3  16    0.83    0.52
  -2  -3  16   20.36    1.27
  -1  -3  16    6.96    0.89
  -7  -2  16    9.68    0.77
  -6  -2  16    0.10    0.41
  -5  -2  16   18.75    1.08
  -4  -2  16   19.55    1.17
  -3  -2  16    0.39    0.50
  -2  -2  16   19.66    1.24
  -1  -2  16   15.90    1.21
  -7  -1  16   18.30    0.94
  -6  -1  16    3.80    0.56
  -5  -1  16    7.24    0.71
  -4  -1  16   17.04    1.09
  -3  -1  16    2.28    0.61
  -2  -1  16    9.62    0.94
  -1  -1  16   16.36    1.24
  -6   0  16    6.68    0.64
  -5   0  16    2.16    0.52
  -4   0  16   21.26    1.18
  -3   0  16    1.45    0.57
  -2   0  16    2.50    0.64
  -6   1  16    7.07    0.67
  -5   1  16    1.90    0.53
  -4   1  16   10.01    0.87
  -3   1  16    5.74    0.75
  -6   2  16    2.43    0.52
  -5   2  16    1.15    0.51
   0   0   0    0.00    0.00
;
_shelx_hkl_checksum              89673
loop_
_symmetry_equiv_pos_as_xyz
'x, y, z'
'-x, -y, -z'
loop_
_atom_site_label
_atom_site_type_symbol
_atom_site_fract_x
_atom_site_fract_y
_atom_site_fract_z
_atom_site_U_iso_or_equiv
_atom_site_adp_type
_atom_site_occupancy
_atom_site_site_symmetry_order
_atom_site_calc_flag
_atom_site_refinement_flags_posn
_atom_site_refinement_flags_adp
_atom_site_refinement_flags_occupancy
_atom_site_disorder_assembly
_atom_site_disorder_group
Eu Eu 0.16204(2) 0.96106(2) 0.29072(2) 0.02288(6) Uani 1 1 d . . . . .
S1 S 0.47964(12) 0.51255(9) 0.25010(10) 0.0638(3) Uani 1 1 d . . . . .
O1A O 0.3022(3) 0.8631(3) 0.2533(2) 0.0519(7) Uani 1 1 d . . . . .
O2A O 0.7157(3) 0.9010(2) 0.5435(2) 0.0535(7) Uani 1 1 d . . . . .
N1A N 0.6033(3) 0.7280(3) 0.4002(2) 0.0403(6) Uani 1 1 d . . . . .
N3A N 0.3987(3) 0.7092(3) 0.2522(2) 0.0386(6) Uani 1 1 d . . . . .
C2A C 0.4951(3) 0.6560(3) 0.3026(3) 0.0396(7) Uani 1 1 d . . . . .
C4A C 0.4038(3) 0.8264(3) 0.2996(3) 0.0390(7) Uani 1 1 d . . . . .
C5A C 0.5169(4) 0.8947(3) 0.3930(3) 0.0399(7) Uani 1 1 d . . . . .
H5A H 0.5274 0.9759 0.4194 0.048 Uiso 1 1 calc R U . . .
C6A C 0.6154(3) 0.8465(3) 0.4489(3) 0.0390(7) Uani 1 1 d . . . . .
C7A C 0.7112(4) 0.6779(4) 0.4614(4) 0.0589(11) Uani 1 1 d . . . . .
H71A H 0.7971 0.7374 0.4891 0.071 Uiso 1 1 calc R U . . .
H72A H 0.7130 0.6095 0.4071 0.071 Uiso 1 1 calc R U . . .
C8A C 0.6929(5) 0.6406(4) 0.5612(4) 0.0779(15) Uani 1 1 d . . . . .
H81A H 0.7681 0.6140 0.6010 0.093 Uiso 1 1 calc R U . . .
H82A H 0.6120 0.5766 0.5335 0.093 Uiso 1 1 calc R U . . .
H83A H 0.6869 0.7070 0.6135 0.093 Uiso 1 1 calc R U . . .
C9A C 0.2853(4) 0.6402(4) 0.1399(3) 0.0529(10) Uani 1 1 d . . . . .
H91A H 0.3166 0.5859 0.0951 0.063 Uiso 1 1 calc R U . . .
H92A H 0.2563 0.6950 0.0958 0.063 Uiso 1 1 calc R U . . .
C10A C 0.1682(4) 0.5703(5) 0.1567(4) 0.0829(17) Uani 1 1 d . . . . .
H11A H 0.1988 0.5253 0.2105 0.099 Uiso 1 1 calc R U . . .
H12A H 0.1052 0.5167 0.0835 0.099 Uiso 1 1 calc R U . . .
H13A H 0.1253 0.6240 0.1867 0.099 Uiso 1 1 calc R U . . .
S2 S 0.15277(11) 0.58904(9) 0.66935(10) 0.0551(3) Uani 1 1 d . . . . .
O1B O 0.1435(3) 0.8483(2) 0.4091(2) 0.0485(6) Uani 1 1 d . . . . .
O2B O 0.0071(2) 0.9573(2) 0.7147(2) 0.0504(6) Uani 1 1 d . . . . .
N1B N 0.0698(3) 0.7855(3) 0.6842(2) 0.0383(6) Uani 1 1 d . . . . .
N3B N 0.1343(3) 0.7304(2) 0.5290(2) 0.0347(6) Uani 1 1 d . . . . .
C2B C 0.1175(3) 0.7067(3) 0.6260(3) 0.0361(7) Uani 1 1 d . . . . .
C4B C 0.1245(3) 0.8360(3) 0.4997(3) 0.0360(7) Uani 1 1 d . . . . .
C5B C 0.0928(3) 0.9190(3) 0.5705(3) 0.0418(8) Uani 1 1 d . . . . .
H5B H 0.0970 0.9945 0.5592 0.050 Uiso 1 1 calc R U . . .
C6B C 0.0548(3) 0.8917(3) 0.6578(3) 0.0387(7) Uani 1 1 d . . . . .
C7B C 0.0421(4) 0.7620(4) 0.7850(3) 0.0540(10) Uani 1 1 d . . . . .
H71B H 0.0156 0.6766 0.7745 0.065 Uiso 1 1 calc R U . . .
H72B H -0.0317 0.7929 0.7900 0.065 Uiso 1 1 calc R U . . .
C8B C 0.1650(5) 0.8202(5) 0.8970(4) 0.0775(15) Uani 1 1 d . . . . .
H81B H 0.2378 0.7892 0.8925 0.093 Uiso 1 1 calc R U . . .
H82B H 0.1447 0.8034 0.9610 0.093 Uiso 1 1 calc R U . . .
H83B H 0.1901 0.9050 0.9084 0.093 Uiso 1 1 calc R U . . .
C9B C 0.1736(4) 0.6446(3) 0.4558(3) 0.0455(8) Uani 1 1 d . . . . .
H91B H 0.1366 0.6480 0.3761 0.055 Uiso 1 1 calc R U . . .
H92B H 0.1366 0.5644 0.4579 0.055 Uiso 1 1 calc R U . . .
C10B C 0.3252(4) 0.6714(4) 0.4970(4) 0.0554(10) Uani 1 1 d . . . . .
H11B H 0.3607 0.6547 0.5704 0.066 Uiso 1 1 calc R U . . .
H12B H 0.3632 0.7541 0.5053 0.066 Uiso 1 1 calc R U . . .
H13B H 0.3477 0.6225 0.4411 0.066 Uiso 1 1 calc R U . . .
S3 S -0.49858(10) 0.73337(12) 0.00024(11) 0.0647(3) Uani 1 1 d . . . . .
O1C O -0.0040(2) 0.8255(2) 0.1424(2) 0.0459(6) Uani 1 1 d . . . . .
O2C O -0.2318(3) 0.9172(2) -0.1981(2) 0.0490(6) Uani 1 1 d . . . . .
N1C N -0.3475(3) 0.8276(3) -0.1034(2) 0.0374(6) Uani 1 1 d . . . . .
N3C N -0.2328(3) 0.7860(3) 0.0706(2) 0.0376(6) Uani 1 1 d . . . . .
C2C C -0.3537(3) 0.7838(3) -0.0114(3) 0.0393(8) Uani 1 1 d . . . . .
C4C C -0.1110(3) 0.8270(3) 0.0620(3) 0.0351(7) Uani 1 1 d . . . . .
C5C C -0.1113(3) 0.8689(3) -0.0312(3) 0.0384(7) Uani 1 1 d . . . . .
H5C H -0.0304 0.8949 -0.0391 0.046 Uiso 1 1 calc R U . . .
C6C C -0.2280(3) 0.8736(3) -0.1135(3) 0.0362(7) Uani 1 1 d . . . . .
C7C C -0.4727(4) 0.8252(4) -0.1961(3) 0.0556(11) Uani 1 1 d . . . . .
H71C H -0.5429 0.7557 -0.2064 0.067 Uiso 1 1 calc R U . . .
H72C H -0.4593 0.8174 -0.2683 0.067 Uiso 1 1 calc R U . . .
C8C C -0.5179(4) 0.9356(5) -0.1705(4) 0.0737(14) Uani 1 1 d . . . . .
H81C H -0.5430 0.9381 -0.1050 0.088 Uiso 1 1 calc R U . . .
H82C H -0.5936 0.9338 -0.2368 0.088 Uiso 1 1 calc R U . . .
H83C H -0.4458 1.0052 -0.1532 0.088 Uiso 1 1 calc R U . . .
C9C C -0.2315(4) 0.7372(4) 0.1696(3) 0.0573(11) Uani 1 1 d . . . . .
H91C H -0.3074 0.7478 0.1887 0.069 Uiso 1 1 calc R U . . .
H92C H -0.1501 0.7807 0.2369 0.069 Uiso 1 1 calc R U . . .
C10C C -0.2383(6) 0.6080(5) 0.1414(5) 0.0936(18) Uani 1 1 d . . . . .
H11C H -0.1674 0.5967 0.1164 0.112 Uiso 1 1 calc R U . . .
H12C H -0.3233 0.5637 0.0804 0.112 Uiso 1 1 calc R U . . .
H13C H -0.2285 0.5804 0.2091 0.112 Uiso 1 1 calc R U . . .
loop_
_atom_site_aniso_label
_atom_site_aniso_U_11
_atom_site_aniso_U_22
_atom_site_aniso_U_33
_atom_site_aniso_U_23
_atom_site_aniso_U_13
_atom_site_aniso_U_12
Eu 0.02158(8) 0.03185(9) 0.01992(8) 0.01307(5) 0.00793(5) 0.01225(5)
S1 0.0675(7) 0.0409(5) 0.0664(7) -0.0017(5) 0.0105(6) 0.0224(5)
O1A 0.0505(14) 0.0688(18) 0.0584(16) 0.0309(14) 0.0289(13) 0.0375(14)
O2A 0.0560(16) 0.0474(15) 0.0394(13) 0.0073(11) 0.0060(12) 0.0031(12)
N1A 0.0375(14) 0.0392(16) 0.0401(15) 0.0074(12) 0.0096(12) 0.0153(12)
N3A 0.0346(14) 0.0450(16) 0.0359(14) 0.0093(12) 0.0118(12) 0.0159(12)
C2A 0.0387(17) 0.0415(18) 0.0384(17) 0.0079(14) 0.0143(14) 0.0151(14)
C4A 0.0431(18) 0.051(2) 0.0418(18) 0.0229(16) 0.0267(15) 0.0262(16)
C5A 0.054(2) 0.0336(17) 0.0394(18) 0.0128(14) 0.0230(16) 0.0174(15)
C6A 0.0408(17) 0.0379(18) 0.0358(17) 0.0099(14) 0.0137(14) 0.0080(14)
C7A 0.048(2) 0.059(3) 0.060(3) 0.011(2) 0.0037(19) 0.0294(19)
C8A 0.089(3) 0.057(3) 0.071(3) 0.025(2) 0.003(3) 0.027(3)
C9A 0.046(2) 0.073(3) 0.0333(18) 0.0079(18) 0.0092(16) 0.0201(19)
C10A 0.048(2) 0.118(5) 0.056(3) 0.003(3) 0.013(2) -0.002(3)
S2 0.0716(6) 0.0525(6) 0.0663(6) 0.0396(5) 0.0367(5) 0.0320(5)
O1B 0.0626(16) 0.0533(15) 0.0373(13) 0.0232(11) 0.0235(12) 0.0155(13)
O2B 0.0431(13) 0.0683(17) 0.0492(14) 0.0144(13) 0.0202(12) 0.0339(13)
N1B 0.0362(14) 0.0540(17) 0.0360(14) 0.0225(13) 0.0178(12) 0.0213(13)
N3B 0.0408(14) 0.0354(14) 0.0348(14) 0.0152(11) 0.0180(12) 0.0146(12)
C2B 0.0325(15) 0.0443(19) 0.0382(17) 0.0204(14) 0.0148(13) 0.0144(14)
C4B 0.0351(16) 0.0410(18) 0.0324(16) 0.0182(14) 0.0095(13) 0.0103(14)
C5B 0.0448(18) 0.0449(19) 0.0434(19) 0.0228(16) 0.0158(16) 0.0213(16)
C6B 0.0321(15) 0.049(2) 0.0373(17) 0.0138(15) 0.0098(14) 0.0204(14)
C7B 0.049(2) 0.089(3) 0.049(2) 0.038(2) 0.0307(18) 0.034(2)
C8B 0.069(3) 0.146(5) 0.043(2) 0.039(3) 0.026(2) 0.065(3)
C9B 0.058(2) 0.042(2) 0.0429(19) 0.0129(15) 0.0254(17) 0.0145(17)
C10B 0.061(2) 0.058(2) 0.064(3) 0.020(2) 0.039(2) 0.025(2)
S3 0.0366(5) 0.0940(9) 0.0814(8) 0.0529(7) 0.0302(5) 0.0163(5)
O1C 0.0362(12) 0.0572(16) 0.0374(13) 0.0109(11) 0.0049(10) 0.0165(11)
O2C 0.0584(15) 0.0574(16) 0.0492(14) 0.0313(12) 0.0296(13) 0.0231(13)
N1C 0.0295(13) 0.0490(17) 0.0350(14) 0.0187(12) 0.0116(11) 0.0089(12)
N3C 0.0331(13) 0.0500(17) 0.0337(14) 0.0200(12) 0.0135(11) 0.0113(12)
C2C 0.0332(16) 0.049(2) 0.0394(18) 0.0226(15) 0.0139(14) 0.0098(14)
C4C 0.0309(15) 0.0362(17) 0.0358(16) 0.0072(13) 0.0117(13) 0.0088(13)
C5C 0.0308(15) 0.0476(19) 0.0408(18) 0.0161(15) 0.0174(14) 0.0094(14)
C6C 0.0413(17) 0.0390(18) 0.0349(16) 0.0147(14) 0.0202(14) 0.0112(14)
C7C 0.0358(18) 0.082(3) 0.042(2) 0.030(2) 0.0051(16) 0.0088(19)
C8C 0.058(3) 0.105(4) 0.083(3) 0.060(3) 0.029(2) 0.043(3)
C9C 0.055(2) 0.082(3) 0.047(2) 0.040(2) 0.0222(19) 0.021(2)
C10C 0.121(5) 0.088(4) 0.111(5) 0.068(4) 0.059(4) 0.050(4)
loop_
_atom_type_symbol
_atom_type_description
_atom_type_scat_dispersion_real
_atom_type_scat_dispersion_imag
_atom_type_scat_source
C C 0.0033 0.0016 'International Tables Vol C Tables 4.2.6.8 and 6.1.1.4'
N N 0.0061 0.0033 'International Tables Vol C Tables 4.2.6.8 and 6.1.1.4'
O O 0.0106 0.0060 'International Tables Vol C Tables 4.2.6.8 and 6.1.1.4'
S S 0.1246 0.1234 'International Tables Vol C Tables 4.2.6.8 and 6.1.1.4'
Eu Eu -0.1578 3.6682 'International Tables Vol C Tables 4.2.6.8 and 6.1.1.4'
H H 0.0000 0.0000 'International Tables Vol C Tables 4.2.6.8 and 6.1.1.4'
loop_
_geom_angle_atom_site_label_1
_geom_angle_atom_site_label_2
_geom_angle_atom_site_label_3
_geom_angle
_geom_angle_site_symmetry_1
_geom_angle_site_symmetry_3
O2A Eu O1C 164.41(10) 2_676 .
O2A Eu O2C 89.15(10) 2_676 2_575
O1C Eu O2C 99.88(10) . 2_575
O2A Eu O1A 105.19(11) 2_676 .
O1C Eu O1A 88.33(10) . .
O2C Eu O1A 85.17(10) 2_575 .
O2A Eu O1B 82.37(9) 2_676 .
O1C Eu O1B 90.83(9) . .
O2C Eu O1B 166.43(9) 2_575 .
O1A Eu O1B 86.84(10) . .
O2A Eu O2B 86.99(10) 2_676 2_576
O1C Eu O2B 80.27(9) . 2_576
O2C Eu O2B 90.68(10) 2_575 2_576
O1A Eu O2B 167.03(9) . 2_576
O1B Eu O2B 99.41(10) . 2_576
O2A Eu C4C 153.84(10) 2_676 .
O1C Eu C4C 16.09(9) . .
O2C Eu C4C 90.84(9) 2_575 .
O1A Eu C4C 100.87(9) . .
O1B Eu C4C 101.44(9) . .
O2B Eu C4C 66.85(9) 2_576 .
C4A O1A Eu 144.1(2) . .
C6A O2A Eu 158.0(3) . 2_676
C2A N1A C6A 123.2(3) . .
C2A N1A C7A 119.9(3) . .
C6A N1A C7A 116.8(3) . .
C2A N3A C4A 122.8(3) . .
C2A N3A C9A 119.1(3) . .
C4A N3A C9A 118.0(3) . .
N3A C2A N1A 116.1(3) . .
N3A C2A S1 121.7(3) . .
N1A C2A S1 122.2(3) . .
O1A C4A C5A 124.2(3) . .
O1A C4A N3A 117.9(3) . .
C5A C4A N3A 117.9(3) . .
C4A C5A C6A 121.7(3) . .
C4A C5A H5A 119.1 . .
C6A C5A H5A 119.1 . .
O2A C6A C5A 125.3(3) . .
O2A C6A N1A 117.1(3) . .
C5A C6A N1A 117.6(3) . .
N1A C7A C8A 112.6(4) . .
N1A C7A H71A 109.1 . .
C8A C7A H71A 109.1 . .
N1A C7A H72A 109.1 . .
C8A C7A H72A 109.1 . .
H71A C7A H72A 107.8 . .
C7A C8A H81A 109.5 . .
C7A C8A H82A 109.5 . .
H81A C8A H82A 109.5 . .
C7A C8A H83A 109.5 . .
H81A C8A H83A 109.5 . .
H82A C8A H83A 109.5 . .
N3A C9A C10A 112.6(3) . .
N3A C9A H91A 109.1 . .
C10A C9A H91A 109.1 . .
N3A C9A H92A 109.1 . .
C10A C9A H92A 109.1 . .
H91A C9A H92A 107.8 . .
C9A C10A H11A 109.5 . .
C9A C10A H12A 109.5 . .
H11A C10A H12A 109.5 . .
C9A C10A H13A 109.5 . .
H11A C10A H13A 109.5 . .
H12A C10A H13A 109.5 . .
C4B O1B Eu 149.4(2) . .
C6B O2B Eu 146.7(2) . 2_576
C2B N1B C6B 122.9(3) . .
C2B N1B C7B 119.2(3) . .
C6B N1B C7B 117.7(3) . .
C2B N3B C4B 123.1(3) . .
C2B N3B C9B 119.6(3) . .
C4B N3B C9B 117.1(3) . .
N1B C2B N3B 116.3(3) . .
N1B C2B S2 122.1(2) . .
N3B C2B S2 121.6(3) . .
O1B C4B C5B 125.1(3) . .
O1B C4B N3B 117.5(3) . .
C5B C4B N3B 117.4(3) . .
C6B C5B C4B 121.3(3) . .
C6B C5B H5B 119.3 . .
C4B C5B H5B 119.3 . .
O2B C6B C5B 124.1(3) . .
O2B C6B N1B 118.2(3) . .
C5B C6B N1B 117.7(3) . .
N1B C7B C8B 111.1(3) . .
N1B C7B H71B 109.4 . .
C8B C7B H71B 109.4 . .
N1B C7B H72B 109.4 . .
C8B C7B H72B 109.4 . .
H71B C7B H72B 108.0 . .
C7B C8B H81B 109.5 . .
C7B C8B H82B 109.5 . .
H81B C8B H82B 109.5 . .
C7B C8B H83B 109.5 . .
H81B C8B H83B 109.5 . .
H82B C8B H83B 109.5 . .
N3B C9B C10B 111.5(3) . .
N3B C9B H91B 109.3 . .
C10B C9B H91B 109.3 . .
N3B C9B H92B 109.3 . .
C10B C9B H92B 109.3 . .
H91B C9B H92B 108.0 . .
C9B C10B H11B 109.5 . .
C9B C10B H12B 109.5 . .
H11B C10B H12B 109.5 . .
C9B C10B H13B 109.5 . .
H11B C10B H13B 109.5 . .
H12B C10B H13B 109.5 . .
C4C O1C Eu 135.3(2) . .
C6C O2C Eu 157.1(2) . 2_575
C6C N1C C2C 122.9(3) . .
C6C N1C C7C 117.5(3) . .
C2C N1C C7C 119.5(3) . .
C2C N3C C4C 122.8(3) . .
C2C N3C C9C 119.5(3) . .
C4C N3C C9C 117.6(3) . .
N3C C2C N1C 116.4(3) . .
N3C C2C S3 121.9(2) . .
N1C C2C S3 121.7(2) . .
O1C C4C C5C 123.5(3) . .
O1C C4C N3C 118.3(3) . .
C5C C4C N3C 118.2(3) . .
O1C C4C Eu 28.59(15) . .
C5C C4C Eu 112.0(2) . .
N3C C4C Eu 121.6(2) . .
C4C C5C C6C 121.8(3) . .
C4C C5C H5C 119.1 . .
C6C C5C H5C 119.1 . .
O2C C6C C5C 123.7(3) . .
O2C C6C N1C 118.5(3) . .
C5C C6C N1C 117.8(3) . .
N1C C7C C8C 112.8(4) . .
N1C C7C H71C 109.0 . .
C8C C7C H71C 109.0 . .
N1C C7C H72C 109.0 . .
C8C C7C H72C 109.0 . .
H71C C7C H72C 107.8 . .
C7C C8C H81C 109.5 . .
C7C C8C H82C 109.5 . .
H81C C8C H82C 109.5 . .
C7C C8C H83C 109.5 . .
H81C C8C H83C 109.5 . .
H82C C8C H83C 109.5 . .
N3C C9C C10C 111.1(4) . .
N3C C9C H91C 109.4 . .
C10C C9C H91C 109.4 . .
N3C C9C H92C 109.4 . .
C10C C9C H92C 109.4 . .
H91C C9C H92C 108.0 . .
C9C C10C H11C 109.5 . .
C9C C10C H12C 109.5 . .
H11C C10C H12C 109.5 . .
C9C C10C H13C 109.5 . .
H11C C10C H13C 109.5 . .
H12C C10C H13C 109.5 . .
loop_
_geom_bond_atom_site_label_1
_geom_bond_atom_site_label_2
_geom_bond_distance
_geom_bond_site_symmetry_2
Eu O2A 2.207(2) 2_676
Eu O1C 2.210(2) .
Eu O2C 2.213(2) 2_575
Eu O1A 2.225(3) .
Eu O1B 2.231(2) .
Eu O2B 2.249(2) 2_576
Eu C4C 3.247(3) .
S1 C2A 1.661(4) .
O1A C4A 1.278(4) .
O2A C6A 1.273(4) .
O2A Eu 2.207(2) 2_676
N1A C2A 1.379(4) .
N1A C6A 1.388(4) .
N1A C7A 1.483(4) .
N3A C2A 1.376(4) .
N3A C4A 1.391(4) .
N3A C9A 1.494(4) .
C4A C5A 1.367(5) .
C5A C6A 1.373(5) .
C5A H5A 0.9300 .
C7A C8A 1.483(6) .
C7A H71A 0.9700 .
C7A H72A 0.9700 .
C8A H81A 0.9600 .
C8A H82A 0.9600 .
C8A H83A 0.9600 .
C9A C10A 1.496(6) .
C9A H91A 0.9700 .
C9A H92A 0.9700 .
C10A H11A 0.9600 .
C10A H12A 0.9600 .
C10A H13A 0.9600 .
S2 C2B 1.664(3) .
O1B C4B 1.268(4) .
O2B C6B 1.269(4) .
O2B Eu 2.249(2) 2_576
N1B C2B 1.376(4) .
N1B C6B 1.392(4) .
N1B C7B 1.478(4) .
N3B C2B 1.380(4) .
N3B C4B 1.389(4) .
N3B C9B 1.475(4) .
C4B C5B 1.385(5) .
C5B C6B 1.382(5) .
C5B H5B 0.9300 .
C7B C8B 1.519(6) .
C7B H71B 0.9700 .
C7B H72B 0.9700 .
C8B H81B 0.9600 .
C8B H82B 0.9600 .
C8B H83B 0.9600 .
C9B C10B 1.519(5) .
C9B H91B 0.9700 .
C9B H92B 0.9700 .
C10B H11B 0.9600 .
C10B H12B 0.9600 .
C10B H13B 0.9600 .
S3 C2C 1.660(3) .
O1C C4C 1.280(4) .
O2C C6C 1.274(4) .
O2C Eu 2.213(2) 2_575
N1C C6C 1.383(4) .
N1C C2C 1.385(4) .
N1C C7C 1.473(4) .
N3C C2C 1.380(4) .
N3C C4C 1.385(4) .
N3C C9C 1.481(4) .
C4C C5C 1.371(5) .
C5C C6C 1.377(4) .
C5C H5C 0.9300 .
C7C C8C 1.509(7) .
C7C H71C 0.9700 .
C7C H72C 0.9700 .
C8C H81C 0.9600 .
C8C H82C 0.9600 .
C8C H83C 0.9600 .
C9C C10C 1.489(7) .
C9C H91C 0.9700 .
C9C H92C 0.9700 .
C10C H11C 0.9600 .
C10C H12C 0.9600 .
C10C H13C 0.9600 .
loop_
_geom_torsion_atom_site_label_1
_geom_torsion_atom_site_label_2
_geom_torsion_atom_site_label_3
_geom_torsion_atom_site_label_4
_geom_torsion
_geom_torsion_site_symmetry_1
_geom_torsion_site_symmetry_2
_geom_torsion_site_symmetry_3
_geom_torsion_site_symmetry_4
C4A N3A C2A N1A -4.2(5) . . . .
C9A N3A C2A N1A 174.2(3) . . . .
C4A N3A C2A S1 174.7(3) . . . .
C9A N3A C2A S1 -7.0(5) . . . .
C6A N1A C2A N3A 2.0(5) . . . .
C7A N1A C2A N3A 179.1(3) . . . .
C6A N1A C2A S1 -176.9(3) . . . .
C7A N1A C2A S1 0.3(5) . . . .
Eu O1A C4A C5A -46.5(6) . . . .
Eu O1A C4A N3A 133.4(4) . . . .
C2A N3A C4A O1A -172.3(3) . . . .
C9A N3A C4A O1A 9.3(5) . . . .
C2A N3A C4A C5A 7.5(5) . . . .
C9A N3A C4A C5A -170.9(3) . . . .
O1A C4A C5A C6A 171.2(3) . . . .
N3A C4A C5A C6A -8.6(5) . . . .
Eu O2A C6A C5A 18.3(9) 2_676 . . .
Eu O2A C6A N1A -160.0(5) 2_676 . . .
C4A C5A C6A O2A -171.7(3) . . . .
C4A C5A C6A N1A 6.5(5) . . . .
C2A N1A C6A O2A 175.3(3) . . . .
C7A N1A C6A O2A -2.0(5) . . . .
C2A N1A C6A C5A -3.1(5) . . . .
C7A N1A C6A C5A 179.6(3) . . . .
C2A N1A C7A C8A -96.1(4) . . . .
C6A N1A C7A C8A 81.3(4) . . . .
C2A N3A C9A C10A 89.3(5) . . . .
C4A N3A C9A C10A -92.3(5) . . . .
C6B N1B C2B N3B -8.1(4) . . . .
C7B N1B C2B N3B 176.6(3) . . . .
C6B N1B C2B S2 172.1(2) . . . .
C7B N1B C2B S2 -3.2(4) . . . .
C4B N3B C2B N1B 9.7(4) . . . .
C9B N3B C2B N1B -174.6(3) . . . .
C4B N3B C2B S2 -170.5(2) . . . .
C9B N3B C2B S2 5.2(4) . . . .
Eu O1B C4B C5B 5.1(7) . . . .
Eu O1B C4B N3B -176.0(3) . . . .
C2B N3B C4B O1B 179.2(3) . . . .
C9B N3B C4B O1B 3.5(4) . . . .
C2B N3B C4B C5B -1.8(5) . . . .
C9B N3B C4B C5B -177.5(3) . . . .
O1B C4B C5B C6B 170.5(3) . . . .
N3B C4B C5B C6B -8.4(5) . . . .
Eu O2B C6B C5B 63.7(6) 2_576 . . .
Eu O2B C6B N1B -116.1(4) 2_576 . . .
C4B C5B C6B O2B -169.9(3) . . . .
C4B C5B C6B N1B 9.9(5) . . . .
C2B N1B C6B O2B 178.5(3) . . . .
C7B N1B C6B O2B -6.2(4) . . . .
C2B N1B C6B C5B -1.3(5) . . . .
C7B N1B C6B C5B 174.0(3) . . . .
C2B N1B C7B C8B 90.5(4) . . . .
C6B N1B C7B C8B -85.1(4) . . . .
C2B N3B C9B C10B -89.3(4) . . . .
C4B N3B C9B C10B 86.6(4) . . . .
C4C N3C C2C N1C -1.4(5) . . . .
C9C N3C C2C N1C -178.1(3) . . . .
C4C N3C C2C S3 179.6(3) . . . .
C9C N3C C2C S3 2.8(5) . . . .
C6C N1C C2C N3C -1.2(5) . . . .
C7C N1C C2C N3C 178.4(3) . . . .
C6C N1C C2C S3 177.9(3) . . . .
C7C N1C C2C S3 -2.5(5) . . . .
Eu O1C C4C C5C 74.1(5) . . . .
Eu O1C C4C N3C -104.8(3) . . . .
C2C N3C C4C O1C -179.9(3) . . . .
C9C N3C C4C O1C -3.1(5) . . . .
C2C N3C C4C C5C 1.2(5) . . . .
C9C N3C C4C C5C 178.0(3) . . . .
C2C N3C C4C Eu 147.2(3) . . . .
C9C N3C C4C Eu -36.0(4) . . . .
O1C C4C C5C C6C -177.3(3) . . . .
N3C C4C C5C C6C 1.6(5) . . . .
Eu C4C C5C C6C -147.5(3) . . . .
Eu O2C C6C C5C -33.7(9) 2_575 . . .
Eu O2C C6C N1C 146.6(5) 2_575 . . .
C4C C5C C6C O2C 176.4(3) . . . .
C4C C5C C6C N1C -3.9(5) . . . .
C2C N1C C6C O2C -176.6(3) . . . .
C7C N1C C6C O2C 3.9(5) . . . .
C2C N1C C6C C5C 3.7(5) . . . .
C7C N1C C6C C5C -175.8(3) . . . .
C6C N1C C7C C8C -91.9(4) . . . .
C2C N1C C7C C8C 88.5(4) . . . .
C2C N3C C9C C10C 90.3(5) . . . .
C4C N3C C9C C10C -86.6(5) . . . .

_cod_database_fobs_code 1543032
