#------------------------------------------------------------------------------
#$Date: 2016-07-08 04:11:56 +0300 (Fri, 08 Jul 2016) $
#$Revision: 184297 $
#$URL: file:///home/coder/svn-repositories/cod/cif/1/54/36/1543624.cif $
#------------------------------------------------------------------------------
#
# This file is available in the Crystallography Open Database (COD),
# http://www.crystallography.net/. The original data for this entry
# were provided by IUCr Journals, http://journals.iucr.org/.
#
# The file may be used within the scientific community so long as
# proper attribution is given to the journal article from which the
# data were obtained.
#
data_1543624
loop_
_publ_author_name
'Saravanan, K.'
'Archana, K.'
'Lakshmithendral, K.'
'Kabilan, S.'
'Selvanayagam, S.'
_publ_section_title
;
 2-[4-(4-Methoxyphenyl)-1,3-thiazol-2-yl]-2,3-dihydro-1<i>H</i>-isoindole-1,3-dione
;
_journal_coeditor_code           BT4017
_journal_issue                   7
_journal_name_full               IUCrData
_journal_page_first              x161053
_journal_paper_doi               10.1107/S2414314616010531
_journal_volume                  1
_journal_year                    2016
_chemical_formula_iupac          'C18 H12 N2 O3 S'
_chemical_formula_moiety         'C18 H12 N2 O3 S'
_chemical_formula_sum            'C18 H12 N2 O3 S'
_chemical_formula_weight         336.36
_chemical_name_systematic
2-[4-(4-Methoxyphenyl)-1,3-thiazol-2-yl]-2,3-dihydro-1<i>H</i>-isoindole-1,3-dione
_space_group_crystal_system      monoclinic
_space_group_IT_number           14
_space_group_name_Hall           '-P 2ybc'
_space_group_name_H-M_alt        'P 1 21/c 1'
_symmetry_space_group_name_Hall  '-P 2ybc'
_symmetry_space_group_name_H-M   'P 1 21/c 1'
_atom_sites_solution_hydrogens   geom
_audit_creation_method           SHELXL-2014/7
_cell_angle_alpha                90
_cell_angle_beta                 90.368(12)
_cell_angle_gamma                90
_cell_formula_units_Z            4
_cell_length_a                   7.004(9)
_cell_length_b                   14.054(17)
_cell_length_c                   15.275(19)
_cell_measurement_reflns_used    3920
_cell_measurement_temperature    296(2)
_cell_measurement_theta_max      27.2
_cell_measurement_theta_min      3.2
_cell_volume                     1504(3)
_computing_cell_refinement
;
SAINT (Bruker, 2002)
;
_computing_data_collection
;
SMART (Bruker, 2002)
;
_computing_data_reduction
;
SAINT (Bruker, 2002)
;
_computing_molecular_graphics
;
ORTEP-3 for Windows (Farrugia, 2012) and PLATON (Spek, 2009)
;
_computing_publication_material
;
SHELXL2014 (Sheldrick, 2015) and PLATON (Spek, 2009)
;
_computing_structure_refinement
;
SHELXL2014 (Sheldrick, 2015)
;
_computing_structure_solution
;
SHELXS97 (Sheldrick, 2008)
;
_diffrn_ambient_temperature      296(2)
_diffrn_measured_fraction_theta_full 0.980
_diffrn_measured_fraction_theta_max 0.954
_diffrn_measurement_device_type  'Bruker SMART APEX CCD area-detector'
_diffrn_measurement_method       '\w scans'
_diffrn_radiation_source         'fine-focus sealed tube'
_diffrn_radiation_type           MoK\a
_diffrn_radiation_wavelength     0.71073
_diffrn_reflns_av_R_equivalents  0.0571
_diffrn_reflns_limit_h_max       8
_diffrn_reflns_limit_h_min       -8
_diffrn_reflns_limit_k_max       11
_diffrn_reflns_limit_k_min       -18
_diffrn_reflns_limit_l_max       13
_diffrn_reflns_limit_l_min       -19
_diffrn_reflns_number            4938
_diffrn_reflns_theta_full        25.242
_diffrn_reflns_theta_max         27.455
_diffrn_reflns_theta_min         3.036
_exptl_absorpt_coefficient_mu    0.235
_exptl_absorpt_correction_type   none
_exptl_crystal_colour            Yellow
_exptl_crystal_density_diffrn    1.486
_exptl_crystal_density_method    'not measured'
_exptl_crystal_description       Block
_exptl_crystal_F_000             696
_exptl_crystal_size_max          0.22
_exptl_crystal_size_mid          0.20
_exptl_crystal_size_min          0.18
_refine_diff_density_max         0.277
_refine_diff_density_min         -0.381
_refine_ls_extinction_method     none
_refine_ls_goodness_of_fit_ref   1.072
_refine_ls_hydrogen_treatment    constr
_refine_ls_matrix_type           full
_refine_ls_number_parameters     217
_refine_ls_number_reflns         3280
_refine_ls_number_restraints     0
_refine_ls_restrained_S_all      1.072
_refine_ls_R_factor_all          0.1041
_refine_ls_R_factor_gt           0.0655
_refine_ls_shift/su_max          0.000
_refine_ls_shift/su_mean         0.000
_refine_ls_structure_factor_coef Fsqd
_refine_ls_weighting_details
'w=1/[\s^2^(Fo^2^)+(0.1064P)^2^+0.3164P] where P=(Fo^2^+2Fc^2^)/3'
_refine_ls_weighting_scheme      calc
_refine_ls_wR_factor_gt          0.1724
_refine_ls_wR_factor_ref         0.2188
_reflns_number_gt                2012
_reflns_number_total             3280
_reflns_threshold_expression     'I > 2\s(I)'
_cod_data_source_file            bt4017sup1.cif
_cod_data_source_block           I
_cod_database_code               1543624
_shelx_space_group_comment
;
The symmetry employed for this shelxl refinement is uniquely defined
by the following loop, which should always be used as a source of
symmetry information in preference to the above space-group names.
They are only intended as comments.
;
_shelx_hkl_file
;
   0   0  -3  -11.28  119.58   1-0.66877 0.66777-0.74060 0.74060-0.06505-0.07466
   0   0  -4463712.2 1947.39   1-0.65862 0.65732-0.74723 0.74723-0.08860-0.09776
   0   0  -5 -157.69   88.18   1-0.64864 0.64702-0.75281 0.75281-0.11197-0.12099
   0   0  -622715.80  636.85   1-0.63819 0.63624-0.75788 0.75788-0.13534-0.14421
   0   0  -7 -222.20  111.36   1-0.62725 0.62498-0.76246 0.76246-0.15872-0.16743
   0   0  -824212.34  710.84   1-0.61583 0.61324-0.76654 0.76654-0.18210-0.19065
   0   0 -10  179.50  180.52   1-0.58812 0.58628-0.77520 0.77520-0.23060-0.23522
   0   0 -11 -156.58  119.83   1-0.57510 0.57308-0.77766 0.77766-0.25394-0.25846
   0   0 -1211574.08  598.26   1-0.56155 0.55935-0.77959 0.77959-0.27728-0.28170
   0   0 -13  -95.93  149.92   1-0.54747 0.54509-0.78095 0.78095-0.30063-0.30493
   0   0 -14 2294.56  469.15   1-0.53284 0.53027-0.78173 0.78173-0.32398-0.32816
   0   0 -15   55.20  141.49   1-0.51764 0.51489-0.78192 0.78192-0.34733-0.35140
   0   0 -16 5061.27  559.30   1-0.50184 0.49891-0.78149 0.78149-0.37068-0.37462
   0   0 -17  119.42  176.04   1-0.48308 0.48048-0.78192 0.78192-0.39398-0.39715
   0   0 -18  314.76  255.14   1-0.46603 0.46327-0.78017 0.78017-0.41730-0.42036
   0   0 -19   77.27  163.37   1-0.44831 0.44540-0.77772 0.77772-0.44063-0.44357
   0  -1  -291284.32  553.51   1-0.75557 0.75460-0.59622 0.54562 0.27135-0.36450
   0  -1   2108537.8  552.66   1-0.50802 0.50839-0.78173 0.73121-0.36165 0.45482
   0   1  -2108967.0  554.63   1-0.41845 0.41815-0.77225 0.82277-0.47802 0.38495
   0  -1  -3 1573.78  167.53   1-0.73950 0.73810-0.65270 0.60210 0.16465-0.30441
   0   1  -3 1734.56  165.66   1-0.50939 0.50884-0.78177 0.83230-0.35964 0.21989
   0  -1  -465330.89  593.80   1-0.72310 0.72124-0.68444 0.63383 0.09302-0.27937
   0   1  -471051.84  574.17   1-0.54183 0.54110-0.78132 0.83185-0.30974 0.12341
   0  -1  -520408.15  574.09   1-0.70473 0.70305-0.70851 0.65796 0.03691-0.26979
   0   1  -522163.30  597.49   1-0.55454 0.55362-0.78034 0.83087-0.28902 0.05611
   0  -1  -6 3649.38  341.75   1-0.68984 0.68783-0.72391 0.67336-0.00840-0.27103
   0   1  -6 3843.35  346.87   1-0.55809 0.55699-0.77998 0.83050-0.28311 0.00362
   0  -1  -7  576.18  139.66   1-0.67540 0.67306-0.73587 0.68533-0.04799-0.27802
   0   1  -7  692.76  134.51   1-0.55658 0.55529-0.78014 0.83066-0.28564-0.04043
   0  -1  -8   84.39  118.78   1-0.66053 0.65794-0.74608 0.69550-0.08399-0.28876
   0   1  -8   24.46  107.21   1-0.55189 0.55042-0.78059 0.83111-0.29341-0.07924
   0  -1  -9   92.69  104.40   1-0.64630 0.64338-0.75401 0.70343-0.11730-0.30204
   0   1  -9  335.98  152.67   1-0.54499 0.54334-0.78112 0.83165-0.30465-0.11458
   0  -1 -10   49.45  122.78   1-0.63196 0.62872-0.76057 0.71000-0.14877-0.31716
   0   1 -10  -44.08  110.28   1-0.53644 0.53461-0.78159 0.83212-0.31831-0.14750
   0  -1 -11  227.97  154.83   1-0.61743 0.61386-0.76601 0.71543-0.17889-0.33364
   0   1 -11   54.23  123.46   1-0.52657 0.52455-0.78188 0.83241-0.33372-0.17868
   0  -1 -12 3729.24  388.00   1-0.60261 0.59872-0.77045 0.71987-0.20798-0.35114
   0   1 -12 3690.50  390.32   1-0.51558 0.51338-0.78190 0.83242-0.35042-0.20856
   0  -1 -13 4114.18  705.64   1-0.58413 0.58174-0.77602 0.72550-0.23785-0.36771
   0   1 -13 4896.91  783.74   1-0.50361 0.50123-0.78157 0.83209-0.36812-0.23744
   0  -1 -1419356.82  740.46   1-0.56847 0.56591-0.77868 0.72816-0.26547-0.38667
   0   1 -1417829.30  690.20   1-0.48822 0.48607-0.78232 0.83284-0.38677-0.26474
   0  -1 -15 2416.56  400.20   1-0.55239 0.54964-0.78054 0.73002-0.29258-0.40614
   0   1 -15 2414.61  359.34   1-0.47450 0.47220-0.78111 0.83163-0.40582-0.29223
   0  -1 -16  782.24  256.74   1-0.53583 0.53290-0.78162 0.73110-0.31928-0.42603
   0   1 -16  738.92  291.14   1-0.45997 0.45752-0.77940 0.82992-0.42538-0.31921
   0  -1 -17  178.38  181.55   1-0.51876 0.51564-0.78193 0.73140-0.34563-0.44626
   0   1 -17  760.87  366.87   1-0.44465 0.44205-0.77714 0.82765-0.44534-0.34579
   0  -1 -18  694.63  310.42   1-0.50114 0.49784-0.78146 0.73093-0.37170-0.46677
   0   1 -18    1.79  152.78   1-0.42855 0.42578-0.77428 0.82480-0.46564-0.37202
   0  -1 -19  178.15  185.18   1-0.48069 0.47778-0.78171 0.73119-0.39730-0.48690
   0   1 -19   79.79  174.39   1-0.41164 0.40873-0.77079 0.82131-0.48623-0.39797
   0  -2  -144202.74  367.03   1-0.72152 0.72088-0.33515 0.23314 0.60585-0.65266
   0  -2   152273.34  345.36   1 0.15101-0.15079-0.46235 0.36165-0.87374 0.92003
   0  -2  -2  271.10   66.03   1-0.75643 0.75503-0.48459 0.38345 0.43928-0.53187
   0  -2   2  240.08   42.14   1-0.22852 0.22899-0.70832 0.60733-0.66787 0.76073
   0   2  -2  351.18   61.43   1-0.07163 0.07117-0.62318 0.72415-0.77878 0.68596
   0  -2  -3521578.4 2145.84   1-0.75883 0.75738-0.57036 0.46917 0.31441-0.45414
   0   2  -3630450.1 5363.38   1-0.27311 0.27244-0.72572 0.82686-0.63144 0.49200
   0  -2  -460463.42  613.03   1-0.74973 0.74787-0.62237 0.52117 0.22482-0.41118
   0   2  -470683.94  566.85   1-0.37195 0.37106-0.76044 0.86157-0.53233 0.34641
   0  -2  -512807.03  424.99   1-0.73746 0.73513-0.65746 0.55625 0.15454-0.38748
   0   2  -515716.68  454.68   1-0.42289 0.42213-0.77317 0.87420-0.47261 0.23992
   0  -2  -6 2588.52  295.78   1-0.72399 0.72119-0.68303 0.58183 0.09643-0.37596
   0   2  -6 2409.26  241.77   1-0.45039 0.44947-0.77804 0.87907-0.43794 0.15871
   0  -2  -740671.90 1105.49   1-0.70724 0.70490-0.70552 0.60443 0.04514-0.37117
   0   2  -741915.47 1072.47   1-0.46481 0.46373-0.78002 0.88105-0.41894 0.09318
   0  -2  -8  234.16  140.51   1-0.69292 0.69025-0.72100 0.61991 0.00057-0.37316
   0   2  -8  136.80  101.97   1-0.47129 0.47007-0.78077 0.88181-0.41019 0.03789
   0  -2  -9    8.07  109.73   1-0.67843 0.67541-0.73357 0.63248-0.04000-0.37917
   0   2  -9  456.62  188.94   1-0.47259 0.47121-0.78091 0.88195-0.40843-0.01040
   0  -2 -1016623.42  565.22   1-0.66310 0.65986-0.74448 0.64333-0.07773-0.38821
   0   2 -1016605.87  488.15   1-0.47026 0.46873-0.78066 0.88170-0.41159-0.05377
   0  -2 -11 8954.34  693.20   1-0.64813 0.64456-0.75307 0.65192-0.11313-0.39940
   0   2 -11 9040.22  670.15   1-0.46524 0.46356-0.78007 0.88111-0.41835-0.09355
   0  -2 -1210362.90  591.02   1-0.63289 0.62899-0.76019 0.65904-0.14680-0.41233
   0   2 -12 9980.24  524.43   1-0.45813 0.45628-0.77915 0.88019-0.42782-0.13062
   0  -2 -13 1913.14  421.30   1-0.61732 0.61310-0.76604 0.66489-0.17911-0.42662
   0   2 -13  849.70  343.57   1-0.44930 0.44730-0.77787 0.87891-0.43936-0.16562
   0  -2 -14 4033.30  558.85   1-0.60139 0.59685-0.77077 0.66962-0.21032-0.44200
   0   2 -14 3481.58  488.62   1-0.43902 0.43687-0.77619 0.87723-0.45252-0.19900
   0  -2 -15 4252.29  611.19   1-0.58177 0.57902-0.77648 0.67543-0.24209-0.45663
   0   2 -15 3679.61  520.86   1-0.42747 0.42517-0.77407 0.87511-0.46697-0.23108
   0  -2 -16   25.42  142.12   1-0.56487 0.56194-0.77917 0.67813-0.27165-0.47366
   0   2 -16  607.10  285.73   1-0.41478 0.41232-0.77147 0.87251-0.48247-0.26212
   0   2 -17  289.52  206.13   1-0.40101 0.39840-0.76834 0.86938-0.49882-0.29230
   0  -2 -18 1737.83  392.67   1-0.52960 0.52630-0.78182 0.68077-0.32903-0.50945
   0   2 -18 1333.30  261.98   1-0.38745 0.38342-0.76462 0.86576-0.51499-0.32162
   0  -2 -19  116.04  185.36   1-0.51115 0.50767-0.78182 0.68077-0.35703-0.52803
   0   2 -19  435.69  237.06   1-0.37167 0.36743-0.76036 0.86149-0.53263-0.35045
   0  -3   0   47.57   49.01   1-0.60095 0.60095-0.07669-0.07669 0.79559-0.79559
   0  -3   1  705.27  105.68   1-0.40621 0.40672 0.18723-0.34060 0.89438-0.84768
   0  -3  -1  529.15   89.20   1-0.70243 0.70194-0.28143 0.12842 0.65373-0.70055
   0  -3  -2138673.1  868.66   1-0.74443 0.74302-0.41597 0.26427 0.52228-0.61487
   0   3  -2178491.9  884.72   1 0.18124-0.18168-0.43593 0.58698-0.88153 0.78894
   0  -3  -312191.65  393.96   1-0.75841 0.75630-0.50551 0.35381 0.41140-0.55028
   0   3  -316462.85  432.88   1-0.03194 0.03125-0.59724 0.74868-0.80142 0.66218
   0   3  -4163339.5  945.88   1-0.17544 0.17451-0.68196 0.83344-0.71003 0.52432
   0  -3  -522632.21  645.37   1-0.75222 0.74980-0.61306 0.46128 0.24146-0.47434
   0   3  -525963.40  670.40   1-0.26435 0.26319-0.72428 0.87576-0.63681 0.40467
   0  -3  -6 8468.70  399.27   1-0.74196 0.73917-0.64650 0.49469 0.17752-0.45704
   0   3  -610102.02  369.67   1-0.32253 0.32119-0.74472 0.89642-0.58425 0.30538
   0   3  -7 1029.92  187.15   1-0.35677 0.35521-0.75598 0.90768-0.54881 0.22346
   0  -3  -826783.37  802.55   1-0.71480 0.71212-0.69569 0.54406 0.07109-0.44369
   0   3  -829048.73  772.51   1-0.37772 0.37593-0.76204 0.91374-0.52594 0.15411
   0  -3  -9  144.91  125.60   1-0.70122 0.69821-0.71247 0.56084 0.02574-0.44492
   0   3  -9  253.14  144.68   1-0.38919 0.38781-0.76540 0.91696-0.51251 0.09368
   0  -3 -10  792.15  369.86   1-0.68712 0.68377-0.72636 0.57473-0.01615-0.44959
   0   3 -10  204.79  167.05   1-0.39502 0.39348-0.76688 0.91843-0.50581 0.04043
   0  -3 -11  915.66  380.71   1-0.67257 0.66889-0.73795 0.58632-0.05536-0.45695
   0   3 -11  695.65  285.16   1-0.39638 0.39470-0.76722 0.91877-0.50422-0.00768
   0  -3 -1210974.19  612.29   1-0.65696 0.65307-0.74821 0.59649-0.09256-0.46657
   0   3 -1211400.21  590.68   1-0.39436 0.39252-0.76672 0.91827-0.50656-0.05188
   0  -3 -13  691.17  330.11   1-0.64154 0.63732-0.75633 0.60461-0.12797-0.47776
   0   3 -13  -37.41  123.38   1-0.38967 0.38768-0.76553 0.91708-0.51196-0.09301
   0  -3 -14  823.89  492.81   1-0.62569 0.62115-0.76306 0.61134-0.16198-0.49033
   0   3 -14  170.53  161.70   1-0.38371 0.38058-0.76365 0.91535-0.51922-0.13147
   0  -3 -15  294.01  196.61   1-0.60939 0.60452-0.76854 0.61682-0.19486-0.50405
   0   3 -15  345.26  220.89   1-0.37502 0.37166-0.76129 0.91299-0.52894-0.16823
   0  -3 -16 1093.33  450.65   1-0.59262 0.58743-0.77289 0.62116-0.22679-0.51871
   0   3 -16 1156.57  451.23   1-0.36471 0.36114-0.75835 0.91005-0.54025-0.20340
   0  -3 -17  -62.74  167.86   1-0.57205 0.56894-0.77815 0.62658-0.25926-0.53263
   0  -3 -18  506.40  345.72   1-0.55414 0.55084-0.78038 0.62881-0.28969-0.54878
   0   3 -18   99.23  156.11   1-0.33992 0.33590-0.75064 0.90234-0.56654-0.27007
   0  -3 -19   51.53  179.28   1-0.53566 0.53218-0.78163 0.63006-0.31955-0.56551
   0   3 -19  103.60  162.45   1-0.32563 0.32139-0.74581 0.89751-0.58113-0.30196
   0  -4   0146347.2 1072.44   1-0.61596 0.61596-0.10226-0.10226 0.78110-0.78110
   0  -4   1 6055.13  605.27   1-0.48809 0.48836 0.08940-0.29424 0.86820-0.82153
   0  -4  -1 4545.63  385.05   1-0.69362 0.69312-0.25987 0.05586 0.67182-0.71864
   0  -4   2 2381.25  222.47   1-0.31591 0.31693 0.28784-0.49232 0.90407-0.81065
   0  -4  -2 1854.99  200.19   1-0.73457 0.73329-0.37752 0.17349 0.56379-0.65740
   0  -4  -3 3241.94  306.30   1-0.75339 0.75128-0.46214 0.25987 0.46777-0.60666
   0   4  -3 4323.36  360.70   1 0.15950-0.16016-0.45503 0.65642-0.87607 0.73718
   0  -4  -435306.38  913.75   1-0.76011 0.75817-0.52815 0.32578 0.37852-0.56483
   0   4  -443574.34 1034.30   1 0.01123-0.01226-0.56978 0.77123-0.82171 0.63643
   0  -4  -5   51.09   97.49   1-0.75824 0.75582-0.57650 0.37413 0.30447-0.53735
   0   4  -5   92.84   62.77   1-0.10024 0.09909-0.64089 0.84282-0.76105 0.52899
   0   4  -615525.77  484.56   1-0.17893 0.17753-0.68378 0.88576-0.70740 0.42883
   0  -4  -731915.34  890.66   1-0.74271 0.73945-0.64452 0.44211 0.18156-0.50768
   0   4  -737050.06  909.90   1-0.23168 0.23005-0.70978 0.91176-0.66522 0.34023
   0  -4  -8 3104.94  282.75   1-0.73197 0.72824-0.66895 0.46654 0.12928-0.50198
   0   4  -8 3789.38 1302.36   1-0.26759 0.26573-0.72564 0.92762-0.63389 0.26247
   0  -4  -9  443.36  142.24   1-0.71741 0.71440-0.69197 0.48979 0.08055-0.49972
   0   4  -9  882.06  154.11   1-0.29437 0.29236-0.73428 0.93654-0.61169 0.19338
   0  -4 -10  -11.50  133.24   1-0.70444 0.70109-0.70884 0.50666 0.03599-0.50174
   0   4 -10   73.21   95.64   1-0.30965 0.30742-0.74008 0.94234-0.59698 0.13219
   0  -4 -11  399.65  257.00   1-0.69075 0.68707-0.72306 0.52088-0.00576-0.50656
   0   4 -11   65.01  113.55   1-0.31859 0.31613-0.74332 0.94559-0.58818 0.07691
   0  -4 -1230775.70 1116.22   1-0.67645 0.67243-0.73509 0.53291-0.04525-0.51364
   0   4 -1233150.78 1130.52   1-0.32269 0.32001-0.74478 0.94704-0.58409 0.02634
   0  -4 -13    4.95  178.95   1-0.66095 0.65673-0.74582 0.54352-0.08297-0.52275
   0   4 -13  107.12  135.52   1-0.32301 0.32010-0.74489 0.94716-0.58377-0.02045
   0  -4 -14 5546.44  494.26   1-0.64550 0.64096-0.75441 0.55211-0.11909-0.53322
   0   4 -14 5382.75  411.91   1-0.32028 0.31715-0.74393 0.94619-0.58649-0.06420
   0  -4 -15 3156.48  442.82   1-0.62953 0.62466-0.76157 0.55927-0.15394-0.54497
   0   4 -15 2749.48  361.07   1-0.31503 0.31168-0.74204 0.94431-0.59170-0.10547
   0  -4 -16  282.48  209.96   1-0.61302 0.60783-0.76744 0.56514-0.18770-0.55780
   0   4 -16  518.07  256.06   1-0.30764 0.30406-0.73933 0.94159-0.59895-0.14470
   0  -4 -17   82.34  162.58   1-0.59596 0.59045-0.77212 0.56982-0.22056-0.57154
   0   4 -17  197.50  201.96   1-0.29836 0.29456-0.73582 0.93809-0.60789-0.18224
   0  -4 -18  643.77  353.97   1-0.57512 0.57182-0.77766 0.57557-0.25390-0.58458
   0   4 -18  609.88  281.99   1-0.28741 0.28339-0.73154 0.93381-0.61824-0.21837
   0  -4 -19  697.50  364.16   1-0.55679 0.55331-0.78012 0.57802-0.28528-0.59977
   0   4 -19   32.90  146.89   1-0.27492 0.27068-0.72648 0.92874-0.62979-0.25330
   0  -5   0  -11.42   69.99   1-0.63036 0.63036-0.12783-0.12783 0.76570-0.76570
   0  -5   1  358.39   92.18   1-0.53743 0.53770 0.02079-0.27685 0.84305-0.79638
   0  -5  -1   81.00   97.10   1-0.69139 0.69089-0.25460-0.00041 0.67613-0.72295
   0  -5   2189678.7 1518.36   1-0.41243 0.41346 0.17985-0.43545 0.89305-0.79964
   0  -5  -2149165.2 1062.96   1-0.72822 0.72694-0.35597 0.10092 0.58563-0.67923
   0  -5  -3 2199.67  236.53   1-0.74832 0.74620-0.43391 0.18108 0.50172-0.64061
   0  -5  -4 4276.27  405.47   1-0.75765 0.75483-0.49626 0.24342 0.42389-0.60907
   0   5  -4 5694.87  475.04   1 0.16436-0.16525-0.45080 0.70255-0.87735 0.69217
   0   5  -5  413.56  106.28   1 0.05176-0.05305-0.53998 0.79179-0.84007 0.60847
   0  -5  -6 2307.99  245.93   1-0.75686 0.75396-0.58780 0.33484 0.28571-0.56517
   0   5  -6 3314.63  201.27   1-0.03770 0.03633-0.60111 0.85351-0.79827 0.51980
   0  -5  -7 1950.36  210.45   1-0.75016 0.74690-0.62075 0.36773 0.22787-0.55399
   0   5  -7 2560.35  201.72   1-0.10308 0.10147-0.64261 0.89501-0.75922 0.43434
   0  -5  -815069.00  690.79   1-0.74147 0.73775-0.64777 0.39476 0.17490-0.54761
   0   5  -815957.30  642.18   1-0.15339 0.15153-0.67009 0.92256-0.72625 0.35483
   0  -5  -9 2680.78  345.00   1-0.73118 0.72699-0.67046 0.41744 0.12587-0.54517
   0   5  -9 2926.77  315.31   1-0.18819 0.18610-0.68857 0.94105-0.70031 0.28246
   0  -5 -10   30.18  154.66   1-0.71710 0.71376-0.69242 0.43970 0.07941-0.54516
   0   5 -10   89.67   97.06   1-0.21279 0.21047-0.70083 0.95331-0.68083 0.21656
   0  -5 -11 -222.82  159.91   1-0.70450 0.70082-0.70877 0.45605 0.03618-0.54850
   0   5 -11   49.91  102.50   1-0.22955 0.22699-0.70879 0.96126-0.66701 0.15631
   0  -5 -12 3723.68  673.69   1-0.69108 0.68706-0.72275 0.47003-0.00481-0.55407
   0   5 -12 1987.53  388.83   1-0.24020 0.23741-0.71368 0.96615-0.65799 0.10086
   0  -5 -13 1668.45  343.23   1-0.67694 0.67258-0.73472 0.48200-0.04395-0.56151
   0   5 -13 1859.85  303.61   1-0.24600 0.24298-0.71629 0.96876-0.65299 0.04943
   0  -5 -14 2256.25  459.72   1-0.66151 0.65697-0.74547 0.49260-0.08160-0.57071
   0   5 -14 2199.20  359.68   1-0.24789 0.24464-0.71713 0.96961-0.65135 0.00136
   0  -5 -15  116.76  190.99   1-0.64604 0.64118-0.75413 0.50126-0.11787-0.58104
   0   5 -15    8.65  117.45   1-0.24655 0.24307-0.71654 0.96901-0.65251-0.04389
   0  -5 -16  508.57  306.15   1-0.62996 0.62478-0.76139 0.50852-0.15301-0.59249
   0   5 -16  179.48  161.42   1-0.24248 0.23876-0.71471 0.96718-0.65603-0.08680
   0  -5 -17  220.92  184.32   1-0.61328 0.60776-0.76736 0.51449-0.18719-0.60491
   0   5 -17  384.59  228.93   1-0.23604 0.23209-0.71179 0.96426-0.66153-0.12773
   0  -5 -18   42.09  200.93   1-0.59597 0.59014-0.77211 0.51924-0.22055-0.61815
   0   5 -18  659.74  273.04   1-0.22753 0.22335-0.70785 0.96032-0.66870-0.16699
   0  -5 -19 -183.11  210.62   1-0.57486 0.57138-0.77770 0.52508-0.25435-0.63071
   0  -6   0145849.8 1467.74   1-0.64414 0.64414-0.15339-0.15339 0.74936-0.74936
   0  -6   1151548.1 1310.26   1-0.57373 0.57413-0.03272-0.27407 0.81838-0.77152
   0  -6  -1135360.1 1049.40   1-0.69301 0.69252-0.25844-0.04758 0.67300-0.71982
   0  -6   285815.50  987.63   1-0.48338 0.48392 0.09565-0.40291 0.87016-0.77683
   0  -6  -266118.00  749.09   1-0.72518 0.72390-0.34631 0.04026 0.59511-0.68872
   0  -6  -383300.24  884.72   1-0.74464 0.74253-0.41690 0.11350 0.52123-0.66012
   0  -6  -422718.80  741.68   1-0.75538 0.75256-0.47604 0.17264 0.45029-0.63547
   0  -6  -5 2552.35  276.16   1-0.76008 0.75766-0.52686 0.22331 0.38037-0.61325
   0   6  -5 3652.93  213.39   1 0.18206-0.18316-0.43521 0.73730-0.88172 0.65025
   0  -6  -625951.49  780.26   1-0.75909 0.75618-0.56722 0.26366 0.31942-0.59887
   0   6  -631263.54  793.73   1 0.09274-0.09428-0.50816 0.81034-0.85624 0.57832
   0  -6  -7 4119.69  329.97   1-0.75472 0.75134-0.60098 0.29743 0.26305-0.58908
   0   6  -7 5173.10  304.57   1 0.02200-0.02379-0.56203 0.86420-0.82682 0.50257
   0  -6  -811675.74  492.80   1-0.74760 0.74388-0.62988 0.32626 0.21055-0.58325
   0   6  -814273.24  418.04   1-0.03671 0.03488-0.60044 0.90332-0.79882 0.42752
   0  -6  -910969.69  536.77   1-0.73887 0.73468-0.65419 0.35058 0.16150-0.58079
   0   6  -911941.06  416.64   1-0.07976 0.07770-0.62830 0.93118-0.77386 0.35616
   0  -6 -1019237.80  783.31   1-0.72869 0.72403-0.67506 0.37144 0.11532-0.58120
   0   6 -1022019.81  766.70   1-0.11222 0.10993-0.64806 0.95094-0.75326 0.28915
   0  -6 -11 2306.00  309.09   1-0.71478 0.71110-0.69572 0.39246 0.07103-0.58335
   0   6 -11 2473.29  246.23   1-0.13609 0.13358-0.66190 0.96478-0.73713 0.22660
   0  -6 -12 5592.69  898.52   1-0.70233 0.69831-0.71124 0.40798 0.02923-0.58813
   0   6 -12 6581.37  995.93   1-0.15504 0.15225-0.67100 0.97397-0.72506 0.16793
   0  -6 -13 1221.97  360.47   1-0.68901 0.68466-0.72466 0.42140-0.01078-0.59469
   0   6 -13  285.29  185.41   1-0.16627 0.16325-0.67708 0.98005-0.71687 0.11331
   0  -6 -14 4258.41  499.00   1-0.67491 0.67022-0.73624 0.43298-0.04928-0.60275
   0   6 -14 4470.52  459.51   1-0.17285 0.16960-0.68059 0.98356-0.71197 0.06199
   0  -6 -15   81.97  206.86   1-0.65947 0.65460-0.74672 0.44328-0.08655-0.61236
   0   6 -15   93.39  137.41   1-0.17556 0.17208-0.68202 0.98498-0.70994 0.01352
   0  -6 -16 2740.45  480.87   1-0.64392 0.63873-0.75519 0.45175-0.12266-0.62284
   0   6 -16 2529.25  406.39   1-0.17499 0.17127-0.68172 0.98468-0.71037-0.03246
   0  -6 -17  666.72  353.82   1-0.62769 0.62218-0.76229 0.45885-0.15780-0.63430
   0   6 -17  727.08  318.51   1-0.17158 0.16763-0.67992 0.98288-0.71292-0.07634
   0  -6 -18  272.42  309.64   1-0.61079 0.60496-0.76812 0.46468-0.19210-0.64659
   0  -7   0  345.88  179.27   1-0.65594 0.65594-0.17851-0.17851 0.73339-0.73339
   0  -7   145711.29  847.74   1-0.60214 0.60254-0.07869-0.27923 0.79449-0.74763
   0  -7  -140150.15  709.10   1-0.69694 0.69644-0.26785-0.08917 0.66522-0.71204
   0  -7   2170088.0 1587.94   1-0.53240 0.53294 0.02807-0.38655 0.84602-0.75269
   0  -7  -2144682.2 1224.00   1-0.72464 0.72336-0.34464-0.01242 0.59674-0.69035
   0  -7   362181.58 1498.42   1-0.44682 0.44835 0.13784-0.49569 0.88394-0.74381
   0  -7  -347913.35 1189.09   1-0.74297 0.74105-0.41013 0.05306 0.52894-0.66934
   0  -7   4   59.54   44.30   1-0.35932 0.36137 0.24094-0.59879 0.90157-0.71474
   0  -7  -4  -55.42  107.88   1-0.75358 0.75076-0.46336 0.10939 0.46626-0.65145
   0  -7  -536458.95  998.31   1-0.75873 0.75520-0.51007 0.15610 0.40514-0.63662
   0  -7  -6  -16.84  130.33   1-0.75995 0.75705-0.55195 0.19780 0.34323-0.62268
   0   7  -6  134.39   85.93   1 0.20698-0.20830-0.41265 0.76509-0.88706 0.60929
   0  -7  -7 7144.84  581.47   1-0.75712 0.75373-0.58590 0.23175 0.28892-0.61495
   0   7  -7 8720.20  605.92   1 0.13740-0.13894-0.47392 0.82636-0.86977 0.54571
   0  -7  -8 4196.70  439.29   1-0.75148 0.74776-0.61543 0.26121 0.23771-0.61042
   0   7  -8 5802.78  463.35   1 0.07553-0.07758-0.52174 0.87427-0.84975 0.47918
   0  -7  -9  922.71  198.06   1-0.74410 0.73991-0.64065 0.28644 0.18937-0.60866
   0   7  -9 1477.55  226.95   1 0.02766-0.02997-0.55790 0.91043-0.82944 0.41255
   0  -7 -10 1324.80  281.47   1-0.73512 0.73047-0.66256 0.30835 0.14348-0.60936
   0   7 -10 1825.59  218.69   1-0.01304 0.01075-0.58433 0.93769-0.81140 0.34729
   0   7 -11  276.91  168.21   1-0.04250 0.03998-0.60430 0.95766-0.79561 0.28508
   0  -7 -12 2303.78  450.70   1-0.71088 0.70687-0.70095 0.34715 0.05739-0.61629
   0   7 -12 1944.83  341.43   1-0.06475 0.06200-0.61880 0.97216-0.78286 0.22592
   0  -7 -13   79.78  188.83   1-0.69840 0.69404-0.71550 0.36169 0.01699-0.62247
   0   7 -13  441.19  295.36   1-0.08091 0.07794-0.62902 0.98239-0.77315 0.16980
   0  -7 -14   41.11  208.20   1-0.68503 0.68035-0.72817 0.37436-0.02199-0.63005
   0   7 -14  -88.37  127.07   1-0.09194 0.08874-0.63585 0.98921-0.76631 0.11655
   0  -7 -15 3725.77  598.82   1-0.67086 0.66584-0.73916 0.38536-0.05975-0.63886
   0   7 -15 3890.00  425.43   1-0.09861 0.09518-0.63991 0.99327-0.76209 0.06591
   0  -7 -16  328.60  335.24   1-0.65529 0.65010-0.74917 0.39516-0.09651-0.64900
   0   7 -16  174.17  147.45   1-0.10153 0.09787-0.64168 0.99504-0.76022 0.01763
   0  -7 -17  650.33  294.25   1-0.63958 0.63406-0.75725 0.40323-0.13229-0.65981
   0  -7 -18  -74.01  215.53   1-0.62314 0.61730-0.76401 0.40999-0.16726-0.67144
   0  -8   0197949.8 4158.35   1-0.66848 0.66848-0.20401-0.20401 0.71519-0.71519
   0  -8   181560.83 1945.02   1-0.62575 0.62615-0.11952-0.28953 0.77080-0.72394
   0  -8  -178356.34 1797.73   1-0.70223 0.70173-0.28091-0.12711 0.65418-0.70100
   0  -8   2 4259.19  537.73   1-0.57096 0.57177-0.02840-0.38065 0.82048-0.72675
   0  -8  -2 2850.54  225.32   1-0.72588 0.72460-0.34851-0.05956 0.59297-0.68658
   0  -8   315988.33  700.88   1-0.50687 0.50768 0.06398-0.47367 0.85964-0.71964
   0  -8  -313565.00  596.79   1-0.74238 0.74046-0.40763-0.00043 0.53169-0.67209
   0  -8   4  810.57  168.72   1-0.43178 0.43382 0.15647-0.56544 0.88830-0.70147
   0  -8  -4  415.82  125.33   1-0.75251 0.74969-0.45665 0.05210 0.47454-0.65973
   0  -8   515882.23  679.76   1-0.35888 0.36144 0.24143-0.65040 0.90161-0.66807
   0  -8  -512216.77  602.80   1-0.75805 0.75453-0.50089 0.09635 0.41767-0.64914
   0  -8  -6 1240.23  463.53   1-0.76019 0.75729-0.54138 0.13664 0.35916-0.63861
   0  -8  -7 2330.84  308.10   1-0.75842 0.75503-0.57481 0.17007 0.30721-0.63324
   0  -8  -814074.39  681.07   1-0.75415 0.75028-0.60398 0.19924 0.25776-0.63037
   0   8  -817099.45  630.05   1 0.17929-0.18105-0.43767 0.84046-0.88107 0.51072
   0  -8  -9 5727.24  448.43   1-0.74760 0.74341-0.62989 0.22507 0.21053-0.62982
   0   8  -9 6998.70  341.92   1 0.13027-0.13226-0.47990 0.88269-0.86759 0.45094
   0  -8 -10 4706.36  785.92   1-0.73965 0.73499-0.65235 0.24752 0.16539-0.63127
   0   8 -10 3639.83  582.09   1 0.08620-0.08876-0.51336 0.91626-0.85382 0.39062
   0  -8 -11   80.47  183.42   1-0.73030 0.72518-0.67212 0.26730 0.12208-0.63455
   0   8 -11    9.01   99.10   1 0.05299-0.05582-0.53905 0.94195-0.84059 0.33107
   0  -8 -12 8757.95  579.97   1-0.71731 0.71329-0.69212 0.28777 0.08016-0.63905
   0   8 -12 8733.29  453.73   1 0.02669-0.02977-0.55861 0.96151-0.82899 0.27314
   0  -8 -13  346.22  209.05   1-0.70561 0.70126-0.70748 0.30313 0.03977-0.64524
   0   8 -13  -45.22  122.34   1 0.00648-0.00981-0.57317 0.97606-0.81940 0.21723
   0  -8 -14 1300.31  368.93   1-0.69295 0.68827-0.72097 0.31662 0.00066-0.65270
   0   8 -14  733.28  304.14   1-0.01082 0.00761-0.58279 0.98663-0.81255 0.16278
   0  -8 -15 3693.38  580.02   1-0.67942 0.67440-0.73279 0.32844-0.03733-0.66128
   0   8 -15 4281.36  387.84   1-0.02100 0.01756-0.58981 0.99365-0.80726 0.11109
   0  -8 -16 1059.67  405.54   1-0.66446 0.65927-0.74360 0.33901-0.07438-0.67113
   0  -8 -17  628.08  325.52   1-0.64927 0.64375-0.75248 0.34788-0.11053-0.68157
   0  -9   0   43.71  123.38   1-0.68036 0.68036-0.22951-0.22951 0.69600-0.69600
   0  -9   1 2733.33  420.64   1-0.64448 0.64497-0.15625-0.30277 0.74848-0.70166
   0  -9  -1 1907.36  194.58   1-0.70762 0.70698-0.29633-0.16275 0.64144-0.68824
   0  -9   2  546.48  121.54   1-0.60227 0.60308-0.07891-0.38128 0.79437-0.70064
   0  -9  -2  169.16  115.39   1-0.72835 0.72707-0.35637-0.10270 0.58523-0.67883
   0  -9   3  112.11   99.42   1-0.55101 0.55182 0.00079-0.46169 0.83449-0.69449
   0  -9  -3  -19.04  116.60   1-0.74289 0.74097-0.40979-0.04929 0.52931-0.66972
   0  -9   450697.08  873.98   1-0.49428 0.49536 0.08111-0.54201 0.86550-0.67884
   0  -9  -440269.54  808.52   1-0.75217 0.74936-0.45466-0.00044 0.47698-0.66216
   0  -9   535070.42  884.33   1-0.42929 0.43185 0.15951-0.61960 0.88896-0.65542
   0  -9  -528371.46  719.52   1-0.75764 0.75412-0.49620 0.04110 0.42396-0.65544
   0  -9   6 1102.12  403.46   1-0.36853 0.37160 0.23065-0.69075 0.90054-0.62029
   0  -9  -6  190.32  167.37   1-0.76020 0.75730-0.53489 0.07956 0.36874-0.64819
   0  -9   7 8804.68  451.12   1-0.31018 0.31376 0.29384-0.75393 0.90412-0.57717
   0  -9  -7 7089.12  473.91   1-0.75908 0.75569-0.56733 0.11200 0.31924-0.64527
   0  -9  -8 1845.18  253.52   1-0.75560 0.75172-0.59603 0.14069 0.27168-0.64428
   0  -9  -9  477.82  261.75   1-0.74988 0.74569-0.62181 0.16638 0.22588-0.64517
   0  -9 -10 9747.92  576.32   1-0.74275 0.73809-0.64440 0.18898 0.18180-0.64768
   0   9 -1012098.40  509.30   1 0.18059-0.18279-0.43651 0.88965-0.88138 0.41844
   0  -9 -11  381.47  271.25   1-0.73420 0.72908-0.66449 0.20907 0.13924-0.65171
   0   9 -11  355.94  241.60   1 0.14585-0.14828-0.46676 0.91990-0.87227 0.36303
   0  -9 -12  713.51  385.13   1-0.72440 0.71882-0.68236 0.22694 0.09805-0.65711
   0   9 -12   70.57  126.94   1 0.11405-0.11713-0.49094 0.94419-0.86369 0.30784
   0  -9 -13   59.93  212.78   1-0.71105 0.70669-0.70074 0.24585 0.05795-0.66342
   0   9 -13  759.44  308.42   1 0.09112-0.09446-0.50945 0.96271-0.85565 0.25348
   0  -9 -14 8076.31  774.98   1-0.69905 0.69436-0.71481 0.25992 0.01899-0.67104
   0   9 -14 6654.16  557.04   1 0.07337-0.07696-0.52342 0.97668-0.84890 0.20041
   0  -9 -15  148.82  222.59   1-0.68612 0.68109-0.72723 0.27234-0.01896-0.67965
   0  -9 -16 4683.25  634.56   1-0.67231 0.66695-0.73814 0.28324-0.05603-0.68915
   0  -9 -17  -67.96  209.40   1-0.65705 0.65153-0.74816 0.29300-0.09236-0.69974
   0 -10   013626.96  529.60   1-0.69156 0.69156-0.25501-0.25501 0.67579-0.67579
   0 -10   1 7376.32  558.03   1-0.66232 0.66281-0.19131-0.31872 0.72438-0.67756
   0 -10  -1 6789.63  542.88   1-0.71407 0.71343-0.31371-0.19637 0.62584-0.67264
   0 -10   2  117.24   99.42   1-0.62853 0.62934-0.12452-0.38680 0.76775-0.67402
   0 -10  -2  202.02  159.29   1-0.73161 0.73032-0.36719-0.14289 0.57437-0.66798
   0 -10   340350.74 1080.89   1-0.58734 0.58856-0.05436-0.45696 0.80750-0.66691
   0 -10  -333141.66  741.99   1-0.74377 0.74165-0.41313-0.09254 0.52547-0.66436
   0 -10  -4  334.43  197.89   1-0.75247 0.74965-0.45643-0.04923 0.47480-0.65999
   0 -10   5   91.61   90.21   1-0.49190 0.49325 0.08430-0.59642 0.86655-0.63322
   0 -10  -5  -99.37  136.95   1-0.75755 0.75403-0.49522-0.01044 0.42527-0.65675
   0 -10   6  615.23  234.21   1-0.43601 0.43908 0.15127-0.66248 0.88713-0.60689
   0 -10  -6  765.55  212.62   1-0.76017 0.75727-0.53188 0.02596 0.37312-0.65258
   0 -10   7 5018.93  929.90   1-0.38532 0.38891 0.21157-0.72278 0.89819-0.57124
   0 -10  -7 3576.03  618.50   1-0.75939 0.75600-0.56304 0.05711 0.32603-0.65206
   0 -10   8 6576.44 1232.95   1-0.33700 0.34109 0.26538-0.77659 0.90332-0.52966
   0 -10  -8 7880.86  602.67   1-0.75641 0.75254-0.59092 0.08500 0.28043-0.65303
   0 -10  -9 7209.18  478.14   1-0.75129 0.74710-0.61625 0.11022 0.23621-0.65550
   0 -10 -10 2626.63  491.82   1-0.74479 0.74014-0.63866 0.13263 0.19335-0.65924
   0 -10 -1119972.09 1261.38   1-0.73688 0.73176-0.65876 0.15273 0.15175-0.66422
   0 -10 -12  215.34  228.65   1-0.72771 0.72213-0.67678 0.17076 0.11129-0.67034
   0  10 -12   36.52  113.85   1 0.20098-0.20363-0.41814 0.92163-0.88586 0.33033
   0 -10 -13 4097.62  546.19   1-0.71503 0.71068-0.69537 0.18994 0.07191-0.67738
   0 -10 -14  307.62  300.58   1-0.70361 0.69892-0.70979 0.20436 0.03332-0.68537
   0 -10 -15 2667.76  497.20   1-0.69122 0.68620-0.72262 0.21718-0.00439-0.69422
   0 -10 -16  766.57  242.83   1-0.67793 0.67257-0.73396 0.22852-0.04133-0.70386
   0 -11   0   -3.03  144.71   1-0.70207 0.70207-0.28052-0.28052 0.65452-0.65452
   0 -11   1 1101.22  214.34   1-0.67816 0.67865-0.22467-0.33636 0.69972-0.65290
   0 -11  -1 1126.68  213.69   1-0.72061 0.71997-0.33243-0.22867 0.60844-0.65524
   0 -11   224555.23  884.97   1-0.64935 0.65034-0.16559-0.39544 0.74223-0.64859
   0 -11  -221271.87  808.28   1-0.73533 0.73405-0.38026-0.18084 0.56096-0.65456
   0 -11   3  803.86  316.14   1-0.61773 0.61894-0.10534-0.45711 0.77930-0.63871
   0 -11  -3  777.11  229.15   1-0.74568 0.74356-0.42148-0.13476 0.51605-0.65494
   0 -11   4 3591.17  518.01   1-0.58031 0.58193-0.04310-0.51935 0.81324-0.62579
   0 -11  -4 2211.39  254.77   1-0.75325 0.75043-0.46124-0.09500 0.46890-0.65408
   0 -11   5  184.18  134.46   1-0.53982 0.54118 0.01730-0.58062 0.84159-0.60826
   0 -11  -5  996.13  480.45   1-0.75774 0.75422-0.49731-0.05892 0.42249-0.65396
   0 -11   6 4909.62  861.07   1-0.49748 0.49910 0.07679-0.64011 0.86406-0.58407
   0 -11  -6 6474.58  508.50   1-0.76017 0.75727-0.53185-0.02466 0.37317-0.65263
   0 -11   7 3257.71  605.96   1-0.44961 0.45320 0.13433-0.69667 0.88306-0.55611
   0 -11  -7 2506.57  483.90   1-0.75949 0.75610-0.56153 0.00501 0.32840-0.65443
   0 -11   8 1333.86  239.45   1-0.40739 0.41149 0.18584-0.74817 0.89414-0.52048
   0 -11  -8 1004.05  293.76   1-0.75678 0.75291-0.58838 0.03186 0.28474-0.65734
   0 -11   9 1325.52  252.32   1-0.36736 0.37197 0.23197-0.79431 0.90068-0.48031
   0 -11  -9  389.43  275.81   1-0.75231 0.74796-0.61267 0.05615 0.24217-0.66136
   0 -11  10 8874.32 1253.38   1-0.33047 0.33560 0.27239-0.83472 0.90365-0.43657
   0 -11 -10 9980.45  796.08   1-0.74601 0.74136-0.63498 0.07835 0.20063-0.66651
   0 -11 -11 1625.76  366.26   1-0.73859 0.73347-0.65485 0.09822 0.16010-0.67257
   0 -11 -12 7051.95  693.39   1-0.72993 0.72434-0.67280 0.11617 0.12051-0.67957
   0 -11 -13   54.86  185.06   1-0.71781 0.71346-0.69138 0.13540 0.08201-0.68748
   0 -11 -14  829.92  476.38   1-0.70688 0.70220-0.70595 0.14997 0.04395-0.69600
   0 -11 -15  677.93  332.26   1-0.69497 0.68995-0.71900 0.16302 0.00663-0.70525
   0 -12  -1 9209.80  543.59   1-0.72703 0.72639-0.35215-0.25996 0.58941-0.63621
   0 -12   211632.63  528.53   1-0.66893 0.66992-0.20495-0.40709 0.71451-0.62086
   0 -12  -211743.14  585.56   1-0.73927 0.73799-0.39506-0.21705 0.54533-0.63894
   0 -12   313731.94 1334.88   1-0.64178 0.64327-0.15115-0.46088 0.75183-0.61137
   0 -12  -313358.10  626.37   1-0.74793 0.74582-0.43203-0.17477 0.50391-0.64280
   0 -12   4  164.02  111.56   1-0.61326 0.61488-0.09759-0.51600 0.78382-0.59637
   0 -12  -4   29.40  194.96   1-0.75434 0.75152-0.46849-0.13831 0.45985-0.64503
   0 -12   5 3182.41  587.79   1-0.58015 0.58217-0.04284-0.57074 0.81338-0.57906
   0 -12  -5 2500.19  476.60   1-0.75814 0.75461-0.50194-0.10486 0.41625-0.64772
   0 -12   6   49.14   76.82   1-0.54519 0.54681 0.00943-0.62396 0.83825-0.55826
   0 -12  -6    2.63  162.17   1-0.76020 0.75730-0.53434-0.07276 0.36954-0.64900
   0 -12   741684.46 1061.79   1-0.50928 0.51118 0.06065-0.67519 0.85845-0.53179
   0 -12  -738183.0311905.17   1-0.75943 0.75604-0.56245-0.04465 0.32696-0.65299
   0 -12   8   79.56   80.40   1-0.47346 0.47562 0.10866-0.72319 0.87408-0.50075
   0 -12   9 4667.96  623.53   1-0.43351 0.43812 0.15434-0.76780 0.88783-0.46746
   0 -12  -9 3713.18  433.45   1-0.75257 0.74822-0.61152 0.00441 0.24425-0.66343
   0 -12  10  594.90  229.12   1-0.40052 0.40565 0.19393-0.80738 0.89552-0.42845
   0 -12 -10  998.69  474.12   1-0.74658 0.74192-0.63321 0.02598 0.20409-0.66997
   0 -12 -11 7011.94  723.05   1-0.73951 0.73439-0.65266 0.04543 0.16472-0.67719
   0 -12 -12  705.08  310.44   1-0.73123 0.72565-0.67036 0.06313 0.12610-0.68515
   0 -12 -13  855.60  432.72   1-0.72183 0.71578-0.68642 0.07919 0.08817-0.69381
   0 -12 -14  190.36  208.91   1-0.70905 0.70436-0.70329 0.09677 0.05116-0.70321
   0 -13   0  -21.46  116.10   1-0.72031 0.72031-0.33156-0.33156 0.60927-0.60927
   0 -13   1  124.47  133.79   1-0.70445 0.70509-0.28811-0.37500 0.64863-0.60183
   0 -13  -1   84.39  158.50   1-0.73319 0.73255-0.37265-0.29047 0.56882-0.61562
   0 -13   212660.82  518.93   1-0.68605 0.68704-0.24227-0.42077 0.68602-0.59238
   0 -13  -211639.19  543.35   1-0.74264 0.74123-0.40837-0.24900 0.53076-0.62335
   0 -13   3  403.11  231.07   1-0.66412 0.66561-0.19499-0.46805 0.72174-0.58128
   0 -13  -3  892.58  228.88   1-0.75035 0.74823-0.44435-0.21302 0.48941-0.62830
   0 -13   4  110.72   91.79   1-0.64131 0.64293-0.14805-0.51667 0.75285-0.56540
   0 -13  -4   16.87  140.45   1-0.75561 0.75279-0.47776-0.17961 0.44809-0.63327
   0 -13   513261.29 1159.43   1-0.61446 0.61648-0.09966-0.56506 0.78262-0.54830
   0 -13  -512358.35  632.79   1-0.75864 0.75511-0.50871-0.14866 0.40702-0.63850
   0 -13   6 5345.53  684.06   1-0.58579 0.58822-0.05185-0.61287 0.80880-0.52761
   0 -13  -6 5341.15  519.55   1-0.76021 0.75730-0.53898-0.11871 0.36271-0.64217
   0 -13   7 8786.47 1184.30   1-0.55599 0.55883-0.00550-0.65922 0.83116-0.50311
   0 -13  -710506.35  801.13   1-0.75922 0.75583-0.56547-0.09222 0.32220-0.64823
   0 -13   8 1337.48  204.49   1-0.52603 0.52820 0.03719-0.70293 0.84965-0.47632
   0 -13  -8  461.38  315.48   1-0.75657 0.75269-0.58985-0.06784 0.28225-0.65485
   0 -13  -9  529.63  352.33   1-0.75240 0.74805-0.61227-0.04543 0.24289-0.66208
   0 -13 -10 2023.27  401.43   1-0.74658 0.74193-0.63319-0.02464 0.20413-0.67001
   0 -13 -11 3341.82  476.17   1-0.73976 0.73464-0.65208-0.00575 0.16596-0.67843
   0 -13 -12  645.41  275.24   1-0.73175 0.72617-0.66936 0.01153 0.12835-0.68741
   0 -13 -13  765.30  340.89   1-0.72265 0.71660-0.68515 0.02731 0.09129-0.69694
   0 -14   0  257.55  211.18   1-0.72856 0.72856-0.35706-0.35706 0.58455-0.58455
   0 -14   1  -53.76  116.24   1-0.71578 0.71642-0.31851-0.39561 0.62144-0.57464
   0 -14   2 1628.06  338.58   1-0.70107 0.70206-0.27802-0.43602 0.65665-0.56300
   0 -14  -2 1848.78  387.60   1-0.74654 0.74513-0.42544-0.28250 0.51152-0.60411
   0 -14   3 4929.93  496.78   1-0.68345 0.68494-0.23640-0.47764 0.69064-0.55018
   0 -14  -3 3034.70  353.11   1-0.75274 0.75063-0.45810-0.24984 0.47276-0.61165
   0 -14   4  -48.05  107.92   1-0.66360 0.66558-0.19392-0.52012 0.72251-0.53522
   0 -14  -4  215.55  222.59   1-0.75689 0.75407-0.48868-0.21925 0.43392-0.61910
   0 -14   5   96.78   80.00   1-0.64177 0.64425-0.15113-0.56291 0.75184-0.51774
   0 -14  -5   45.15  176.80   1-0.75980 0.75738-0.51871-0.18958 0.39196-0.62484
   0 -14   6  669.32  244.92   1-0.62056 0.62299-0.11032-0.60553 0.77635-0.49517
   0 -14  -6  358.61  259.31   1-0.76013 0.75723-0.54546-0.16283 0.35306-0.63252
   0 -14   7  -44.79   85.76   1-0.59628 0.59912-0.06894-0.64691 0.79980-0.47176
   0 -14  -7  159.78  220.77   1-0.75883 0.75545-0.57031-0.13797 0.31448-0.64051
   0 -14  -8  473.81  326.87   1-0.75603 0.75216-0.59336-0.11493 0.27626-0.64887
   0 -14  -9 1187.13  375.87   1-0.75158 0.74739-0.61501-0.09342 0.23848-0.65777
   0 -14 -10 2445.42  360.86   1-0.74609 0.74143-0.63475-0.07368 0.20108-0.66696
   0 -14 -11 2653.03  462.24   1-0.73939 0.73427-0.65296-0.05547 0.16411-0.67658
   0 -14 -12  220.66  225.79   1-0.73157 0.72598-0.66972-0.03871 0.12755-0.68661
   0 -15   1  514.39  255.04   1-0.72582 0.72647-0.34832-0.41681 0.59316-0.54635
   0 -15  -1  734.25  318.91   1-0.74353 0.74283-0.41212-0.34639 0.52660-0.57290
   0 -15   2  330.50  253.79   1-0.71375 0.71503-0.31282-0.45231 0.62665-0.53305
   0 -15  -2  264.21  235.28   1-0.75017 0.74876-0.44339-0.31511 0.49055-0.58314
   0 -15   3 7532.79  629.03   1-0.70021 0.70170-0.27589-0.48916 0.65846-0.51799
   0 -15  -3 6405.00  577.46   1-0.75498 0.75287-0.47302-0.28548 0.45414-0.59302
   0 -15   4  962.45  419.75   1-0.68442 0.68640-0.23857-0.52648 0.68894-0.50166
   0 -15  -4 1235.37  413.37   1-0.75806 0.75524-0.50098-0.25752 0.41754-0.60273
   0 -15   512778.76  903.44   1-0.66702 0.66950-0.20098-0.56407 0.71741-0.48330
   0 -15  -514090.10 4198.38   1-0.76012 0.75770-0.52868-0.23020 0.37776-0.61064
   0 -15  -6 2300.61  416.77   1-0.75989 0.75699-0.55351-0.20537 0.34085-0.62030
   0 -15  -7 5010.00  476.02   1-0.75822 0.75483-0.57674-0.18214 0.30408-0.63011
   0 -15  -8  473.41  338.80   1-0.75519 0.75131-0.59842-0.16046 0.26752-0.64013
   0 -15  -9 1689.66  552.07   1-0.75062 0.74643-0.61893-0.14010 0.23124-0.65054
   0 -15 -10  150.20  209.46   1-0.74510 0.74045-0.63774-0.12129 0.19519-0.66107
   0 -15 -11  213.74  230.57   1-0.73845 0.73333-0.65518-0.10385 0.15941-0.67188
   0 -16   0  111.93  139.88   1-0.74170 0.74170-0.40454-0.40454 0.53499-0.53499
   0 -16   1 1918.44  340.56   1-0.73461 0.73525-0.37767-0.43847 0.56365-0.51684
   0 -16  -1 1945.26  330.85   1-0.74832 0.74761-0.43392-0.37515 0.50171-0.54801
   0 -16   2  641.44  275.69   1-0.72519 0.72647-0.34632-0.46982 0.59510-0.50150
   0 -16  -2  372.92  240.36   1-0.75338 0.75197-0.46207-0.34701 0.46787-0.56046
   0 -16   3 3555.44  347.13   1-0.71426 0.71618-0.31425-0.50189 0.62535-0.48494
   0 -16  -3 3475.37  401.51   1-0.75691 0.75480-0.48892-0.32016 0.43362-0.57250
   0 -16   4 2455.40  372.71   1-0.70193 0.70449-0.28170-0.53444 0.65416-0.46695
   0 -16  -4 1716.23  271.91   1-0.75899 0.75617-0.51443-0.29464 0.39910-0.58428
   0 -16  -5  232.37  200.50   1-0.76020 0.75778-0.53992-0.26955 0.36133-0.59421
   0 -16  -6  207.69  208.07   1-0.75940 0.75649-0.56289-0.24658 0.32627-0.60572
   0 -16  -7 4554.02  609.03   1-0.75730 0.75391-0.58452-0.22495 0.29122-0.61725
   0 -16  -8  380.99  283.38   1-0.75398 0.75011-0.60484-0.20463 0.25624-0.62884
   0 -16  -9 1635.12  418.83   1-0.74924 0.74505-0.62419-0.18545 0.22141-0.64070
   0 -17   0  -84.95  136.11   1-0.74747 0.74747-0.42982-0.42982 0.50648-0.50648
   0 -17   1  233.92  246.60   1-0.74125 0.74196-0.40276-0.45688 0.53695-0.49065
   0 -17  -1  380.75  250.98   1-0.75241 0.75170-0.45605-0.40359 0.47528-0.52157
   0 -17  -2  763.54  289.75   1-0.75605 0.75464-0.48134-0.37830 0.44349-0.53608
   0 -17  -3  373.42  230.10   1-0.75842 0.75631-0.50562-0.35402 0.41125-0.55014
   0 -17  -4 2192.91  470.59   1-0.76014 0.75821-0.52994-0.33013 0.37594-0.56225
   0 -17  -5   81.09  185.89   1-0.75994 0.75752-0.55224-0.30782 0.34278-0.57566
   0 -17  -6  383.19  322.89   1-0.75855 0.75565-0.57343-0.28664 0.30946-0.58891
   0 -17  -7  530.93  316.73   1-0.75601 0.75262-0.59349-0.26657 0.27604-0.60207
   0 -18  -2   40.19  166.23   1-0.75807 0.75666-0.50110-0.40911 0.41739-0.50998
   0 -18  -3 1857.65  455.70   1-0.75999 0.75854-0.52386-0.38680 0.38466-0.52439
   1   0 -19  301.75  214.01   1-0.40591 0.50485-0.76949 0.76949-0.49305-0.39115
   1   0 -18  105.86  179.25   1-0.42132 0.52041-0.77285 0.77285-0.47453-0.36313
   1   0 -17  148.81  169.71   1-0.43589 0.53513-0.77564 0.77564-0.45647-0.33466
   1   0 -16 1298.36  325.89   1-0.44961 0.54901-0.77792 0.77792-0.43895-0.30564
   1   0 -15  306.96  257.80   1-0.46246 0.56201-0.77972 0.77972-0.42208-0.27598
   1   0 -14 3799.32  511.67   1-0.47439 0.57409-0.78110 0.78110-0.40598-0.24553
   1   0 -13  -78.59  154.16   1-0.48533 0.58519-0.78210 0.78210-0.39084-0.21414
   1   0 -1224609.76  934.13   1-0.49742 0.59709-0.78126 0.78126-0.37707-0.18191
   1   0 -11  345.11  256.14   1-0.50605 0.60591-0.78166 0.78166-0.36455-0.14785
   1   0 -1029656.81  706.49   1-0.51327 0.61331-0.78186 0.78186-0.35388-0.11194
   1   0  -9 -209.03  127.30   1-0.51878 0.61900-0.78193 0.78193-0.34561-0.07362
   1   0  -868099.92 1599.87   1-0.52213 0.62253-0.78193 0.78193-0.34053-0.03212
   1   0  -7 1126.65  198.05   1-0.52262 0.62321-0.78192 0.78192-0.33977 0.01369
   1   0  -6  788.17  144.32   1-0.51913 0.61990-0.78193 0.78193-0.34508 0.06559
   1   0  -5   -4.02   82.92   1-0.50966 0.61061-0.78178 0.78178-0.35924 0.12633
   1   0  -489030.71  739.58   1-0.48855 0.58979-0.78235 0.78235-0.38630 0.20015
   1   0  -3   21.84   67.70   1-0.45248 0.55387-0.77835 0.77835-0.43522 0.29561
   1   0  -238467.68  899.22   1-0.38420 0.48518-0.76378 0.76378-0.51867 0.42571
  -1   0   1  129.39   50.10   1-0.32737 0.22617-0.74641 0.74641-0.57938 0.62586
   1   0  -1   79.63   54.60   1-0.24051 0.34171-0.71383 0.71383-0.65772 0.61129
   1   0   1   25.04   14.90   1-0.34601 0.44930 0.25560-0.25560 0.90274-0.85603
  -1   0  -1   15.70   13.87   1-0.45962 0.35642 0.12646-0.12646 0.87906-0.92572
  -1   0  -3   -4.85   68.55   1-0.75487 0.65125-0.47225 0.47225 0.45511-0.59400
  -1   0  -5 -234.16  359.90   1-0.74467 0.64072-0.63902 0.63902 0.19263-0.42557
  -1   0  -6305174.1 1631.55   1-0.72805 0.62364-0.67619 0.67619 0.11268-0.39221
  -1   0  -7 -100.72  117.99   1-0.70774 0.60340-0.70491 0.70491 0.04680-0.37283
  -1   0  -8128229.6 2762.84   1-0.69030 0.58562-0.72348 0.72348-0.00706-0.36553
  -1   0  -9  -12.36  121.36   1-0.67305 0.56804-0.73760 0.73760-0.05412-0.36505
  -1   0 -10 -122.65  109.97   1-0.65499 0.55001-0.74935 0.74935-0.09723-0.36871
  -1   0 -11  180.13  153.46   1-0.63787 0.53257-0.75803 0.75803-0.13604-0.37650
  -1   0 -12 3137.92  328.13   1-0.62068 0.51506-0.76489 0.76489-0.17229-0.38684
  -1   0 -13  658.39  357.21   1-0.60333 0.49739-0.77025 0.77025-0.20660-0.39912
  -1   0 -14 -208.59  124.08   1-0.58227 0.47784-0.77638 0.77638-0.24119-0.41096
  -1   0 -15  137.86  207.08   1-0.56425 0.45963-0.77925 0.77925-0.27271-0.42602
  -1   0 -16  175.24  214.50   1-0.54585 0.44104-0.78106 0.78106-0.30327-0.44204
  -1   0 -18  146.55  168.57   1-0.50768 0.40251-0.78172 0.78172-0.36215-0.47632
  -1   0 -19  316.88  260.01   1-0.48536 0.38059-0.78211 0.78211-0.39080-0.49340
   1  -1 -19  244.53  274.75   1-0.43804 0.53698-0.77602 0.72550-0.45376-0.43045
   1   1 -19  -62.21  169.56   1-0.37156 0.46874-0.76032 0.81089-0.53276-0.35033
   1  -1 -18  302.12  274.84   1-0.45419 0.55328-0.77860 0.72808-0.43299-0.40468
   1   1 -18    2.81  168.61   1-0.38600 0.48340-0.76425 0.81481-0.51663-0.31998
   1  -1 -17  -56.35  158.30   1-0.46962 0.56886-0.78059 0.73007-0.41247-0.37866
   1   1 -17  241.58  196.75   1-0.39800 0.49724-0.76761 0.81813-0.50234-0.28878
   1  -1 -16 1978.45  476.39   1-0.48433 0.58372-0.78202 0.73150-0.39224-0.35235
   1   1 -16 1624.17  353.79   1-0.41041 0.50981-0.77051 0.82103-0.48771-0.25688
   1  -1 -15  536.90  290.65   1-0.50045 0.59957-0.78142 0.73090-0.37271-0.32602
   1   1 -15  169.11  160.46   1-0.42173 0.52128-0.77293 0.82345-0.47403-0.22402
   1  -1 -14  157.54  185.09   1-0.51370 0.61300-0.78187 0.73135-0.35324-0.29891
   1   1 -14  271.52  240.84   1-0.43186 0.53156-0.77491 0.82542-0.46152-0.19000
   1  -1 -13 3655.77  634.34   1-0.52621 0.62570-0.78189 0.73136-0.33428-0.27129
   1   1 -13 3101.00  542.69   1-0.44068 0.54053-0.77648 0.82699-0.45041-0.15456
   1  -1 -12 2064.58  320.34   1-0.53794 0.63761-0.78153 0.73100-0.31594-0.24304
   1   1 -12 1748.73  256.88   1-0.44800 0.54801-0.77767 0.82819-0.44104-0.11740
   1  -1 -1135790.51  842.94   1-0.54885 0.64871-0.78084 0.73032-0.29838-0.21401
   1   1 -1136410.05  794.63   1-0.45356 0.55372-0.77851 0.82902-0.43382-0.07809
   1  -1 -1027787.05  695.03   1-0.55886 0.65890-0.77990 0.72937-0.28182-0.18399
   1   1 -1028133.47  680.96   1-0.45699 0.55731-0.77899 0.82951-0.42931-0.03605
   1  -1  -912309.39  594.79   1-0.56785 0.66808-0.77877 0.72825-0.26654-0.15270
   1   1  -912169.28  566.73   1-0.45777 0.55824-0.77910 0.82962-0.42829 0.00946
   1  -1  -819598.18  648.59   1-0.57566 0.67606-0.77757 0.72705-0.25295-0.11970
   1   1  -820484.68  653.62   1-0.45507 0.55570-0.77872 0.82924-0.43183 0.05953
   1  -1  -719825.46  676.89   1-0.58199 0.68258-0.77644 0.72591-0.24169-0.08438
   1   1  -717493.76  627.85   1-0.44767 0.54844-0.77762 0.82814-0.44146 0.11570
   1  -1  -616199.13  529.36   1-0.58641 0.68718-0.77556 0.72503-0.23371-0.04577
   1   1  -616472.75  531.10   1-0.43356 0.53449-0.77522 0.82574-0.45939 0.18017
   1  -1  -5 5215.84  454.83   1-0.59109 0.69120-0.77322 0.72265-0.22962-0.00334
   1   1  -5 5330.07  458.29   1-0.40943 0.51051-0.77029 0.82081-0.48888 0.25619
   1  -1  -4 1609.68  205.74   1-0.58568 0.68682-0.77571 0.72518-0.23503 0.04870
   1   1  -4 1475.62  172.21   1-0.37042 0.47095-0.76000 0.81057-0.53402 0.34810
   1  -1  -330613.33  758.95   1-0.57604 0.67736-0.77751 0.72698-0.25228 0.11254
   1   1  -330866.88  763.02   1-0.30395 0.40470-0.73795 0.78851-0.60252 0.46309
   1  -1  -244644.28 1030.00   1-0.55184 0.65334-0.78059 0.73007-0.29349 0.20033
   1   1  -243364.74 1008.80   1-0.19109 0.29205-0.69005 0.74055-0.69807 0.60521
  -1   1   1 3557.68  287.75   1-0.57598 0.47430-0.77752 0.82804-0.25238 0.29896
   1  -1  -1 3475.34  281.71   1-0.49030 0.59199-0.78247 0.73195-0.38384 0.33730
   1   1  -1 3464.21  286.32   1-0.00908 0.11031-0.58158 0.63206-0.81343 0.76702
  -1   1   0  318.21   41.45   1-0.44927 0.34742-0.77787 0.82838-0.43939 0.43939
   1  -1   0  263.66   43.21   1-0.30474 0.40617-0.73825 0.68768-0.60175 0.60175
  -1   1  -187588.50  403.85   1-0.36729 0.26400 0.23204-0.18092 0.90069-0.94739
  -1  -1  -180557.00  728.78   1-0.50076 0.39755 0.07233-0.12355 0.86255-0.90922
   1  -1   252430.54  307.40   1-0.64674 0.75028-0.16056 0.10956 0.74561-0.65197
  -1  -1  -252301.75  447.64   1-0.66389 0.56035-0.19453 0.14352 0.72207-0.81572
  -1   1  -247854.45  285.55   1-0.75340 0.65048-0.46219 0.51276 0.46771-0.56030
  -1  -1  -313536.22  389.27   1-0.73442 0.63010-0.37697 0.32596 0.56437-0.70477
   1  -1   313716.94  353.01   1-0.74468 0.84830-0.41705 0.36648 0.52107-0.38218
  -1   1  -314877.81  378.67   1-0.74656 0.64354-0.63327 0.68387 0.20397-0.34374
  -1  -1  -4795077.2 6877.78   1-0.75708 0.65275-0.49047 0.43990 0.43157-0.61676
  -1   1  -4904953.1 7663.62   1-0.71778 0.61444-0.69143 0.74197 0.08190-0.26820
  -1  -1  -585673.71  817.39   1-0.75898 0.65501-0.56860 0.51800 0.31722-0.55010
  -1   1  -596842.05  727.59   1-0.69571 0.59203-0.71826 0.76881 0.00883-0.24170
  -1  -1  -623814.80  673.21   1-0.75027 0.64586-0.62030 0.56970 0.22869-0.50822
  -1   1  -626047.49  688.92   1-0.67664 0.57263-0.73494 0.78548-0.04473-0.23471
  -1  -1  -7 2401.07  323.06   1-0.73762 0.63274-0.65710 0.60649 0.15532-0.48144
  -1   1  -7 2070.74  265.95   1-0.65820 0.55420-0.74748 0.79806-0.08961-0.23655
  -1  -1  -881639.86 1860.99   1-0.72300 0.61766-0.68460 0.63400 0.09262-0.46533
  -1   1  -886374.17 1919.26   1-0.64180 0.53748-0.75621 0.80678-0.12738-0.24537
  -1  -1  -9 3324.00  253.64   1-0.70450 0.59948-0.70878 0.65823 0.03617-0.45534
  -1   1  -9 3823.44  282.49   1-0.62587 0.52122-0.76299 0.81357-0.16161-0.25773
  -1  -1 -10  666.43  345.77   1-0.68818 0.58283-0.72541 0.67487-0.01314-0.45260
  -1   1 -10  312.16  158.47   1-0.61009 0.50512-0.76833 0.81891-0.19348-0.27245
  -1  -1 -11  156.54  139.80   1-0.67149 0.56580-0.73872 0.68818-0.05815-0.45416
  -1   1 -11  374.55  233.71   1-0.59428 0.48898-0.77251 0.82308-0.22371-0.28882
  -1  -1 -12   96.76  140.33   1-0.65359 0.54797-0.75013 0.69956-0.10051-0.45862
  -1   1 -12  -57.01  119.15   1-0.57462 0.47055-0.77774 0.82827-0.25477-0.30421
  -1  -1 -13 1960.00  410.38   1-0.63623 0.53028-0.75875 0.70818-0.13960-0.46612
  -1   1 -13  825.45  373.07   1-0.55826 0.45400-0.77996 0.83048-0.28283-0.32274
  -1  -1 -14  420.17  301.55   1-0.61854 0.51227-0.76563 0.71506-0.17665-0.47567
  -1   1 -14  553.45  325.64   1-0.54154 0.43711-0.78134 0.83186-0.31020-0.34195
  -1  -1 -15  193.13  201.12   1-0.60048 0.49389-0.77100 0.72043-0.21204-0.48687
  -1   1 -15   83.35  124.90   1-0.52441 0.41979-0.78191 0.83243-0.33704-0.36169
  -1  -1 -16   80.20  151.65   1-0.57863 0.47383-0.77706 0.72653-0.24769-0.49762
  -1   1 -16   56.18  144.74   1-0.50679 0.40199-0.78169 0.83221-0.36346-0.38185
  -1  -1 -17  224.12  187.49   1-0.55960 0.45461-0.77981 0.72929-0.28057-0.51132
  -1   1 -17   65.88  151.53   1-0.48604 0.38158-0.78216 0.83268-0.38984-0.40128
  -1  -1 -18 5566.09  576.88   1-0.54009 0.43492-0.78142 0.73090-0.31252-0.52595
  -1   1 -18 4174.35  482.74   1-0.46730 0.36269-0.78032 0.83084-0.41559-0.42208
  -1  -1 -19  568.35  299.91   1-0.52004 0.41468-0.78193 0.73141-0.34370-0.54136
  -1   1 -19   71.40  156.71   1-0.44794 0.34318-0.77766 0.82818-0.44111-0.44310
   1  -2 -19  397.68  383.99   1-0.46665 0.56559-0.78024 0.67920-0.41647-0.46773
   1   2 -19  -89.35  163.28   1-0.33183 0.42901-0.74794 0.84907-0.57485-0.30824
   1  -2 -18  359.05  215.45   1-0.48332 0.58241-0.78194 0.68090-0.39364-0.44402
   1   2 -18  790.14  305.96   1-0.34506 0.44246-0.75231 0.85344-0.56120-0.27541
   1  -2 -17  -19.26  157.18   1-0.50138 0.60013-0.78147 0.68042-0.37136-0.42053
   1   2 -17  255.84  259.85   1-0.35710 0.45472-0.75608 0.85721-0.54846-0.24167
   1  -2 -16   42.09  158.93   1-0.51675 0.61569-0.78191 0.68086-0.34866-0.39665
   1   2 -16    2.78  156.38   1-0.36788 0.46573-0.75927 0.86040-0.53680-0.20685
   1  -2 -15 4950.81  514.90   1-0.53152 0.63064-0.78177 0.68072-0.32604-0.37268
   1   2 -15 4142.42  436.81   1-0.37729 0.47536-0.76192 0.86305-0.52642-0.17076
   1  -2 -14 9232.09  588.22   1-0.54569 0.64499-0.78108 0.68003-0.30353-0.34861
   1   2 -14 7823.70  477.62   1-0.38518 0.48347-0.76403 0.86517-0.51756-0.13313
   1  -2 -13 4001.20  713.20   1-0.55927 0.65876-0.77985 0.67880-0.28114-0.32443
   1   2 -13 3743.13  638.90   1-0.39014 0.48999-0.76565 0.86668-0.51143-0.09355
   1  -2 -12 1073.56  292.19   1-0.57227 0.67194-0.77812 0.67707-0.25889-0.30009
   1   2 -12  836.20  370.39   1-0.39429 0.49430-0.76670 0.86774-0.50664-0.05180
   1  -2 -1124942.50  702.22   1-0.58469 0.68455-0.77591 0.67486-0.23682-0.27557
   1   2 -1125362.51  670.04   1-0.39604 0.49620-0.76713 0.86817-0.50462-0.00728
   1  -2 -1032305.69  747.90   1-0.59962 0.69811-0.77122 0.67007-0.21368-0.25226
   1   2 -1033346.58  728.51   1-0.39480 0.49512-0.76683 0.86786-0.50605 0.04068
   1  -2  -9 9698.67  523.77   1-0.61077 0.70958-0.76813 0.66698-0.19215-0.22719
   1   2  -9 9492.51  518.73   1-0.38979 0.49026-0.76556 0.86659-0.51183 0.09299
   1  -2  -835755.65  972.43   1-0.62130 0.72044-0.76467 0.66352-0.17102-0.20172
   1   2  -837461.46  999.98   1-0.38077 0.48040-0.76286 0.86400-0.52253 0.15070
   1  -2  -637329.33 1003.03   1-0.64035 0.74013-0.75689 0.65574-0.13060-0.14896
   1   2  -638921.42 1010.20   1-0.33767 0.43776-0.74990 0.85103-0.56886 0.28999
   1  -2  -5 7133.15  298.81   1-0.64869 0.74880-0.75278 0.65163-0.11186-0.12110
   1   2  -5 8028.47  315.19   1-0.29775 0.39806-0.73559 0.83672-0.60847 0.37608
   1  -2  -4 2510.00  261.65   1-0.65600 0.75644-0.74877 0.64762-0.09483-0.09154
   1   2  -4 2959.67  275.04   1-0.23557 0.33606-0.71157 0.81256-0.66193 0.47622
   1  -2  -3253846.1 1313.58   1-0.66190 0.76266-0.74523 0.64408-0.08066-0.05912
   1   2  -3264575.4 1351.15   1-0.14619 0.24692-0.66611 0.76710-0.73137 0.59209
   1  -2  -2  960.97  128.82   1-0.66550 0.76658-0.74293 0.64178-0.07180-0.02138
   1  -2  -120630.27  506.46   1-0.66431 0.76571-0.74370 0.64256-0.07476 0.02817
   1   2  -121771.88  553.14   1 0.16142-0.06025-0.45336 0.55406-0.87658 0.83028
  -1  -2   0180668.5  960.41   1-0.35103 0.24826 0.25009-0.35234 0.90234-0.90234
  -1  -2  -1761209.3 6486.87   1-0.52903 0.42583 0.03290-0.13532 0.84795-0.89462
  -1  -2  -210361.63  345.25   1-0.65012 0.54657-0.16708 0.06507 0.74123-0.83487
  -1  -2  -3242001.7 1294.68   1-0.71657 0.61225-0.32073 0.21871 0.61939-0.75980
   1  -2   3248040.0  965.29   1-0.75491 0.85792-0.59891 0.49770 0.26723-0.12746
  -1   2  -3289046.2 1088.87   1-0.53936 0.43694-0.78146 0.88251-0.31368 0.17394
  -1  -2  -5  549.59  124.76   1-0.75872 0.65368-0.50990 0.40876 0.40539-0.63686
  -1   2  -5  376.69  124.72   1-0.58249 0.47970-0.77634 0.87739-0.24080 0.00789
  -1  -2  -6 1208.85  175.42   1-0.75875 0.65430-0.57130 0.47012 0.31289-0.59234
  -1   2  -6 1701.76  194.21   1-0.58083 0.47786-0.77666 0.87770-0.24378-0.03571
  -1  -2  -742295.95  721.26   1-0.75140 0.64653-0.61575 0.51455 0.23711-0.56323
  -1   2  -744781.47  687.08   1-0.57501 0.47185-0.77768 0.87873-0.25410-0.07197
  -1  -2  -812631.16  586.47   1-0.74070 0.63535-0.64975 0.54855 0.17081-0.54351
  -1   2  -815218.18  611.15   1-0.56678 0.46344-0.77892 0.87997-0.26839-0.10426
  -1  -2  -9 1998.21  257.83   1-0.72783 0.62202-0.67658 0.57538 0.11176-0.53105
  -1   2  -9 1420.38  175.98   1-0.55691 0.45339-0.78010 0.88115-0.28508-0.13415
  -1  -2 -10 3026.14  326.22   1-0.71082 0.60547-0.70104 0.59995 0.05718-0.52293
  -1   2 -10 3888.92  360.27   1-0.54581 0.44210-0.78107 0.88212-0.30333-0.16249
  -1  -2 -11  753.82  320.66   1-0.69549 0.58981-0.71847 0.61739 0.00820-0.52052
  -1   2 -11  559.60  223.64   1-0.53369 0.42980-0.78170 0.88275-0.32264-0.18975
  -1  -2 -12  257.65  176.11   1-0.67946 0.57345-0.73275 0.63167-0.03722-0.52167
  -1   2 -12  477.35  268.26   1-0.52069 0.41661-0.78193 0.88298-0.34272-0.21626
  -1  -2 -13  827.12  365.12   1-0.66203 0.55608-0.74515 0.64400-0.08035-0.52537
  -1   2 -13  277.68  163.00   1-0.50686 0.40261-0.78169 0.88274-0.36336-0.24220
  -1  -2 -14  997.01  241.50   1-0.64485 0.53857-0.75473 0.65358-0.12058-0.53174
  -1   2 -14 1520.89  286.11   1-0.48940 0.38540-0.78241 0.88345-0.38511-0.26641
  -1  -2 -15 1207.36  345.77   1-0.62716 0.52057-0.76250 0.66135-0.15890-0.54001
  -1   2 -15  568.29  175.98   1-0.47406 0.36991-0.78107 0.88210-0.40643-0.29162
  -1  -2 -16 1003.58  429.55   1-0.60898 0.50206-0.76866 0.66751-0.19565-0.54985
  -1   2 -16 1182.24  435.97   1-0.45797 0.35367-0.77913 0.88017-0.42802-0.31657
  -1  -2 -17  548.10  317.88   1-0.58703 0.48204-0.77543 0.67438-0.23258-0.55931
  -1   2 -17   22.68  139.64   1-0.44113 0.33667-0.77655 0.87759-0.44984-0.34129
  -1  -2 -18  -48.82  167.11   1-0.56766 0.46249-0.77880 0.67775-0.26686-0.57161
  -1   2 -18  150.65  163.50   1-0.42352 0.31891-0.77329 0.87433-0.47184-0.36583
  -1  -2 -19  282.14  268.00   1-0.54773 0.44238-0.78093 0.67988-0.30021-0.58485
  -1   2 -19  -21.38  143.63   1-0.40512 0.30036-0.76931 0.87035-0.49399-0.39022
   1  -3 -19  685.87  322.46   1-0.49192 0.59086-0.78258 0.63103-0.38153-0.50267
   1   3 -19  183.61  179.04   1-0.28834 0.38551-0.73191 0.88361-0.61738-0.26571
   1  -3 -18  228.74  198.55   1-0.51086 0.60943-0.78181 0.63024-0.35746-0.48101
   1   3 -18  366.23  244.47   1-0.30011 0.39751-0.73649 0.88819-0.60621-0.23040
   1  -3 -17   -1.16  151.98   1-0.52723 0.62598-0.78187 0.63030-0.33270-0.45919
   1   3 -17  -16.94  152.82   1-0.31049 0.40811-0.74038 0.89208-0.59617-0.19397
   1  -3 -16  290.83  259.91   1-0.54302 0.64195-0.78125 0.62968-0.30784-0.43747
   1   3 -16  189.45  303.44   1-0.31934 0.41718-0.74359 0.89529-0.58744-0.15622
   1  -3 -15   73.90  188.31   1-0.55825 0.65738-0.77996 0.62839-0.28283-0.41589
   1   3 -15  256.42  166.94   1-0.32650 0.42457-0.74611 0.89781-0.58026-0.11691
   1  -3 -14  343.21  263.95   1-0.57297 0.67227-0.77801 0.62644-0.25767-0.39447
   1   3 -14  669.67  371.41   1-0.33175 0.43005-0.74791 0.89961-0.57493-0.07576
   1  -3 -13  -84.09  159.51   1-0.58718 0.68667-0.77540 0.62382-0.23231-0.37325
   1   3 -13   76.44  142.46   1-0.33481 0.43333-0.74895 0.90065-0.57181-0.03241
   1  -3 -12 5614.57  466.31   1-0.60395 0.70178-0.77009 0.61837-0.20542-0.35370
   1   3 -12 5653.91  420.39   1-0.33527 0.43401-0.74910 0.90080-0.57134 0.01359
   1  -3 -1110063.08  581.14   1-0.61711 0.71527-0.76611 0.61439-0.17953-0.33300
   1   3 -11 9994.91  539.24   1-0.33258 0.43155-0.74820 0.89989-0.57409 0.06282
   1  -3 -1026437.96  712.26   1-0.62984 0.72833-0.76144 0.60972-0.15327-0.31267
   1   3 -1026205.55  635.53   1-0.32600 0.42519-0.74594 0.89764-0.58076 0.11597
   1  -3  -9 -198.49  152.73   1-0.64218 0.74099-0.75603 0.60431-0.12654-0.29280
   1   3  -9  -78.90  178.18   1-0.31449 0.41390-0.74185 0.89354-0.59224 0.17393
   1  -3  -895942.82 2196.28   1-0.65415 0.75328-0.74982 0.59810-0.09921-0.27354
   1   3  -898407.67 2204.41   1-0.29657 0.39621-0.73513 0.88683-0.60959 0.23776
   1  -3  -7 2832.91  306.39   1-0.66608 0.76574-0.74241 0.59078-0.07182-0.25420
   1   3  -7 3282.65  247.74   1-0.27018 0.37004-0.72450 0.87620-0.63410 0.30874
   1   3  -6  825.03  142.09   1-0.23004 0.33007-0.70902 0.86050-0.66660 0.38803
   1  -3  -5 8215.07  360.34   1-0.68859 0.78892-0.72504 0.57341-0.01197-0.22089
   1   3  -5 9313.70  355.94   1-0.17681 0.27707-0.68267 0.83416-0.70900 0.47686
   1  -3  -4107304.6  885.39   1-0.69972 0.80038-0.71409 0.56246 0.02108-0.20738
   1   3  -4117019.8  902.57   1-0.10151 0.20205-0.64166 0.79310-0.76023 0.57458
   1  -3  -310784.08  358.01   1-0.71103 0.81202-0.70077 0.54914 0.05789-0.19761
   1   3  -311420.57  362.56   1-0.00002 0.10059-0.57777 0.72885-0.81619 0.67723
   1  -3  -2 9051.21  304.86   1-0.72521 0.82590-0.68103 0.52922 0.10124-0.19441
   1   3  -2 9884.16  324.39   1 0.12948-0.02853-0.48056 0.63161-0.86734 0.77475
   1  -3  -146607.38  424.55   1-0.73789 0.83904-0.65649 0.50468 0.15662-0.20321
  -1  -3   0115904.0  884.91   1-0.42023 0.31745 0.17050-0.32386 0.89125-0.89125
   1  -3   097788.48  541.11   1-0.75198 0.85360-0.61329 0.46148 0.24162-0.24162
  -1  -3  -1 2803.50  386.46   1-0.55214 0.44893-0.00090-0.15273 0.83374-0.88041
  -1   3  -1 2289.33  223.74   1-0.54998 0.44671 0.00349 0.14990 0.83516-0.88202
   1  -3   1 2004.30  165.41   1-0.75848 0.86051-0.49834 0.34656 0.41995-0.37337
   1  -3   224624.73  572.21   1-0.56274 0.66642-0.01573-0.13766 0.82648-0.73275
  -1  -3  -224032.26  647.34   1-0.64696 0.54328-0.15878 0.00538 0.74580-0.83952
  -1  -3  -3  161.91  119.73   1-0.70575 0.60171-0.28989 0.13688 0.64642-0.78689
   1  -3   3  329.72   46.52   1-0.60010 0.70252-0.77233 0.62076-0.20825 0.34800
  -1  -3  -426490.66  739.05   1-0.73845 0.63349-0.39186 0.23883 0.54875-0.73596
  -1   3  -434730.80  797.27   1-0.27708 0.17472-0.72958 0.88106-0.62524 0.43953
  -1  -3  -5 2873.42  312.77   1-0.75433 0.64930-0.46840 0.31669 0.45997-0.69145
  -1   3  -5 3862.82  326.23   1-0.38571 0.28317-0.76417 0.91587-0.51696 0.28457
  -1  -3  -663113.44  803.30   1-0.76018 0.65573-0.53217 0.38039 0.37270-0.65216
  -1   3  -680111.66  659.60   1-0.43209 0.32932-0.77495 0.92650-0.46124 0.18201
  -1  -3  -725043.24  784.08   1-0.75786 0.65292-0.58001 0.42823 0.29870-0.62474
  -1   3  -730274.43  745.00   1-0.45407 0.35115-0.77858 0.93014-0.43315 0.10738
  -1  -3  -865589.28 1579.47   1-0.75072 0.64538-0.61854 0.46673 0.23197-0.60467
  -1   3  -873237.47 1626.04   1-0.46376 0.36069-0.77989 0.93144-0.42033 0.04804
  -1  -3  -9 3120.10  278.87   1-0.74085 0.63504-0.64938 0.49757 0.17158-0.59088
  -1   3  -9 3351.71  215.63   1-0.46630 0.36307-0.78020 0.93175-0.41694-0.00189
  -1  -3 -10 4033.52  419.21   1-0.72893 0.62265-0.67463 0.52282 0.11631-0.58219
  -1   3 -10 3204.70  307.79   1-0.46423 0.36084-0.77995 0.93150-0.41971-0.04565
  -1  -3 -11 2908.51  310.31   1-0.71286 0.60718-0.69835 0.54672 0.06424-0.57656
  -1   3 -11 2730.10  251.01   1-0.45895 0.35541-0.77926 0.93082-0.42674-0.08517
  -1  -3 -12 -115.08  156.15   1-0.69825 0.59223-0.71565 0.56402 0.01654-0.57543
  -1   3 -12  175.41  153.99   1-0.45126 0.34757-0.77817 0.92972-0.43680-0.12163
  -1  -3 -13  307.91  249.54   1-0.68275 0.57640-0.73009 0.57846-0.02829-0.57717
  -1   3 -13 -111.70  110.89   1-0.44169 0.33784-0.77665 0.92820-0.44913-0.15585
  -1  -3 -14  278.43  233.61   1-0.66651 0.55982-0.74212 0.59049-0.07074-0.58130
  -1   3 -14  127.69  165.70   1-0.43055 0.32655-0.77466 0.92622-0.46316-0.18836
  -1  -3 -15  202.45  164.87   1-0.64876 0.54216-0.75274 0.60102-0.11170-0.58721
  -1   3 -15  117.54  120.35   1-0.41804 0.31389-0.77217 0.92372-0.47852-0.21953
  -1  -3 -16   40.29  139.83   1-0.63116 0.52424-0.76091 0.60918-0.15048-0.59502
  -1   3 -16   45.43  126.02   1-0.40432 0.30002-0.76912 0.92068-0.49493-0.24966
  -1  -3 -17   94.41  178.13   1-0.61295 0.50570-0.76746 0.61574-0.18785-0.60425
  -1   3 -17  -96.05  130.30   1-0.38947 0.28501-0.76548 0.91703-0.51219-0.27894
  -1  -3 -18  573.12  301.80   1-0.59412 0.48655-0.77255 0.62083-0.22401-0.61468
  -1   3 -18  146.52  152.10   1-0.37450 0.26905-0.76115 0.91285-0.52952-0.30709
  -1  -3 -19   -7.02  177.26   1-0.57135 0.46600-0.77826 0.62669-0.26048-0.62457
   1  -4 -19  446.34  287.60   1-0.51594 0.61433-0.78190 0.57981-0.34988-0.53517
   1   4 -19  638.54  345.52   1-0.23893 0.33594-0.71311 0.91509-0.65907-0.22304
   1  -4 -18   94.05  181.49   1-0.53306 0.63163-0.78172 0.57963-0.32364-0.51484
   1   4 -18  -26.55  153.20   1-0.24905 0.34629-0.71765 0.91963-0.65034-0.18535
   1  -4 -17  206.04  210.92   1-0.54959 0.64835-0.78078 0.57869-0.29717-0.49472
   1   4 -17  202.04  165.09   1-0.25752 0.35500-0.72135 0.92333-0.64290-0.14636
   1  -4 -16  818.64  378.37   1-0.56557 0.66451-0.77908 0.57699-0.27045-0.47486
   1   4 -16  414.28  256.81   1-0.26418 0.36189-0.72421 0.92618-0.63696-0.10587
   1  -4 -15 1922.58  429.42   1-0.58103 0.68015-0.77662 0.57452-0.24342-0.45531
   1   4 -15 1088.27  297.65   1-0.27110 0.36918-0.72489 0.92715-0.63326-0.06391
   1  -4 -14 1146.31  335.69   1-0.59903 0.69622-0.77137 0.56907-0.21480-0.43751
   1   4 -14  826.37  433.50   1-0.27344 0.37174-0.72586 0.92813-0.63114-0.01955
   1  -4 -13  -76.35  171.57   1-0.61339 0.71090-0.76732 0.56503-0.18697-0.41875
   1   4 -13   20.73  122.23   1-0.27309 0.37161-0.72572 0.92798-0.63146 0.02723
   1  -4 -12 7682.76  548.47   1-0.62729 0.72513-0.76245 0.56015-0.15863-0.40050
   1   4 -12 6871.69 1042.55   1-0.26722 0.36585-0.72549 0.92747-0.63423 0.07710
   1  -4 -11 1541.49  252.24   1-0.64078 0.73894-0.75669 0.55440-0.12965-0.38288
   1   4 -11 1415.94  247.20   1-0.25983 0.35870-0.72235 0.92433-0.64084 0.13014
   1  -4 -1021330.69  672.89   1-0.65386 0.75235-0.74998 0.54769-0.09988-0.36605
   1   4 -1022968.50  622.48   1-0.24774 0.34684-0.71707 0.91904-0.65148 0.18720
   1  -4  -9  651.35  291.53   1-0.66692 0.76591-0.74185 0.53967-0.06971-0.34945
   1   4  -9  559.05  246.07   1-0.22977 0.32910-0.70889 0.91087-0.66683 0.24898
   1  -4  -896123.03 2202.07   1-0.67926 0.77858-0.73292 0.53074-0.03777-0.33482
   1   4  -8101883.6 2278.92   1-0.20436 0.30393-0.69671 0.89868-0.68762 0.31620
   1  -4  -7 2753.59  240.87   1-0.69130 0.79096-0.72255 0.52037-0.00417-0.32184
   1   4  -7 3228.58  231.13   1-0.16948 0.26928-0.67880 0.88078-0.71449 0.38949
   1  -4  -5 2178.03  315.95   1-0.71463 0.81496-0.69593 0.49375 0.07049-0.30337
   1   4  -5 2091.67  249.10   1-0.05896 0.15928-0.61508 0.81700-0.78625 0.55419
   1  -4  -4 4762.16  423.41   1-0.72839 0.82815-0.67559 0.47318 0.11408-0.30043
   1   4  -4 6326.66  534.97   1 0.02291 0.07739-0.56137 0.76281-0.82724 0.64196
   1  -4  -3 1795.83  204.05   1-0.73928 0.83950-0.65323 0.45082 0.16352-0.30329
   1   4  -3 1778.60  197.99   1 0.12177-0.02121-0.48458 0.68602-0.86622 0.72726
   1  -4  -241160.14  483.20   1-0.74949 0.85018-0.62325 0.42084 0.22316-0.31634
  -1  -4   1 1681.27  240.40   1-0.35203 0.24977 0.24899-0.45348 0.90225-0.85554
   1  -4  -1 1215.33  137.58   1-0.75794 0.85900-0.57931 0.37694 0.29987-0.34644
  -1  -4   043010.20 1114.13   1-0.47292 0.36998 0.10936-0.31420 0.87428-0.87428
   1  -4   034800.05  814.69   1-0.75919 0.86073-0.50761 0.30524 0.40737-0.40737
  -1  -4  -117763.06  664.23   1-0.57319 0.46992-0.03189-0.17264 0.81879-0.86566
   1  -4   114824.91  377.27   1-0.73343 0.83646-0.37348 0.16944 0.56797-0.52116
   1  -4   2 1533.94  135.07   1-0.61536 0.71890-0.10341-0.10060 0.78142-0.68778
  -1  -4  -2 2018.02  222.20   1-0.64780 0.54426-0.16260-0.04140 0.74425-0.83789
  -1  -4  -343365.60  581.54   1-0.69960 0.59556-0.27436 0.07035 0.65975-0.80022
  -1  -4  -439108.22  658.97   1-0.73137 0.62642-0.36641 0.16237 0.57517-0.76238
  -1   4  -449938.81  390.41   1 0.06051-0.16287-0.53334 0.73478-0.84373 0.65844
  -1  -4  -5  629.61  173.60   1-0.74934 0.64430-0.43903 0.23676 0.49571-0.72719
  -1   4  -5  897.40  107.05   1-0.12910 0.02650-0.65791 0.85983-0.74194 0.50988
  -1   4  -6 2239.67  221.25   1-0.23738 0.13456-0.71240 0.91438-0.66040 0.38183
  -1  -4  -7 1906.29  237.21   1-0.75997 0.65504-0.55136 0.34899 0.34413-0.67016
  -1   4  -7 2656.14  162.72   1-0.30182 0.19884-0.73714 0.93941-0.60457 0.27922
  -1  -4  -8 4681.62  349.40   1-0.75629 0.65087-0.59167 0.38930 0.27915-0.65176
  -1   4  -8 5693.79  315.54   1-0.33706 0.23384-0.74970 0.95196-0.56950 0.19767
  -1  -4  -9  174.70  148.61   1-0.74889 0.64308-0.62543 0.42302 0.21905-0.63834
  -1   4  -9    7.91   73.10   1-0.35744 0.25401-0.75618 0.95845-0.54809 0.12978
  -1  -4 -10 1677.83  289.11   1-0.73926 0.63298-0.65328 0.45087 0.16343-0.62931
  -1   4 -10 1893.03  226.24   1-0.36835 0.26469-0.75941 0.96167-0.53628 0.07150
  -1  -4 -1111228.00  593.82   1-0.72777 0.62103-0.67668 0.47427 0.11153-0.62400
  -1   4 -1111550.87  486.16   1-0.37282 0.26893-0.76068 0.96294-0.53138 0.02011
  -1  -4 -12 1687.00  402.32   1-0.71221 0.60619-0.69922 0.49704 0.06196-0.62086
  -1   4 -12 1469.80  290.63   1-0.37267 0.26856-0.76064 0.96290-0.53154-0.02620
  -1  -4 -13   -0.93  152.71   1-0.69801 0.59166-0.71590 0.51372 0.01582-0.62130
  -1   4 -13   -5.13  106.32   1-0.36904 0.26471-0.75961 0.96187-0.53553-0.06869
  -1  -4 -14  245.18  237.26   1-0.68285 0.57617-0.73001 0.52783-0.02801-0.62403
  -1   4 -14   -3.92  109.31   1-0.36268 0.25813-0.75776 0.96002-0.54245-0.10825
  -1  -4 -15  410.14  174.12   1-0.66685 0.55982-0.74190 0.53972-0.06990-0.62871
  -1   4 -15  -34.16  112.58   1-0.35409 0.24932-0.75516 0.95742-0.55167-0.14550
  -1  -4 -16 4866.40  521.10   1-0.64925 0.54233-0.75248 0.55019-0.11056-0.63494
  -1   4 -16 5626.79  552.39   1-0.34360 0.23860-0.75184 0.95411-0.56272-0.18093
  -1  -4 -17  466.51  284.13   1-0.63169 0.52445-0.76069 0.55839-0.14934-0.64276
  -1   4 -17  148.19  137.96   1-0.33144 0.22622-0.74781 0.95007-0.57525-0.21488
  -1  -4 -18  692.34  341.10   1-0.61343 0.50586-0.76731 0.56501-0.18689-0.65180
  -1  -4 -19 1207.81  392.64   1-0.59446 0.48657-0.77247 0.57017-0.22337-0.66192
   1  -5 -18 1057.63  321.44   1-0.55223 0.65080-0.78056 0.52794-0.29284-0.54564
   1   5 -18 1136.57  371.93   1-0.19654 0.29378-0.69281 0.94528-0.69381-0.14187
   1  -5 -17  222.80  306.77   1-0.56878 0.66754-0.77864 0.52602-0.26494-0.52695
   1   5 -17  -59.25  148.64   1-0.20296 0.30043-0.69601 0.94848-0.68874-0.10052
   1  -5 -16  173.56  246.49   1-0.58477 0.68371-0.77589 0.52327-0.23668-0.50863
   1   5 -16  965.71  428.93   1-0.20727 0.30498-0.69814 0.95061-0.68529-0.05754
   1  -5 -15 -119.48  206.83   1-0.60322 0.70008-0.77028 0.51742-0.20682-0.49209
   1   5 -15   39.36  138.76   1-0.20922 0.30716-0.69909 0.95157-0.68372-0.01268
   1  -5 -14 1657.28  408.63   1-0.61805 0.71524-0.76580 0.51293-0.17764-0.47468
   1   5 -14  692.51  254.65   1-0.20847 0.30664-0.69873 0.95120-0.68433 0.03434
   1  -5 -13  327.24  241.94   1-0.63239 0.72991-0.76040 0.50753-0.14786-0.45786
   1   5 -13  392.56  298.72   1-0.20458 0.30299-0.69682 0.94929-0.68744 0.08388
   1  -5 -12 1701.88  398.03   1-0.64626 0.74410-0.75402 0.50115-0.11738-0.44175
   1   5 -12 1241.18  487.49   1-0.19701 0.29564-0.69304 0.94552-0.69344 0.13631
   1  -5 -11 -115.59  158.52   1-0.65968 0.75784-0.74659 0.49372-0.08604-0.42649
   1   5 -11   26.15  122.58   1-0.18503 0.28390-0.68695 0.93942-0.70275 0.19204
   1  -5 -10 1664.36  289.36   1-0.67302 0.77168-0.73762 0.48490-0.05420-0.41154
   1   5 -10 1942.79  262.14   1-0.16773 0.26683-0.67787 0.93034-0.71578 0.25151
   1  -5  -9 7036.89  579.12   1-0.68554 0.78452-0.72774 0.47502-0.02059-0.39858
   1   5  -9 6299.46  505.37   1-0.14396 0.24329-0.66486 0.91734-0.73295 0.31510
   1  -5  -8 4485.64  373.38   1-0.69762 0.79695-0.71630 0.46359 0.01463-0.38723
   1   5  -8 5358.19  360.48   1-0.11057 0.21020-0.64708 0.89948-0.75435 0.38306
   1  -5  -7 7892.25  460.40   1-0.70928 0.80893-0.70300 0.45029 0.05193-0.37796
   1   5  -7 8462.76  438.92   1-0.06932 0.16918-0.62172 0.87412-0.78016 0.45527
   1  -5  -6 1235.70  199.73   1-0.72294 0.82177-0.68469 0.43168 0.09240-0.37193
   1   5  -6 1524.28  179.33   1-0.01669 0.11678-0.58685 0.83925-0.80952 0.53105
   1  -5  -570326.17  952.65   1-0.73343 0.83272-0.66605 0.41304 0.13578-0.36872
   1   5  -578216.71  830.82   1 0.05114 0.04890-0.54045 0.79226-0.83981 0.60821
   1  -5  -426366.51  792.11   1-0.74315 0.84290-0.64332 0.39031 0.18399-0.37034
   1   5  -430605.09  827.28   1 0.13284-0.03233-0.47776 0.72950-0.86838 0.68321
   1  -5  -316472.35  523.00   1-0.75165 0.85187-0.61472 0.36171 0.23900-0.37876
  -1  -5   1   32.10   49.72   1-0.41512 0.31286 0.17663-0.43224 0.89245-0.84574
   1  -5  -1  109.10   83.24   1-0.76003 0.86109-0.52510 0.27214 0.38289-0.42947
  -1  -5   031049.33  852.89   1-0.51188 0.40895 0.05706-0.31311 0.85715-0.85715
   1  -5   024185.80  613.33   1-0.75107 0.85258-0.44834 0.19550 0.48463-0.48463
  -1  -5  -1 5477.38  679.62   1-0.59164 0.48837-0.06134-0.19432 0.80386-0.85072
   1  -5   1 4298.12  355.96   1-0.72044 0.82347-0.33193 0.07688 0.60892-0.56211
   1  -5   289186.17  570.76   1-0.64088 0.74442-0.14945-0.10556 0.75295-0.65930
  -1  -5  -286823.53  858.30   1-0.65253 0.54898-0.17178-0.08323 0.73803-0.83167
   1  -5   327459.05  687.38   1-0.48780 0.59155 0.08978-0.34584 0.86832-0.72832
  -1  -5  -322840.57  670.60   1-0.69735 0.59331-0.26886 0.01384 0.66438-0.80484
  -1  -5  -4 3769.79  382.85   1-0.72689 0.62193-0.35167 0.09663 0.58987-0.77708
  -1  -5  -518775.75  662.60   1-0.74519 0.64016-0.41932 0.16648 0.51850-0.74998
  -1   5  -522041.47  563.05   1 0.11407-0.21656-0.49330 0.74504-0.86234 0.63087
  -1  -5  -646681.26 1205.36   1-0.75559 0.64985-0.47761 0.22478 0.44828-0.72606
  -1   5  -664007.36 1385.61   1-0.03101-0.07181-0.59662 0.84902-0.80192 0.52345
  -1  -5  -710345.51  533.11   1-0.76013 0.65519-0.52911 0.27614 0.37714-0.70317
  -1   5  -712173.50  470.44   1-0.12285 0.01979-0.65430 0.90670-0.74618 0.42130
  -1  -5  -8  495.66  188.03   1-0.75885 0.65343-0.57017 0.31721 0.31470-0.68731
  -1   5  -8  267.43   83.40   1-0.18666 0.08338-0.68779 0.94026-0.70149 0.33007
  -1  -5  -9  873.19  397.39   1-0.75398 0.64808-0.60486 0.35190 0.25621-0.67539
  -1   5  -9  131.47  116.88   1-0.22679 0.12327-0.70750 0.95998-0.66932 0.25147
  -1  -5 -10  331.76  244.42   1-0.74610 0.63982-0.63472 0.38171 0.20114-0.66702
  -1   5 -10  744.93  280.39   1-0.25283 0.14908-0.71931 0.97178-0.64703 0.18276
  -1  -5 -11  155.73  174.12   1-0.73638 0.62964-0.65987 0.40686 0.14935-0.66182
  -1   5 -11  647.21  263.52   1-0.26902 0.16504-0.72625 0.97872-0.63259 0.12189
  -1  -5 -12 3899.00  703.74   1-0.72499 0.61778-0.68140 0.42839 0.10034-0.65940
  -1   5 -12 2675.76  454.58   1-0.28135 0.17724-0.72911 0.98194-0.62388 0.06614
  -1  -5 -13  476.28  330.89   1-0.70962 0.60326-0.70258 0.44986 0.05308-0.65855
  -1   5 -13  146.15  156.57   1-0.28499 0.18066-0.73057 0.98340-0.62050 0.01628
  -1  -5 -14  256.43  239.37   1-0.69560 0.58891-0.71837 0.46565 0.00851-0.66056
  -1   5 -14  303.75  202.05   1-0.28452 0.17997-0.73039 0.98322-0.62094-0.02975
  -1  -5 -15  508.13  255.54   1-0.68058 0.57356-0.73186 0.47915-0.03421-0.66441
  -1  -5 -16 4069.82  530.46   1-0.66391 0.55699-0.74396 0.49109-0.07574-0.66976
  -1   5 -16 2724.38  350.22   1-0.27427 0.16927-0.72620 0.97903-0.63039-0.11326
  -1  -5 -17  101.59  190.04   1-0.64710 0.53985-0.75360 0.50073-0.11548-0.67662
  -1  -5 -18  606.41  357.89   1-0.62949 0.52192-0.76158 0.50871-0.15401-0.68468
   1  -6 -18 3581.04  559.54   1-0.56865 0.66722-0.77866 0.47552-0.26516-0.57331
   1   6 -18 2757.43  458.25   1-0.13906 0.23640-0.66357 0.96645-0.73506-0.10034
   1  -6 -17  147.34  215.72   1-0.58509 0.68385-0.77583 0.47268-0.23610-0.55579
   1   6 -17  499.58  291.26   1-0.14507 0.24255-0.66549 0.96845-0.73217-0.05709
   1  -6 -16 5214.22  621.96   1-0.60390 0.70044-0.77010 0.46666-0.20551-0.54000
   1   6 -16 4980.90  451.31   1-0.14699 0.24469-0.66655 0.96952-0.73081-0.01202
   1  -6 -15   89.62  217.32   1-0.61910 0.71596-0.76544 0.46200-0.17552-0.52339
   1   6 -15  455.97  253.13   1-0.14623 0.24417-0.66613 0.96910-0.73135 0.03493
   1   6 -14 1599.11  348.86   1-0.14243 0.24060-0.66401 0.96697-0.73403 0.08404
   1  -6 -13 4115.36  591.73   1-0.64788 0.74540-0.75320 0.44975-0.11370-0.49202
   1   6 -13 4041.91  545.36   1-0.13338 0.23187-0.66035 0.96324-0.73900 0.13565
   1  -6 -12 8386.03  536.10   1-0.66150 0.75934-0.74548 0.44204-0.08164-0.47749
   1   6 -1210150.36  528.40   1-0.12200 0.22072-0.65380 0.95668-0.74676 0.18982
   1  -6 -11 1546.09  367.28   1-0.67498 0.77330-0.73619 0.43293-0.04910-0.46321
   1   6 -11  700.77  294.44   1-0.10584 0.20479-0.64427 0.94715-0.75743 0.24690
   1  -6 -10 8285.58  539.04   1-0.68754 0.78619-0.72599 0.42272-0.01497-0.45077
   1   6 -10 9539.98  533.53   1-0.08406 0.18323-0.63098 0.93386-0.77122 0.30710
   1  -6  -9 2621.40  313.66   1-0.69956 0.79855-0.71427 0.41100 0.02058-0.43975
   1   6  -9 3509.97  344.71   1-0.05564 0.15504-0.61293 0.91581-0.78817 0.37046
   1  -6  -8 9191.20  469.00   1-0.71102 0.81035-0.70077 0.39751 0.05788-0.43047
   1   6  -8 8701.00  630.59   1-0.01947 0.11911-0.58877 0.89165-0.80806 0.43677
   1  -6  -712113.53  606.18   1-0.72432 0.82268-0.68250 0.37888 0.09772-0.42383
   1   6  -712792.72  576.53   1 0.02780 0.07174-0.55781 0.85998-0.82950 0.50525
   1  -6  -630788.46  880.85   1-0.73431 0.83314-0.66426 0.36064 0.13976-0.41929
   1   6  -634590.12  911.70   1 0.08276 0.01703-0.51608 0.81825-0.85253 0.57460
   1  -6  -512972.13  576.10   1-0.74338 0.84267-0.64268 0.33906 0.18530-0.41824
   1   6  -515496.09  632.41   1 0.15038-0.05009-0.46289 0.76499-0.87356 0.64209
   1  -6  -458268.94  816.97   1-0.75118 0.85094-0.61668 0.31307 0.23540-0.42176
  -1  -6   264549.52  951.75   1-0.38160 0.27984 0.21584-0.52257 0.89877-0.80535
   1  -6  -250703.15  649.05   1-0.76016 0.86074-0.54374 0.24018 0.35564-0.44880
  -1  -6   1 9734.06  710.97   1-0.46840 0.36574 0.11521-0.42248 0.87596-0.82930
   1  -6  -1 6695.82  297.10   1-0.75698 0.85778-0.48952 0.18612 0.43282-0.47911
  -1  -6   0111435.2 1619.60   1-0.54390 0.44096 0.01133-0.31860 0.83907-0.83907
   1  -6   091242.47  763.68   1-0.74487 0.84638-0.41789 0.11449 0.52012-0.52012
  -1  -6  -185448.81 1089.55   1-0.60874 0.50547-0.08984-0.21694 0.78825-0.83512
   1  -6   174166.12  622.73   1-0.71644 0.81947-0.32036 0.01431 0.61973-0.57293
  -1  -6  -2 2952.29  324.50   1-0.65914 0.55559-0.18488-0.12113 0.72893-0.82257
   1  -6   2 3836.07  327.37   1-0.65908 0.76263-0.18478-0.12124 0.72901-0.63536
   1  -6   371383.73  799.67   1-0.56240 0.66649-0.01522-0.29157 0.82672-0.68612
  -1  -6  -364074.20  851.20   1-0.69788 0.59384-0.27013-0.03588 0.66331-0.80378
   1  -6   464110.70  745.61   1-0.41944 0.52427 0.17145-0.47818 0.89144-0.70461
  -1  -6  -572142.71 1718.02   1-0.74281 0.63721-0.40943 0.10338 0.52970-0.76372
  -1  -6  -669323.96 1680.32   1-0.75345 0.64771-0.46252 0.15912 0.46730-0.74508
  -1   6  -691109.86 1933.50   1 0.15944-0.26216-0.45508 0.75717-0.87605 0.59828
  -1  -6  -722401.57  764.59   1-0.75873 0.65228-0.51004 0.20664 0.40519-0.72926
  -1   6  -728619.71  709.34   1 0.05046-0.15359-0.54097 0.84314-0.83952 0.51527
  -1  -6  -8  643.91  303.19   1-0.75990 0.65448-0.55341 0.24986 0.34098-0.71359
  -1   6  -8  449.47  187.41   1-0.03139-0.07189-0.59687 0.89975-0.80171 0.43042
  -1  -6  -9   78.06  156.95   1-0.75676 0.65086-0.58852 0.28497 0.28450-0.70368
  -1   6  -9  378.17  158.40   1-0.08775-0.01576-0.63327 0.93615-0.76893 0.35122
  -1  -6 -10 1382.45  270.23   1-0.75055 0.64428-0.61920 0.31558 0.23075-0.69663
  -1   6 -10 1745.87  194.35   1-0.12787 0.02412-0.65720 0.96008-0.74278 0.27867
  -1  -6 -11  582.35  325.94   1-0.74237 0.63563-0.64542 0.34181 0.17972-0.69219
  -1   6 -11  835.29  332.19   1-0.15832 0.05433-0.67279 0.97576-0.72269 0.21198
  -1  -6 -12  340.97  214.34   1-0.73237 0.62517-0.66816 0.36455 0.13106-0.69011
  -1   6 -12  593.16  273.05   1-0.17699 0.07277-0.68277 0.98573-0.70887 0.15173
  -1  -6 -13 2359.65  418.76   1-0.71836 0.61200-0.69057 0.38730 0.08404-0.68951
  -1   6 -13 2354.49  354.50   1-0.18864 0.08419-0.68880 0.99177-0.69996 0.09640
  -1  -6 -14 2631.17  374.44   1-0.70546 0.59877-0.70765 0.40439 0.03928-0.69132
  -1   6 -14 2211.69  954.84   1-0.19480 0.09012-0.69193 0.99490-0.69517 0.04519
  -1  -6 -15  315.80  250.88   1-0.69143 0.58440-0.72243 0.41916-0.00380-0.69481
  -1   6 -15  184.05  134.06   1-0.19656 0.09164-0.69282 0.99578-0.69380-0.00261
  -1  -6 -16 1527.08  325.65   1-0.67638 0.56903-0.73514 0.43188-0.04542-0.69977
  -1  -6 -17   98.96  186.28   1-0.65966 0.55241-0.74661 0.44317-0.08610-0.70599
  -1  -6 -18 1513.75  396.04   1-0.64275 0.53518-0.75575 0.45231-0.12527-0.71343
   1   7 -18  369.91  262.28   1-0.08046 0.17781-0.62874 0.98211-0.77343-0.06197
   1  -7 -17  152.28  229.90   1-0.60174 0.69795-0.77068 0.41666-0.20966-0.58244
   1   7 -17   21.94  148.76   1-0.08266 0.18023-0.63011 0.98347-0.77208-0.01691
   1  -7 -16  -17.60  199.32   1-0.61727 0.71381-0.76606 0.41204-0.17922-0.56629
   1   7 -16  198.41  217.09   1-0.08223 0.18003-0.62984 0.98321-0.77235 0.02976
   1  -7 -15 1792.78  415.30   1-0.63221 0.72907-0.76047 0.40646-0.14825-0.55066
   1   7 -15  442.67  249.91   1-0.07887 0.17690-0.62775 0.98111-0.77440 0.07823
   1  -7 -14  385.24  301.97   1-0.64658 0.74377-0.75387 0.39985-0.11667-0.53565
   1   7 -14   85.78  130.00   1-0.07222 0.17048-0.62356 0.97692-0.77842 0.12866
   1  -7 -13 4574.01  576.39   1-0.66037 0.75789-0.74617 0.39216-0.08437-0.52135
   1   7 -13 4535.16  460.94   1-0.06181 0.16030-0.61692 0.97028-0.78459 0.18123
   1  -7 -12 4483.89 1478.26   1-0.67399 0.77198-0.73692 0.38311-0.05168-0.50721
   1   7 -12 3839.72  497.35   1-0.04713 0.14585-0.60736 0.96072-0.79302 0.23608
   1  -7 -11 9091.32  580.97   1-0.68660 0.78492-0.72681 0.37300-0.01759-0.49472
   1   7 -11 9439.76  484.33   1-0.02753 0.12648-0.59426 0.94762-0.80379 0.29326
   1  -7 -10 -104.26  174.55   1-0.69862 0.79727-0.71527 0.36146 0.01767-0.48341
   1   7 -10  310.25  218.94   1-0.00017 0.09894-0.57787 0.93040-0.81612 0.35291
   1  -7  -9 1046.58  229.34   1-0.70999 0.80898-0.70210 0.34829 0.05435-0.47353
   1   7  -9 1039.38  206.32   1 0.03149 0.06752-0.55509 0.90763-0.83118 0.41430
   1  -7  -8  163.36  160.16   1-0.72310 0.82100-0.68444 0.33022 0.09302-0.46573
   1   7  -8  524.87  268.19   1 0.07027 0.02900-0.52582 0.87836-0.84768 0.47711
   1  -7  -7 4210.09  414.05   1-0.73288 0.83125-0.66715 0.31293 0.13333-0.45945
   1   7  -7 4579.03  402.73   1 0.11673-0.01719-0.48873 0.84127-0.86458 0.54033
   1  -7  -613405.22  621.01   1-0.74171 0.84054-0.64715 0.29293 0.17618-0.45570
   1   7  -615883.41  653.35   1 0.17359-0.07353-0.44271 0.79515-0.87969 0.60193
   1  -7  -5 1540.77  192.75   1-0.74935 0.84864-0.62378 0.26956 0.22218-0.45512
   1  -7  -4 6596.91  388.33   1-0.75564 0.85525-0.59577 0.24162 0.27212-0.45842
  -1  -7   320061.04 6822.19   1-0.36444 0.26320 0.23523-0.59308 0.90102-0.76089
   1  -7  -314516.10  612.89   1-0.75943 0.85952-0.56243 0.20829 0.32698-0.46671
  -1  -7   2 7515.13  907.17   1-0.43690 0.33515 0.15016-0.50801 0.88688-0.79346
   1  -7  -2 4746.30  286.95   1-0.75991 0.86049-0.52149 0.16734 0.38803-0.48119
  -1  -7   127877.38 1220.72   1-0.50930 0.40664 0.06063-0.41911 0.85844-0.81178
   1  -7  -120155.81  613.59   1-0.75445 0.85526-0.46924 0.11527 0.45891-0.50521
   1  -7   0 1745.27  189.22   1-0.74162 0.84313-0.40421 0.05024 0.53535-0.53535
  -1  -7  -182881.25 1106.53   1-0.62474 0.52147-0.11773-0.24019 0.77189-0.81876
   1  -7   172344.86  687.92   1-0.71716 0.82020-0.32242-0.03463 0.61782-0.57102
   1  -7   2159720.7 3298.16   1-0.67419 0.77774-0.21610-0.14092 0.70622-0.61258
  -1  -7  -2156400.9 3361.10   1-0.66686 0.56331-0.20064-0.15638 0.71766-0.81130
   1  -7   332025.19  812.12   1-0.60803 0.71212-0.08863-0.26929 0.78894-0.64835
  -1  -7  -327227.61  808.99   1-0.70033 0.59629-0.27618-0.08084 0.65821-0.79868
   1  -7   4 5138.57  457.39   1-0.51451 0.61853 0.05340-0.41188 0.85581-0.66915
  -1  -7  -4 3572.61  357.49   1-0.72429 0.61934-0.34355-0.01350 0.59779-0.78500
   1  -7   521940.17  678.23   1-0.39791 0.50325 0.19698-0.55483 0.89602-0.66248
  -1  -7  -515863.29 5381.94   1-0.74131 0.63572-0.40322 0.04615 0.53652-0.77053
  -1  -7  -629770.79  910.23   1-0.75190 0.64616-0.45302 0.09905 0.47897-0.75674
  -1  -7  -712491.64  558.43   1-0.75786 0.65142-0.49862 0.14465 0.42073-0.74480
  -1  -7  -8  189.04  220.53   1-0.76020 0.65478-0.54099 0.18684 0.35975-0.73236
  -1   7  -8  417.74  171.99   1 0.12140-0.22456-0.48727 0.83972-0.86476 0.49441
  -1  -7  -915945.00  730.53   1-0.75831 0.65241-0.57585 0.22170 0.30552-0.72471
  -1   7  -917860.92  614.34   1 0.05153-0.15518-0.54016 0.89269-0.83997 0.42309
  -1  -7 -10  801.84  254.44   1-0.75368 0.64729-0.60636 0.25221 0.25354-0.71930
  -1   7 -10  863.93  311.88   1 0.00112-0.10502-0.57696 0.92949-0.81676 0.35356
  -1  -7 -11 3337.51  631.79   1-0.74649 0.63975-0.63347 0.27926 0.20357-0.71604
  -1   7 -11 3046.28  484.72   1-0.03987-0.06410-0.60255 0.95591-0.79707 0.28655
  -1  -7 -12  646.93  389.85   1-0.73769 0.63049-0.65693 0.30272 0.15567-0.71473
  -1   7 -12  348.33  214.69   1-0.06728-0.03691-0.62042 0.97379-0.78136 0.22442
  -1  -7 -13 2030.40  483.20   1-0.72729 0.61962-0.67752 0.32330 0.10957-0.71522
  -1   7 -13 1602.29  338.96   1-0.08658-0.01785-0.63255 0.98591-0.76966 0.16631
  -1  -7 -14 -141.25  176.94   1-0.71301 0.60632-0.69815 0.34435 0.06474-0.71679
  -1   7 -14   74.90  104.99   1-0.09932-0.00533-0.64034 0.99370-0.76163 0.11187
  -1  -7 -15  350.24  286.71   1-0.69991 0.59289-0.71389 0.36009 0.02166-0.72028
  -1  -7 -16 1549.52  415.77   1-0.68572 0.57836-0.72758 0.37377-0.02008-0.72511
  -1  -7 -17  632.07  299.75   1-0.67051 0.56282-0.73941 0.38560-0.06064-0.73112
  -1  -7 -18 -172.11  228.23   1-0.65360 0.54603-0.75013 0.39611-0.10050-0.73819
   1  -8 -17  244.50  250.65   1-0.61302 0.70924-0.76744 0.36284-0.18770-0.60440
   1   8 -17  119.58  159.03   1-0.01989 0.11747-0.58905 0.99289-0.80784 0.01884
   1  -8 -16  511.70  332.61   1-0.62827 0.72482-0.76206 0.35747-0.15658-0.58893
   1   8 -16    4.99  148.93   1-0.01730 0.11510-0.58727 0.99111-0.80920 0.06661
   1  -8 -15 1266.63  340.38   1-0.64290 0.73977-0.75568 0.35109-0.12492-0.57399
   1   8 -15 1368.29  322.42   1-0.01161 0.10964-0.58334 0.98718-0.81214 0.11596
   1  -8 -14  232.30  302.47   1-0.65692 0.75411-0.74824 0.34365-0.09266-0.55965
   1   8 -14  509.87  303.12   1-0.00045 0.09820-0.57807 0.98097-0.81598 0.16749
   1  -8 -13 1390.39  467.17   1-0.67073 0.76837-0.73926 0.33491-0.06010-0.54536
   1   8 -13 1277.02  310.19   1 0.01259 0.08540-0.56881 0.97170-0.82236 0.22019
   1  -8 -12 2985.54  537.44   1-0.68346 0.78145-0.72950 0.32515-0.02634-0.53254
   1   8 -12 2126.43  337.51   1 0.02996 0.06829-0.55622 0.95911-0.83049 0.27464
   1  -8 -11 7846.43  526.26   1-0.69555 0.79387-0.71842 0.31407 0.00837-0.52069
   1   8 -11 8254.49  470.45   1 0.05215 0.04635-0.53969 0.94259-0.84024 0.33071
   1  -8 -10 5187.77  870.90   1-0.70696 0.80562-0.70586 0.30151 0.04421-0.50996
   1   8 -10 5688.90  899.97   1 0.07967 0.01909-0.51850 0.92140-0.85135 0.38814
   1  -8  -9  430.53  239.75   1-0.71764 0.81663-0.69163 0.28728 0.08140-0.50057
   1   8  -9 -183.51  149.88   1 0.11300-0.01397-0.49180 0.89469-0.86334 0.44645
   1  -8  -832387.88 1117.76   1-0.72985 0.82774-0.67295 0.26813 0.12017-0.49288
   1   8  -837840.00 1205.01   1 0.15512-0.05550-0.45881 0.86160-0.87488 0.50452
   1  -8  -7 1580.21  278.70   1-0.73870 0.83706-0.65460 0.24978 0.16063-0.48675
   1   8  -7 2141.48  275.44   1 0.20078-0.10094-0.41832 0.82111-0.88582 0.56176
   1  -8  -619592.96  622.28   1-0.74645 0.84528-0.63360 0.22878 0.20332-0.48285
  -1  -8   521001.54  593.82   1-0.29850 0.19828 0.30594-0.71491 0.90404-0.67050
   1  -8  -516270.25  534.03   1-0.75311 0.85224-0.60906 0.20431 0.24871-0.48159
  -1  -8   425531.34 1142.37   1-0.35943 0.25870 0.24082-0.64979 0.90155-0.71472
   1  -8  -418360.26  629.99   1-0.75776 0.85737-0.58085 0.17611 0.29732-0.48362
  -1  -8   3 1975.98  238.14   1-0.42179 0.32054 0.16862-0.57759 0.89087-0.75075
   1  -8  -3 1000.76  173.56   1-0.76009 0.86018-0.54761 0.14287 0.34982-0.48955
  -1  -8   2 1869.93  257.57   1-0.48667 0.38428 0.09128-0.50097 0.86879-0.77546
   1  -8  -2 1448.27  177.05   1-0.75850 0.85860-0.50672 0.10218 0.40975-0.50234
  -1  -8   113110.61  876.23   1-0.54379 0.44113 0.01148-0.42117 0.83913-0.79247
   1  -8  -1 9514.93  443.37   1-0.75290 0.85371-0.45906 0.05451 0.47159-0.51788
  -1  -8   0 9021.63  657.20   1-0.59552 0.49265-0.06770-0.34135 0.80047-0.80047
   1  -8   0 7057.68  348.50   1-0.74078 0.84229-0.40089-0.00365 0.53899-0.53899
  -1  -8  -113037.11  922.50   1-0.63978 0.53651-0.14518-0.26387 0.75471-0.80157
   1  -8   110724.33  442.48   1-0.72038 0.82341-0.33175-0.07631 0.60908-0.56228
   1  -8   225720.47  667.72   1-0.68746 0.79100-0.24549-0.16253 0.68346-0.58982
  -1  -8  -227695.91  833.66   1-0.67520 0.57165-0.21826-0.18976 0.70460-0.79824
   1  -8   368834.26 1524.24   1-0.63771 0.74175-0.14354-0.26448 0.75677-0.61631
  -1  -8  -359204.58 1474.50   1-0.70412 0.60008-0.28570-0.12232 0.65006-0.79053
   1  -8   498521.67 2187.17   1-0.57334 0.67783-0.03211-0.37694 0.81868-0.63123
  -1  -8  -489644.27 2087.20   1-0.72532 0.62037-0.34675-0.06132 0.59469-0.78190
   1  -8   538793.14  731.99   1-0.49257 0.59686 0.08340-0.49309 0.86626-0.63293
  -1  -8  -533225.89  765.82   1-0.74094 0.63534-0.40169-0.00638 0.53818-0.77220
   1  -8   6  259.23  110.93   1-0.39815 0.50401 0.19670-0.60567 0.89597-0.61573
  -1  -8  -6  518.05  311.18   1-0.75103 0.64529-0.44810 0.04356 0.48491-0.76268
  -1  -8  -7 3048.40  343.43   1-0.75718 0.65074-0.49149 0.08695 0.43023-0.75430
  -1  -8  -8  171.28  167.53   1-0.76018 0.65476-0.53241 0.12767 0.37236-0.74497
  -1  -8  -9 4951.58  465.23   1-0.75914 0.65323-0.56656 0.16182 0.32047-0.73965
  -1   8  -9 6276.42  288.56   1 0.18209-0.28546-0.43518 0.83797-0.88173 0.46508
  -1  -8 -10 5908.57  963.53   1-0.75546 0.64907-0.59682 0.19208 0.27031-0.73607
  -1   8 -10 3672.08  564.94   1 0.12709-0.23068-0.48256 0.88535-0.86659 0.40364
  -1  -8 -11 2501.05  427.26   1-0.74929 0.64255-0.62401 0.21918 0.22175-0.73422
  -1   8 -11 3785.49  468.08   1 0.07920-0.18336-0.51887 0.92176-0.85117 0.34164
  -1  -8 -12 4309.98  451.18   1-0.74147 0.63426-0.64778 0.24296 0.17488-0.73394
  -1   8 -12 5090.03  352.40   1 0.04514-0.14956-0.54497 0.94786-0.83723 0.28138
  -1  -8 -13  168.03  197.97   1-0.73202 0.62435-0.66885 0.26403 0.12952-0.73516
  -1  -8 -14   98.12  222.48   1-0.72114 0.61300-0.68748 0.28266 0.08555-0.73778
  -1  -8 -15  119.69  224.40   1-0.70647 0.59944-0.70645 0.30210 0.04258-0.74121
  -1  -8 -16  583.23  263.61   1-0.69306 0.58570-0.72087 0.31652 0.00096-0.74616
  -1  -8 -17  415.87  328.12   1-0.67858 0.57089-0.73345 0.32910-0.03959-0.75217
   1  -9 -17  319.02  250.37   1-0.62226 0.71848-0.76433 0.30916-0.16905-0.62305
   1  -9 -16  309.80  255.29   1-0.63721 0.73375-0.75832 0.30316-0.13748-0.60802
   1   9 -16  -25.53  139.29   1 0.05070 0.04652-0.54079 0.99404-0.83962 0.09849
   1  -9 -15 -191.63  195.90   1-0.65149 0.74836-0.75129 0.29612-0.10540-0.59351
   1   9 -15  164.95  200.24   1 0.05840 0.03908-0.53495 0.98820-0.84286 0.14805
   1  -9 -14  792.76  416.73   1-0.66512 0.76231-0.74317 0.28801-0.07274-0.57958
   1   9 -14  335.35  221.63   1 0.06959 0.02814-0.52635 0.97961-0.84741 0.19892
   1  -9 -13  410.76  290.46   1-0.67849 0.77614-0.73352 0.27862-0.03982-0.56565
   1   9 -13   94.88  141.43   1 0.08461 0.01338-0.51462 0.96787-0.85323 0.25106
   1  -9 -1230801.60 1801.46   1-0.69076 0.78874-0.72306 0.26816-0.00575-0.55314
   1   9 -1235595.9214787.01   1 0.10380-0.00554-0.49928 0.95254-0.86019 0.30434
   1  -9 -11 9039.76  647.26   1-0.70232 0.80063-0.71126 0.25636 0.02920-0.54152
   1   9 -11 9381.51  524.74   1 0.13025-0.03129-0.47992 0.93306-0.86758 0.35834
   1  -9 -1022785.92  789.19   1-0.71313 0.81179-0.69798 0.24309 0.06519-0.53094
   1   9 -1025144.81  723.59   1 0.15877-0.05958-0.45567 0.90881-0.87587 0.41293
   1  -9  -9 7062.27  568.21   1-0.72549 0.82292-0.68057 0.22515 0.10234-0.52163
   1   9  -9 5825.66  903.47   1 0.19231-0.09290-0.42601 0.87915-0.88404 0.46739
   1  -9  -8  789.51  349.10   1-0.73453 0.83242-0.66381 0.20839 0.14074-0.51345
   1  -9  -7 5361.90  430.27   1-0.74256 0.84092-0.64491 0.18949 0.18076-0.50688
  -1  -9   622569.75  843.62   1-0.31186 0.21216 0.29208-0.75217 0.90411-0.62387
   1  -9  -618030.03  744.51   1-0.74942 0.84825-0.62351 0.16809 0.22268-0.50220
  -1  -9   5 5034.08  691.19   1-0.36346 0.26324 0.23634-0.69643 0.90113-0.66759
   1  -9  -5 3681.36  357.79   1-0.75511 0.85424-0.59884 0.14351 0.26679-0.49967
  -1  -9   4 1540.00  653.11   1-0.41691 0.31618 0.17449-0.63459 0.89203-0.70520
   1  -9  -4 1703.24  254.72   1-0.75878 0.85839-0.57093 0.11560 0.31348-0.49979
  -1  -9   340964.50  963.48   1-0.47437 0.37224 0.10747-0.56837 0.87373-0.73374
   1  -9  -332291.54  694.67   1-0.76021 0.86031-0.53867 0.08334 0.36318-0.50291
  -1  -9   2 4201.40  551.45   1-0.52573 0.42334 0.03761-0.49851 0.84981-0.75648
   1  -9  -2 2564.21  286.96   1-0.75797 0.85807-0.49993 0.04482 0.41896-0.51156
  -1  -9   150746.12 1258.40   1-0.57377 0.47131-0.03280-0.42739 0.81835-0.77148
   1  -9  -141184.81  714.51   1-0.75241 0.85322-0.45607 0.00096 0.47525-0.52154
  -1  -9   046036.67 1641.95   1-0.61679 0.51392-0.10371-0.35647 0.78025-0.78025
   1  -9   039649.78 1011.98   1-0.74164 0.84315-0.40429-0.05081 0.53526-0.53526
  -1  -9  -1  862.36  346.40   1-0.65273 0.54969-0.17219-0.28684 0.73775-0.78457
   1  -9   1  696.04  264.15   1-0.72489 0.82793-0.34542-0.11366 0.59599-0.54918
  -1  -9  -2 2256.13  304.19   1-0.68383 0.58029-0.23725-0.22178 0.68998-0.78362
   1  -9   2 1808.79  182.63   1-0.69878 0.80245-0.27385-0.18523 0.66083-0.56723
   1  -9   311291.41  344.59   1-0.66227 0.76631-0.19121-0.26781 0.72445-0.58398
  -1  -9  -310000.27  450.17   1-0.70816 0.60385-0.29775-0.16133 0.64019-0.78060
   1  -9   4  564.09  212.24   1-0.61555 0.72005-0.10156-0.35863 0.78151-0.59406
  -1  -9  -4  395.46  263.17   1-0.72739 0.62244-0.35330-0.10577 0.58827-0.77548
   1  -9   5  558.09  208.94   1-0.55570 0.66060-0.00506-0.45512 0.83136-0.59704
  -1  -9  -5    1.73  139.56   1-0.74148 0.63588-0.40388-0.05519 0.53579-0.76980
   1  -9   6 2823.36  388.40   1-0.48816 0.59272 0.08930-0.55020 0.86816-0.58817
  -1  -9  -6 2715.97  345.15   1-0.75083 0.64509-0.44696-0.00814 0.48628-0.76406
   1  -9   7  -15.43   53.44   1-0.41129 0.51766 0.18121-0.64130 0.89330-0.56635
  -1  -9  -7  -91.58  146.12   1-0.75682 0.65037-0.48800 0.03289 0.43482-0.75889
   1  -9   821657.89 1215.78   1-0.34228 0.44915 0.25966-0.71975 0.90300-0.52934
  -1  -9  -819387.94  857.39   1-0.76009 0.65467-0.52721 0.07187 0.37988-0.75248
  -1  -9  -9 5927.76  965.80   1-0.75956 0.65365-0.56033 0.10500 0.33028-0.74947
  -1  -9 -10  -18.68  184.29   1-0.75655 0.65016-0.59000 0.13466 0.28200-0.74776
  -1  -9 -11  -67.96  181.41   1-0.75112 0.64438-0.61691 0.16149 0.23498-0.74745
  -1  -9 -12 1025.91  334.95   1-0.74409 0.63688-0.64069 0.18526 0.18930-0.74836
  -1  -9 -13 -117.92  217.71   1-0.73542 0.62775-0.66193 0.20651 0.14487-0.75051
  -1  -9 -14 3489.27  502.70   1-0.72530 0.61717-0.68088 0.22546 0.10160-0.75383
  -1  -9 -15  256.86  319.41   1-0.71144 0.60442-0.70022 0.24533 0.05932-0.75794
  -1  -9 -16   57.28  207.47   1-0.69874 0.59138-0.71514 0.26025 0.01804-0.76323
  -1  -9 -17   92.42  225.19   1-0.68492 0.57723-0.72827 0.27337-0.02231-0.76946
   1 -10 -16 -107.39  208.32   1-0.64430 0.74084-0.75500 0.24926-0.12180-0.62370
   1 -10 -15 5121.62  672.35   1-0.65824 0.75510-0.74746 0.24172-0.08951-0.60940
   1 -10 -14  194.43  265.63   1-0.67191 0.76923-0.73842 0.23298-0.05706-0.59498
   1  10 -14    4.23  134.14   1 0.14158-0.04328-0.47038 0.97387-0.87102 0.22290
   1 -10 -13 2314.16  435.11   1-0.68443 0.78208-0.72868 0.22324-0.02366-0.58180
   1  10 -13 1662.49  308.05   1 0.15785-0.05932-0.45646 0.95995-0.87562 0.27379
   1 -10 -12 -268.44  210.71   1-0.69624 0.79422-0.71773 0.21229 0.01043-0.56933
   1  10 -12  139.22  149.29   1 0.17800-0.07926-0.43881 0.94230-0.88076 0.32523
   1 -10 -11 7725.74  693.82   1-0.70730 0.80562-0.70545 0.20001 0.04532-0.55764
   1  10 -11 9247.84  670.60   1 0.20224-0.10327-0.41699 0.92048-0.88612 0.37688
   1 -10 -10  787.21  520.40   1-0.71757 0.81622-0.69174 0.18630 0.08112-0.54686
   1 -10  -913830.89  628.92   1-0.72926 0.82669-0.67403 0.16800 0.11769-0.53698
   1 -10  -8 1561.54  362.18   1-0.73766 0.83556-0.65700 0.15097 0.15553-0.52824
  -1 -10   774468.76 1534.92   1-0.33057 0.23137 0.27229-0.78350 0.90364-0.57669
   1 -10  -761800.23 1417.89   1-0.74502 0.84339-0.63797 0.13194 0.19473-0.52084
  -1 -10   612612.87  824.60   1-0.37432 0.27461 0.22412-0.73534 0.89980-0.61955
   1 -10  -610241.95  577.46   1-0.75119 0.85002-0.61665 0.11062 0.23547-0.51500
  -1 -10   5 8486.80 1056.19   1-0.42003 0.31982 0.17074-0.68195 0.89129-0.65776
   1 -10  -5 6569.22  374.12   1-0.75619 0.85531-0.59237 0.08645 0.27795-0.51083
  -1 -10   412431.44 1376.13   1-0.47059 0.36874 0.11238-0.62449 0.87516-0.68849
   1 -10  -4 8769.67  490.35   1-0.75923 0.85884-0.56530 0.05937 0.32247-0.50877
  -1 -10   318760.91 1040.10   1-0.51604 0.41392 0.05127-0.56338 0.85502-0.71502
   1 -10  -314538.33  526.24   1-0.76020 0.86030-0.53454 0.02861 0.36925-0.50898
  -1 -10   2  330.51  155.16   1-0.55943 0.45704-0.01189-0.50021 0.82878-0.73545
   1 -10  -2   39.32  130.79   1-0.75783 0.85793-0.49834-0.00732 0.42110-0.51369
  -1 -10   1  -13.86  123.85   1-0.59985 0.49738-0.07486-0.43646 0.79659-0.74973
   1 -10  -1  -22.03  117.79   1-0.75278 0.85359-0.45832-0.04734 0.47249-0.51878
  -1 -10   0   -6.49   71.16   1-0.63595 0.53308-0.13806-0.37325 0.75927-0.75927
   1 -10   0   64.69  101.18   1-0.74357 0.84508-0.41229-0.09338 0.52641-0.52641
  -1 -10  -153735.7517298.14   1-0.66606 0.56302-0.19899-0.31104 0.71885-0.76567
   1 -10   148266.90  774.21   1-0.73002 0.83305-0.36186-0.14823 0.57976-0.53295
   1 -10   2  597.78  242.16   1-0.70958 0.81326-0.30152-0.20856 0.63683-0.54323
  -1 -10  -2 1265.57  474.24   1-0.69252 0.58898-0.25727-0.25276 0.67395-0.76760
   1 -10   322296.35  511.65   1-0.68202 0.78606-0.23319-0.27683 0.69315-0.55268
  -1 -10  -322360.07  674.24   1-0.71340 0.60909-0.31187-0.19821 0.62752-0.76793
   1 -10   4 7564.30  365.62   1-0.64537 0.74991-0.15796-0.35207 0.74735-0.56006
  -1 -10  -4 6227.00  418.17   1-0.73021 0.62525-0.36249-0.14759 0.57912-0.76633
   1 -10   5 1066.40  141.26   1-0.60297 0.70786-0.08007-0.43125 0.79373-0.55941
  -1 -10  -5  562.37  267.20   1-0.74272 0.63713-0.40908-0.10100 0.53009-0.76410
   1 -10   6  194.60  104.79   1-0.55140 0.65670 0.00137-0.51270 0.83423-0.55305
  -1 -10  -6  116.00  176.70   1-0.75118 0.64544-0.44893-0.05674 0.48392-0.76169
   1 -10   7 4432.15  820.07   1-0.49566 0.60049 0.07925-0.59136 0.86489-0.53823
  -1 -10  -7 6064.32 2904.10   1-0.75677 0.65033-0.48759-0.01808 0.43536-0.75943
   1 -10   8  816.87  305.52   1-0.43275 0.53963 0.15527-0.66649 0.88803-0.51437
  -1 -10  -8   -7.80  189.51   1-0.76003 0.65461-0.52494 0.01902 0.38311-0.75572
   1 -10   9   85.11   77.01   1-0.37750 0.48488 0.22052-0.73173 0.89936-0.47900
  -1 -10  -9  906.26  350.78   1-0.75975 0.65384-0.55683 0.05090 0.33572-0.75491
  -1 -10 -10  526.64  365.80   1-0.75715 0.65077-0.58566 0.07974 0.28931-0.75507
  -1 -10 -11  198.14  292.58   1-0.75253 0.64566-0.61171 0.10578 0.24392-0.75625
  -1 -10 -12  650.99  366.03   1-0.74582 0.63862-0.63556 0.12954 0.19948-0.75853
  -1 -10 -13 3521.39  493.65   1-0.73778 0.63011-0.65674 0.15071 0.15609-0.76173
  -1 -10 -14    2.91  209.81   1-0.72829 0.62015-0.67577 0.16974 0.11365-0.76589
  -1 -10 -15 4347.30  665.47   1-0.71511 0.60809-0.69526 0.18982 0.07221-0.77083
  -1 -10 -16   59.34  207.73   1-0.70302 0.59566-0.71047 0.20503 0.03142-0.77662
   1 -11 -15   89.22  230.70   1-0.66337 0.76023-0.74430 0.18799-0.07707-0.62184
   1 -11 -14 1334.86  438.06   1-0.67667 0.77399-0.73492 0.17894-0.04466-0.60738
   1 -11 -13  -12.80  177.38   1-0.68880 0.78645-0.72485 0.16887-0.01136-0.59410
   1 -11 -12 2974.62  487.62   1-0.70019 0.79818-0.71359 0.15761 0.02253-0.58143
   1 -11 -11 8199.20  739.78   1-0.71080 0.80912-0.70106 0.14508 0.05712-0.56944
   1 -11 -10  363.95  274.57   1-0.72288 0.81985-0.68479 0.12816 0.09216-0.55805
  -1 -11   9 1963.54  362.26   1-0.31897 0.22080 0.28461-0.84695 0.90401-0.48365
   1 -11  -9 1448.34  381.58   1-0.73172 0.82915-0.66942 0.11279 0.12822-0.54751
  -1 -11   813422.73  970.42   1-0.35340 0.25472 0.24749-0.80983 0.90213-0.52847
   1 -11  -810231.03  577.91   1-0.73962 0.83751-0.65242 0.09579 0.16524-0.53795
  -1 -11   7  785.34  291.13   1-0.39046 0.29127 0.20564-0.76798 0.89735-0.57040
   1 -11  -7  455.25  256.46   1-0.74646 0.84482-0.63358 0.07695 0.20336-0.52947
  -1 -11   6 5654.28 1018.77   1-0.42946 0.32975 0.15930-0.72164 0.88892-0.60867
   1 -11  -6 4205.27  678.82   1-0.75212 0.85095-0.61269 0.05606 0.24271-0.52224
  -1 -11   5  762.21  329.76   1-0.47375 0.37216 0.10828-0.67161 0.87397-0.64064
   1 -11  -5 1839.42  448.14   1-0.75667 0.85579-0.58918 0.03266 0.28339-0.51627
  -1 -11   421168.22 1344.70   1-0.51351 0.41165 0.05480-0.61812 0.85633-0.66966
   1 -11  -416095.50  709.88   1-0.75937 0.85898-0.56329 0.00677 0.32564-0.51194
  -1 -11   3  549.19  221.12   1-0.55222 0.45009-0.00101-0.56230 0.83369-0.69370
   1 -11  -3 -111.95  154.64   1-0.76020 0.86029-0.53432-0.02219 0.36957-0.50930
   1 -11  -213347.23  602.32   1-0.75804 0.85814-0.50079-0.05544 0.41780-0.51039
  -1 -11   1  866.97  321.00   1-0.62296 0.52049-0.11455-0.44790 0.77381-0.72695
   1 -11  -1  632.10  261.67   1-0.75375 0.85455-0.46447-0.09176 0.46488-0.51118
  -1 -11   0   92.39  143.11   1-0.65198 0.54943-0.17071-0.39032 0.73876-0.73876
   1 -11   0    9.41   99.50   1-0.74613 0.84764-0.42354-0.13269 0.51369-0.51369
  -1 -11  -1  410.50  201.57   1-0.67859 0.57555-0.22563-0.33540 0.69899-0.74581
   1 -11   1  322.97  162.27   1-0.73531 0.83835-0.38018-0.18091 0.56103-0.51423
  -1 -11  -2 8106.66  486.07   1-0.70110 0.59755-0.27809-0.28295 0.65659-0.75024
   1 -11   2 7580.21  395.79   1-0.71936 0.82304-0.32877-0.23232 0.61189-0.51829
   1 -11   3  100.02   97.59   1-0.69793 0.80224-0.27176-0.28933 0.66259-0.52219
  -1 -11  -3   79.95  157.45   1-0.71894 0.61463-0.32755-0.23354 0.61303-0.75344
   1 -11   4  517.17  209.07   1-0.67085 0.77538-0.20899-0.35204 0.71153-0.52424
  -1 -11  -4  413.55  191.59   1-0.73351 0.62856-0.37378-0.18731 0.56765-0.75486
   1 -11   5 7868.75  388.07   1-0.63708 0.74211-0.14236-0.41867 0.75753-0.52342
  -1 -11  -5 7943.76  532.56   1-0.74397 0.63894-0.41399-0.14225 0.52451-0.75598
   1 -11   614895.92  995.19   1-0.60041 0.70571-0.07580-0.48665 0.79608-0.51490
  -1 -11  -614948.43  700.94   1-0.75197 0.64624-0.45348-0.10275 0.47840-0.75618
   1 -11   7  699.57  266.15   1-0.55713 0.66284-0.00722-0.55523 0.83038-0.50234
  -1 -11  -7  264.15  208.55   1-0.75701 0.65056-0.48980-0.06644 0.43246-0.75653
  -1 -11  -8 6002.25  483.63   1-0.76003 0.65461-0.52524-0.03127 0.38270-0.75531
  -1 -11  -9  134.29  261.75   1-0.75980 0.65389-0.55575-0.00076 0.33739-0.75658
  -1 -11 -10  408.01  292.90   1-0.75743 0.65104-0.58358 0.02706 0.29280-0.75855
  -1 -11 -11 4804.51  602.25   1-0.75314 0.64627-0.60891 0.05239 0.24896-0.76130
  -1 -11 -12 1031.67  446.41   1-0.74686 0.63966-0.63230 0.07567 0.20586-0.76492
  -1 -11 -13  234.53  227.28   1-0.73929 0.63162-0.65320 0.09657 0.16359-0.76923
  -1 -11 -14 6359.48  800.78   1-0.73030 0.62216-0.67212 0.11549 0.12208-0.77431
  -1 -11 -15 2297.27  586.72   1-0.71769 0.61067-0.69156 0.13558 0.08157-0.78019
   1 -12 -14  -70.66  214.53   1-0.68003 0.77735-0.73230 0.12578-0.03568-0.61636
   1 -12 -13  328.55  303.49   1-0.69182 0.78947-0.72206 0.11553-0.00266-0.60281
  -1 -12  12  401.37  201.24   1-0.30127 0.20463 0.30309-0.91655 0.90408-0.34359
   1 -12 -12  716.91  328.42   1-0.70284 0.80082-0.71067 0.10414 0.03087-0.58976
  -1 -12  11  578.50  277.37   1-0.32445 0.22730 0.27881-0.89227 0.90387-0.39009
   1 -12 -11  542.02  311.06   1-0.71307 0.81139-0.69807 0.09154 0.06496-0.57728
  -1 -12  10  314.36  197.36   1-0.35062 0.25296 0.25055-0.86401 0.90237-0.43530
   1 -12 -10 -143.62  173.16   1-0.72469 0.82165-0.68189 0.07466 0.09918-0.56506
  -1 -12   9 1455.67  370.25   1-0.37953 0.28136 0.21821-0.83166 0.89907-0.47870
   1 -12  -9 1283.37  404.85   1-0.73313 0.83056-0.66665 0.05942 0.13444-0.55373
  -1 -12   8 1272.04  272.03   1-0.41080 0.31212 0.18180-0.79525 0.89341-0.51975
   1 -12  -8  743.72  254.76   1-0.74063 0.83853-0.64992 0.04268 0.17047-0.54317
  -1 -12   711871.08 1329.66   1-0.44390 0.34471 0.14148-0.75494 0.88483-0.55788
   1 -12  -711934.15  600.61   1-0.74710 0.84546-0.63153 0.02430 0.20735-0.53347
  -1 -12   6 6150.69  732.70   1-0.48253 0.38122 0.09677-0.71130 0.87051-0.59051
   1 -12  -6 5435.59  445.58   1-0.75268 0.85133-0.61102 0.00391 0.24515-0.52461
  -1 -12   513830.03 1445.66   1-0.51698 0.41540 0.04995-0.66448 0.85453-0.62120
   1 -12  -511656.37  571.47   1-0.75672 0.85585-0.58881-0.01829 0.28401-0.51689
   1 -12  -4  -64.38  176.80   1-0.75930 0.85891-0.56432-0.04278 0.32401-0.51032
   1 -12  -365488.53 1406.04   1-0.76021 0.86031-0.53728-0.06982 0.36523-0.50496
  -1 -12   2 2680.79  511.86   1-0.61505 0.51299-0.10068-0.51290 0.78203-0.68830
   1 -12  -2 3273.88  572.35   1-0.75848 0.85858-0.50643-0.10038 0.41015-0.50274
  -1 -12   1 4761.81  788.19   1-0.64360 0.54114-0.15238-0.46121 0.75003-0.70316
   1 -12  -1 3960.91  649.46   1-0.75505 0.85586-0.47357-0.13323 0.45344-0.49974
  -1 -12   0 2518.91  477.72   1-0.66785 0.56530-0.20271-0.40933 0.71615-0.71615
   1 -12   0 3993.05  648.22   1-0.74897 0.85048-0.43718-0.16962 0.49789-0.49789
  -1 -12  -120767.98  760.07   1-0.69033 0.58728-0.25213-0.35990 0.67813-0.72495
   1 -12   119942.09  658.40   1-0.74048 0.84352-0.39985-0.21225 0.54017-0.49337
  -1 -12  -2 2163.48  487.88   1-0.70885 0.60518-0.29958-0.31252 0.63856-0.73217
   1 -12   2 1172.72  237.91   1-0.72815 0.83182-0.35572-0.25638 0.58587-0.49227
   1 -12   3 5791.83  866.95   1-0.71180 0.81612-0.30750-0.30460 0.63148-0.49107
  -1 -12  -3 7001.87  523.82   1-0.72459 0.62028-0.34448-0.26763 0.59690-0.73730
   1 -12   460000.17 1190.87   1-0.69151 0.79604-0.25488-0.35715 0.67590-0.48861
  -1 -12  -460837.23 1435.97   1-0.73710 0.63215-0.38677-0.22533 0.55414-0.74135
   1 -12   5 2052.76  320.84   1-0.66618 0.77121-0.19923-0.41281 0.71868-0.48457
  -1 -12  -5 2249.50  407.76   1-0.74612 0.64108-0.42348-0.18332 0.51377-0.74524
   1 -12   617370.38  510.07   1-0.63652 0.74205-0.14132-0.47071 0.75819-0.47726
  -1 -12  -614801.01  649.79   1-0.75308 0.64734-0.46019-0.14661 0.47018-0.74796
  -1 -12  -7 1335.86  356.35   1-0.75745 0.65101-0.49423-0.11257 0.42660-0.75066
  -1 -12  -8  506.59  246.60   1-0.76010 0.65468-0.52774-0.07936 0.37911-0.75172
  -1 -12  -9  329.17  280.97   1-0.75975 0.65384-0.55680-0.05030 0.33576-0.75495
  -1 -12 -10  111.12  202.41   1-0.75743 0.65104-0.58351-0.02359 0.29290-0.75866
  -1 -12 -11 6812.52  696.67   1-0.75334 0.64646-0.60800 0.00089 0.25060-0.76293
  -1 -12 -12  305.17  281.32   1-0.74733 0.64013-0.63076 0.02353 0.20884-0.76790
  -1 -12 -13  953.14  397.38   1-0.74010 0.63243-0.65124 0.04400 0.16771-0.77336
  -1 -12 -14 -156.18  218.16   1-0.73149 0.62335-0.66988 0.06265 0.12719-0.77942
   1 -13 -13  277.02  240.95   1-0.69364 0.79129-0.72031 0.06324 0.00268-0.60815
   1 -13 -12 1001.42  387.35   1-0.70435 0.80234-0.70894 0.05187 0.03570-0.59460
  -1 -13  11  509.52  191.83   1-0.38434 0.28720 0.21270-0.87727 0.89835-0.38456
   1 -13 -11 1625.32  396.14   1-0.71426 0.81258-0.69644 0.03937 0.06918-0.58150
  -1 -13  10   99.08  139.26   1-0.40837 0.31071 0.18468-0.84925 0.89393-0.42686
   1 -13 -10  181.85  198.28   1-0.72552 0.82248-0.68053 0.02269 0.10244-0.56833
  -1 -13   9 1411.03  254.47   1-0.43452 0.33635 0.15310-0.81768 0.88755-0.46718
   1 -13  -9 1627.78  376.77   1-0.73366 0.83109-0.66560 0.00776 0.13678-0.55608
  -1 -13   8 3299.97  511.61   1-0.46701 0.36624 0.11701-0.78275 0.87647-0.50314
   1 -13  -8 4158.49  468.74   1-0.74087 0.83876-0.64932-0.00851 0.17171-0.54441
  -1 -13   7   97.06  120.51   1-0.49592 0.39488 0.07890-0.74464 0.86477-0.53811
   1 -13  -7  449.60  288.98   1-0.74709 0.84545-0.63157-0.02626 0.20728-0.53340
  -1 -13   6 1211.28  281.95   1-0.52548 0.42417 0.03797-0.70371 0.84995-0.56996
   1 -13  -6  939.16  263.69   1-0.75223 0.85105-0.61223-0.04560 0.24355-0.52308
  -1 -13   5 1383.48  282.40   1-0.55507 0.45349-0.00529-0.66045 0.83178-0.59845
   1 -13  -5  876.08  295.40   1-0.75642 0.85554-0.59088-0.06682 0.28051-0.51339
  -1 -13   4 3755.50  617.42   1-0.58404 0.48280-0.04905-0.61566 0.81023-0.62278
   1 -13  -4 2437.63  384.76   1-0.75903 0.85865-0.56791-0.08979 0.31833-0.50463
  -1 -13   3 8549.29  962.49   1-0.61197 0.51031-0.09536-0.56936 0.78510-0.64451
   1 -13  -3 6423.11  406.43   1-0.76018 0.86027-0.54284-0.11485 0.35699-0.49671
  -1 -13   210082.84 1113.19   1-0.63814 0.53609-0.14213-0.52259 0.75667-0.66295
   1 -13  -2 7869.73  419.57   1-0.75965 0.86023-0.51546-0.14223 0.39651-0.48966
   1 -13  -120741.15  629.99   1-0.75648 0.85728-0.48495-0.17242 0.43881-0.48510
  -1 -13   0  -54.98  174.91   1-0.68234 0.57979-0.23391-0.42912 0.69259-0.69259
   1 -13   0  166.57  167.34   1-0.75183 0.85334-0.45262-0.20475 0.47946-0.47946
  -1 -13  -1 2818.47  418.64   1-0.70128 0.59823-0.27853-0.38451 0.65621-0.70303
   1 -13   1 1919.05  315.36   1-0.74476 0.84697-0.41739-0.23997 0.52068-0.47438
  -1 -13  -210921.72  570.86   1-0.71685 0.61317-0.32152-0.34159 0.61866-0.71226
   1 -13   211656.28  515.13   1-0.73594 0.83961-0.38247-0.28064 0.55865-0.46505
  -1 -13  -3 1370.67  278.20   1-0.73018 0.62587-0.36240-0.30071 0.57921-0.71962
   1 -13   3  998.94  223.08   1-0.72361 0.82792-0.34145-0.32166 0.59982-0.45941
   1 -13   4 3911.68 1256.65   1-0.70810 0.81306-0.29759-0.36552 0.64033-0.45312
  -1 -13  -4 3511.63  503.40   1-0.74080 0.63585-0.40114-0.26197 0.53877-0.72598
   1 -13   5   69.71   88.42   1-0.68964 0.79467-0.25052-0.41252 0.67943-0.44532
  -1 -13  -5  395.11  275.94   1-0.74846 0.64343-0.43462-0.22275 0.50089-0.73237
  -1 -13  -6 3660.37  471.92   1-0.75438 0.64864-0.46872-0.18865 0.45956-0.73734
  -1 -13  -7  -45.73  173.93   1-0.75802 0.65158-0.50056-0.15681 0.41812-0.74218
  -1 -13  -8  -17.58  183.27   1-0.76018 0.65476-0.53216-0.12554 0.37272-0.74533
  -1 -13  -9 2129.47  408.65   1-0.75959 0.65369-0.55974-0.09796 0.33121-0.75039
  -1 -13 -10 2145.53  366.80   1-0.75721 0.65082-0.58525-0.07244 0.29000-0.75576
  -1 -13 -11 5616.67  521.30   1-0.75317 0.64630-0.60880-0.04890 0.24917-0.76151
  -1 -13 -12  352.71  330.60   1-0.74732 0.64011-0.63082-0.02701 0.20874-0.76780
  -1 -13 -13  470.90  246.30   1-0.74030 0.63263-0.65073-0.00709 0.16876-0.77441
   1 -14 -12  -72.07  186.03   1-0.70485 0.80283-0.70837 0.00076 0.03730-0.59620
   1 -14 -11  219.93  288.74   1-0.71451 0.81283-0.69610-0.01151 0.07005-0.58238
  -1 -14  10  241.78  175.63   1-0.46583 0.36560 0.11852-0.83548 0.87689-0.41023
   1 -14 -10  512.93  309.52   1-0.72547 0.82244-0.68060-0.02783 0.10228-0.56816
  -1 -14   9 1513.66  271.83   1-0.48885 0.38835 0.08838-0.80534 0.86787-0.44788
   1 -14  -9  804.74  391.38   1-0.73340 0.83083-0.66613-0.04230 0.13562-0.55491
  -1 -14   8 1475.37  237.12   1-0.51310 0.41233 0.05536-0.77232 0.85653-0.48321
   1 -14  -8 1128.39  378.32   1-0.74042 0.83832-0.65044-0.05799 0.16937-0.54208
  -1 -14   7 6810.62  953.26   1-0.53815 0.43712 0.01973-0.73669 0.84261-0.51595
   1 -14  -7 6853.61  698.77   1-0.74650 0.84486-0.63347-0.07496 0.20358-0.52970
  -1 -14   6 7617.60 1062.58   1-0.56337 0.46293-0.01669-0.69916 0.82603-0.54485
   1 -14  -610098.45  803.54   1-0.75156 0.85038-0.61512-0.09331 0.23828-0.51781
  -1 -14   5 1888.86  394.15   1-0.58867 0.48782-0.05650-0.65935 0.80639-0.57207
   1 -14  -5 1490.48  382.80   1-0.75576 0.85489-0.59503-0.11326 0.27340-0.50628
  -1 -14   4 1153.13  283.70   1-0.61329 0.51204-0.09764-0.61821 0.78379-0.59633
   1 -14  -4 1108.02  287.85   1-0.75853 0.85814-0.57364-0.13465 0.30912-0.49543
  -1 -14   3  -30.31  134.52   1-0.63678 0.53513-0.13960-0.57625 0.75829-0.61770
   1 -14  -3  242.22  213.35   1-0.76000 0.86010-0.55054-0.15775 0.34538-0.48511
  -1 -14   2  -50.65  137.75   1-0.65717 0.55562-0.18096-0.53308 0.73168-0.63804
   1 -14  -2  -77.87  132.91   1-0.76004 0.86062-0.52560-0.18269 0.38218-0.47533
  -1 -14   1  724.54  321.07   1-0.67742 0.57536-0.22307-0.49098 0.70095-0.65413
   1 -14  -1  231.81  188.93   1-0.75781 0.85862-0.49812-0.20981 0.42139-0.46769
  -1 -14   0 2888.35  429.17   1-0.69555 0.59300-0.26449-0.44955 0.66801-0.66801
   1 -14   0 2258.48  307.85   1-0.75448 0.85599-0.46943-0.23851 0.45868-0.45868
  -1 -14  -1 6738.48  584.32   1-0.71088 0.60785-0.30500-0.40913 0.63373-0.68053
   1 -14   1 5669.01  457.45   1-0.74925 0.85146-0.43859-0.26935 0.49624-0.44994
  -1 -14  -2 6786.42  584.03   1-0.72440 0.62072-0.34387-0.37025 0.59748-0.69109
   1 -14   2 4616.45  388.03   1-0.74194 0.84486-0.40554-0.30240 0.53389-0.44130
   1 -14   3 2302.49  312.48   1-0.73360 0.83792-0.37410-0.34002 0.56733-0.42692
  -1 -14  -3 2707.69  389.16   1-0.73558 0.63126-0.38114-0.33298 0.56003-0.70044
  -1 -14  -4   81.83  187.10   1-0.74387 0.63954-0.41357-0.29436 0.52497-0.71015
  -1 -14  -5  204.32  202.39   1-0.75086 0.64582-0.44714-0.26080 0.48607-0.71755
  -1 -14  -6  -94.66  176.31   1-0.75574 0.65000-0.47878-0.22915 0.44678-0.72455
  -1 -14  -7  411.94  291.74   1-0.75863 0.65218-0.50852-0.19942 0.40728-0.73135
  -1 -14  -8  423.13  227.86   1-0.76021 0.65479-0.53824-0.17005 0.36381-0.73642
  -1 -14  -9  -33.64  189.70   1-0.75930 0.65340-0.56433-0.14396 0.32401-0.74319
  -1 -14 -10  327.54  218.08   1-0.75675 0.65036-0.58860-0.11969 0.28437-0.75013
  -1 -14 -11  -41.49  219.46   1-0.75266 0.64579-0.61113-0.09716 0.24496-0.75730
  -1 -14 -12   30.36  227.97   1-0.74686 0.63965-0.63232-0.07611 0.20582-0.76488
   1 -15 -11  784.01  403.34   1-0.71388 0.81220-0.69696-0.06118 0.06783-0.58015
   1 -15 -10  165.40  276.59   1-0.72463 0.82160-0.68199-0.07704 0.09895-0.56483
   1 -15  -9 1348.54  387.87   1-0.73241 0.82984-0.66808-0.09095 0.13123-0.55053
  -1 -15   8  666.63  275.25   1-0.55435 0.45358-0.00420-0.76395 0.83227-0.45894
   1 -15  -8  422.66  323.55   1-0.73933 0.83722-0.65311-0.10592 0.16379-0.53649
  -1 -15   7   24.52   66.11   1-0.57562 0.47559-0.03569-0.73130 0.81693-0.48888
   1 -15  -7 -109.84  167.53   1-0.74535 0.84371-0.63701-0.12202 0.19662-0.52274
  -1 -15   6  205.09  171.08   1-0.59722 0.49678-0.07050-0.69649 0.79896-0.51778
   1 -15  -6   52.14  168.66   1-0.75042 0.84924-0.61974-0.13930 0.22975-0.50928
  -1 -15   5  677.97  253.48   1-0.61854 0.51770-0.10677-0.66022 0.77846-0.54414
   1 -15  -5 1604.23  418.66   1-0.75473 0.85386-0.60096-0.15792 0.26308-0.49596
  -1 -15   4 2418.89  342.54   1-0.63919 0.53794-0.14407-0.62291 0.75542-0.56797
   1 -15  -4 2809.36  427.00   1-0.75772 0.85733-0.58117-0.17771 0.29680-0.48310
  -1 -15   3 5579.14  525.33   1-0.65717 0.55610-0.18094-0.58411 0.73170-0.59123
   1 -15  -3 5943.75  576.51   1-0.75958 0.85967-0.56000-0.19888 0.33080-0.47053
  -1 -15   2 4364.78  543.97   1-0.67561 0.57405-0.21915-0.54590 0.70392-0.61028
   1 -15  -2 2170.88  369.46   1-0.76021 0.86079-0.53739-0.22149 0.36507-0.45822
  -1 -15   113804.05  958.13   1-0.69246 0.59041-0.25714-0.50791 0.67406-0.62724
   1 -15  -113650.90 4047.85   1-0.75953 0.86060-0.51327-0.24561 0.39956-0.44613
  -1 -15   0  317.66  259.84   1-0.70704 0.60465-0.29480-0.47033 0.64279-0.64279
   1 -15   0  201.52  226.54   1-0.75674 0.85825-0.48732-0.27119 0.43571-0.43571
  -1 -15  -1 6117.09  605.94   1-0.72020 0.61717-0.33124-0.43389 0.60957-0.65637
   1 -15   1 4078.14  409.36   1-0.75311 0.85532-0.46035-0.29815 0.46999-0.42369
  -1 -15  -2 1156.78  354.43   1-0.73142 0.62774-0.36656-0.39857 0.57502-0.66863
   1 -15   2  751.10  292.88   1-0.74789 0.85081-0.43182-0.32668 0.50416-0.41156
  -1 -15  -3   29.45  191.91   1-0.74066 0.63635-0.40056-0.36457 0.53940-0.67981
  -1 -15  -4 1159.82  415.32   1-0.74748 0.64315-0.42986-0.32864 0.50643-0.69161
  -1 -15  -5 1506.68  385.52   1-0.75318 0.64815-0.46081-0.29770 0.46943-0.70090
  -1 -15  -6  400.43  300.66   1-0.75704 0.65131-0.49015-0.26835 0.43199-0.70977
  -1 -15  -7 4624.98  504.88   1-0.75983 0.65490-0.51955-0.23933 0.39078-0.71681
  -1 -15  -8 2074.28  433.97   1-0.76013 0.65471-0.54577-0.21311 0.35260-0.72521
  -1 -15  -9 4139.11  643.54   1-0.75883 0.65293-0.57037-0.18851 0.31439-0.73358
  -1 -15 -10  851.99  418.78   1-0.75603 0.64964-0.59338-0.16550 0.27624-0.74200
  -1 -15 -11 1459.54  460.77   1-0.75155 0.64481-0.61516-0.14387 0.23820-0.75067
   1 -16  -9  376.03  251.48   1-0.73072 0.82815-0.67134-0.13830 0.12387-0.54317
   1 -16  -8  575.73  241.84   1-0.73760 0.83549-0.65715-0.15248 0.15520-0.52791
   1 -16  -7 2138.90  361.26   1-0.74362 0.84198-0.64200-0.16763 0.18666-0.51278
  -1 -16   6 2369.82  489.35   1-0.62723 0.52679-0.12218-0.69594 0.76918-0.48800
   1 -16  -6 2790.16  426.64   1-0.74877 0.84760-0.62585-0.18378 0.21825-0.49778
  -1 -16   5 4685.55  709.08   1-0.64312 0.54305-0.15367-0.66238 0.75018-0.51607
   1 -16  -5 4809.12  487.95   1-0.75325 0.85238-0.60842-0.20105 0.24984-0.48272
  -1 -16   4 1567.61  319.51   1-0.66041 0.55985-0.18745-0.62860 0.72712-0.53983
   1 -16  -4 1238.04  343.31   1-0.75651 0.85612-0.59022-0.21926 0.28163-0.46793
   1 -16  -3 3580.80  380.72   1-0.75878 0.85888-0.57092-0.23855 0.31349-0.45322
  -1 -16   2 1636.04  325.62   1-0.69205 0.59049-0.25615-0.55990 0.67487-0.58122
   1 -16  -2 1257.10  251.67   1-0.76000 0.86058-0.55052-0.25895 0.34540-0.43855
  -1 -16   1  -12.03  151.86   1-0.70547 0.60372-0.29074-0.52540 0.64635-0.59954
   1 -16  -1   -4.33  131.12   1-0.76013 0.86119-0.52900-0.28048 0.37730-0.42388
  -1 -16   0 3599.95  440.82   1-0.71786 0.61547-0.32443-0.49171 0.61595-0.61595
   1 -16   0 2242.46  319.12   1-0.75845 0.85996-0.50606-0.30301 0.41065-0.41065
  -1 -16  -1 4901.98  462.74   1-0.72867 0.62564-0.35743-0.45871 0.58418-0.63099
  -1 -16  -2  506.47  290.15   1-0.73783 0.63416-0.38952-0.42662 0.55123-0.64484
  -1 -16  -3 2096.86  394.19   1-0.74470 0.64107-0.41714-0.39193 0.52096-0.65985
  -1 -16  -4  244.77  205.10   1-0.75082 0.64649-0.44694-0.36213 0.48630-0.67148
  -1 -16  -5  539.69  248.13   1-0.75531 0.65027-0.47546-0.33362 0.45104-0.68252
  -1 -16  -6  395.16  386.53   1-0.75819 0.65245-0.50263-0.30644 0.41532-0.69309
  -1 -16  -7  793.07  291.74   1-0.76015 0.65521-0.53002-0.27945 0.37582-0.70185
  -1 -16  -8  367.13  265.34   1-0.75985 0.65443-0.55455-0.25492 0.33924-0.71184
  -1 -16  -9 -142.88  210.65   1-0.75812 0.65221-0.57768-0.23179 0.30253-0.72172
   1 -17  -6  358.76  226.65   1-0.74656 0.84539-0.63326-0.22697 0.20399-0.48352
   1 -17  -5 1430.59  378.68   1-0.75099 0.85029-0.61744-0.24280 0.23401-0.46695
  -1 -17   4 4876.81  682.60   1-0.68078 0.58021-0.23044-0.63661 0.69528-0.50800
   1 -17  -4 4718.45  640.77   1-0.75481 0.85442-0.60055-0.25952 0.26382-0.45012
  -1 -17   3   56.77  151.75   1-0.69419 0.59312-0.26123-0.60583 0.67071-0.53024
   1 -17  -3   83.26  163.54   1-0.75749 0.85758-0.58307-0.27700 0.29364-0.43337
  -1 -17   2 5453.11  644.59   1-0.70619 0.60508-0.29258-0.57457 0.64473-0.55113
   1 -17  -2 4488.00  549.34   1-0.75927 0.85985-0.56477-0.29530 0.32331-0.41646
  -1 -17   1  197.80  182.79   1-0.71748 0.61572-0.32332-0.54383 0.61699-0.57019
  -1 -17   0 1494.68  321.43   1-0.72752 0.62513-0.35371-0.51343 0.58786-0.58786
  -1 -17  -1  388.52  321.11   1-0.73624 0.63321-0.38357-0.48358 0.55750-0.60430
  -1 -17  -2   17.23  165.08   1-0.74281 0.63989-0.40911-0.45053 0.52994-0.62253
  -1 -17  -3  514.52  269.49   1-0.74901 0.64539-0.43740-0.42224 0.49764-0.63653
  -1 -17  -4  129.99  182.18   1-0.75378 0.64945-0.46470-0.39494 0.46460-0.64978
  -1 -17  -5   35.65  184.91   1-0.75713 0.65209-0.49094-0.36870 0.43096-0.66243
  -1 -17  -6 1359.59  442.57   1-0.75907 0.65333-0.51606-0.34358 0.39683-0.67460
   2   0 -19  216.36  301.51   1-0.36039 0.55899-0.75707 0.75707-0.54493-0.33816
   2   0 -18 9638.27 1051.33   1-0.37345 0.57227-0.76085 0.76085-0.53068-0.30593
   2   0 -17  117.34  175.74   1-0.38546 0.58451-0.76411 0.76411-0.51724-0.27289
   2   0 -16  674.20  366.74   1-0.39470 0.59595-0.76680 0.76680-0.50617-0.23842
   2   0 -15 -164.60  168.23   1-0.40446 0.60586-0.76915 0.76915-0.49477-0.20328
   2   0 -14  362.75  312.22   1-0.41294 0.61449-0.77107 0.77107-0.48468-0.16683
   2   0 -13 -116.65  168.98   1-0.42000 0.62170-0.77258 0.77258-0.47615-0.12883
   2   0 -1219893.53  830.53   1-0.42543 0.62730-0.77367 0.77367-0.46948-0.08895
   2   0 -11   -4.38  159.63   1-0.42898 0.63100-0.77436 0.77436-0.46510-0.04680
   2   0 -1017269.75  563.92   1-0.43026 0.63243-0.77461 0.77461-0.46351-0.00185
   2   0  -9 -128.52  150.04   1-0.42875 0.63107-0.77432 0.77432-0.46539 0.04655
   2   0  -837527.64 1024.51   1-0.42369 0.62617-0.77333 0.77333-0.47163 0.09933
   2   0  -7   60.25  141.98   1-0.41400 0.61662-0.77130 0.77130-0.48341 0.15765
   2   0  -677759.42  917.75   1-0.39803 0.60081-0.76762 0.76762-0.50231 0.22308
   2   0  -5 -137.38  127.79   1-0.37484 0.57657-0.76124 0.76124-0.52913 0.29674
   2   0  -4108866.0  927.33   1-0.33740 0.53935-0.74981 0.74981-0.56915 0.38323
   2   0  -3   -8.61   74.43   1-0.28120 0.48338-0.72905 0.72905-0.62402 0.48458
   2   0  -2  283.00   77.64   1-0.19602 0.39840-0.69254 0.69254-0.69422 0.60137
   2   0  -1   90.66   57.61   1-0.07165 0.27435-0.62320 0.62320-0.77877 0.73235
   2   0   025096.40  629.19   1 0.10133 0.10133-0.50127 0.50127-0.85933 0.85933
  -2   0  -1   64.05   43.86   1-0.31325 0.10718 0.29063-0.29063 0.90410-0.95081
  -2   0  -2  679.67  106.99   1-0.51187 0.30546 0.05707-0.05707 0.85715-0.95049
  -2   0  -3  -34.39   48.62   1-0.65269 0.44610-0.17211 0.17211 0.73780-0.87827
  -2   0  -4  507.96   92.71   1-0.72527 0.51792-0.34658 0.34658 0.59486-0.78207
  -2   0  -5  -59.68   69.89   1-0.75377 0.54723-0.46462 0.46462 0.46469-0.69617
  -2   0  -685876.56  879.41   1-0.75998 0.55398-0.55107 0.55107 0.34457-0.62402
  -2   0  -7 -121.51  122.15   1-0.75280 0.54630-0.60964 0.60964 0.24824-0.57435
  -2   0  -8652247.8220266.3   1-0.73998 0.53302-0.65153 0.65153 0.16709-0.53980
  -2   0  -9  -54.72  174.09   1-0.72421 0.51679-0.68266 0.68266 0.09732-0.51661
  -2   0 -1062126.2119990.86   1-0.70393 0.49658-0.70942 0.70942 0.03436-0.50011
  -2   0 -11  112.48  177.98   1-0.68564 0.47795-0.72765 0.72765-0.02031-0.49201
  -2   0 -1210718.52  602.45   1-0.66578 0.45843-0.74274 0.74274-0.07111-0.48802
  -2   0 -13  -70.07  133.93   1-0.64652 0.43884-0.75389 0.75389-0.11680-0.48892
  -2   0 -14  603.56  361.98   1-0.62692 0.41892-0.76259 0.76259-0.15942-0.49290
  -2   0 -15  163.66  177.63   1-0.60697 0.39864-0.76925 0.76925-0.19958-0.49933
  -2   0 -16  263.08  226.47   1-0.58316 0.37648-0.77621 0.77621-0.23960-0.50571
  -2   0 -17   15.71  144.98   1-0.56226 0.35540-0.77950 0.77950-0.27609-0.51580
  -2   0 -18  164.57  216.89   1-0.54090 0.33385-0.78138 0.78138-0.31124-0.52724
  -2   0 -19  -63.01  144.46   1-0.51900 0.31178-0.78193 0.78193-0.34527-0.53979
   2  -1 -19 2127.83  516.25   1-0.39031 0.59110-0.76569 0.71517-0.51123-0.37297
   2   1 -19 1038.74  327.26   1-0.32553 0.52413-0.74577 0.79634-0.58124-0.30185
   2  -1 -18 3299.35  570.08   1-0.40423 0.60517-0.76910 0.71858-0.49504-0.34262
   2   1 -18 3842.32  589.47   1-0.33754 0.53637-0.74986 0.80042-0.56900-0.26761
   2  -1 -17  -43.84  165.00   1-0.41724 0.61833-0.77200 0.72148-0.47949-0.31163
   2   1 -17  572.27  342.93   1-0.34837 0.54741-0.75337 0.80393-0.55773-0.23240
   2  -1 -16 5676.14  584.78   1-0.42931 0.63056-0.77443 0.72391-0.46470-0.27989
   2   1 -16 6787.32  625.17   1-0.35792 0.55719-0.75633 0.80689-0.54758-0.19607
   2  -1 -15  342.91  207.89   1-0.44039 0.64179-0.77643 0.72591-0.45078-0.24727
   2   1 -15  679.89  335.16   1-0.36609 0.56558-0.75875 0.80932-0.53875-0.15842
   2  -1 -14 1941.69  411.83   1-0.45042 0.65197-0.77804 0.72752-0.43790-0.21361
   2   1 -14 2282.27  417.65   1-0.37273 0.57245-0.76065 0.81122-0.53147-0.11922
   2  -1 -13 2421.69  454.09   1-0.45929 0.66100-0.77931 0.72879-0.42628-0.17870
   2   1 -13 2390.35  470.86   1-0.37763 0.57757-0.76201 0.81258-0.52604-0.07818
   2  -1 -12 2508.84  347.05   1-0.46688 0.66874-0.78027 0.72975-0.41616-0.14227
   2   1 -12 2929.67  375.76   1-0.38053 0.58069-0.76280 0.81336-0.52280-0.03494
   2  -1 -11 1650.58  281.36   1-0.47299 0.67500-0.78096 0.73044-0.40789-0.10401
   2   1 -11 1448.05  241.56   1-0.38105 0.58144-0.76294 0.81351-0.52221 0.01094
   2  -1 -10 7191.84  571.39   1-0.47737 0.67954-0.78140 0.73088-0.40189-0.06347
   2   1 -10 8922.12  686.45   1-0.37871 0.57932-0.76231 0.81287-0.52483 0.06004
   2  -1  -9 8134.64  498.03   1-0.47965 0.68197-0.78162 0.73110-0.39875-0.02008
   2   1  -9 7504.32  448.73   1-0.37282 0.57366-0.76068 0.81125-0.53137 0.11306
   2  -1  -8  500.19  237.38   1-0.47929 0.68177-0.78158 0.73106-0.39924 0.02694
   2   1  -8  566.46  248.65   1-0.36243 0.56349-0.75768 0.80825-0.54272 0.17089
   2  -1  -7224484.5 4721.07   1-0.47551 0.67814-0.78122 0.73070-0.40444 0.07868
   2   1  -7226444.1 4755.44   1-0.34619 0.54747-0.75267 0.80324-0.56002 0.23467
   2  -1  -6 4660.90  468.02   1-0.46710 0.66988-0.78029 0.72978-0.41586 0.13664
   2   1  -6 4786.69  479.16   1-0.32216 0.52367-0.74459 0.79516-0.58462 0.30574
   2  -1  -525569.23  737.65   1-0.45214 0.65507-0.77830 0.72778-0.43567 0.20298
   2   1  -525159.64  721.34   1-0.28759 0.48932-0.73161 0.78218-0.61808 0.38569
   2  -1  -451108.35  627.97   1-0.42745 0.63054-0.77407 0.72355-0.46699 0.28084
   2   1  -451299.40  640.83   1-0.23694 0.43886-0.71220 0.76270-0.66077 0.47505
   2  -1  -283854.27  686.96   1-0.32471 0.52711-0.74549 0.69492-0.58206 0.48910
   2   1  -281773.60  719.22   1-0.07248 0.27495-0.62373 0.67421-0.77826 0.68544
   2  -1  -133419.11  808.72   1-0.21743 0.42005-0.70307 0.65257-0.67706 0.63063
   2   1  -132907.13  818.25   1 0.05419 0.14822-0.53815 0.58851-0.84110 0.79478
   2  -1   0 3675.85  313.95   1-0.04260 0.24552-0.60436 0.55388-0.79556 0.79556
   2   1   0 3728.91  326.70   1 0.20951-0.00673-0.41031 0.46066-0.88754 0.88754
  -2  -1  -192605.35  845.95   1-0.37424 0.16817 0.22421-0.27533 0.89981-0.94652
  -2  -1  -215315.18  443.91   1-0.52480 0.31839 0.03893-0.09014 0.85033-0.94366
  -2   1  -216335.27  477.78   1-0.50300 0.29659 0.06928-0.01807 0.86150-0.95483
  -2  -1  -3 3774.58  550.78   1-0.63740 0.43045-0.14075 0.08962 0.75756-0.89815
  -2   1  -3 3001.84  254.92   1-0.68457 0.47798-0.23891 0.28992 0.68867-0.82914
  -2  -1  -4 5985.12  243.49   1-0.70576 0.49841-0.29146 0.24045 0.64571-0.83292
  -2   1  -4 5074.67  414.79   1-0.74873 0.54289-0.43598 0.48654 0.49931-0.68449
  -2  -1  -531201.34  829.73   1-0.74207 0.53408-0.40632 0.35532 0.53312-0.76713
  -2   1  -533079.37  814.03   1-0.75979 0.55427-0.55593 0.60652 0.33712-0.57000
  -2  -1  -616118.48  589.08   1-0.75696 0.54971-0.48935 0.43878 0.43305-0.71083
  -2   1  -614782.77  487.68   1-0.74879 0.54275-0.62581 0.67641 0.21834-0.49787
  -2  -1  -7  411.02  138.86   1-0.75973 0.55325-0.55712 0.50652 0.33528-0.66131
  -2   1  -7  475.72  126.51   1-0.73139 0.52490-0.67006 0.72066 0.12678-0.45290
  -2  -1  -8526326.7177744.5   1-0.75370 0.54673-0.60624 0.55565 0.25375-0.62635
  -2   1  -8555152.011266.46   1-0.70893 0.50225-0.70344 0.75398 0.05077-0.42337
  -2  -1  -949199.14  878.99   1-0.74264 0.53521-0.64470 0.59410 0.18119-0.60048
  -2   1  -950185.61  810.59   1-0.68898 0.48196-0.72469 0.77524-0.01087-0.40830
  -2  -1 -10  432.37  246.32   1-0.72897 0.52108-0.67455 0.62395 0.11649-0.58237
  -2   1 -10 -103.57  106.61   1-0.66794 0.46123-0.74130 0.79188-0.06571-0.40023
  -2  -1 -11  -19.38  130.29   1-0.71062 0.50294-0.70129 0.65074 0.05651-0.56883
  -2   1 -11 -149.39   96.67   1-0.64816 0.44113-0.75305 0.80363-0.11307-0.39946
  -2  -1 -1232651.59 1137.29   1-0.69371 0.48569-0.72024 0.66970 0.00288-0.56178
  -2   1 -1235022.16 1148.95   1-0.62848 0.42112-0.76198 0.81256-0.15615-0.40298
  -2  -1 -13   25.90  136.27   1-0.67590 0.46754-0.73551 0.68496-0.04670-0.55876
  -2   1 -13 -200.96  125.98   1-0.60879 0.40112-0.76872 0.81929-0.19603-0.40969
  -2  -1 -14   57.33  140.12   1-0.65637 0.44837-0.74855 0.69798-0.09395-0.55836
  -2   1 -14  465.38  302.19   1-0.58538 0.37907-0.77577 0.82629-0.23557-0.41657
  -2  -1 -15   -2.81  143.04   1-0.63718 0.42885-0.75833 0.70776-0.13753-0.56138
  -2   1 -15  146.10  171.45   1-0.56526 0.35876-0.77912 0.82965-0.27099-0.42774
  -2  -1 -16  278.18  236.33   1-0.61742 0.40877-0.76601 0.71543-0.17890-0.56661
  -2   1 -16  313.98  212.55   1-0.54485 0.33817-0.78113 0.83166-0.30489-0.44042
  -2   1 -17   20.83  131.86   1-0.52407 0.31720-0.78191 0.83244-0.33756-0.45433
  -2  -1 -18   65.70  149.60   1-0.57278 0.36573-0.77804 0.72752-0.25800-0.58047
  -2   1 -18  253.71  227.95   1-0.50283 0.29579-0.78154 0.83206-0.36925-0.46922
  -2  -1 -19  432.73  328.87   1-0.55115 0.34392-0.78065 0.73013-0.29462-0.59044
   2   2 -19  169.87  209.78   1-0.28755 0.48615-0.73160 0.83273-0.61812-0.26497
   2  -2 -18 6561.91  833.89   1-0.43347 0.63441-0.77520 0.67417-0.45951-0.37816
   2   2 -18 4969.84  658.88   1-0.29835 0.49718-0.73582 0.83695-0.60790-0.22871
   2  -2 -17  358.40  362.05   1-0.44728 0.64837-0.77756 0.67652-0.44196-0.34916
   2   2 -17  -27.79  168.82   1-0.30780 0.50685-0.73939 0.84052-0.59879-0.19135
   2  -2 -16  531.49  298.21   1-0.46027 0.66152-0.77944 0.67840-0.42498-0.31961
   2   2 -16  290.17  256.61   1-0.31578 0.51505-0.74231 0.84344-0.59097-0.15269
   2  -2 -15 1008.36  351.26   1-0.47242 0.67382-0.78089 0.67986-0.40867-0.28939
   2   2 -15 1280.88  326.23   1-0.32213 0.52162-0.74458 0.84571-0.58465-0.11253
   2  -2 -14 1942.67  381.83   1-0.48369 0.68524-0.78197 0.68093-0.39313-0.25838
   2   2 -14 1701.74  345.96   1-0.32667 0.52639-0.74617 0.84730-0.58009-0.07061
   2  -2 -13  -87.07  150.96   1-0.49402 0.69572-0.78271 0.68167-0.37854-0.22643
   2   2 -13  112.09  157.70   1-0.32913 0.52907-0.74702 0.84815-0.57760-0.02662
   2  -2 -12  722.21  323.33   1-0.50519 0.70673-0.78163 0.68059-0.36581-0.19317
   2   2 -12  742.30  343.74   1-0.32918 0.52934-0.74704 0.84817-0.57755 0.01980
   2  -2 -11 7168.84  455.50   1-0.51334 0.71506-0.78186 0.68082-0.35378-0.15862
   2   2 -11 6583.61  432.31   1-0.32636 0.52675-0.74606 0.84720-0.58040 0.06913
   2  -2 -1023495.90  691.03   1-0.52018 0.72209-0.78193 0.68088-0.34348-0.12233
   2   2 -1023362.30  680.08   1-0.32008 0.52069-0.74386 0.84499-0.58669 0.12191
   2  -2  -9 8274.37  622.00   1-0.52550 0.72759-0.78190 0.68085-0.33536-0.08387
   2   2  -9 8507.23  634.41   1-0.30952 0.51036-0.74003 0.84116-0.59711 0.17880
   2  -2  -8   14.70  137.62   1-0.52895 0.73123-0.78184 0.68079-0.33004-0.04261
   2   2  -8   -0.86  130.59   1-0.29360 0.49466-0.73398 0.83511-0.61242 0.24058
   2  -2  -750794.39 1267.40   1-0.53003 0.73249-0.78181 0.68076-0.32836 0.00229
   2   2  -752340.37 1301.56   1-0.27084 0.47212-0.72478 0.82591-0.63350 0.30815
   2  -2  -685330.13 1010.07   1-0.52795 0.73059-0.78186 0.68081-0.33158 0.05209
   2   2  -686372.85  984.02   1-0.23739 0.43885-0.71241 0.81340-0.66038 0.38182
   2  -2  -568545.68  853.98   1-0.52145 0.72428-0.78193 0.68088-0.34155 0.10864
   2   2  -572181.78  843.68   1-0.19440 0.39609-0.69173 0.79272-0.69549 0.46335
   2  -2  -455823.42  700.65   1-0.50839 0.71140-0.78174 0.68069-0.36111 0.17478
   2   2  -458488.62  705.76   1-0.13556 0.33757-0.66160 0.76256-0.73750 0.55185
   2  -2  -3152292.8 1039.03   1-0.48391 0.68715-0.78199 0.68095-0.39283 0.25322
   2   2  -3150034.0 1097.17   1-0.05956 0.26180-0.61547 0.71643-0.78590 0.64666
   2  -2  -211293.16  355.08   1-0.44272 0.64611-0.77682 0.67578-0.44781 0.35474
   2   2  -211767.87  394.91   1 0.03885 0.16330-0.54966 0.65038-0.83448 0.74184
   2  -2  -115335.31  419.44   1-0.36999 0.57261-0.75988 0.65875-0.53449 0.48801
   2   2  -115570.83  464.54   1 0.15821 0.04434-0.45614 0.55684-0.87572 0.82943
   2  -2   010542.58  300.80   1-0.22532 0.42817-0.70681 0.60583-0.67054 0.67054
  -2  -2  -1274567.2 1724.41   1-0.42027 0.21420 0.17045-0.27269 0.89124-0.93795
   2  -2   1260192.7 1062.07   1 0.05881 0.14412-0.53464 0.43391-0.84302 0.88935
  -2   2  -2 3314.07  324.08   1-0.50837 0.30182 0.06301 0.03924 0.85882-0.95255
  -2  -2  -2 3420.90  517.40   1-0.53933 0.33292 0.01802-0.12044 0.84189-0.93523
  -2  -2  -3 3844.70  591.16   1-0.63153 0.42458-0.12996 0.02770 0.76437-0.90496
  -2   2  -3 3468.98  278.45   1-0.73887 0.53373-0.39346 0.49460 0.54703-0.68592
  -2  -2  -469519.02  736.69   1-0.69344 0.48636-0.25946 0.15745 0.67216-0.85945
  -2   2  -468470.84  461.28   1-0.75573 0.55063-0.59406 0.69526 0.27560-0.46196
  -2  -2  -599166.17  951.30   1-0.73086 0.52288-0.36469 0.26267 0.57691-0.81092
  -2   2  -5108801.1  693.77   1-0.73077 0.52520-0.67124 0.77244 0.12410-0.35704
  -2  -2  -6 2097.97  287.68   1-0.75061 0.54336-0.44576 0.34463 0.48772-0.76549
  -2   2  -6 1595.52  188.40   1-0.70098 0.49497-0.71273 0.81382 0.02500-0.30445
  -2  -2  -7114265.1 2514.43   1-0.75886 0.55090-0.51216 0.41103 0.40225-0.72632
  -2   2  -7132037.2 2764.13   1-0.67728 0.47094-0.73445 0.83554-0.04304-0.28298
  -2  -2  -870848.28 1701.89   1-0.75903 0.55207-0.56792 0.46673 0.31831-0.69092
  -2   2  -879094.76 1753.76   1-0.65433 0.44827-0.74972 0.85087-0.09878-0.27397
  -2  -2  -9 3237.78  322.69   1-0.75288 0.54543-0.61015 0.50896 0.24674-0.66592
  -2   2  -9 4371.26  359.35   1-0.63434 0.42796-0.75957 0.86072-0.14367-0.27567
  -2  -2 -10   25.89  125.46   1-0.74263 0.53473-0.64473 0.54353 0.18113-0.64701
  -2   2 -10   36.75   85.97   1-0.61523 0.40852-0.76673 0.86788-0.18331-0.28263
  -2  -2 -11   75.30  142.70   1-0.73006 0.52170-0.67257 0.57136 0.12106-0.63353
  -2   2 -11  255.37  167.27   1-0.59657 0.38954-0.77197 0.87312-0.21943-0.29310
  -2  -2 -12 2666.27  498.88   1-0.71289 0.50487-0.69831 0.59722 0.06433-0.62323
  -2   2 -12 2794.42  472.31   1-0.57413 0.36818-0.77782 0.87887-0.25564-0.30333
  -2  -2 -13  -10.50  139.62   1-0.69693 0.48857-0.71702 0.61594 0.01251-0.61798
  -2   2 -13 -100.37  116.36   1-0.55552 0.34939-0.78025 0.88129-0.28739-0.31817
  -2  -2 -14  286.93  236.78   1-0.67988 0.47119-0.73243 0.63134-0.03610-0.61594
  -2   2 -14  249.40  212.18   1-0.53675 0.33043-0.78158 0.88263-0.31783-0.33431
  -2  -2 -15    1.34  142.54   1-0.66099 0.45267-0.74579 0.64464-0.08287-0.61604
  -2   2 -15   -2.22  114.65   1-0.51768 0.31118-0.78192 0.88297-0.34727-0.35145
  -2  -2 -16  -67.57  140.42   1-0.64220 0.43354-0.75602 0.65487-0.12650-0.61900
  -2   2 -16   -4.62  121.77   1-0.49524 0.28909-0.78278 0.88382-0.37679-0.36780
  -2  -2 -17   85.90  155.40   1-0.62267 0.41370-0.76418 0.66303-0.16822-0.62388
  -2   2 -17  143.09  138.07   1-0.47530 0.26899-0.78120 0.88223-0.40474-0.38639
  -2  -2 -18  -96.98  157.88   1-0.60245 0.39315-0.77049 0.66934-0.20830-0.63040
  -2  -2 -19 -147.80  166.78   1-0.57821 0.37098-0.77713 0.67609-0.24845-0.63661
   2  -3 -19 2781.72  528.61   1-0.44444 0.64523-0.77710 0.62555-0.44561-0.43859
   2   3 -19 2459.02  440.92   1-0.24451 0.44294-0.71562 0.86711-0.65428-0.22784
   2  -3 -18  255.15  229.47   1-0.45959 0.66053-0.77935 0.62779-0.42589-0.41178
   2   3 -18   99.21  179.19   1-0.25396 0.45263-0.71981 0.87129-0.64604-0.18965
   2  -3 -17  676.02  348.94   1-0.47401 0.67510-0.78106 0.62951-0.40650-0.38463
   2   3 -17  378.40  260.74   1-0.26187 0.46077-0.72322 0.87471-0.63903-0.15023
   2  -3 -16  -26.70  210.90   1-0.48770 0.68895-0.78229 0.63073-0.38750-0.35709
   2   3 -16  451.73  297.68   1-0.27011 0.46938-0.72447 0.87617-0.63416-0.10949
   2  -3 -15  576.04  238.16   1-0.50250 0.70350-0.78152 0.62995-0.36973-0.32900
   2   3 -15 1061.80  323.50   1-0.27447 0.47396-0.72629 0.87799-0.63020-0.06697
   2  -3 -14  821.83  493.68   1-0.51469 0.71586-0.78189 0.63031-0.35176-0.30038
   2   3 -14   57.33  141.39   1-0.27672 0.47643-0.72722 0.87891-0.62815-0.02255
   2  -3 -13  281.00  322.62   1-0.52609 0.72745-0.78189 0.63032-0.33446-0.27111
   2   3 -13   27.44  137.64   1-0.27655 0.47649-0.72715 0.87884-0.62830 0.02408
   2  -3 -12  558.69  270.29   1-0.53668 0.73822-0.78158 0.63001-0.31794-0.24104
   2   3 -12  472.62  267.95   1-0.27356 0.47373-0.72591 0.87761-0.63103 0.07328
   2  -3 -11  261.33  186.09   1-0.54638 0.74811-0.78103 0.62946-0.30240-0.21000
   2   3 -11   58.11  144.33   1-0.26520 0.46549-0.72464 0.87612-0.63604 0.12534
   2  -3 -10 3226.49  373.11   1-0.55513 0.75704-0.78028 0.62871-0.28805-0.17776
   2   3 -10 3367.32  370.40   1-0.25488 0.45541-0.72021 0.87169-0.64523 0.18095
   2  -3  -9 6028.09  524.86   1-0.56278 0.76487-0.77944 0.62787-0.27521-0.14402
   2   3  -9 6675.89  538.20   1-0.23969 0.44045-0.71345 0.86494-0.65842 0.24057
   2  -3  -815716.54  695.19   1-0.56915 0.77143-0.77859 0.62701-0.26430-0.10835
   2   3  -815550.94  698.31   1-0.21850 0.41949-0.70358 0.85506-0.67618 0.30476
   2  -3  -761376.19 1484.05   1-0.57397 0.77643-0.77785 0.62628-0.25592-0.07015
   2   3  -762965.24 1510.31   1-0.18987 0.39110-0.68943 0.84092-0.69901 0.37402
   2  -3  -6129130.6 2811.33   1-0.57680 0.77945-0.77738 0.62581-0.25093-0.02855
   2   3  -6133662.7 2894.38   1-0.15201 0.35347-0.66934 0.82082-0.72723 0.44867
   2  -3  -5 1780.69  386.73   1-0.57696 0.77979-0.77735 0.62578-0.25065 0.01774
   2   3  -5 1569.65  226.43   1-0.10153 0.30331-0.64168 0.79312-0.76022 0.52816
   2  -3  -4311705.3 1760.60   1-0.57327 0.77628-0.77796 0.62639-0.25715 0.07082
   2   3  -4312709.8 1826.00   1-0.03880 0.24081-0.60184 0.75328-0.79767 0.61202
   2  -3  -3 5571.63  487.48   1-0.56355 0.76674-0.77934 0.62777-0.27391 0.13416
   2   3  -3 5942.02  516.39   1 0.04069 0.16121-0.54829 0.69938-0.83529 0.69633
   2  -3  -2   12.94   67.02   1-0.54343 0.74681-0.78123 0.62965-0.30717 0.21401
   2   3  -2  -23.89   96.94   1 0.13576 0.06657-0.47530 0.62634-0.86928 0.77669
   2  -3  -119823.39  516.60   1-0.50313 0.70668-0.78316 0.63161-0.36537 0.31883
  -2  -3   0119221.5 1224.20   1-0.34859 0.14303 0.25278-0.40614 0.90254-0.90254
   2  -3   0110409.4  644.78   1-0.41593 0.61963-0.77172 0.62017-0.48108 0.48108
  -2  -3  -138363.76 1057.21   1-0.45750 0.25144 0.12434-0.27771 0.88046-0.92717
   2  -3   136426.28  816.87   1-0.19266 0.39575-0.69085 0.53937-0.69684 0.74327
  -2  -3  -2   -3.55   54.63   1-0.55448 0.34806-0.00440-0.14922 0.83218-0.92551
  -2  -3  -315670.92  626.04   1-0.63136 0.42441-0.12966-0.02373 0.76456-0.90515
  -2  -3  -419017.83  592.87   1-0.68608 0.47899-0.24234 0.08933 0.68597-0.87325
  -2   3  -423345.44  527.66   1-0.53443 0.33011-0.78314 0.93469-0.31791 0.13176
  -2  -3  -515974.51  602.96   1-0.72238 0.51439-0.33771 0.18468 0.60342-0.83743
  -2   3  -519110.52  471.56   1-0.57186 0.36719-0.77818 0.92975-0.25961 0.02670
  -2  -3  -6 2491.76  229.74   1-0.74409 0.53684-0.41451 0.26280 0.52392-0.80170
  -2   3  -6 3303.41  141.31   1-0.57273 0.36789-0.77805 0.92962-0.25809-0.02140
  -2  -3  -7 1191.99  179.03   1-0.75587 0.54792-0.47985 0.32815 0.44540-0.76947
  -2   3  -7 1511.59  125.75   1-0.56675 0.36172-0.77892 0.93049-0.26843-0.05764
  -2  -3  -846970.96 1223.66   1-0.76021 0.55324-0.53664 0.38487 0.36616-0.73877
  -2   3  -859410.14 1334.70   1-0.55767 0.35245-0.78002 0.93160-0.28382-0.08883
  -2  -3  -9 1620.98  235.54   1-0.75773 0.55028-0.58105 0.42927 0.29698-0.71617
  -2   3  -9 1784.43  210.31   1-0.54673 0.34134-0.78100 0.93257-0.30184-0.11740
  -2  -3 -10 7042.91  582.77   1-0.75078 0.54289-0.61829 0.46648 0.23244-0.69832
  -2   3 -10 7157.96  518.46   1-0.53449 0.32891-0.78167 0.93324-0.32139-0.14442
  -2  -3 -1110162.58  598.91   1-0.74101 0.53265-0.64896 0.49716 0.17244-0.68491
  -2   3 -1110676.70  473.75   1-0.52120 0.31544-0.78193 0.93350-0.34193-0.17047
  -2  -3 -1211282.31  569.93   1-0.72893 0.52011-0.67462 0.52281 0.11632-0.67538
  -2   3 -1211186.91  466.19   1-0.50701 0.30107-0.78170 0.93327-0.36314-0.19584
  -2  -3 -13  787.95  434.61   1-0.71240 0.50404-0.69897 0.54733 0.06262-0.66809
  -2   3 -13  566.72  313.13   1-0.48854 0.28285-0.78235 0.93390-0.38632-0.21866
  -2  -3 -14 1290.70  298.96   1-0.69701 0.48831-0.71694 0.56531 0.01275-0.66480
  -2   3 -14  858.61  457.13   1-0.47277 0.26692-0.78093 0.93249-0.40819-0.24333
  -2  -3 -15  496.14  218.46   1-0.68045 0.47142-0.73197 0.58034-0.03457-0.66404
  -2  -3 -16  837.24  396.82   1-0.66198 0.45333-0.74518 0.59346-0.08046-0.66504
  -2   3 -16  106.16  120.81   1-0.43885 0.23269-0.77616 0.92772-0.45273-0.29186
  -2  -3 -17 -300.25  157.97   1-0.64346 0.43448-0.75541 0.60369-0.12369-0.66841
  -2  -3 -18  443.53  336.20   1-0.62409 0.41479-0.76366 0.61194-0.16530-0.67340
  -2  -3 -19 -129.76  178.07   1-0.60391 0.39429-0.77010 0.61838-0.20549-0.67980
   2  -4 -18 3022.34  559.05   1-0.48272 0.68366-0.78189 0.57982-0.39448-0.44318
   2   4 -18 1669.96  409.38   1-0.20849 0.40716-0.69874 0.90072-0.68431-0.15138
   2  -4 -17  940.23  474.88   1-0.49938 0.70000-0.78137 0.57928-0.37426-0.41764
   2   4 -17 1138.32  327.45   1-0.21475 0.41365-0.70178 0.90376-0.67924-0.11002
   2  -4 -16  115.72  327.66   1-0.51355 0.71436-0.78187 0.57977-0.35346-0.39184
   2   4 -16  182.15  183.68   1-0.21910 0.41823-0.70387 0.90585-0.67568-0.06715
   2  -4 -15 8161.78  707.97   1-0.52706 0.72805-0.78187 0.57978-0.33297-0.36576
   2   4 -15 8789.80  724.41   1-0.22134 0.42070-0.70493 0.90691-0.67384-0.02256
   2  -4 -14  310.21  297.69   1-0.53991 0.74109-0.78143 0.57933-0.31281-0.33933
   2   4 -14  169.11  165.07   1-0.22119 0.42078-0.70486 0.90684-0.67397 0.02398
   2  -4 -13  552.03  383.06   1-0.55210 0.75346-0.78057 0.57847-0.29306-0.31250
   2   4 -13  920.18  364.35   1-0.21830 0.41813-0.70348 0.90546-0.67634 0.07279
   2  -4 -12  992.69  414.69   1-0.56361 0.76515-0.77934 0.57724-0.27380-0.28517
   2   4 -12 1464.59  338.81   1-0.21224 0.41230-0.70056 0.90254-0.68129 0.12415
   2  -4 -11  744.70  313.18   1-0.57441 0.77614-0.77778 0.57568-0.25514-0.25726
   2   4 -11 1215.96  259.59   1-0.20246 0.40275-0.69576 0.89774-0.68914 0.17843
   2  -4 -10 3860.45  343.39   1-0.58448 0.78639-0.77595 0.57385-0.23721-0.22861
   2   4 -10 4469.85  368.78   1-0.18826 0.38879-0.68861 0.89059-0.70026 0.23598
   2  -4  -9   47.48  151.73   1-0.59662 0.79716-0.77196 0.56966-0.21934-0.20000
   2   4  -9  499.25  234.52   1-0.16879 0.36955-0.67843 0.88041-0.71500 0.29715
   2  -4  -814127.77  498.27   1-0.60491 0.80578-0.76982 0.56753-0.20357-0.16918
   2   4  -814780.91  681.45   1-0.14298 0.34397-0.66432 0.86629-0.73364 0.36222
   2  -4  -7 2071.73  251.23   1-0.61219 0.81338-0.76769 0.56540-0.18934-0.13681
   2   4  -7 2490.22  243.58   1-0.10819 0.30951-0.64567 0.84759-0.75591 0.43103
   2  -4  -634836.02  943.94   1-0.61827 0.81979-0.76572 0.56343-0.17718-0.10238
   2   4  -635500.11  952.75   1-0.06583 0.26738-0.61949 0.82141-0.78223 0.50376
   2  -4  -5 5778.93  524.23   1-0.62285 0.82469-0.76412 0.56182-0.16786-0.06510
   2   4  -5 7215.24  352.11   1-0.01305 0.21483-0.58433 0.78625-0.81140 0.57934
   2  -4  -497206.49  978.21   1-0.62538 0.82755-0.76318 0.56088-0.16261-0.02376
   2   4  -497775.40  974.21   1 0.05286 0.14878-0.53915 0.74060-0.84054 0.65525
   2  -4  -316464.16  503.77   1-0.62495 0.82744-0.76334 0.56104-0.16351 0.02373
   2   4  -318610.68  587.88   1 0.13070 0.07142-0.47955 0.68094-0.86772 0.72884
   2  -4  -2 5552.14  471.46   1-0.61968 0.82249-0.76524 0.56294-0.17433 0.08114
  -2  -4   1 5674.07  511.43   1-0.30366 0.09861 0.30062-0.50510 0.90411-0.85740
   2  -4  -1 5442.96  447.83   1-0.60536 0.80850-0.76970 0.56740-0.20269 0.15610
  -2  -4   011449.73  794.67   1-0.39908 0.19353 0.19561-0.40010 0.89580-0.89580
   2  -4   010601.60  306.25   1-0.57005 0.77380-0.77845 0.57636-0.26274 0.26274
  -2  -4  -152036.13  816.84   1-0.49115 0.28500 0.08531-0.29016 0.86688-0.91355
   2  -4   150040.94  341.92   1-0.47407 0.67792-0.78107 0.57900-0.40642 0.45296
  -2  -4  -223585.26  744.74   1-0.57062 0.36407-0.02788-0.17664 0.82073-0.91446
  -2  -4  -3 1265.26  220.75   1-0.63476 0.42780-0.13587-0.06865 0.76066-0.90125
  -2  -4  -4 5584.08  509.47   1-0.68282 0.47574-0.23499 0.03098 0.69175-0.87903
  -2  -4  -5 2426.89  332.79   1-0.71678 0.50879-0.32132 0.11728 0.61885-0.85286
  -2   4  -5 2193.77  177.92   1-0.09298-0.11108-0.63648 0.83840-0.76566 0.53360
  -2  -4  -6 1932.29  228.09   1-0.73941 0.53078-0.39560 0.19156 0.54475-0.82557
  -2   4  -6 2565.33  114.88   1-0.30849 0.10430-0.73964 0.94191-0.59812 0.31925
  -2  -4  -715915.34 5397.19   1-0.75238 0.54443-0.45589 0.25362 0.47547-0.79954
  -2   4  -719797.25 6692.05   1-0.37734 0.17293-0.76193 0.96420-0.52636 0.20100
  -2  -4  -8 1203.38  434.26   1-0.75867 0.55001-0.50921 0.30694 0.40633-0.77670
  -2   4  -8 1426.20  480.61   1-0.40781 0.20288-0.76993 0.97200-0.49080 0.11850
  -2  -4  -9  344.93  219.43   1-0.75973 0.55228-0.55717 0.35480 0.33520-0.75438
  -2   4  -9  147.28   91.34   1-0.42083 0.21575-0.77275 0.97482-0.47513 0.05630
  -2  -4 -10   69.39  136.46   1-0.75571 0.54777-0.59537 0.39300 0.27281-0.73857
  -2   4 -10  104.40   73.26   1-0.42470 0.21946-0.77353 0.97560-0.47039 0.00502
  -2  -4 -11  979.07  212.61   1-0.74809 0.53973-0.62823 0.42581 0.21372-0.72619
  -2   4 -11  988.39  154.77   1-0.42294 0.21755-0.77318 0.97525-0.47255-0.03935
  -2  -4 -12  315.25  246.19   1-0.73817 0.52934-0.65584 0.45343 0.15801-0.71706
  -2   4 -12   47.72   85.17   1-0.41736 0.21182-0.77202 0.97410-0.47935-0.07909
  -2  -4 -13  188.15  170.12   1-0.72621 0.51692-0.67937 0.47696 0.10519-0.71084
  -2   4 -13   56.06   95.94   1-0.40899 0.20329-0.77019 0.97227-0.48940-0.11557
  -2  -4 -14  192.79  166.25   1-0.70994 0.50125-0.70217 0.49999 0.05417-0.70622
  -2   4 -14   39.88  101.28   1-0.39843 0.19258-0.76772 0.96979-0.50184-0.14967
  -2  -4 -15  941.94  398.65   1-0.69482 0.48579-0.71915 0.51698 0.00617-0.70479
  -2   4 -15  142.93  121.75   1-0.38672 0.18052-0.76444 0.96670-0.51582-0.18136
  -2  -4 -16  934.75  470.32   1-0.67850 0.46914-0.73351 0.53134-0.03980-0.70539
  -2  -4 -17   78.34  165.93   1-0.66025 0.45127-0.74625 0.54395-0.08467-0.70743
  -2  -4 -18    4.97  169.47   1-0.64184 0.43254-0.75619 0.55389-0.12729-0.71140
   2  -5 -18  244.86  242.26   1-0.50477 0.70521-0.78162 0.52900-0.36643-0.47204
   2   5 -18   51.58  177.27   1-0.16026 0.35893-0.67385 0.92632-0.72127-0.11442
   2  -5 -17   69.45  200.91   1-0.51989 0.72052-0.78193 0.52931-0.34393-0.44796
   2   5 -17  -64.57  166.38   1-0.16481 0.36371-0.67630 0.92877-0.71794-0.07132
   2  -5 -16  607.62  400.47   1-0.53439 0.73520-0.78168 0.52906-0.32155-0.42376
   2   5 -16  372.26  206.45   1-0.16724 0.36637-0.67761 0.93008-0.71615-0.02669
   2  -5 -15  163.06  219.44   1-0.54827 0.74927-0.78089 0.52827-0.29933-0.39940
   2   5 -15    0.66  156.66   1-0.16733 0.36670-0.67765 0.93013-0.71608 0.01966
   2  -5 -14 6897.03  664.97   1-0.56156 0.76273-0.77959 0.52697-0.27728-0.37487
   2   5 -14 6822.99  595.38   1-0.16478 0.36438-0.67629 0.92876-0.71796 0.06797
   2  -5 -13 2452.78  421.59   1-0.57425 0.77561-0.77780 0.52518-0.25543-0.35013
   2   5 -13 2720.25  424.43   1-0.15923 0.35906-0.67329 0.92576-0.72202 0.11846
   2  -5 -12  -11.32  181.23   1-0.58635 0.78789-0.77557 0.52295-0.23382-0.32516
   2   5 -12  255.60  145.78   1-0.15023 0.35029-0.66835 0.92082-0.72851 0.17138
   2  -5 -11 1269.77  538.15   1-0.60074 0.80063-0.77094 0.51807-0.21156-0.30097
   2   5 -11   50.16  148.55   1-0.13571 0.33612-0.66168 0.91408-0.73739 0.22686
   2  -5 -10 6735.73  427.86   1-0.61154 0.81175-0.76790 0.51503-0.19064-0.27530
   2   5 -10 7415.85  431.86   1-0.11805 0.31869-0.65150 0.90390-0.74940 0.28528
   2  -5  -912439.92  524.22   1-0.62172 0.82226-0.76452 0.51165-0.17017-0.24917
   2   5  -913118.35  509.96   1-0.09496 0.29583-0.63769 0.89009-0.76440 0.34670
   2  -5  -8 4048.93  411.10   1-0.63126 0.83212-0.76087 0.50800-0.15028-0.22247
   2   5  -8 3791.30  369.27   1-0.06554 0.26664-0.61931 0.87171-0.78239 0.41110
   2  -5  -7 3999.18  314.42   1-0.64011 0.84131-0.75700 0.50413-0.13111-0.19504
   2   5  -7 4431.76  331.97   1-0.02883 0.23015-0.59514 0.84754-0.80310 0.47821
   2  -5  -6 1106.30  189.29   1-0.64823 0.84974-0.75302 0.50015-0.11291-0.16665
   2   5  -6 1015.74  178.65   1 0.01783 0.18330-0.56504 0.81685-0.82486 0.54693
   2  -5  -5 8015.95  403.98   1-0.65550 0.85734-0.74906 0.49619-0.09602-0.13694
   2   5  -5 8971.52  459.67   1 0.07177 0.12961-0.52466 0.77647-0.84827 0.61667
   2  -5  -466957.68 1538.70   1-0.66177 0.86393-0.74531 0.49244-0.08098-0.10539
   2   5  -472243.26 1660.43   1 0.13680 0.06509-0.47443 0.72617-0.86959 0.68441
   2  -5  -342030.85 1090.15   1-0.66676 0.86925-0.74210 0.48923-0.06867-0.07111
   2   5  -343695.15 1144.99   1 0.20830-0.00618-0.41143 0.66318-0.88731 0.74843
   2  -5  -2 1410.05  247.10   1-0.66995 0.87276-0.73992 0.48705-0.06063-0.03255
  -2  -5   1172569.7 1756.01   1-0.36052 0.15547 0.23961-0.49522 0.90144-0.85474
   2  -5  -1157351.5  992.58   1-0.67024 0.87338-0.73971 0.48684-0.05987 0.01327
   2  -5   0 8769.95  278.63   1-0.66493 0.86839-0.74330 0.49043-0.07322 0.07322
  -2  -5  -1 5293.54  753.33   1-0.51904 0.31290 0.04706-0.30312 0.85344-0.90011
   2  -5   1 4056.94  331.58   1-0.64484 0.84862-0.75474 0.50187-0.12059 0.16719
  -2  -5  -2127701.0 1615.17   1-0.58573 0.37918-0.05176-0.20390 0.80884-0.90257
   2  -5   2125083.6  524.85   1-0.56389 0.76790-0.78060 0.52801-0.26959 0.36267
  -2  -5  -429024.44  852.50   1-0.68257 0.47548-0.23443-0.02058 0.69219-0.87948
  -2  -5  -512229.01  596.59   1-0.71371 0.50572-0.31272 0.05767 0.62675-0.86076
  -2  -5  -6 7256.89  439.58   1-0.73572 0.52709-0.38165 0.12661 0.55950-0.84032
  -2   5  -6 8633.04  306.20   1 0.10400-0.30811-0.50148 0.75323-0.85888 0.58112
  -2  -5  -712803.35  639.53   1-0.74931 0.54136-0.43890 0.18606 0.49587-0.81994
  -2   5  -716772.12  577.00   1-0.10310-0.10142-0.64262 0.89502-0.75921 0.43433
  -2  -5  -8 5951.37  554.85   1-0.75710 0.54844-0.49070 0.23786 0.43127-0.80163
  -2   5  -8 5472.66  372.48   1-0.20220-0.00250-0.69564 0.94811-0.68934 0.31792
  -2  -5  -919687.88  656.51   1-0.76021 0.55276-0.53825 0.28529 0.36379-0.78298
  -2   5  -922547.25  414.83   1-0.25431 0.04937-0.71996 0.97243-0.64574 0.22789
  -2  -5 -10 6563.23  426.82   1-0.75820 0.55027-0.57689 0.32393 0.30383-0.76959
  -2   5 -10 7405.11 2508.39   1-0.28843 0.08335-0.73195 0.98478-0.61729 0.15250
  -2  -5 -11 8078.94  552.96   1-0.75286 0.54444-0.61025 0.35728 0.24656-0.75890
  -2   5 -11 7793.74  336.91   1-0.30433 0.09902-0.73809 0.99092-0.60216 0.09089
  -2  -5 -12  -90.74  161.00   1-0.74451 0.53569-0.63948 0.38646 0.19172-0.75078
  -2   5 -12    4.66   71.45   1-0.31167 0.10614-0.74082 0.99365-0.59501 0.03726
  -2  -5 -13   78.91  205.16   1-0.73425 0.52496-0.66440 0.41138 0.13945-0.74510
  -2   5 -13  246.47  180.44   1-0.31308 0.10732-0.74133 0.99416-0.59363-0.01059
  -2  -5 -14  796.78  333.85   1-0.72216 0.51240-0.68592 0.43290 0.08940-0.74164
  -2  -5 -15   94.40  150.70   1-0.70589 0.49687-0.70714 0.45442 0.04071-0.73933
  -2  -5 -16  426.45  259.17   1-0.69081 0.48145-0.72300 0.47028-0.00558-0.73961
  -2  -5 -17  172.53  181.11   1-0.67454 0.46485-0.73651 0.48380-0.05025-0.74151
  -2  -5 -18   59.27  181.95   1-0.65631 0.44701-0.74859 0.49572-0.09410-0.74460
   2  -6 -18  656.97  233.22   1-0.52236 0.72280-0.78193 0.47878-0.34017-0.49830
   2   6 -18  388.88  293.42   1-0.10801 0.30682-0.64556 0.94844-0.75602-0.07938
   2  -6 -17  304.91  242.11   1-0.53764 0.73827-0.78154 0.47840-0.31641-0.47548
   2   6 -17  845.60  303.92   1-0.11085 0.30988-0.64725 0.95013-0.75417-0.03482
   2  -6 -16  216.45  217.53   1-0.55232 0.75313-0.78055 0.47741-0.29269-0.45262
   2   6 -16  382.98  194.28   1-0.11139 0.31065-0.64757 0.95045-0.75381 0.01122
   2  -6 -15 1262.02  345.61   1-0.56642 0.76741-0.77897 0.47583-0.26901-0.42972
   2   6 -15  951.41  437.36   1-0.10939 0.30888-0.64638 0.94926-0.75512 0.05895
   2  -6 -14 2853.79  441.29   1-0.57994 0.78112-0.77682 0.47368-0.24536-0.40678
   2   6 -14 2904.65  422.12   1-0.10456 0.30428-0.64350 0.94638-0.75827 0.10850
   2  -6 -13  369.72  293.06   1-0.59583 0.79508-0.77215 0.46870-0.22081-0.38491
   2   6 -13  351.74  214.58   1-0.09652 0.29648-0.63864 0.94152-0.76342 0.16006
   2  -6 -1223873.25  796.67   1-0.60814 0.80771-0.76891 0.46547-0.19729-0.36183
   2   6 -1225277.82  738.14   1-0.08486 0.28504-0.63148 0.93436-0.77072 0.21378
   2  -6 -11   85.15  194.93   1-0.61992 0.81981-0.76516 0.46171-0.17384-0.33869
   2   6 -11  132.63  165.44   1-0.06906 0.26947-0.62156 0.92444-0.78031 0.26978
   2  -6 -10 2877.44  319.97   1-0.63116 0.83138-0.76090 0.45746-0.15047-0.31546
   2   6 -10 3286.03  335.28   1-0.04855 0.24919-0.60829 0.91118-0.79222 0.32810
   2  -6  -9 6400.42  416.58   1-0.64188 0.84242-0.75617 0.45273-0.12720-0.29214
   2   6  -9 6012.20  386.27   1-0.02268 0.22354-0.59096 0.89384-0.80637 0.38867
   2  -6  -8 8684.35  663.39   1-0.65207 0.85294-0.75097 0.44753-0.10405-0.26869
   2   6  -810360.84  473.09   1 0.01099 0.18962-0.56995 0.87213-0.82159 0.45103
   2  -6  -7 4323.60  436.12   1-0.66174 0.86293-0.74533 0.44189-0.08106-0.24510
   2   6  -7 4450.52  408.14   1 0.04960 0.15126-0.54161 0.84379-0.83915 0.51491
   2  -6  -612767.63  595.13   1-0.67079 0.87278-0.73921 0.43595-0.05994-0.21950
   2   6  -613865.08  634.90   1 0.09537 0.10575-0.50606 0.80823-0.85720 0.57927
   2  -6  -5 8654.84  435.24   1-0.67932 0.88165-0.73287 0.42961-0.03761-0.19525
   2   6  -5 9821.02  508.92   1 0.15049 0.05118-0.46279 0.76489-0.87359 0.64212
   2  -6  -4   57.77  104.01   1-0.68728 0.88994-0.72622 0.42295-0.01570-0.17059
   2   6  -4  301.26  116.46   1 0.21040-0.00850-0.40950 0.71159-0.88771 0.70253
   2  -6  -324212.05  675.91   1-0.69463 0.89763-0.71933 0.41607 0.00563-0.14535
  -2  -6   2 4347.32  322.85   1-0.33777 0.13324 0.26454-0.57127 0.90328-0.80986
   2  -6  -2 3562.75  245.42   1-0.70133 0.90466-0.71235 0.40909 0.02609-0.11924
   2  -6  -1 1366.33  169.37   1-0.70725 0.91092-0.70551 0.40225 0.04515-0.09173
  -2  -6   061194.09 1142.79   1-0.48055 0.27468 0.09937-0.40664 0.87131-0.87131
   2  -6   052353.15  527.99   1-0.71214 0.91615-0.69930 0.39604 0.06174-0.06174
  -2  -6  -128849.67 1343.06   1-0.54398 0.33784 0.01120-0.31847 0.83901-0.88568
   2  -6   122424.50  563.26   1-0.71541 0.91975-0.69484 0.39157 0.07328-0.02671
  -2  -6  -211638.47 1305.18   1-0.60057 0.39402-0.07607-0.23072 0.79593-0.88966
   2  -6   2 8492.17  307.00   1-0.71491 0.91959-0.69554 0.39228 0.07149 0.02165
  -2  -6  -3 1352.54  190.09   1-0.64758 0.44063-0.15997-0.14682 0.74500-0.88559
  -2  -6  -472715.42 1717.05   1-0.68449 0.47741-0.23874-0.06727 0.68881-0.87610
  -2  -6  -5 9575.41  493.06   1-0.71270 0.50471-0.30995 0.00390 0.62926-0.86327
  -2  -6  -6  531.91  188.62   1-0.73351 0.52488-0.37378 0.06772 0.56765-0.84847
  -2  -6  -7 7395.51  594.96   1-0.74702 0.53907-0.42766 0.12426 0.50897-0.83304
  -2  -6  -8 5553.85  521.43   1-0.75556 0.54690-0.47741 0.17401 0.44854-0.81890
  -2  -6  -917421.79  778.24   1-0.75999 0.55254-0.52387 0.22031 0.38465-0.80383
  -2  -6 -1017152.16  808.81   1-0.75944 0.55150-0.56225 0.25869 0.32728-0.79304
  -2  -6 -11 3081.65  587.66   1-0.75562 0.54720-0.59587 0.29231 0.27195-0.78429
  -2  -6 -12  137.47  178.09   1-0.74881 0.53999-0.62570 0.32208 0.21854-0.77760
  -2   6 -12   83.59   80.19   1-0.18295-0.02268-0.68587 0.98884-0.70434 0.14721
  -2  -6 -13  284.02  251.19   1-0.74000 0.53071-0.65147 0.34786 0.16722-0.77287
  -2  -6 -14   12.38  151.28   1-0.72928 0.51952-0.67400 0.37038 0.11777-0.77000
  -2  -6 -15  193.60  190.13   1-0.71438 0.50535-0.69628 0.39302 0.06958-0.76820
  -2  -6 -16  305.36  256.56   1-0.70046 0.49110-0.71330 0.41004 0.02336-0.76855
  -2  -6 -17  173.51  262.50   1-0.68524 0.47555-0.72799 0.42473-0.02141-0.77035
  -2  -6 -18 -137.62  183.41   1-0.66885 0.45882-0.74056 0.43729-0.06487-0.77346
   2  -7 -17 1735.61  439.91   1-0.55285 0.75348-0.78050 0.42683-0.29182-0.50007
   2   7 -17 1210.47  365.39   1-0.05644 0.25548-0.61345 0.96681-0.78771-0.00128
   2  -7 -16 2370.88  444.81   1-0.56759 0.76840-0.77881 0.42514-0.26698-0.47832
   2   7 -16 2406.42  414.46   1-0.05519 0.25445-0.61263 0.96599-0.78843 0.04584
   2  -7 -15  -67.06  194.00   1-0.58176 0.78276-0.77648 0.42281-0.24210-0.45662
   2   7 -15  250.57  240.08   1-0.05125 0.25074-0.61006 0.96342-0.79069 0.09451
   2  -7 -14 4954.22  545.21   1-0.59826 0.79718-0.77156 0.41754-0.21626-0.43606
   2   7 -14 6095.69  600.40   1-0.04434 0.24406-0.60552 0.95888-0.79459 0.14482
   2  -7 -13 1771.33  433.30   1-0.61121 0.81046-0.76800 0.41398-0.19128-0.41444
   2   7 -13 2376.36 1042.14   1-0.03412 0.23407-0.59871 0.95207-0.80023 0.19688
   2  -7 -12  428.87  355.62   1-0.62364 0.82321-0.76383 0.40981-0.16623-0.39290
   2   7 -12   51.45  140.10   1-0.02020 0.22039-0.58927 0.94263-0.80768 0.25074
   2  -7 -1110981.49  593.80   1-0.63554 0.83544-0.75905 0.40504-0.14109-0.37145
   2   7 -1111415.59  559.34   1-0.00040 0.20025-0.57804 0.93057-0.81600 0.30647
   2  -7 -10 3991.68  719.50   1-0.64694 0.84716-0.75368 0.39966-0.11583-0.35010
   2   7 -10 2313.72  417.46   1 0.02227 0.17783-0.56183 0.91436-0.82694 0.36374
   2  -7  -9 5779.97  372.88   1-0.65785 0.85839-0.74769 0.39367-0.09045-0.32890
   2   7  -9 6979.64  470.63   1 0.05003 0.15033-0.54129 0.89383-0.83934 0.42245
   2  -7  -821534.77  861.63   1-0.66831 0.86964-0.74092 0.38711-0.06622-0.30637
   2   7  -822947.45  876.99   1 0.08330 0.11731-0.51565 0.86818-0.85273 0.48217
   2  -7  -712394.67  509.18   1-0.67821 0.87987-0.73374 0.37993-0.04058-0.28543
   2   7  -714124.34  536.58   1 0.12241 0.07846-0.48405 0.83658-0.86643 0.54218
   2  -7  -6  422.40  225.39   1-0.68763 0.88963-0.72590 0.37209-0.01469-0.26475
   2   7  -6   30.02  111.60   1 0.16961 0.03184-0.44621 0.79866-0.87870 0.60093
   2  -7  -5 1447.31  511.04   1-0.69660 0.89893-0.71735 0.36355 0.01154-0.24441
   2  -7  -4 3164.88  234.38   1-0.70513 0.90780-0.70803 0.35423 0.03823-0.22453
  -2  -7   312198.98  602.97   1-0.32718 0.12316 0.27591-0.63376 0.90378-0.76366
   2  -7  -3 9820.49  466.51   1-0.71324 0.91624-0.69784 0.34403 0.06555-0.20528
  -2  -7   224621.92  776.42   1-0.38915 0.18462 0.20716-0.56501 0.89757-0.80415
   2  -7  -221534.76  623.25   1-0.72094 0.92427-0.68661 0.33280 0.09379-0.18694
  -2  -7   124297.71  938.51   1-0.45082 0.24578 0.13281-0.49066 0.88267-0.83596
   2  -7  -121119.80  589.62   1-0.73023 0.93300-0.67225 0.31803 0.12179-0.16838
  -2  -7   0 1396.27  189.10   1-0.51262 0.30675 0.05604-0.41451 0.85678-0.85678
   2  -7   0  968.90  108.89   1-0.73708 0.94032-0.65832 0.30410 0.15269-0.15269
  -2  -7  -120923.49  722.13   1-0.56664 0.36049-0.02292-0.33555 0.82364-0.87031
   2  -7   118344.13  477.92   1-0.74369 0.94739-0.64183 0.28761 0.18702-0.14043
  -2  -7  -2 6383.74  907.62   1-0.61505 0.40850-0.10068-0.25724 0.78202-0.87575
   2  -7   2 5065.31  226.28   1-0.75020 0.95436-0.62060 0.26638 0.22815-0.13497
  -2  -7  -3 1750.51  227.88   1-0.65477 0.44818-0.17620-0.18082 0.73499-0.87545
   2  -7   3 1418.81   81.30   1-0.75660 0.96124-0.58823 0.23401 0.28551-0.14575
  -2  -7  -4 4233.46  328.90   1-0.68797 0.48089-0.24667-0.11034 0.68252-0.86980
  -2  -7  -528300.13  707.03   1-0.71333 0.50534-0.31166-0.04539 0.62771-0.86172
  -2  -7  -626127.46  703.05   1-0.73263 0.52400-0.37072 0.01366 0.57078-0.85160
  -2  -7  -710430.15  491.10   1-0.74561 0.53765-0.42116 0.06719 0.51641-0.84048
  -2  -7  -8 3675.90  347.71   1-0.75436 0.54570-0.46859 0.11461 0.45973-0.83010
  -2  -7  -9 2967.44  359.47   1-0.75878 0.54942-0.51089 0.15692 0.40401-0.82067
  -2  -7 -10 3169.02  609.64   1-0.75998 0.55205-0.55116 0.19701 0.34444-0.81020
  -2  -7 -11 1683.12  335.41   1-0.75730 0.54888-0.58455 0.23040 0.29118-0.80351
  -2  -7 -12  188.61  210.10   1-0.75170 0.54288-0.61451 0.26029 0.23939-0.79845
  -2  -7 -13 2590.21  420.65   1-0.74409 0.53480-0.64070 0.28648 0.18928-0.79493
  -2  -7 -14  987.78  421.63   1-0.73452 0.52476-0.66383 0.30961 0.14070-0.79294
  -2  -7 -15  617.78  326.08   1-0.72325 0.51303-0.68421 0.32999 0.09358-0.79240
  -2  -7 -16  163.26  201.15   1-0.70794 0.49858-0.70467 0.35086 0.04746-0.79265
  -2  -7 -17  204.04  223.14   1-0.69370 0.48401-0.72025 0.36644 0.00286-0.79463
   2  -8 -17 1616.87  433.83   1-0.56572 0.76635-0.77906 0.37487-0.27020-0.52170
   2   8 -17 1258.31  332.02   1 0.00104 0.19726-0.57701 0.97991-0.81673 0.02927
   2  -8 -16  147.41  237.89   1-0.58044 0.78125-0.77673 0.37254-0.24447-0.50084
   2   8 -16  110.31  171.28   1 0.00396 0.19460-0.57495 0.97785-0.81817 0.07704
   2  -8 -1513338.32 4847.84   1-0.59745 0.79604-0.77176 0.36717-0.21778-0.48113
   2   8 -1512756.87  719.03   1 0.00965 0.18916-0.57091 0.97380-0.82095 0.12614
   2  -8 -14 1049.47  470.07   1-0.61092 0.80984-0.76809 0.36349-0.19186-0.46046
   2   8 -14  115.18  167.43   1 0.01838 0.18069-0.56465 0.96754-0.82512 0.17663
   2  -8 -13  288.89  232.43   1-0.62384 0.82308-0.76375 0.35916-0.16581-0.43991
   2   8 -13  223.10  229.30   1 0.03043 0.16890-0.55587 0.95877-0.83070 0.22853
   2  -8 -12  448.43  284.02   1-0.63623 0.83580-0.75876 0.35416-0.13961-0.41952
   2   8 -12 1005.22  265.42   1 0.04614 0.15344-0.54422 0.94711-0.83767 0.28182
   2  -8 -11 1387.25  327.99   1-0.64809 0.84799-0.75309 0.34850-0.11322-0.39931
   2   8 -11 1632.86  312.81   1 0.06584 0.13400-0.52924 0.93214-0.84590 0.33637
   2  -8 -10  571.63  335.13   1-0.65945 0.85967-0.74673 0.34214-0.08660-0.37933
   2   8 -10  682.23  333.10   1 0.08988 0.11022-0.51044 0.91334-0.85519 0.39199
   2  -8  -9 4179.93  717.85   1-0.67041 0.87140-0.73948 0.33513-0.06091-0.35825
   2   8  -9 4111.25  686.27   1 0.11855 0.08180-0.48723 0.89013-0.86518 0.44829
   2  -8  -8 1466.92  268.20   1-0.68073 0.88206-0.73174 0.32739-0.03380-0.33879
   2   8  -8 1610.45  248.76   1 0.15437 0.04664-0.45946 0.86225-0.87467 0.50432
   2  -8  -7 2948.32  329.69   1-0.69057 0.89223-0.72323 0.31888-0.00628-0.31973
   2   8  -7 2942.18  287.75   1 0.19276 0.00847-0.42560 0.82839-0.88413 0.56007
   2  -8  -619133.73  584.75   1-0.69993 0.90193-0.71387 0.30952 0.02173-0.30118
   2  -8  -5 3510.32  366.95   1-0.70882 0.91115-0.70357 0.29922 0.05041-0.28329
   2  -8  -459402.7819116.03   1-0.71725 0.91991-0.69221 0.28786 0.07994-0.26624
  -2  -8   313924.29  840.90   1-0.37966 0.17564 0.21805-0.62702 0.89905-0.75893
   2  -8  -310569.40  408.11   1-0.72735 0.92919-0.67742 0.27260 0.10980-0.24957
  -2  -8   246592.76 1359.46   1-0.43414 0.22961 0.15357-0.56254 0.88765-0.79424
   2  -8  -239018.95  997.17   1-0.73471 0.93702-0.66344 0.25861 0.14157-0.23474
  -2  -8   1 6132.47  829.83   1-0.49069 0.28509 0.08592-0.49561 0.86708-0.82041
   2  -8  -1 4424.07  268.25   1-0.74157 0.94435-0.64751 0.24269 0.17543-0.22202
  -2  -8   0 6071.24  714.31   1-0.54115 0.33528 0.01536-0.42505 0.84078-0.84078
   2  -8   0 4969.68  263.69   1-0.74789 0.95113-0.62890 0.22408 0.21243-0.21243
  -2  -8  -120366.61 1513.09   1-0.58794 0.38179-0.05532-0.35373 0.80700-0.85387
   2  -8   116021.97 5420.20   1-0.75351 0.95722-0.60624 0.20141 0.25432-0.20773
  -2  -8  -2 8962.46 1021.82   1-0.62909 0.42254-0.12553-0.28352 0.76712-0.86085
   2  -8   2 6794.45  290.17   1-0.75820 0.96227-0.57687 0.17213 0.30386-0.21071
  -2  -8  -3  -84.39  127.08   1-0.66337 0.45678-0.19346-0.21456 0.72284-0.86331
   2  -8   3    3.40   30.84   1-0.76021 0.96475-0.53525 0.13050 0.36822-0.22849
  -2  -8  -410276.47  477.09   1-0.69256 0.48547-0.25736-0.15066 0.67388-0.86116
  -2  -8  -5 1313.76  499.09   1-0.71519 0.50720-0.31685-0.09121 0.62296-0.85698
  -2  -8  -638675.51  865.65   1-0.73287 0.52423-0.37152-0.03654 0.56997-0.85078
  -2  -8  -712329.10  618.05   1-0.74502 0.53707-0.41857 0.01403 0.51934-0.84341
  -2  -8  -813822.65  702.80   1-0.75361 0.54495-0.46356 0.05902 0.46602-0.83638
  -2  -8  -911195.86  668.55   1-0.75831 0.54895-0.50417 0.09963 0.41323-0.82989
  -2  -8 -10 -120.58  188.45   1-0.76017 0.55223-0.54328 0.13854 0.35633-0.82209
  -2  -8 -11  -49.22  176.41   1-0.75829 0.54987-0.57608 0.17134 0.30515-0.81748
  -2  -8 -12 -166.29  187.70   1-0.75386 0.54496-0.60544 0.20070 0.25517-0.81408
  -2  -8 -13  629.31  339.77   1-0.74693 0.53764-0.63206 0.22724 0.20632-0.81196
  -2  -8 -14 1424.54  335.57   1-0.73833 0.52857-0.65547 0.25065 0.15880-0.81103
  -2  -8 -15  435.21  266.65   1-0.72800 0.51778-0.67628 0.27145 0.11247-0.81130
  -2  -8 -16 1196.94  431.68   1-0.71368 0.50432-0.69724 0.29289 0.06712-0.81232
  -2  -8 -17  113.85  219.11   1-0.70032 0.49062-0.71345 0.30910 0.02292-0.81470
   2  -9 -16  -81.05  216.16   1-0.59394 0.79222-0.77259 0.31742-0.22433-0.52117
   2   9 -16  710.66  303.35   1 0.06225 0.13631-0.53200 0.98526-0.84444 0.10331
   2  -9 -15  242.92  297.56   1-0.60788 0.80647-0.76899 0.31382-0.19781-0.50110
   2   9 -15   46.29  152.01   1 0.06937 0.12945-0.52653 0.97978-0.84732 0.15250
   2  -9 -14  689.51  321.63   1-0.62124 0.82016-0.76469 0.30953-0.17115-0.48116
   2   9 -14  401.83  193.31   1 0.07951 0.11957-0.51863 0.97189-0.85129 0.20279
   2  -9 -13 1980.42  356.54   1-0.63404 0.83328-0.75970 0.30454-0.14433-0.46139
   2   9 -13 1212.87  295.18   1 0.09291 0.10642-0.50803 0.96129-0.85630 0.25413
   2  -9 -12 1344.60  383.48   1-0.64629 0.84586-0.75401 0.29884-0.11732-0.44181
   2   9 -12 1212.01  330.84   1 0.10982 0.08976-0.49439 0.94765-0.86227 0.30642
   2  -9 -11  789.83  273.21   1-0.65801 0.85790-0.74760 0.29243-0.09007-0.42246
   2   9 -11  905.07  257.89   1 0.13292 0.06743-0.47769 0.93083-0.86841 0.35917
   2  -9 -10 6401.61  479.71   1-0.66934 0.86999-0.74022 0.28533-0.06363-0.40211
   2   9 -10 7911.64  516.48   1 0.15751 0.04306-0.45675 0.90989-0.87553 0.41259
   2  -9  -9 1659.65  397.88   1-0.67997 0.88096-0.73236 0.27746-0.03587-0.38330
   2   9  -9 1630.78  369.02   1 0.18620 0.01459-0.43150 0.88464-0.88268 0.46603
   2  -9  -890658.68 1905.65   1-0.69008 0.89140-0.72368 0.26879-0.00771-0.36488
   2  -9  -736277.52 1300.62   1-0.69967 0.90133-0.71415 0.25925 0.02092-0.34695
   2  -9  -635026.29 1183.60   1-0.70875 0.91074-0.70366 0.24877 0.05016-0.32961
  -2  -9   515886.12  697.73   1-0.33182 0.12882 0.27095-0.73104 0.90359-0.67005
   2  -9  -514031.21  631.37   1-0.71730 0.91963-0.69213 0.23723 0.08015-0.31302
  -2  -9   4 2765.48  362.69   1-0.37837 0.17486 0.21953-0.67962 0.89924-0.71241
   2  -9  -4 1839.91  239.20   1-0.72748 0.92886-0.67718 0.22176 0.11035-0.29670
  -2  -9   316300.18 1076.01   1-0.42615 0.22213 0.16333-0.62343 0.88978-0.74965
   2  -9  -311827.15  418.67   1-0.73483 0.93667-0.66318 0.20775 0.14213-0.28190
  -2  -9   222643.57 1494.66   1-0.47727 0.27194 0.10369-0.56459 0.87261-0.77928
   2  -9  -217327.29  478.93   1-0.74158 0.94389-0.64750 0.19207 0.17547-0.26864
  -2  -9   110315.50 1024.85   1-0.52336 0.31776 0.04097-0.50187 0.85112-0.80445
   2  -9  -1 7680.83  545.54   1-0.74766 0.95043-0.62969 0.17427 0.21090-0.25749
  -2  -9   0   70.11  108.16   1-0.56716 0.36142-0.02252-0.43766 0.82329-0.82329
   2  -9   0   83.95   79.28   1-0.75292 0.95616-0.60906 0.15364 0.24927-0.24927
  -2  -9  -144377.80 1736.09   1-0.60714 0.40099-0.08711-0.37307 0.78980-0.83666
   2  -9   136954.16  569.16   1-0.75733 0.96091-0.58434 0.12900 0.29153-0.24495
  -2  -9  -2 2274.69  304.93   1-0.64264 0.43609-0.15055-0.30963 0.75122-0.84495
   2  -9   2 1302.92  441.06   1-0.75988 0.96394-0.55384 0.09851 0.34033-0.24717
  -2  -9  -323150.99  678.03   1-0.67226 0.46567-0.21198-0.24704 0.70930-0.84977
   2  -9   317710.79  330.06   1-0.75957 0.96412-0.51393 0.05860 0.39864-0.25891
  -2  -9  -419448.53  672.51   1-0.69790 0.49082-0.27019-0.18883 0.66326-0.85055
  -2  -9  -5  141.49  164.24   1-0.71799 0.51000-0.32480-0.13427 0.61561-0.84962
  -2  -9  -6 3234.02  328.42   1-0.73399 0.52536-0.37545-0.08363 0.56594-0.84675
  -2  -9  -7 6739.13  478.77   1-0.74517 0.53722-0.41923-0.03587 0.51860-0.84267
  -2  -9  -8  572.24  342.75   1-0.75333 0.54467-0.46176 0.00665 0.46825-0.83862
  -2  -9  -9 2463.69  488.44   1-0.75802 0.54866-0.50054 0.04543 0.41814-0.83480
  -2  -9 -10  287.80  202.31   1-0.76021 0.55227-0.53828 0.08294 0.36376-0.82952
  -2  -9 -11  431.17  283.37   1-0.75884 0.55042-0.57024 0.11490 0.31460-0.82693
  -2  -9 -12 3762.01  503.48   1-0.75507 0.54616-0.59911 0.14377 0.26633-0.82524
  -2  -9 -13  -91.04  214.24   1-0.74887 0.53958-0.62550 0.17007 0.21892-0.82457
  -2  -9 -14  128.82  212.03   1-0.74103 0.53128-0.64890 0.19348 0.17257-0.82480
  -2  -9 -15  378.43  304.08   1-0.73148 0.52126-0.66988 0.21446 0.12718-0.82600
  -2  -9 -16  621.14  358.10   1-0.71801 0.50865-0.69109 0.23620 0.08274-0.82793
   2 -10 -16  191.24  228.99   1-0.60249 0.80076-0.77048 0.26474-0.20822-0.53729
   2  10 -16  421.45  319.75   1 0.12065 0.07791-0.48550 0.98912-0.86586 0.12473
   2 -10 -15  -41.86  208.37   1-0.61628 0.81488-0.76639 0.26065-0.18120-0.51771
   2  10 -15  -73.10  155.10   1 0.13137 0.06809-0.47898 0.98247-0.86793 0.17352
   2 -10 -14  883.71  444.80   1-0.62948 0.82840-0.76159 0.25585-0.15404-0.49828
   2  10 -14  634.66  300.13   1 0.14250 0.05718-0.46961 0.97309-0.87129 0.22317
   2 -10 -13  298.81  204.67   1-0.64210 0.84135-0.75606 0.25033-0.12671-0.47901
   2  10 -13  250.43  176.17   1 0.15675 0.04316-0.45741 0.96090-0.87532 0.27350
   2 -10 -12  168.72  194.72   1-0.65416 0.85373-0.74982 0.24408-0.09918-0.45995
   2  10 -12  308.18  210.68   1 0.17429 0.02584-0.44209 0.94558-0.87986 0.32433
   2 -10 -1110087.64  811.84   1-0.66566 0.86555-0.74282 0.23708-0.07140-0.44113
   2  10 -1111229.52  839.44   1 0.19526 0.00509-0.42334 0.92683-0.88467 0.37543
   2 -10 -10  -79.10  202.58   1-0.67676 0.87741-0.73485 0.22942-0.04443-0.42131
   2 -10  -9 1831.03  327.42   1-0.68712 0.88811-0.72635 0.22091-0.01613-0.40303
   2 -10  -8 9741.84  555.40   1-0.69694 0.89827-0.71701 0.21157 0.01255-0.38515
  -2 -10   714424.68  710.72   1-0.30538 0.10341 0.29883-0.81004 0.90412-0.57717
   2 -10  -7 9461.07  553.54   1-0.70620 0.90786-0.70677 0.20133 0.04172-0.36774
  -2 -10   6 6517.27 1116.40   1-0.34338 0.14090 0.25846-0.76968 0.90292-0.62268
   2 -10  -6 7163.29  504.97   1-0.71491 0.91690-0.69555 0.19011 0.07146-0.35091
  -2 -10   529882.44 1351.19   1-0.38363 0.18063 0.21352-0.72473 0.89846-0.66492
   2 -10  -524367.74  899.27   1-0.72521 0.92612-0.68104 0.17501 0.10122-0.33416
  -2 -10   411430.38 1018.59   1-0.42534 0.22183 0.16432-0.67554 0.88998-0.70315
   2 -10  -4 9935.46  530.70   1-0.73263 0.93401-0.66764 0.16162 0.13222-0.31857
  -2 -10   390573.90 2817.09   1-0.47119 0.26613 0.11161-0.62372 0.87494-0.73494
   2 -10  -379276.73 2242.12   1-0.73942 0.94127-0.65288 0.14685 0.16427-0.30404
   2 -10  -217197.69  639.07   1-0.74552 0.94783-0.63648 0.13046 0.19766-0.29084
  -2 -10   1 1470.90  235.54   1-0.55263 0.34703-0.00163-0.51047 0.83341-0.78675
   2 -10  -1 1192.11  177.24   1-0.75083 0.95361-0.61809 0.11206 0.23281-0.27940
  -2 -10   0 1436.65  273.99   1-0.59049 0.38475-0.05946-0.45186 0.80484-0.80484
   2 -10   0  778.55  126.83   1-0.75544 0.95853-0.59698 0.09105 0.27003-0.27003
  -2 -10  -122762.38  965.65   1-0.62497 0.41882-0.11812-0.39319 0.77165-0.81852
   2 -10   117449.60  579.29   1-0.75862 0.96220-0.57273 0.06680 0.31059-0.26401
  -2 -10  -2  136.54  165.51   1-0.65455 0.44846-0.17576-0.33427 0.73529-0.82894
   2 -10   2   -7.34   59.20   1-0.76016 0.96423-0.54385 0.03792 0.35548-0.26233
  -2 -10  -3  923.42  222.60   1-0.68126 0.47467-0.23151-0.27852 0.69446-0.83493
   2 -10   3  609.27  221.94   1-0.75923 0.96378-0.50833 0.00240 0.40639-0.26666
  -2 -10  -4  945.37  233.02   1-0.70373 0.49665-0.28472-0.22530 0.65090-0.83819
  -2 -10  -518163.19  810.36   1-0.72146 0.51347-0.33497-0.17511 0.60603-0.84004
  -2 -10  -6 3713.25  675.34   1-0.73579 0.52716-0.38192-0.12816 0.55922-0.84004
  -2 -10  -716429.84  729.98   1-0.74592 0.53797-0.42259-0.08308 0.51478-0.83885
  -2 -10  -8 1171.94  309.40   1-0.75348 0.54482-0.46270-0.04296 0.46708-0.83744
  -2 -10  -9   17.48  199.80   1-0.75794 0.54858-0.49960-0.00606 0.41941-0.83607
  -2 -10 -10  419.31  303.28   1-0.76021 0.55227-0.53583 0.02990 0.36736-0.83312
  -2 -10 -11   31.80  213.33   1-0.75912 0.55070-0.56677 0.06084 0.32014-0.83247
  -2 -10 -12  110.39  261.89   1-0.75578 0.54687-0.59494 0.08901 0.27355-0.83246
  -2 -10 -13  299.87  320.18   1-0.75012 0.54083-0.62089 0.11486 0.22760-0.83324
  -2 -10 -14  -15.74  213.23   1-0.74287 0.53311-0.64408 0.13805 0.18246-0.83469
  -2 -10 -15  128.61  204.13   1-0.73395 0.52372-0.66501 0.15898 0.13809-0.83691
   2 -11 -15   -6.05  215.54   1-0.62285 0.82145-0.76411 0.20780-0.16785-0.53106
   2 -11 -14  237.61  238.62   1-0.63587 0.83479-0.75891 0.20260-0.14039-0.51193
   2  11 -14  201.78  230.23   1 0.20174-0.00205-0.41744 0.97128-0.88602 0.23789
   2 -11 -13   81.83  181.66   1-0.64829 0.84753-0.75299 0.19668-0.11278-0.49294
   2 -11 -12 3376.37  470.07   1-0.66012 0.85969-0.74633 0.19001-0.08498-0.47414
   2 -11 -11  199.32  275.25   1-0.67156 0.87188-0.73867 0.18269-0.05796-0.45435
   2 -11 -10 6146.46  591.43   1-0.68221 0.88287-0.73054 0.17456-0.02978-0.43596
  -2 -11   9  623.59  249.27   1-0.29683 0.09588 0.30766-0.86999 0.90401-0.48364
   2 -11  -9  320.93  164.87   1-0.69228 0.89328-0.72161 0.16563-0.00130-0.41787
  -2 -11   8 2754.50  452.22   1-0.32686 0.12540 0.27625-0.83858 0.90379-0.53013
   2 -11  -8 1649.90  314.07   1-0.70178 0.90311-0.71185 0.15587 0.02751-0.40011
  -2 -11   740451.68 1946.76   1-0.35945 0.15748 0.24079-0.80313 0.90155-0.57460
   2 -11  -729728.87  812.14   1-0.71069 0.91235-0.70120 0.14522 0.05674-0.38277
  -2 -11   6 1861.03  342.64   1-0.39416 0.19168 0.20135-0.76369 0.89670-0.61646
   2 -11  -6 1277.29  315.14   1-0.71901 0.92100-0.68959 0.13361 0.08646-0.36591
  -2 -11   5 8492.52 1152.21   1-0.43042 0.22742 0.15813-0.72047 0.88866-0.65513
   2 -11  -5 6890.14  435.28   1-0.72881 0.92972-0.67484 0.11821 0.11582-0.34876
  -2 -11   4 8113.99  914.18   1-0.47132 0.26653 0.11143-0.67475 0.87489-0.68822
   2 -11  -4 6544.58  424.23   1-0.73578 0.93715-0.66117 0.10454 0.14652-0.33287
  -2 -11   3  657.55  263.01   1-0.50824 0.30318 0.06210-0.62542 0.85897-0.71897
   2 -11  -3 1468.56  374.54   1-0.74206 0.94390-0.64624 0.08961 0.17804-0.31781
  -2 -11   2  310.45  175.74   1-0.54440 0.33907 0.01058-0.57390 0.83875-0.74542
   2 -11  -2  502.26  270.42   1-0.74761 0.94992-0.62985 0.07322 0.21060-0.30378
  -2 -11   1   77.73  127.62   1-0.57922 0.37389-0.04137-0.52108 0.81411-0.76725
   2 -11  -1  613.30  269.29   1-0.75234 0.95511-0.61172 0.05509 0.24446-0.29105
  -2 -11   043077.58 2261.48   1-0.61180 0.40606-0.09507-0.46738 0.78527-0.78527
   2 -11   034682.64 1074.29   1-0.75635 0.95944-0.59133 0.03482 0.27973-0.27973
  -2 -11  -114463.00 1659.39   1-0.64156 0.43542-0.14852-0.41393 0.75255-0.79941
   2 -11   1 9628.29  422.06   1-0.75899 0.96256-0.56852 0.01201 0.31734-0.27076
  -2 -11  -216775.85  769.07   1-0.66699 0.46090-0.20092-0.36011 0.71745-0.81109
   2 -11   214532.69  574.42   1-0.76018 0.96425-0.54232-0.01418 0.35775-0.26460
  -2 -11  -3 2922.08  559.29   1-0.69020 0.48361-0.25183-0.30921 0.67837-0.81884
   2 -11   3 2218.44  359.96   1-0.75944 0.96399-0.51162-0.04488 0.40184-0.26211
  -2 -11  -4  125.88  184.13   1-0.70928 0.50193-0.30070-0.26039 0.63756-0.82477
  -2 -11  -5   21.82  183.14   1-0.72539 0.51740-0.34695-0.21415 0.59450-0.82851
  -2 -11  -6 -142.90  197.59   1-0.73810 0.52946-0.39051-0.17058 0.55018-0.83100
  -2 -11  -7   61.51  183.98   1-0.74714 0.53918-0.42822-0.12801 0.50832-0.83239
  -2 -11  -8  916.37  345.06   1-0.75398 0.54532-0.46599-0.09024 0.46298-0.83335
  -2 -11  -9 5461.93  604.42   1-0.75806 0.54870-0.50100-0.05524 0.41753-0.83419
  -2 -11 -10 2234.70  386.13   1-0.76021 0.55227-0.53564-0.02087 0.36764-0.83339
  -2 -11 -11  810.67  398.45   1-0.75922 0.55080-0.56544 0.00892 0.32224-0.83458
  -2 -11 -12 2706.75  463.55   1-0.75613 0.54722-0.59277 0.03625 0.27728-0.83619
  -2 -11 -13  -84.22  199.20   1-0.75083 0.54154-0.61811 0.06148 0.23277-0.83842
  -2 -11 -14  686.89  333.39   1-0.74401 0.53426-0.64090 0.08427 0.18887-0.84110
  -2 -11 -15 1875.85  494.13   1-0.73557 0.52535-0.66162 0.10499 0.14555-0.84438
   2 -12 -14  672.70  367.26   1-0.64059 0.83951-0.75678 0.14989-0.13007-0.52225
   2 -12 -13  923.04  376.00   1-0.65280 0.85204-0.75058 0.14369-0.10237-0.50335
   2 -12 -12 1687.75  371.13   1-0.66440 0.86397-0.74364 0.13676-0.07453-0.48460
  -2 -12  11  239.96  171.98   1-0.30286 0.10294 0.30144-0.91490 0.90410-0.39032
   2 -12 -11  671.40  321.31   1-0.67560 0.87592-0.73573 0.12921-0.04749-0.46482
  -2 -12  10  553.20  291.66   1-0.32584 0.12541 0.27733-0.89079 0.90382-0.43675
   2 -12 -10  374.95  296.27   1-0.68598 0.88663-0.72735 0.12083-0.01935-0.44639
  -2 -12   9  -84.88  142.43   1-0.35137 0.15042 0.24973-0.86319 0.90231-0.48194
   2 -12  -9  140.62  190.14   1-0.69577 0.89676-0.71820 0.11168 0.00901-0.42818
  -2 -12   8  112.19   94.00   1-0.37920 0.17774 0.21858-0.83204 0.89912-0.52546
   2 -12  -8   28.89  165.01   1-0.70495 0.90628-0.70824 0.10172 0.03765-0.41024
  -2 -12   7  606.17  185.74   1-0.40901 0.20704 0.18392-0.79738 0.89380-0.56684
   2 -12  -7   31.01  162.77   1-0.71353 0.91519-0.69744 0.09092 0.06659-0.39261
  -2 -12   6 3514.09  519.12   1-0.44036 0.23788 0.14589-0.75934 0.88588-0.60564
   2 -12  -6 2936.18  449.88   1-0.72361 0.92406-0.68363 0.07639 0.09499-0.37452
  -2 -12   5 2017.24  344.36   1-0.47668 0.27217 0.10445-0.71898 0.87284-0.63951
   2 -12  -5 1386.31  248.00   1-0.73085 0.93176-0.67108 0.06385 0.12445-0.35739
  -2 -12   4  708.86  375.29   1-0.50924 0.30445 0.06072-0.67525 0.85847-0.67181
   2 -12  -4  363.20  218.75   1-0.73743 0.93880-0.65753 0.05030 0.15439-0.34074
  -2 -12   312561.18 1208.80   1-0.54156 0.33650 0.01476-0.62930 0.84052-0.70053
   2 -12  -3 9741.83  473.02   1-0.74331 0.94515-0.64288 0.03564 0.18490-0.32466
  -2 -12   215397.72 1499.83   1-0.57307 0.36814-0.03169-0.58189 0.81889-0.72516
   2 -12  -210734.64  458.98   1-0.74845 0.95076-0.62698 0.01975 0.21610-0.30928
  -2 -12   117314.51 1889.63   1-0.60321 0.39787-0.08047-0.53311 0.79351-0.74664
   2 -12  -112422.53  459.44   1-0.75279 0.95556-0.60968 0.00244 0.24816-0.29475
   2 -12   0   28.55   87.33   1-0.75646 0.95956-0.59058-0.01652 0.28101-0.28101
  -2 -12  -146859.71 1223.60   1-0.65577 0.45018-0.17817-0.43386 0.73362-0.78044
   2 -12   138434.60  874.85   1-0.75888 0.96246-0.56975-0.03735 0.31538-0.26881
  -2 -12  -2 2095.33  420.48   1-0.67884 0.47275-0.22617-0.38586 0.69857-0.79222
   2 -12   2 1115.95  219.52   1-0.76011 0.96417-0.54657-0.06053 0.35140-0.25824
  -2 -12  -3 1318.95  330.30   1-0.69896 0.49237-0.27279-0.33924 0.66108-0.80154
  -2 -12  -4 5890.81  475.59   1-0.71550 0.50815-0.31771-0.29439 0.62217-0.80938
  -2 -12  -511789.08  658.03   1-0.72958 0.52159-0.36041-0.25169 0.58120-0.81522
  -2 -12  -6    9.78  180.74   1-0.74074 0.53210-0.40086-0.21124 0.53908-0.81989
  -2 -12  -7 2285.18  443.92   1-0.74869 0.54074-0.43577-0.17103 0.49954-0.82361
  -2 -12  -8 8785.35  751.01   1-0.75474 0.54608-0.47129-0.13551 0.45633-0.82669
  -2 -12  -9 -133.03  208.71   1-0.75833 0.54897-0.50443-0.10238 0.41288-0.82954
  -2 -12 -10 9350.77  801.16   1-0.76021 0.55228-0.53745-0.06965 0.36498-0.83074
  -2 -12 -11   77.41  205.26   1-0.75918 0.55076-0.56603-0.04107 0.32131-0.83364
  -2 -12 -12 -152.21  202.56   1-0.75618 0.54728-0.59240-0.01470 0.27790-0.83681
  -2 -12 -13  -45.12  204.83   1-0.75110 0.54181-0.61702 0.00978 0.23479-0.84044
  -2 -12 -14  108.46  214.20   1-0.74458 0.53482-0.63928 0.03205 0.19211-0.84435
  -2 -13  13  -57.33  147.51   1-0.32094 0.12204 0.28253-0.94711 0.90397-0.29677
   2 -13 -13  436.31  317.87   1-0.65580 0.85505-0.74888 0.09142-0.09531-0.51041
  -2 -13  12  696.10  258.38   1-0.33773 0.13832 0.26459-0.92916 0.90328-0.34279
   2 -13 -12  648.57  347.12   1-0.66741 0.86739-0.74153 0.08446-0.06850-0.49039
   2 -13 -11  160.37  192.79   1-0.67815 0.87847-0.73378 0.07671-0.04073-0.47158
  -2 -13  10  128.03   93.89   1-0.37841 0.17798 0.21947-0.88405 0.89923-0.43216
   2 -13 -10  141.10  200.31   1-0.68828 0.88894-0.72532 0.06825-0.01284-0.45290
  -2 -13   9 2297.57  347.53   1-0.40200 0.20105 0.19220-0.85678 0.89523-0.47487
   2 -13  -9 1744.07  402.00   1-0.69781 0.89880-0.71612 0.05905 0.01518-0.43436
  -2 -13   8 1703.43  395.41   1-0.42742 0.22596 0.16179-0.82637 0.88945-0.51579
   2 -13  -8 1526.51  382.46   1-0.70671 0.90804-0.70616 0.04909 0.04339-0.41599
  -2 -13   7 1591.66  258.96   1-0.45434 0.25237 0.12835-0.79293 0.88152-0.55457
   2 -13  -7 1717.91  334.71   1-0.71500 0.91666-0.69542 0.03835 0.07179-0.39781
  -2 -13   6  315.61  232.93   1-0.48644 0.28220 0.09159-0.75733 0.86889-0.58890
   2 -13  -6   12.03  146.08   1-0.72471 0.92516-0.68185 0.02402 0.09927-0.37880
  -2 -13   5 1332.50  314.79   1-0.51489 0.31037 0.05287-0.71862 0.85562-0.62229
   2 -13  -5  691.94  223.67   1-0.73164 0.93256-0.66957 0.01174 0.12788-0.36082
  -2 -13   4 8823.67 1053.83   1-0.54346 0.33867 0.01197-0.67771 0.83934-0.65268
   2 -13  -4 7420.98  561.51   1-0.73791 0.93929-0.65643-0.00140 0.15675-0.34310
  -2 -13   3 3686.87  600.31   1-0.57159 0.36707-0.02939-0.63533 0.82000-0.67941
   2 -13  -3 2940.01  442.68   1-0.74350 0.94534-0.64236-0.01547 0.18594-0.32571
  -2 -13   2  434.40  256.38   1-0.59900 0.39408-0.07346-0.59126 0.79736-0.70363
   2 -13  -2    6.29  111.47   1-0.74836 0.95067-0.62729-0.03053 0.21550-0.30868
  -2 -13   1 4232.55  632.41   1-0.62504 0.41970-0.11825-0.54646 0.77158-0.72471
   2 -13  -1 2555.38  363.58   1-0.75247 0.95524-0.61115-0.04668 0.24551-0.29210
  -2 -13   0 3980.18  660.37   1-0.64791 0.44281-0.16282-0.50022 0.74410-0.74410
   2 -13   0 2877.44  368.10   1-0.75599 0.95908-0.59365-0.06404 0.27577-0.27577
  -2 -13  -1  985.94  275.42   1-0.67017 0.46457-0.20756-0.45548 0.71258-0.75940
   2 -13   1  896.09  189.72   1-0.75840 0.96197-0.57502-0.08268 0.30688-0.26030
  -2 -13  -2 9660.21  597.99   1-0.69007 0.48397-0.25151-0.41153 0.67863-0.77227
  -2 -13  -311911.34  633.30   1-0.70690 0.50020-0.29445-0.36866 0.64309-0.78350
  -2 -13  -4  249.81  208.01   1-0.72169 0.51434-0.33565-0.32746 0.60538-0.79259
  -2 -13  -5 1692.13  401.21   1-0.73389 0.52590-0.37512-0.28800 0.56628-0.80029
  -2 -13  -6 3283.38  441.30   1-0.74292 0.53567-0.40955-0.24782 0.52946-0.80723
  -2 -13  -7  379.38  237.33   1-0.75046 0.54251-0.44496-0.21241 0.48868-0.81274
  -2 -13  -8 4652.05  606.13   1-0.75568 0.54702-0.47832-0.17905 0.44737-0.81774
  -2 -13  -9 1385.27  325.02   1-0.75870 0.54934-0.50962-0.14775 0.40577-0.82243
  -2 -13 -10   80.51  190.89   1-0.76020 0.55226-0.54102-0.11668 0.35970-0.82546
  -2 -13 -11  122.21  201.34   1-0.75900 0.55058-0.56834-0.08936 0.31764-0.82998
  -2 -13 -12  164.07  224.15   1-0.75598 0.54708-0.59368-0.06401 0.27571-0.83462
  -2 -13 -13  -44.35  199.13   1-0.75099 0.54170-0.61747-0.04035 0.23395-0.83960
  -2 -14  11   69.05   95.29   1-0.40765 0.20773 0.18552-0.90122 0.89408-0.38030
   2 -14 -11   17.42  186.07   1-0.67937 0.87970-0.73283 0.02521-0.03746-0.47486
  -2 -14  10 2201.13  391.92   1-0.42738 0.22695 0.16184-0.87754 0.88946-0.42239
   2 -14 -10 2482.40  469.21   1-0.68928 0.88994-0.72441 0.01680-0.00998-0.45575
  -2 -14   9  999.14  207.73   1-0.44883 0.24788 0.13532-0.85102 0.88331-0.46294
   2 -14  -9  900.49  235.98   1-0.69857 0.89956-0.71531 0.00770 0.01753-0.43671
  -2 -14   8 1124.52  188.56   1-0.47606 0.27235 0.10527-0.82222 0.87308-0.49976
   2 -14  -8  835.29  417.75   1-0.70724 0.90856-0.70552-0.00208 0.04513-0.41773
   2 -14  -7   68.98  168.29   1-0.71528 0.91694-0.69503-0.01257 0.07279-0.39882
  -2 -14   6 4151.85  635.23   1-0.52453 0.32028 0.03932-0.75628 0.85048-0.57048
   2 -14  -6 3353.29  433.63   1-0.72469 0.92513-0.68189-0.02653 0.09917-0.37870
  -2 -14   5 1717.91  276.71   1-0.54950 0.34498 0.00303-0.71999 0.83548-0.60215
   2 -14  -5 1047.21  292.13   1-0.73138 0.93229-0.67009-0.03834 0.12672-0.35966
  -2 -14   4 4711.92  625.59   1-0.57430 0.37019-0.03362-0.68222 0.81794-0.63049
   2 -14  -4 3254.46  409.73   1-0.73742 0.93879-0.65756-0.05087 0.15433-0.34069
  -2 -14   3 7145.34  968.84   1-0.59886 0.39434-0.07322-0.64262 0.79749-0.65689
   2 -14  -3 5561.48  526.90   1-0.74279 0.94463-0.64430-0.06413 0.18202-0.32178
  -2 -14   211046.90 1304.53   1-0.62254 0.41761-0.11380-0.60205 0.77426-0.68054
   2 -14  -2 9502.12  665.87   1-0.74748 0.94979-0.63028-0.07815 0.20978-0.30295
  -2 -14   1  676.95  236.60   1-0.64494 0.43961-0.15492-0.56093 0.74835-0.70149
   2 -14  -1  670.08  201.43   1-0.75147 0.95424-0.61548-0.09295 0.23761-0.28420
  -2 -14   0 2428.47  396.28   1-0.66443 0.45933-0.19563-0.51841 0.72128-0.72128
   2 -14   0 2138.82  284.85   1-0.75495 0.95805-0.59974-0.10855 0.26523-0.26523
  -2 -14  -1  223.55  208.64   1-0.68355 0.47795-0.23662-0.47743 0.69048-0.73730
  -2 -14  -2  154.86  198.69   1-0.70063 0.49454-0.27692-0.43712 0.65758-0.75123
  -2 -14  -3   31.39  184.31   1-0.71503 0.50832-0.31638-0.39774 0.62340-0.76381
  -2 -14  -4 6620.77  637.51   1-0.72772 0.52037-0.35435-0.35977 0.58723-0.77444
  -2 -14  -5 3482.20  460.89   1-0.73819 0.53020-0.39086-0.32326 0.54981-0.78382
  -2 -14  -6 6183.14  643.02   1-0.74590 0.53865-0.42247-0.28546 0.51491-0.79269
  -2 -14  -7 2451.79  474.13   1-0.75232 0.54437-0.45554-0.25240 0.47590-0.79996
  -2 -14  -8  312.02  270.42   1-0.75669 0.54803-0.48684-0.22109 0.43633-0.80670
  -2 -14  -9  294.36  186.62   1-0.75909 0.54973-0.51636-0.19158 0.39641-0.81307
  -2 -14 -10  959.92  346.38   1-0.76012 0.55218-0.54614-0.16214 0.35203-0.81779
  -2 -14 -11  496.81  241.52   1-0.75867 0.55025-0.57217-0.13612 0.31149-0.82382
  -2 -15  10  327.98  185.12   1-0.47730 0.27414 0.10364-0.87181 0.87260-0.40594
   2 -15 -10  175.11  214.35   1-0.68909 0.88975-0.72459-0.03356-0.01054-0.45520
  -2 -15   9 2082.77  372.42   1-0.49635 0.29292 0.07831-0.84648 0.86457-0.44458
   2 -15  -9 3157.78  460.20   1-0.69818 0.89917-0.71572-0.04243 0.01634-0.43551
  -2 -15   8  -60.37  150.88   1-0.51654 0.31283 0.05058-0.81874 0.85476-0.48144
   2 -15  -8  155.89  176.29   1-0.70665 0.90797-0.70623-0.05191 0.04318-0.41578
  -2 -15   7 1795.54  301.70   1-0.53757 0.33359 0.02059-0.78875 0.84296-0.51630
   2 -15  -7 2231.90  374.57   1-0.71449 0.91615-0.69613-0.06202 0.06997-0.39600
  -2 -15   6   61.48   95.56   1-0.55913 0.35488-0.01143-0.75673 0.82899-0.54900
   2 -15  -6   87.04  135.50   1-0.72364 0.92409-0.68358-0.07545 0.09511-0.37463
  -2 -15   5  941.68  250.88   1-0.58072 0.37701-0.04375-0.72324 0.81292-0.57860
   2 -15  -5  853.55  253.98   1-0.73015 0.93106-0.67239-0.08664 0.12146-0.35440
  -2 -15   4  224.12  160.45   1-0.60240 0.39828-0.07912-0.68786 0.79425-0.60680
   2 -15  -4  169.88  192.25   1-0.73602 0.93740-0.66064-0.09839 0.14769-0.33404
  -2 -15   3  377.44  225.11   1-0.62357 0.41905-0.11564-0.65134 0.77316-0.63256
   2 -15  -3  223.76  216.75   1-0.74126 0.94310-0.64833-0.11070 0.17375-0.31352
  -2 -15   2   19.92  218.29   1-0.64390 0.43897-0.15294-0.61404 0.74966-0.65593
   2 -15  -2  406.79  242.67   1-0.74585 0.94815-0.63549-0.12354 0.19962-0.29279
  -2 -15   1 1280.53  303.74   1-0.66166 0.45705-0.18997-0.57508 0.72533-0.67851
   2 -15  -1 1258.82  254.28   1-0.74978 0.95256-0.62216-0.13687 0.22523-0.27182
  -2 -15   0 4819.64  644.19   1-0.67959 0.47449-0.22782-0.53722 0.69730-0.69730
  -2 -15  -1 4788.82  577.62   1-0.69593 0.49033-0.26540-0.49965 0.66726-0.71408
  -2 -15  -2 2802.61  505.56   1-0.70999 0.50393-0.30261-0.46252 0.63586-0.72947
  -2 -15  -3 6966.11  718.61   1-0.72270 0.51599-0.33869-0.42644 0.60248-0.74289
  -2 -15  -4  843.97  393.23   1-0.73349 0.52614-0.37370-0.39143 0.56774-0.75494
  -2 -15  -5 1044.22  313.25   1-0.74235 0.53436-0.40749-0.35764 0.53185-0.76586
  -2 -15  -6 1533.03  316.48   1-0.74883 0.54158-0.43646-0.32204 0.49873-0.77651
  -2 -15  -7  201.73  203.15   1-0.75417 0.54622-0.46732-0.29118 0.46132-0.78539
  -2 -15  -8  319.18  248.22   1-0.75768 0.54902-0.49666-0.26185 0.42336-0.79372
  -2 -15  -9 1099.88  474.67   1-0.76006 0.55261-0.52632-0.23256 0.38114-0.80033
  -2 -15 -10  160.61  228.76   1-0.75993 0.55199-0.55264-0.20624 0.34217-0.80793
   2 -16  -8   56.43  175.37   1-0.70501 0.90633-0.70818-0.10051 0.03782-0.41042
  -2 -16   7  433.87  216.35   1-0.57162 0.36872-0.02943-0.78869 0.81998-0.49194
   2 -16  -7  640.63  350.04   1-0.71269 0.91435-0.69858-0.11011 0.06363-0.38965
  -2 -16   6  177.52  130.73   1-0.59038 0.38707-0.05927-0.75884 0.80494-0.52376
   2 -16  -6  732.73  332.04   1-0.71974 0.92174-0.68847-0.12022 0.08924-0.36869
  -2 -16   5 1035.17  284.19   1-0.60921 0.40550-0.09065-0.72747 0.78780-0.55348
   2 -16  -5  515.98  218.65   1-0.72800 0.92891-0.67627-0.13336 0.11248-0.34542
  -2 -16   4 1271.82  228.88   1-0.62783 0.42372-0.12327-0.69485 0.76852-0.58106
   2 -16  -4  823.79  249.49   1-0.73376 0.93513-0.66540-0.14424 0.13723-0.32359
  -2 -16   3 4482.48  554.44   1-0.64595 0.44142-0.15684-0.66128 0.74709-0.60650
   2 -16  -3 3996.14  398.84   1-0.73889 0.94074-0.65414-0.15549 0.16161-0.30137
  -2 -16   2 5913.75  548.83   1-0.66176 0.45765-0.19019-0.62586 0.72518-0.63153
  -2 -16   1 7984.28  607.17   1-0.67823 0.47362-0.22483-0.59122 0.69960-0.65278
  -2 -16   0 1058.92  296.98   1-0.69347 0.48836-0.25951-0.55654 0.67212-0.67212
  -2 -16  -1 1541.66  357.92   1-0.70683 0.50140-0.29424-0.52190 0.64327-0.69008
  -2 -16  -2 1664.93  368.93   1-0.71914 0.51307-0.32813-0.48801 0.61250-0.70610
  -2 -16  -3  149.10  216.22   1-0.72985 0.52314-0.36131-0.45483 0.58031-0.72072
  -2 -16  -4 2192.32  434.88   1-0.73890 0.53155-0.39360-0.42254 0.54689-0.73410
  -2 -16  -5 1305.70  325.58   1-0.74565 0.53910-0.42135-0.38773 0.51620-0.74768
  -2 -16  -6  493.42  238.90   1-0.75161 0.54436-0.45136-0.35771 0.48098-0.75875
  -2 -16  -7  316.98  239.66   1-0.75590 0.54795-0.48013-0.32894 0.44504-0.76911
  -2 -16  -8  -74.56  211.79   1-0.75856 0.54990-0.50760-0.30147 0.40855-0.77891
  -2 -17   5   66.93  114.11   1-0.63499 0.43128-0.13629-0.73296 0.76039-0.52608
  -2 -17   4  -42.34  159.92   1-0.64909 0.44597-0.16509-0.70196 0.74257-0.55528
  -2 -17   3  650.17  307.48   1-0.66458 0.46096-0.19593-0.67112 0.72106-0.58060
  -2 -17   2 2148.95  501.09   1-0.67937 0.47526-0.22733-0.63972 0.69768-0.60404
  -2 -17   1  272.64  208.80   1-0.69326 0.48865-0.25902-0.60803 0.67252-0.62570
  -2 -17   0 5172.35  696.42   1-0.70562 0.50084-0.29112-0.57603 0.64601-0.64601
  -2 -17  -1  382.67  353.10   1-0.71722 0.51180-0.32260-0.54455 0.61766-0.66446
  -2 -17  -2 9815.77 1037.32   1-0.72751 0.52145-0.35369-0.51346 0.58789-0.68149
  -2 -17  -3  803.13  368.49   1-0.73641 0.52970-0.38420-0.48295 0.55684-0.69725
  -2 -17  -4 1582.68  453.58   1-0.74311 0.53727-0.41034-0.44930 0.52858-0.71376
  -2 -17  -5  157.82  202.51   1-0.74936 0.54282-0.43918-0.42046 0.49553-0.72701
   3   0 -18 3402.82  548.39   1-0.31982 0.62006-0.74376 0.74376-0.58696-0.24965
   3   0 -17  262.84  214.58   1-0.32930 0.62977-0.74708 0.74708-0.57742-0.21271
   3   0 -16  638.59  376.14   1-0.33747 0.63816-0.74983 0.74983-0.56907-0.17458
   3   0 -15  125.68  230.88   1-0.34420 0.64512-0.75204 0.75204-0.56209-0.13508
   3   0 -1424307.45 1482.58   1-0.34934 0.65048-0.75368 0.75368-0.55670-0.09399
   3   0 -13  230.25  226.29   1-0.35268 0.65405-0.75472 0.75472-0.55317-0.05105
   3   0 -12  376.41  230.82   1-0.35396 0.65555-0.75512 0.75512-0.55181-0.00593
   3   0 -11 -143.70  160.22   1-0.35284 0.65465-0.75477 0.75477-0.55300 0.04173
   3   0 -10 2297.16  316.11   1-0.34885 0.65088-0.75352 0.75352-0.55722 0.09243
   3   0  -9  181.37  175.14   1-0.34138 0.64364-0.75112 0.75112-0.56503 0.14672
   3   0  -832790.25  748.26   1-0.32963 0.63211-0.74719 0.74719-0.57710 0.20526
   3   0  -7 -339.12  132.91   1-0.31248 0.61518-0.74111 0.74111-0.59422 0.26886
   3   0  -618951.43 6418.89   1-0.28844 0.59137-0.73195 0.73195-0.61728 0.33841
   3   0  -5   34.39  107.86   1-0.25417 0.55729-0.71990 0.71990-0.64585 0.41371
   3   0  -4 6004.69  543.03   1-0.20978 0.51313-0.69937 0.69937-0.68327 0.49756
   3   0  -212952.37  438.81   1-0.07169 0.37562-0.62323 0.62323-0.77874 0.68592
   3   0  -1    2.20   92.62   1 0.02884 0.27491-0.55704 0.55704-0.82998 0.78365
   3   0   034788.23  889.05   1 0.15208 0.15208-0.46143 0.46143-0.87404 0.87404
  -3   0  -2 8858.13  362.18   1-0.43661 0.12725 0.15053-0.15053 0.88696-0.98038
  -3   0  -3   44.18   41.62   1-0.56206 0.25224-0.01470 0.01470 0.82696-0.96755
  -3   0  -4 4813.20  438.51   1-0.65546 0.34582-0.17755 0.17755 0.73406-0.92134
  -3   0  -5   62.76   86.32   1-0.71448 0.40409-0.31485 0.31485 0.62480-0.85881
  -3   0  -6  843.52  121.73   1-0.74530 0.43654-0.41980 0.41980 0.51795-0.79573
  -3   0  -7   40.62   69.03   1-0.75825 0.44879-0.50339 0.50339 0.41429-0.73836
  -3   0  -8 2170.13  241.09   1-0.75882 0.45031-0.57044 0.57044 0.31427-0.68688
  -3   0  -9  -72.83   96.12   1-0.75039 0.44134-0.61985 0.61985 0.22954-0.64884
  -3   0 -1022116.18  785.81   1-0.73737 0.42786-0.65766 0.65766 0.15412-0.62001
  -3   0 -11 -151.52  103.09   1-0.71850 0.40881-0.69036 0.69036 0.08455-0.59687
  -3   0 -1213879.19  674.49   1-0.70036 0.39034-0.71341 0.71341 0.02306-0.58195
  -3   0 -13   27.52  135.29   1-0.68094 0.37058-0.73157 0.73157-0.03323-0.57223
  -3   0 -14 3266.58  397.71   1-0.65946 0.34973-0.74673 0.74673-0.08657-0.56575
  -3   0 -15  174.73  204.76   1-0.63832 0.32826-0.75782 0.75782-0.13505-0.56386
  -3   0 -16  187.21  158.42   1-0.61654 0.30616-0.76630 0.76630-0.18068-0.56483
  -3   0 -17  603.55  297.25   1-0.59071 0.28198-0.77462 0.77462-0.22583-0.56606
   3  -1 -18  -51.28  180.86   1-0.35161 0.65186-0.75439 0.70382-0.55430-0.28231
   3   1 -18   86.38  206.89   1-0.28526 0.58551-0.73068 0.78125-0.62025-0.21636
   3  -1 -17  890.81  500.02   1-0.36213 0.66260-0.75759 0.70703-0.54304-0.24709
   3   1 -17  434.93  276.15   1-0.29359 0.59406-0.73397 0.78454-0.61243-0.17770
   3  -1 -16  474.00  406.60   1-0.37148 0.67218-0.76030 0.70974-0.53285-0.21081
   3   1 -16  661.63  357.41   1-0.30043 0.60113-0.73662 0.78718-0.60590-0.13775
   3  -1 -15 8000.57  775.27   1-0.37956 0.68048-0.76254 0.71197-0.52388-0.17329
   3   1 -15 7719.94  675.86   1-0.30566 0.60658-0.73859 0.78916-0.60086-0.09631
   3  -1 -1428227.43 1668.19   1-0.38625 0.68739-0.76431 0.71375-0.51635-0.13434
   3   1 -1429608.99 1737.86   1-0.30909 0.61023-0.73987 0.79043-0.59753-0.05316
   3  -1 -13  748.23  433.13   1-0.38943 0.69299-0.76547 0.71495-0.51224-0.09274
   3   1 -13   70.58  197.16   1-0.31046 0.61183-0.74037 0.79094-0.59619-0.00803
   3  -1 -1212054.86  631.85   1-0.39278 0.69650-0.76632 0.71580-0.50839-0.05005
   3   1 -1211510.66  612.06   1-0.30949 0.61108-0.74002 0.79058-0.59714 0.03939
   3  -1 -11 1459.88  337.71   1-0.39408 0.69794-0.76665 0.71613-0.50689-0.00501
   3   1 -11 1760.43  327.27   1-0.30576 0.60757-0.73863 0.78919-0.60077 0.08950
   3  -1 -1014305.96  662.42   1-0.39292 0.69694-0.76636 0.71584-0.50823 0.04285
   3   1 -1014251.80  657.66   1-0.29877 0.60080-0.73598 0.78654-0.60750 0.14271
   3  -1  -922215.81  634.11   1-0.38880 0.69297-0.76530 0.71479-0.51296 0.09412
   3   1  -921569.60  626.01   1-0.28784 0.59010-0.73171 0.78228-0.61784 0.19953
   3  -1  -8  461.00  265.96   1-0.38294 0.68543-0.76345 0.71288-0.52009 0.14825
   3   1  -8  125.43  145.89   1-0.27209 0.57457-0.72530 0.77587-0.63237 0.26054
   3  -1  -713666.60  631.05   1-0.37046 0.67316-0.76001 0.70945-0.53397 0.20862
   3   1  -713800.50  623.53   1-0.24882 0.55147-0.71755 0.76804-0.65054 0.32554
   3  -1  -651411.12 1289.88   1-0.35190 0.65483-0.75448 0.70391-0.55400 0.27512
   3   1  -652520.18 1317.51   1-0.21978 0.52266-0.70419 0.75468-0.67513 0.39656
   3  -1  -5 5233.98  321.50   1-0.32528 0.62843-0.74569 0.69512-0.58149 0.34910
   3   1  -5 5570.85  346.56   1-0.18148 0.48460-0.68511 0.73561-0.70546 0.47332
   3  -1  -4   76.66  140.85   1-0.28776 0.59114-0.73168 0.68111-0.61792 0.43200
   3   1  -4   14.17  135.04   1-0.13083 0.43430-0.65890 0.70938-0.74076 0.55511
   3  -1  -3386692.3 2061.82   1-0.23446 0.53804-0.71106 0.66057-0.66287 0.52359
   3   1  -3383060.2 2125.58   1-0.06717 0.37088-0.62035 0.67083-0.78143 0.64220
   3  -1  -222488.09  681.15   1-0.16193 0.46574-0.67475 0.62425-0.72006 0.62720
   3   1  -222560.38  710.19   1 0.01325 0.29024-0.56834 0.61870-0.82268 0.73004
   3  -1  -145270.78  662.50   1-0.06230 0.36646-0.61723 0.56675-0.78430 0.73789
   3   1  -145518.62 1144.35   1 0.11002 0.19372-0.49423 0.54459-0.86233 0.81601
   3  -1   016970.13  495.82   1 0.06889 0.23511-0.52690 0.47653-0.84713 0.84713
  -3  -1  -178555.85  989.82   1-0.34181 0.03297 0.26016-0.31129 0.90303-0.94974
  -3   1  -247830.61 1244.68   1-0.41303 0.10367 0.17913-0.12801 0.89292-0.98633
  -3  -1  -247018.60  813.75   1-0.45896 0.14960 0.12248-0.17361 0.87996-0.97338
  -3   1  -338465.80  968.81   1-0.56825 0.25843-0.02420 0.07534 0.82249-0.96308
  -3  -1  -337274.63 1022.37   1-0.56320 0.25338-0.01644-0.03468 0.82615-0.96674
  -3  -1  -4 1020.20  159.39   1-0.64382 0.33359-0.15278 0.10165 0.74976-0.93722
  -3   1  -4  799.01  122.44   1-0.67678 0.36715-0.22169 0.27269 0.70200-0.88928
  -3  -1  -533187.69  864.78   1-0.69991 0.38977-0.27512 0.22412 0.65911-0.89321
  -3   1  -530546.96  751.22   1-0.73462 0.42423-0.37768 0.42869 0.56363-0.79764
  -3  -1  -6   60.57   76.35   1-0.73437 0.42335-0.37681 0.32580 0.56454-0.84535
  -3   1  -6  111.02   85.14   1-0.75660 0.44784-0.48601 0.53657 0.43743-0.71520
  -3  -1  -7  308.21  109.19   1-0.75234 0.44287-0.45563 0.40506 0.47579-0.79986
  -3   1  -7  295.61   87.53   1-0.75893 0.45090-0.56921 0.61980 0.31625-0.64228
  -3  -1  -8 3646.00  353.11   1-0.76003 0.45151-0.52495 0.47436 0.38311-0.75572
  -3   1  -8 3663.23  307.62   1-0.74862 0.44004-0.62638 0.67698 0.21724-0.58995
  -3  -1  -9 2201.79  254.48   1-0.75808 0.44909-0.57798 0.52739 0.30204-0.72123
  -3   1  -9 2729.06  270.05   1-0.73281 0.42376-0.66730 0.71790 0.13300-0.55229
  -3  -1 -10 4522.38  317.22   1-0.75007 0.44056-0.62106 0.57046 0.22727-0.69315
  -3   1 -10 5078.80  298.08   1-0.71102 0.40167-0.70078 0.75132 0.05786-0.52361
  -3  -1 -11  192.04  150.86   1-0.73834 0.42836-0.65545 0.60485 0.15884-0.67131
  -3   1 -11   85.19  103.22   1-0.69063 0.38094-0.72318 0.77372-0.00612-0.50619
  -3  -1 -12133529.5 2459.15   1-0.72382 0.41337-0.68330 0.63270 0.09577-0.65482
  -3   1 -12137198.264789.80   1-0.66826 0.35917-0.74108 0.79166-0.06490-0.49422
  -3  -1 -13 7429.19  517.11   1-0.70440 0.39404-0.70889 0.65835 0.03585-0.64132
  -3   1 -13 6792.95  466.27   1-0.64658 0.33717-0.75386 0.80444-0.11666-0.48906
  -3  -1 -14  862.04  256.68   1-0.68623 0.37554-0.72714 0.67659-0.01865-0.63339
  -3   1 -14  561.32  278.12   1-0.62458 0.31485-0.76348 0.81405-0.16428-0.48803
  -3  -1 -15   87.70  136.77   1-0.66585 0.35579-0.74270 0.69212-0.07093-0.62798
  -3   1 -15   20.09  122.86   1-0.60227 0.29221-0.77054 0.82111-0.20863-0.49028
  -3  -1 -16 6990.71  564.55   1-0.64547 0.33509-0.75442 0.70385-0.11917-0.62634
  -3   1 -16 5690.04  491.02   1-0.57590 0.26735-0.77753 0.82805-0.25253-0.49278
  -3  -1 -17  108.33  162.31   1-0.62424 0.31353-0.76360 0.71303-0.16499-0.62711
   3  -2 -18   39.91  188.11   1-0.38063 0.68088-0.76283 0.66169-0.52268-0.31393
   3   2 -18  304.95  314.62   1-0.24621 0.54630-0.71638 0.81737-0.65281-0.18288
   3  -2 -17 1094.18  370.44   1-0.39000 0.69295-0.76561 0.66458-0.51158-0.27954
   3   2 -17 1627.91  385.44   1-0.25326 0.55358-0.71950 0.82049-0.64666-0.14260
   3  -2 -16  577.69  355.06   1-0.40037 0.70347-0.76819 0.66715-0.49958-0.24501
   3   2 -16  146.00  167.33   1-0.25867 0.55922-0.72185 0.82284-0.64188-0.10095
   3  -2 -15   86.14  237.34   1-0.40961 0.71287-0.77033 0.66930-0.48866-0.20940
   3   2 -15   79.85  177.08   1-0.26228 0.56306-0.72340 0.82438-0.63867-0.05774
   3  -2 -14 5341.25  595.05   1-0.41765 0.72105-0.77208 0.67105-0.47900-0.17252
   3   2 -14 4894.85  567.13   1-0.26387 0.56489-0.72407 0.82506-0.63724-0.01273
   3  -2 -13  132.89  202.03   1-0.42434 0.72790-0.77346 0.67242-0.47083-0.13415
   3   2 -13  130.35  197.33   1-0.26317 0.56442-0.72378 0.82476-0.63787 0.03431
   3  -2 -12 1043.59  417.43   1-0.42953 0.73324-0.77447 0.67343-0.46443-0.09401
   3   2 -12 1387.99  708.98   1-0.25984 0.56133-0.72235 0.82334-0.64084 0.08371
   3  -2 -1121926.15  819.70   1-0.43297 0.73684-0.77511 0.67408-0.46013-0.05177
   3   2 -1120823.28  750.42   1-0.25345 0.55517-0.71958 0.82057-0.64649 0.13579
   3  -2 -10  133.36  172.48   1-0.43437 0.73839-0.77537 0.67433-0.45838-0.00698
   3   2 -10  454.58  284.90   1-0.24344 0.54540-0.71515 0.81614-0.65520 0.19092
   3  -2  -9 3065.46  374.24   1-0.43329 0.73747-0.77517 0.67413-0.45973 0.04089
   3   2  -9 2953.61  345.31   1-0.22913 0.53132-0.70860 0.80959-0.66736 0.24951
   3  -2  -8  590.67  271.79   1-0.42916 0.73348-0.77440 0.67336-0.46488 0.09258
   3   2  -8  668.28  289.66   1-0.20964 0.51206-0.69930 0.80029-0.68339 0.31196
   3  -2  -7 2561.86  240.07   1-0.42113 0.72561-0.77281 0.67177-0.47476 0.14900
   3   2  -7 2490.10  264.47   1-0.18388 0.48653-0.68636 0.78734-0.70363 0.37863
   3  -2  -633499.57  930.72   1-0.40800 0.71263-0.76997 0.66893-0.49058 0.21135
   3   2  -634581.33  964.80   1-0.15054 0.45342-0.66852 0.76951-0.72829 0.44972
   3  -2  -5  590.69  142.62   1-0.38799 0.69278-0.76509 0.66406-0.51388 0.28120
   3   2  -5  484.52  130.02   1-0.10706 0.41030-0.64499 0.74595-0.75664 0.52458
   3  -2  -4   41.87  101.88   1-0.36066 0.66403-0.75715 0.65602-0.54464 0.35872
   3   2  -4   74.56  117.13   1-0.05391 0.35738-0.61180 0.71276-0.78916 0.60352
   3  -2  -312617.97  480.69   1-0.31746 0.62106-0.74292 0.64179-0.58930 0.44986
   3   2  -312142.49  519.52   1 0.01237 0.29087-0.56897 0.66969-0.82226 0.68329
   3  -2  -267585.85  734.94   1-0.25385 0.55766-0.71976 0.61877-0.64613 0.55328
   3   2  -270218.82  871.86   1 0.09066 0.21283-0.50982 0.61054-0.85548 0.76284
   3  -2  -1114402.8  886.66   1-0.16172 0.46576-0.67464 0.57365-0.72021 0.67378
   3   2  -1116999.4 1050.37   1 0.18206 0.12188-0.43520 0.53590-0.88173 0.83543
   3  -2   019630.77  539.96   1-0.02835 0.33274-0.59482 0.49386-0.80335 0.80335
  -3  -2  -1147126.0 1634.44   1-0.38206 0.07322 0.21531-0.31755 0.89870-0.94540
   3  -2   1141500.2  876.82   1 0.15293 0.15146-0.46070 0.36000-0.87427 0.92057
  -3   2  -2  321.84   80.88   1-0.38779 0.07843 0.20874-0.10649 0.89779-0.99121
  -3  -2  -3 7411.01  414.35   1-0.56861 0.25879-0.02477-0.07749 0.82222-0.96281
  -3   2  -3 7534.88  325.90   1-0.58818 0.27836-0.05572 0.15799 0.80680-0.94739
  -3  -2  -4 1441.74  211.91   1-0.63850 0.32827-0.14278 0.04052 0.75625-0.94371
  -3   2  -4 1270.59  121.40   1-0.71142 0.40168-0.30646 0.40848 0.63241-0.81962
  -3  -2  -535738.55  945.04   1-0.68996 0.37983-0.25128 0.14927 0.67882-0.91293
  -3   2  -533671.21  775.54   1-0.75483 0.44677-0.47192 0.57305 0.45554-0.68701
  -3  -2  -6 1972.83  223.88   1-0.72467 0.41364-0.34471 0.24269 0.59667-0.87749
  -3   2  -6 1394.18  122.85   1-0.75766 0.45011-0.58170 0.68288 0.29592-0.57538
  -3  -2  -711052.21  535.63   1-0.74541 0.43595-0.42029 0.31915 0.51741-0.84147
  -3   2  -712433.91  488.72   1-0.74156 0.43344-0.64756 0.74876 0.17535-0.50147
  -3  -2  -8 6983.28  542.55   1-0.75659 0.44642-0.48598 0.38485 0.43746-0.80783
  -3   2  -8 8006.35  540.88   1-0.71667 0.40799-0.69305 0.79413 0.07783-0.45042
  -3  -2  -9 7197.12  558.63   1-0.76017 0.45117-0.54358 0.44240 0.35588-0.77506
  -3   2  -9 7460.08  531.04   1-0.69328 0.38426-0.72066 0.82174 0.00162-0.42079
  -3  -2 -10   83.72  146.58   1-0.75672 0.44724-0.58879 0.48761 0.28404-0.74980
  -3   2 -10   -2.73   71.33   1-0.66846 0.36003-0.74094 0.84209-0.06438-0.40156
  -3  -2 -1120361.35  744.70   1-0.74852 0.43854-0.62674 0.52554 0.21655-0.72902
  -3   2 -1121430.33  635.59   1-0.64539 0.33663-0.75446 0.85561-0.11934-0.39319
  -3  -2 -12 1217.55  521.38   1-0.73727 0.42682-0.65789 0.55669 0.15362-0.71267
  -3   2 -12  835.03  346.61   1-0.62270 0.31362-0.76417 0.86531-0.16815-0.39097
  -3  -2 -13 2896.29  460.21   1-0.72351 0.41260-0.68379 0.58258 0.09460-0.70024
  -3   2 -13 4053.52  533.39   1-0.60026 0.29085-0.77106 0.87221-0.21247-0.39325
  -3  -2 -14   99.17  150.23   1-0.70501 0.39432-0.70817 0.60709 0.03784-0.68988
  -3   2 -14  150.59  126.03   1-0.57390 0.26572-0.77786 0.87891-0.25604-0.39611
  -3  -2 -15  574.80  277.85   1-0.68764 0.37661-0.72590 0.62481-0.01468-0.68393
  -3   2 -15 1310.43  278.21   1-0.55136 0.24299-0.78063 0.88168-0.29428-0.40445
  -3  -2 -16  393.93  289.47   1-0.66898 0.35762-0.74046 0.63938-0.06453-0.68065
  -3  -2 -17  386.14  241.22   1-0.64817 0.33747-0.75305 0.65190-0.11304-0.67906
  -3  -2 -18  146.68  163.20   1-0.62735 0.31632-0.76242 0.66128-0.15852-0.68018
   3  -3 -18  311.27  246.48   1-0.40477 0.70756-0.76923 0.61767-0.49441-0.34326
   3   3 -18   87.09  191.09   1-0.20636 0.50645-0.69769 0.84917-0.68602-0.14966
   3  -3 -17  878.63  454.01   1-0.41694 0.71988-0.77193 0.62038-0.47986-0.31127
   3   3 -17  830.10  349.95   1-0.21205 0.51238-0.70047 0.85196-0.68144-0.10782
   3  -3 -16  167.62  229.55   1-0.42816 0.73126-0.77421 0.62265-0.46612-0.27847
   3   3 -16  901.67  452.21   1-0.21595 0.51650-0.70236 0.85384-0.67827-0.06456
   3  -3 -1515402.34 1099.70   1-0.43840 0.74165-0.77608 0.62453-0.45330-0.24475
   3   3 -1515397.10 1056.74   1-0.21786 0.51864-0.70327 0.85475-0.67671-0.01970
   3  -3 -14 1199.79  381.16   1-0.44758 0.75098-0.77760 0.62605-0.44158-0.20994
   3   3 -14 1342.01  366.76   1-0.21754 0.51856-0.70312 0.85460-0.67696 0.02698
   3  -3 -13 3949.80  610.22   1-0.45560 0.75916-0.77880 0.62725-0.43114-0.17384
   3   3 -13 2852.10  450.84   1-0.21472 0.51597-0.70176 0.85325-0.67927 0.07571
   3  -3 -12  287.39  201.81   1-0.46235 0.76606-0.77971 0.62815-0.42222-0.13622
   3   3 -12   93.05  171.78   1-0.20901 0.51050-0.69899 0.85048-0.68389 0.12676
   3  -3 -11 7330.42 3498.00   1-0.46764 0.77151-0.78036 0.62880-0.41513-0.09677
   3   3 -11 7010.45 1085.14   1-0.19998 0.50170-0.69453 0.84601-0.69110 0.18040
   3  -3 -10  775.12  322.21   1-0.47125 0.77527-0.78077 0.62921-0.41026-0.05511
   3   3 -10  977.50  250.25   1-0.18707 0.48902-0.68800 0.83948-0.70118 0.23690
   3  -3  -9   89.91  148.45   1-0.47284 0.77701-0.78094 0.62939-0.40809-0.01073
   3   3  -9   39.63  143.31   1-0.16959 0.47177-0.67886 0.83034-0.71440 0.29656
   3  -3  -8 1682.03  592.80   1-0.47196 0.77628-0.78084 0.62929-0.40930 0.03700
   3   3  -8 1802.08  235.79   1-0.14674 0.44915-0.66641 0.81790-0.73099 0.35957
   3  -3  -7 2158.23  261.27   1-0.46794 0.77242-0.78039 0.62884-0.41473 0.08897
   3   3  -7 1985.41  249.27   1-0.11637 0.41916-0.65051 0.80195-0.75052 0.42564
   3  -3  -6 3303.25  270.83   1-0.45983 0.76446-0.77938 0.62783-0.42556 0.14634
   3   3  -6 2886.88  260.30   1-0.07981 0.38282-0.62833 0.77977-0.77383 0.49536
   3  -3  -512389.68  558.41   1-0.44617 0.75095-0.77738 0.62583-0.44340 0.21071
   3   3  -512589.67  576.31   1-0.03471 0.33795-0.59910 0.75054-0.79991 0.56785
   3  -3  -429651.74  810.81   1-0.42467 0.72961-0.77352 0.62197-0.47043 0.28428
   3   3  -431123.96  874.37   1 0.02106 0.28192-0.56271 0.71380-0.82638 0.64109
   3  -3  -3114904.9 1013.44   1-0.39164 0.69673-0.76603 0.61448-0.50971 0.37009
   3   3  -3114831.5 1119.28   1 0.08582 0.21742-0.51366 0.66475-0.85368 0.71472
   3  -3  -2166177.1 1165.86   1-0.34357 0.64739-0.75183 0.60013-0.56276 0.46980
   3   3  -2169755.1 1369.10   1 0.16166 0.14207-0.45316 0.60420-0.87664 0.78405
   3  -3  -110993.06  402.25   1-0.26483 0.56887-0.72448 0.57300-0.63638 0.58995
  -3  -3   0231360.9 1579.02   1-0.32872 0.02039 0.27426-0.42762 0.90372-0.90372
   3  -3   0210152.0 1143.47   1-0.14074 0.44513-0.66452 0.51308-0.73388 0.73388
   3  -3   1 1775.36  178.27   1 0.05384 0.25042-0.53842 0.38733-0.84095 0.88727
  -3   3  -2 2993.93  331.25   1-0.35987 0.05051 0.24033-0.08696 0.90151-0.99492
  -3  -3  -2 4565.60  699.84   1-0.50203 0.19268 0.07061-0.22424 0.86196-0.95529
  -3  -3  -3 6555.29  681.81   1-0.57665 0.26682-0.03731-0.11608 0.81613-0.95672
  -3   3  -3 6910.58  215.32   1-0.64017 0.33103-0.14812 0.30113 0.75381-0.89427
  -3  -3  -436013.08 1097.49   1-0.63756 0.32733-0.14105-0.01234 0.75737-0.94482
  -3   3  -430828.87  671.83   1-0.75607 0.44949-0.47604 0.62782 0.44914-0.63544
  -3  -3  -5 6729.12  385.46   1-0.68416 0.37402-0.23799 0.08497 0.68940-0.92351
  -3   3  -5 7647.09  290.80   1-0.74632 0.43914-0.63401 0.78582 0.20253-0.43547
  -3  -3  -6 3627.75  299.93   1-0.71757 0.40654-0.32358 0.17055 0.61675-0.89756
  -3   3  -6 3770.15  187.92   1-0.70786 0.39985-0.70476 0.85639 0.04719-0.32664
  -3  -3  -7  586.08  246.21   1-0.74003 0.42837-0.39804 0.24501 0.54213-0.86974
  -3   3  -7  655.43  241.65   1-0.67357 0.36610-0.73733 0.88906-0.05132-0.27483
  -3  -3  -8 2923.13  338.52   1-0.75282 0.44265-0.45858 0.30688 0.47217-0.84254
  -3   3  -8 2563.51  219.95   1-0.64608 0.33829-0.75412 0.90584-0.11779-0.25495
  -3  -3  -9 8495.50  512.47   1-0.75891 0.44803-0.51300 0.36130 0.40109-0.81775
  -3   3  -910523.93  418.32   1-0.62177 0.31366-0.76450 0.91622-0.17007-0.24927
  -3  -3 -10 5873.85  424.88   1-0.75945 0.44996-0.56217 0.41040 0.32740-0.79315
  -3   3 -10 5573.54  285.10   1-0.59485 0.28740-0.77366 0.92523-0.21816-0.24766
  -3  -3 -11 2723.66  520.19   1-0.75465 0.44468-0.60140 0.44962 0.26232-0.77465
  -3   3 -11 2178.79  374.82   1-0.57348 0.26585-0.77793 0.92950-0.25678-0.25562
  -3  -3 -1232707.05  844.68   1-0.74597 0.43552-0.63511 0.48331 0.20036-0.75942
  -3   3 -1235057.30  695.18   1-0.55269 0.24488-0.78051 0.93209-0.29208-0.26690
  -3  -3 -13  293.01  268.51   1-0.73476 0.42385-0.66333 0.51152 0.14180-0.74745
  -3   3 -13   32.48   90.87   1-0.53212 0.22412-0.78175 0.93332-0.32510-0.28046
  -3  -3 -14  127.23  162.14   1-0.71868 0.40799-0.69008 0.53845 0.08524-0.73729
  -3  -3 -15  525.47  285.53   1-0.70327 0.39224-0.71018 0.55855 0.03223-0.73086
  -3  -3 -16  534.68  306.85   1-0.68633 0.37497-0.72705 0.57542-0.01836-0.72683
  -3  -3 -17  191.06  239.02   1-0.66807 0.35637-0.74108 0.58945-0.06683-0.72493
  -3  -3 -18   46.86  166.20   1-0.64762 0.33659-0.75333 0.60161-0.11429-0.72440
   3  -4 -18  124.39  197.39   1-0.42828 0.73107-0.77423 0.57216-0.46597-0.37169
   3   4 -18   62.97  187.38   1-0.16413 0.46422-0.67594 0.87791-0.71844-0.11725
   3  -4 -17 1417.68  362.46   1-0.44106 0.74401-0.77654 0.57447-0.44992-0.34120
   3   4 -17  681.24  290.16   1-0.16843 0.46875-0.67824 0.88022-0.71527-0.07399
   3  -4 -16  456.99  311.49   1-0.45300 0.75609-0.77842 0.57635-0.43455-0.31004
   3   4 -16  242.98  261.57   1-0.17077 0.47133-0.67949 0.88146-0.71353-0.02931
   3  -4 -15  211.05  213.19   1-0.46404 0.76729-0.77992 0.57785-0.41996-0.27809
   3   4 -15  103.77  170.39   1-0.17096 0.47175-0.67959 0.88156-0.71339 0.01697
   3  -4 -14 4361.14  558.28   1-0.47416 0.77756-0.78108 0.57901-0.40629-0.24522
   3   4 -14 5729.16  607.65   1-0.16874 0.46976-0.67841 0.88038-0.71503 0.06505
   3  -4 -13 1430.33  352.97   1-0.48328 0.78683-0.78194 0.57986-0.39371-0.21127
   3   4 -13 1290.83  373.68   1-0.16382 0.46508-0.67577 0.87775-0.71867 0.11511
   3  -4 -12 -123.34  183.30   1-0.49131 0.79502-0.78254 0.58047-0.38240-0.17604
   3   4 -12  -83.91  178.93   1-0.15583 0.45731-0.67143 0.87341-0.72449 0.16736
   3  -4 -1129369.09  955.59   1-0.49965 0.80325-0.78138 0.57929-0.37385-0.13854
   3   4 -1131043.24  950.23   1-0.14431 0.44603-0.66506 0.86704-0.73270 0.22200
   3   4 -10   48.19  160.18   1-0.12744 0.42954-0.65695 0.85887-0.74307 0.27896
   3  -4  -915671.87  711.57   1-0.50877 0.81273-0.78175 0.57966-0.36055-0.05868
   3   4  -915450.62  707.67   1-0.10723 0.40956-0.64510 0.84702-0.75653 0.33882
   3  -4  -8 2545.53  313.14   1-0.51054 0.81468-0.78180 0.57971-0.35794-0.01471
   3   4  -8 2402.02  323.36   1-0.08165 0.38421-0.62949 0.83141-0.77270 0.40141
   3  -4  -7  412.73  236.91   1-0.50983 0.81416-0.78178 0.57969-0.35898 0.03290
   3   4  -7  167.14  142.41   1-0.04992 0.35271-0.60919 0.81111-0.79144 0.46656
   3  -4  -6 6599.31  402.87   1-0.50593 0.81045-0.78166 0.57957-0.36472 0.08523
   3   4  -6 6369.96  390.82   1-0.01124 0.31425-0.58308 0.78500-0.81233 0.53386
   3  -4  -5 1278.09  205.15   1-0.49680 0.80158-0.78287 0.58080-0.37456 0.14187
   3   4  -5 1140.45  224.19   1 0.03638 0.26634-0.55149 0.75294-0.83338 0.60178
   3  -4  -412334.54  547.87   1-0.48271 0.78765-0.78189 0.57981-0.39449 0.20834
   3   4  -412814.41  587.11   1 0.09081 0.21216-0.50970 0.71115-0.85554 0.67025
   3  -4  -330975.43  803.47   1-0.45964 0.76473-0.77935 0.57728-0.42582 0.28620
   3   4  -330803.18  864.80   1 0.15473 0.14877-0.45915 0.66055-0.87477 0.73589
   3  -4  -211466.04  475.35   1-0.42237 0.72762-0.77306 0.57099-0.47325 0.38017
  -3  -4   111290.74  466.57   1-0.29430-0.01351 0.31024-0.51473 0.90395-0.85724
   3  -4  -110250.25  362.58   1-0.36421 0.66825-0.75820 0.55594-0.54080 0.49432
  -3  -4   010840.99 1203.77   1-0.37220 0.06386 0.22652-0.43101 0.90008-0.90008
   3  -4   0 8238.78  274.74   1-0.26051 0.56479-0.72264 0.52066-0.64024 0.64024
  -3  -4  -114530.31 1149.64   1-0.44883 0.13998 0.13532-0.33980 0.88331-0.93001
   3  -4   113544.21  365.70   1-0.07170 0.37632-0.62323 0.42131-0.77873 0.82515
  -3  -4  -2 4883.39  714.03   1-0.52199 0.21265 0.04290-0.24775 0.85186-0.94519
  -3  -4  -320563.89  883.28   1-0.58632 0.27650-0.05272-0.15180 0.80835-0.94894
  -3  -4  -4 6766.19  886.02   1-0.63968 0.32945-0.14499-0.05953 0.75483-0.94229
  -3  -4  -544940.23 1172.79   1-0.68158 0.37144-0.23221 0.02820 0.69391-0.92802
  -3  -4  -6   96.94  178.38   1-0.71296 0.40194-0.31066 0.10663 0.62861-0.90943
  -3  -4  -7 4203.39  397.48   1-0.73536 0.42370-0.38036 0.17632 0.56085-0.88847
  -3  -4  -8  447.96  279.63   1-0.74920 0.43903-0.43834 0.23607 0.49653-0.86690
  -3   4  -8   32.59   36.42   1-0.48351 0.17673-0.78195 0.98403-0.39338 0.02108
  -3  -4  -9  948.03  238.40   1-0.75719 0.44631-0.49154 0.28927 0.43017-0.84683
  -3  -4 -10 1688.49  278.76   1-0.76020 0.45072-0.54058 0.33821 0.36035-0.82611
  -3  -4 -11 1776.14  433.66   1-0.75780 0.44783-0.58051 0.37814 0.29787-0.81021
  -3  -4 -12  -75.88  128.40   1-0.75149 0.44104-0.61541 0.41300 0.23775-0.79680
  -3  -4 -13  821.15  285.48   1-0.74248 0.43157-0.64513 0.44272 0.18031-0.78596
  -3  -4 -14   66.20  154.33   1-0.73105 0.41967-0.67071 0.46830 0.12530-0.77753
  -3  -4 -15  199.63  182.64   1-0.71499 0.40396-0.69543 0.49326 0.07177-0.77039
  -3  -4 -16   15.18  155.05   1-0.69970 0.38834-0.71411 0.51194 0.02102-0.76622
  -3  -4 -17  -83.18  160.57   1-0.68293 0.37123-0.72995 0.52777-0.02781-0.76396
  -3  -4 -18  -75.88  169.99   1-0.66390 0.35287-0.74397 0.54167-0.07576-0.76293
   3  -5 -17   33.43  200.76   1-0.46249 0.76543-0.77973 0.52714-0.42204-0.36909
   3   5 -17  276.94  273.44   1-0.12123 0.42173-0.65335 0.90575-0.74727-0.04171
   3  -5 -16 4843.84  528.61   1-0.47497 0.77807-0.78116 0.52857-0.40518-0.33941
   3   5 -16 4651.82  517.51   1-0.12203 0.42276-0.65382 0.90622-0.74673 0.00415
   3  -5 -15 4966.41  557.65   1-0.48666 0.78991-0.78221 0.52962-0.38897-0.30908
   3   5 -15 4345.26  473.70   1-0.12054 0.42150-0.65295 0.90535-0.74773 0.05156
   3  -5 -14  144.69  216.09   1-0.49909 0.80214-0.78136 0.52874-0.37467-0.27748
   3   5 -14  214.04  186.80   1-0.11650 0.41769-0.65059 0.90299-0.75043 0.10067
   3  -5 -13 2105.07  429.10   1-0.50903 0.81226-0.78176 0.52914-0.36016-0.24540
   3   5 -13 2758.93  401.91   1-0.10961 0.41103-0.64652 0.89892-0.75497 0.15162
   3  -5 -12 6518.32  516.30   1-0.51803 0.82145-0.78192 0.52930-0.34673-0.21224
   3   5 -12 5205.63  448.74   1-0.09952 0.40117-0.64046 0.89286-0.76150 0.20456
   3  -5 -11    0.32  172.46   1-0.52600 0.82960-0.78189 0.52927-0.33459-0.17781
   3   5 -11   95.88  170.72   1-0.08581 0.38768-0.63207 0.88447-0.77014 0.25961
   3  -5 -10 9149.49  555.29   1-0.53283 0.83661-0.78173 0.52911-0.32400-0.14181
   3   5 -10 7792.18  502.80   1-0.06801 0.37011-0.62089 0.87329-0.78094 0.31682
   3  -5  -915157.73  729.07   1-0.53833 0.84230-0.78151 0.52889-0.31532-0.10391
   3   5  -915483.98  700.89   1-0.04558 0.34791-0.60634 0.85874-0.79389 0.37619
   3  -5  -8   19.69  149.31   1-0.54228 0.84643-0.78130 0.52868-0.30902-0.06363
   3   5  -8   85.46  152.91   1-0.01795 0.32051-0.58772 0.84012-0.80886 0.43757
   3  -5  -7 5953.85  509.27   1-0.54432 0.84865-0.78117 0.52855-0.30574-0.02033
   3   5  -7 6004.19  530.09   1 0.01685 0.28536-0.56575 0.81756-0.82440 0.50015
   3  -5  -621298.13  563.12   1-0.54394 0.84845-0.78119 0.52857-0.30635 0.02686
   3   5  -622076.17  616.59   1 0.05653 0.24594-0.53637 0.78818-0.84208 0.56415
   3  -5  -530608.46  857.24   1-0.54034 0.84504-0.78141 0.52879-0.31212 0.07921
   3   5  -532485.40  938.44   1 0.10282 0.19990-0.50008 0.75189-0.85985 0.62824
   3  -5  -4 7059.79  390.04   1-0.53226 0.83714-0.78175 0.52913-0.32488 0.13855
   3   5  -4 7434.50  423.69   1 0.15735 0.14593-0.45689 0.70863-0.87549 0.69031
   3  -5  -318535.30 6274.26   1-0.51754 0.82260-0.78192 0.52930-0.34748 0.20774
   3  -5  -222880.04  619.77   1-0.49241 0.79766-0.78261 0.53002-0.38083 0.28776
  -3  -5   1 3849.19 1330.77   1-0.34222 0.03440 0.25972-0.51533 0.90300-0.85630
   3  -5  -1 3444.15  184.92   1-0.44959 0.75499-0.77791 0.52532-0.43898 0.39244
  -3  -5   0120700.2 2910.58   1-0.41081 0.10247 0.18178-0.43739 0.89341-0.89341
   3  -5   0113412.5 2356.85   1-0.37553 0.67980-0.76143 0.50860-0.52837 0.52837
  -3  -5  -149481.58 1578.51   1-0.47937 0.17029 0.10093-0.35699 0.87178-0.91845
   3  -5   146689.33 1002.88   1-0.22120 0.52571-0.70487 0.45239-0.67396 0.72038
  -3  -5  -2  185.36  135.97   1-0.54113 0.23178 0.01539-0.27144 0.84079-0.93412
  -3  -5  -355027.49 1452.00   1-0.59702 0.28720-0.07017-0.18549 0.79914-0.93973
  -3  -5  -4  -43.93  127.77   1-0.64394 0.33371-0.15301-0.10264 0.74961-0.93706
  -3  -5  -5  171.00  178.39   1-0.68147 0.37134-0.23197-0.02304 0.69410-0.92821
  -3  -5  -646026.13  887.79   1-0.71052 0.39949-0.30402 0.04897 0.63461-0.91542
  -3  -5  -7  254.58  200.18   1-0.73215 0.42049-0.36906 0.11401 0.57248-0.90010
  -3  -5  -811788.02  588.13   1-0.74625 0.43608-0.42407 0.17123 0.51310-0.88346
  -3  -5  -9 8074.66  561.46   1-0.75531 0.44443-0.47545 0.22262 0.45104-0.86770
  -3  -5 -10  300.85  254.53   1-0.75999 0.45050-0.52363 0.27067 0.38499-0.85075
  -3  -5 -11 3262.41  575.36   1-0.75936 0.44939-0.56352 0.31056 0.32527-0.83761
  -3  -5 -12 2255.94  399.25   1-0.75518 0.44472-0.59848 0.34552 0.26742-0.82633
  -3  -5 -13 4540.34  498.64   1-0.74772 0.43681-0.62947 0.37646 0.21134-0.81698
  -3  -5 -14  214.42  235.42   1-0.73804 0.42666-0.65615 0.40313 0.15735-0.80958
  -3  -5 -15 2026.57  467.32   1-0.72622 0.41438-0.67935 0.42634 0.10524-0.80406
  -3  -5 -16   49.40  166.30   1-0.70996 0.39860-0.70213 0.44942 0.05426-0.79945
  -3  -5 -17  291.82  263.21   1-0.69458 0.38289-0.71938 0.46666 0.00548-0.79725
   3  -6 -17  123.79  206.09   1-0.48132 0.78427-0.78177 0.47866-0.39642-0.39470
   3   6 -17  145.88  189.23   1-0.07360 0.37410-0.62443 0.92731-0.77759-0.01139
   3   6 -16   89.63  173.48   1-0.07292 0.37365-0.62401 0.92689-0.77800 0.03541
   3  -6 -15  -16.77  180.11   1-0.50794 0.81080-0.78173 0.47859-0.36178-0.33695
   3   6 -15  134.69  173.88   1-0.06984 0.37079-0.62205 0.92493-0.77985 0.08367
   3  -6 -14 9148.64  793.97   1-0.51932 0.82237-0.78193 0.47879-0.34479-0.30735
   3   6 -14 8117.90  710.36   1-0.06410 0.36529-0.61839 0.92127-0.78325 0.13348
   3  -6 -13  114.03  271.96   1-0.52991 0.83314-0.78182 0.47867-0.32855-0.27701
   3   6 -13   -1.36  147.21   1-0.05542 0.35684-0.61279 0.91567-0.78829 0.18494
   3  -6 -12 1955.09  392.32   1-0.53967 0.84309-0.78144 0.47830-0.31318-0.24579
   3   6 -12 1830.24  400.18   1-0.04349 0.34513-0.60496 0.90784-0.79506 0.23812
   3  -6 -11 1216.08  318.60   1-0.54856 0.85216-0.78086 0.47772-0.29886-0.21353
   3   6 -11  954.62  392.48   1-0.02792 0.32979-0.59453 0.89741-0.80358 0.29305
   3  -6 -10 -164.22  179.67   1-0.55648 0.86026-0.78015 0.47701-0.28580-0.18001
   3   6 -10  125.09  223.84   1-0.00832 0.31042-0.58105 0.88393-0.81382 0.34970
   3  -6  -9  562.41  315.83   1-0.56332 0.86729-0.77937 0.47623-0.27429-0.14494
   3   6  -9   -9.40  159.91   1 0.01720 0.28449-0.56550 0.86767-0.82456 0.40767
   3  -6  -831158.30 1076.15   1-0.56892 0.87307-0.77862 0.47548-0.26469-0.10795
   3   6  -831472.56 1087.65   1 0.04615 0.25580-0.54421 0.84638-0.83767 0.46710
   3  -6  -7  467.47  229.89   1-0.57305 0.87738-0.77800 0.47485-0.25752-0.06854
   3   6  -7  612.60  266.32   1 0.08033 0.22187-0.51798 0.82015-0.85160 0.52736
   3  -6  -6 2275.31  277.49   1-0.57536 0.87988-0.77762 0.47448-0.25348-0.02601
   3   6  -6 2813.27  364.85   1 0.12001 0.18246-0.48604 0.78821-0.86565 0.58773
   3  -6  -5  207.42  181.32   1-0.57531 0.88001-0.77763 0.47449-0.25356 0.02064
   3   6  -5  611.57  255.47   1 0.16697 0.13609-0.44853 0.75062-0.87803 0.64655
   3  -6  -4  125.09   79.34   1-0.57207 0.87695-0.77815 0.47501-0.25924 0.07291
   3  -6  -3 3211.68  238.08   1-0.56418 0.86924-0.77926 0.47612-0.27283 0.13308
  -3  -6   2 6363.40  418.83   1-0.32445 0.01714 0.27881-0.58554 0.90387-0.81046
   3  -6  -2 5571.50  310.53   1-0.54905 0.85429-0.78083 0.47768-0.29807 0.20490
  -3  -6   111934.71  968.70   1-0.38508 0.07726 0.21185-0.51858 0.89823-0.85152
   3  -6  -1 9443.01  399.47   1-0.52146 0.82689-0.78193 0.47879-0.34155 0.29497
  -3  -6   014687.29  810.81   1-0.44550 0.13716 0.13949-0.44622 0.88434-0.88434
   3  -6   014134.16  518.34   1-0.47142 0.77698-0.78079 0.47768-0.41002 0.41002
  -3  -6  -114612.65  690.83   1-0.50577 0.19669 0.06549-0.37275 0.86017-0.90684
   3  -6   113033.78  459.69   1-0.36746 0.67196-0.75915 0.45576-0.53725 0.58373
  -3  -6  -2  877.74  194.40   1-0.55949 0.25014-0.01197-0.29528 0.82874-0.92208
  -3  -6  -3  122.50   71.79   1-0.60832 0.29850-0.08913-0.21766 0.78866-0.92925
  -3  -6  -4 5791.90  790.12   1-0.64897 0.33934-0.16487-0.14114 0.74272-0.93001
  -3  -6  -5 6735.40  551.76   1-0.68324 0.37310-0.23592-0.07009 0.69102-0.92513
  -3  -6  -6   55.99  143.57   1-0.70985 0.39883-0.30224-0.00381 0.63620-0.91701
  -3  -6  -7  194.66  189.80   1-0.73032 0.41866-0.36287 0.05681 0.57874-0.90636
  -3  -6  -811548.90  607.46   1-0.74415 0.43398-0.41476 0.11135 0.52364-0.89401
  -3  -6  -9  267.42  256.06   1-0.75368 0.44280-0.46402 0.16061 0.46545-0.88211
  -3  -6 -10  803.11  358.45   1-0.75860 0.44702-0.50813 0.20472 0.40782-0.87077
  -3  -6 -11  -13.91  168.50   1-0.76001 0.45005-0.55018 0.24662 0.34593-0.85827
  -3  -6 -12  536.69  266.10   1-0.75723 0.44678-0.58509 0.28153 0.29027-0.84918
  -3  -6 -13 2181.07  344.59   1-0.75125 0.44034-0.61640 0.31278 0.23593-0.84158
  -3  -6 -14 1373.60  370.25   1-0.74301 0.43164-0.64369 0.34008 0.18324-0.83548
  -3  -6 -15  277.18  254.13   1-0.73260 0.42076-0.66771 0.36410 0.13207-0.83089
  -3  -6 -16  574.35  350.26   1-0.71779 0.40643-0.69141 0.38815 0.08193-0.82713
  -3  -6 -17  268.11  287.66   1-0.70368 0.39198-0.70972 0.40646 0.03353-0.82531
   3  -7 -17  488.86  336.77   1-0.49925 0.80175-0.78136 0.42770-0.37444-0.41745
   3   7 -17  375.79  294.47   1-0.02450 0.32500-0.59220 0.94556-0.80541 0.01641
   3  -7 -16  150.78  216.60   1-0.51243 0.81511-0.78185 0.42818-0.35513-0.39018
   3   7 -16  124.66  180.47   1-0.02246 0.32319-0.59081 0.94417-0.80649 0.06390
   3  -7 -15 2280.77  375.26   1-0.52491 0.82778-0.78191 0.42824-0.33626-0.36246
   3   7 -15 1323.42  360.35   1-0.01793 0.31888-0.58770 0.94106-0.80887 0.11270
   3  -7 -14  764.31  381.79   1-0.53669 0.83974-0.78158 0.42792-0.31792-0.33423
   3   7 -14  953.56  415.25   1-0.01069 0.31187-0.58270 0.93606-0.81261 0.16285
   3  -7 -13 7045.42  626.62   1-0.54775 0.85098-0.78093 0.42726-0.30018-0.30539
   3   7 -13 7496.23  670.80   1 0.00097 0.29970-0.57706 0.92960-0.81669 0.21452
   3  -7 -12 9636.24  780.29   1-0.55807 0.86148-0.77998 0.42632-0.28315-0.27583
   3   7 -1210487.13  792.86   1 0.01445 0.28647-0.56747 0.92001-0.82326 0.26741
   3  -7 -11 5223.40  501.87   1-0.56761 0.87121-0.77880 0.42514-0.26696-0.24544
   3   7 -11 4747.51 1531.87   1 0.03149 0.26969-0.55510 0.90763-0.83118 0.32165
   3  -7 -10 6756.38  465.31   1-0.57632 0.88010-0.77746 0.42379-0.25179-0.21403
   3   7 -10 7408.74  503.76   1 0.05240 0.24904-0.53951 0.89204-0.84034 0.37713
   3  -7  -917412.03  700.50   1-0.58412 0.88809-0.77602 0.42235-0.23785-0.18138
   3   7  -918726.04  741.63   1 0.07748 0.22421-0.52021 0.87275-0.85051 0.43362
   3  -7  -8 1099.02  330.01   1-0.59347 0.89606-0.77270 0.41868-0.22522-0.14753
   3   7  -8  678.85  321.99   1 0.10701 0.19494-0.49668 0.84921-0.86130 0.49074
   3  -7  -752223.39 1593.10   1-0.59897 0.90189-0.77138 0.41737-0.21490-0.11125
   3   7  -754330.00 1681.35   1 0.14313 0.15949-0.46907 0.82151-0.87148 0.54742
   3  -7  -611779.69  540.96   1-0.60308 0.90632-0.77032 0.41630-0.20709-0.07247
   3   7  -613768.68  664.13   1 0.18188 0.12096-0.43536 0.78781-0.88168 0.60392
   3  -7  -5 4939.69  436.30   1-0.60543 0.90900-0.76968 0.41566-0.20256-0.03041
   3  -7  -441461.93  748.97   1-0.60548 0.90938-0.76967 0.41565-0.20246 0.01609
  -3  -7   3 6150.83  546.79   1-0.31636 0.00957 0.28736-0.64521 0.90406-0.76394
   3  -7  -3 4173.21  342.68   1-0.60230 0.90652-0.77053 0.41651-0.20859 0.06880
  -3  -7   2 3488.94  528.08   1-0.36964 0.06233 0.22941-0.58726 0.90040-0.80699
   3  -7  -2 3031.64  269.06   1-0.59289 0.89814-0.77413 0.42046-0.22180 0.12864
  -3  -7   1  972.67  349.26   1-0.42370 0.11587 0.16631-0.52416 0.89040-0.84369
   3  -7  -1  590.13  221.40   1-0.57720 0.88263-0.77731 0.42364-0.25023 0.20365
  -3  -7   0 8505.33 1001.04   1-0.47948 0.17067 0.10079-0.45927 0.87174-0.87174
   3  -7   0 7515.21  325.08   1-0.54638 0.85200-0.78103 0.42736-0.30240 0.30240
  -3  -7  -1 8426.19 1078.11   1-0.53016 0.22108 0.03128-0.38976 0.84731-0.89398
   3  -7   1 7271.29  456.80   1-0.48382 0.78952-0.78198 0.42835-0.39295 0.43949
  -3  -7  -2 4204.27  571.73   1-0.57774 0.26832-0.03902-0.31890 0.81528-0.90901
  -3  -7  -323933.15  774.28   1-0.61994 0.31012-0.10923-0.24869 0.77700-0.91759
  -3  -7  -4  582.61  279.41   1-0.65573 0.34609-0.17808-0.17894 0.73369-0.92097
  -3  -7  -5 8427.17  678.52   1-0.68642 0.37628-0.24310-0.11391 0.68536-0.91947
  -3  -7  -6 1532.48  257.70   1-0.71062 0.39960-0.30430-0.05275 0.63435-0.91516
  -3  -7  -7 -112.77  149.95   1-0.72970 0.41804-0.36082 0.00375 0.58080-0.90841
  -3  -7  -8 2010.47  305.15   1-0.74293 0.43276-0.40958 0.05561 0.52942-0.89979
  -3  -7  -9 2489.84  496.66   1-0.75249 0.44162-0.45656 0.10258 0.47465-0.89131
  -3  -7 -10  104.74  192.84   1-0.75790 0.44632-0.49912 0.14515 0.42006-0.88301
  -3  -7 -11 3507.35  535.69   1-0.76020 0.45024-0.54016 0.18601 0.36098-0.87331
  -3  -7 -12 2640.39  457.23   1-0.75843 0.44798-0.57463 0.22048 0.30751-0.86642
  -3  -7 -13 -158.85  157.53   1-0.75386 0.44292-0.60547 0.25132 0.25512-0.86061
  -3  -7 -14  211.37  202.03   1-0.74652 0.43515-0.63339 0.27917 0.20374-0.85598
  -3  -7 -15   86.52  182.31   1-0.73728 0.42544-0.65786 0.30364 0.15370-0.85252
  -3  -7 -16 -128.57  177.29   1-0.72612 0.41381-0.67952 0.32530 0.10484-0.85025
  -3  -7 -17  211.57  214.66   1-0.71072 0.39902-0.70117 0.34736 0.05682-0.84859
   3  -8 -16  235.79  318.63   1-0.52666 0.82934-0.78188 0.37769-0.33358-0.41173
   3   8 -16   76.92  165.50   1 0.03037 0.26953-0.55592 0.95881-0.83067 0.08954
   3  -8 -15  881.00  350.91   1-0.53938 0.84224-0.78146 0.37727-0.31366-0.38507
   3   8 -15  212.82  242.78   1 0.03618 0.26397-0.55164 0.95453-0.83329 0.13848
   3  -8 -14  309.22  214.76   1-0.55143 0.85448-0.78063 0.37644-0.29416-0.35798
   3   8 -14  572.15  283.66   1 0.04471 0.25570-0.54529 0.94818-0.83705 0.18856
   3  -8 -13 2153.77  393.46   1-0.56280 0.86603-0.77944 0.37525-0.27517-0.33039
   3   8 -13 2013.22  363.45   1 0.05618 0.24449-0.53664 0.93953-0.84193 0.23976
   3  -8 -12 -110.05  198.11   1-0.57349 0.87691-0.77793 0.37374-0.25675-0.30223
   3   8 -12  152.34  229.70   1 0.07081 0.23011-0.52541 0.92830-0.84789 0.29204
   3  -8 -1130318.18 1767.46   1-0.58348 0.88707-0.77615 0.37196-0.23903-0.27337
   3   8 -1129704.14 1689.36   1 0.08885 0.21233-0.51126 0.91416-0.85481 0.34528
   3  -8 -10 6023.44  467.26   1-0.59535 0.89730-0.77226 0.36767-0.22170-0.24423
   3   8 -10 7259.01  500.57   1 0.11052 0.19092-0.49382 0.89672-0.86250 0.39929
   3  -8  -9 1439.45  296.87   1-0.60370 0.90597-0.77015 0.36556-0.20589-0.21345
   3   8  -9 2060.73  367.97   1 0.13812 0.16406-0.47331 0.87610-0.86999 0.45334
   3  -8  -8   13.28  165.56   1-0.61119 0.91379-0.76800 0.36341-0.19133-0.18142
   3   8  -8    9.34  155.21   1 0.16752 0.13488-0.44804 0.85083-0.87817 0.50781
   3  -8  -7 2215.73  439.97   1-0.61772 0.92064-0.76591 0.36132-0.17831-0.14785
   3   8  -7 1779.90  400.03   1 0.20091 0.10171-0.41821 0.82100-0.88585 0.56179
   3  -8  -6   56.07  133.23   1-0.62314 0.92639-0.76401 0.35942-0.16725-0.11231
   3  -8  -5 3301.82  307.25   1-0.62724 0.93081-0.76247 0.35788-0.15875-0.07421
  -3  -8   4  -78.16  157.19   1-0.31596 0.00968 0.28778-0.69675 0.90407-0.71724
   3  -8  -4  208.99  209.42   1-0.62966 0.93355-0.76151 0.35692-0.15366-0.03271
   3  -8  -3  -60.55  107.02   1-0.62984 0.93406-0.76144 0.35685-0.15328 0.01350
  -3  -8   235485.53 1140.99   1-0.41062 0.10331 0.18201-0.59098 0.89345-0.80003
   3  -8  -233025.49  597.13   1-0.62678 0.93132-0.76265 0.35805-0.15971 0.06652
  -3  -8   117118.61 1509.46   1-0.45873 0.15091 0.12278-0.53175 0.88004-0.83334
   3  -8  -112278.04  352.26   1-0.61858 0.92345-0.76562 0.36103-0.17656 0.12997
  -3  -8   048468.58 1153.97   1-0.50835 0.19954 0.06194-0.47163 0.85891-0.85891
   3  -8   045793.94  611.42   1-0.60103 0.90664-0.77208 0.36789-0.20649 0.20649
  -3  -8  -113946.01 1227.62   1-0.55283 0.24375-0.00193-0.40775 0.83328-0.87995
   3  -8   111559.58  263.35   1-0.56493 0.87073-0.77917 0.37498-0.27154 0.31813
  -3  -8  -237304.71 1629.91   1-0.59458 0.28516-0.06614-0.34291 0.80130-0.89503
  -3  -8  -3  225.24  142.21   1-0.63168 0.32185-0.13023-0.27882 0.76420-0.90479
  -3  -8  -4  176.53  165.47   1-0.66320 0.35356-0.19311-0.21492 0.72309-0.91038
  -3  -8  -510022.84  591.13   1-0.69064 0.38050-0.25284-0.15518 0.67755-0.91166
  -3  -8  -6 6411.38  443.01   1-0.71252 0.40150-0.30945-0.09861 0.62971-0.91053
  -3  -8  -7 1371.07  353.02   1-0.73011 0.41844-0.36216-0.04591 0.57946-0.90707
  -3  -8  -8 4177.03  733.09   1-0.74317 0.43087-0.41099 0.00292 0.52798-0.90240
  -3  -8  -9  -32.44  175.22   1-0.75181 0.44093-0.45251 0.04797 0.47959-0.89625
  -3  -8 -1018583.35  773.90   1-0.75737 0.44579-0.49336 0.08881 0.42776-0.89071
  -3  -8 -11  692.88  368.75   1-0.76019 0.45022-0.53314 0.12840 0.37129-0.88363
  -3  -8 -12 1277.49  354.00   1-0.75911 0.44866-0.56689 0.16215 0.31995-0.87886
  -3  -8 -13 1936.77  403.46   1-0.75537 0.44443-0.59736 0.19262 0.26936-0.87485
  -3  -8 -14   52.26  161.74   1-0.74896 0.43758-0.62519 0.22037 0.21951-0.87175
  -3  -8 -15  200.95  206.69   1-0.74068 0.42884-0.64980 0.24498 0.17070-0.86952
  -3  -8 -16  254.21  211.40   1-0.73047 0.41817-0.67179 0.26697 0.12283-0.86824
   3  -9 -15  535.62  304.32   1-0.55152 0.85439-0.78062 0.32591-0.29401-0.40472
   3   9 -15  629.82  316.65   1 0.08915 0.21100-0.51102 0.96428-0.85492 0.16011
   3  -9 -14 2030.63  396.27   1-0.56373 0.86678-0.77932 0.32461-0.27359-0.37856
   3   9 -14 1463.19  355.57   1 0.09867 0.20174-0.50342 0.95668-0.85838 0.20989
   3  -9 -13 1253.17  326.14   1-0.57530 0.87853-0.77763 0.32292-0.25358-0.35198
   3   9 -13  993.94  312.79   1 0.11104 0.18963-0.49340 0.94666-0.86268 0.26051
   3  -9 -12  805.91  404.15   1-0.58622 0.88963-0.77560 0.32088-0.23406-0.32492
   3   9 -12  437.44  327.11   1 0.12868 0.17284-0.48123 0.93437-0.86709 0.31156
   3  -9 -11 1725.76  422.32   1-0.59909 0.90072-0.77135 0.31619-0.21468-0.29786
   3   9 -11 2453.07 1096.34   1 0.14724 0.15450-0.46557 0.91871-0.87267 0.36343
   3  -9 -10 7015.72  623.09   1-0.60856 0.91051-0.76879 0.31362-0.19649-0.26945
   3   9 -10 8683.04  689.37   1 0.16913 0.13283-0.44663 0.89977-0.87858 0.41563
   3  -9  -9 2773.15  417.95   1-0.61731 0.91958-0.76605 0.31088-0.17913-0.24022
   3   9  -9 3362.92  455.91   1 0.19445 0.10773-0.42407 0.87721-0.88450 0.46785
   3  -9  -8  831.94  468.55   1-0.62531 0.92790-0.76320 0.30804-0.16277-0.20998
   3  -9  -7 2687.42  462.25   1-0.63248 0.93541-0.76036 0.30519-0.14766-0.17849
   3  -9  -624752.10  767.61   1-0.63875 0.94199-0.75763 0.30246-0.13412-0.14544
   3  -9  -5 2288.66  241.79   1-0.64395 0.94752-0.75517 0.30001-0.12258-0.11038
   3  -9  -4112549.337863.70   1-0.64788 0.95178-0.75320 0.29803-0.11370-0.07267
   3  -9  -336719.92 1128.72   1-0.65019 0.95441-0.75199 0.29682-0.10841-0.03137
  -3  -9   227375.10 1133.90   1-0.44794 0.14063 0.13643-0.59652 0.88359-0.79017
   3  -9  -221951.03  727.92   1-0.65028 0.95482-0.75194 0.29678-0.10820 0.01502
  -3  -9   113631.22 1481.58   1-0.49361 0.18507 0.08201-0.54291 0.86580-0.81914
   3  -9  -110588.02  412.47   1-0.64705 0.95192-0.75362 0.29846-0.11559 0.06900
   3  -9   0 1343.16  138.41   1-0.63825 0.94344-0.75785 0.30269-0.13520 0.13520
  -3  -9  -113218.53 1502.27   1-0.57442 0.26540-0.03380-0.42639 0.81786-0.86472
   3  -9   110534.75  368.59   1-0.61838 0.92389-0.76569 0.31052-0.17697 0.22357
  -3  -9  -2 6961.53  806.80   1-0.61070 0.30128-0.09319-0.36699 0.78635-0.88007
  -3  -9  -3 1939.25  309.52   1-0.64337 0.33355-0.15194-0.30825 0.75032-0.89091
  -3  -9  -4  632.81  294.79   1-0.67113 0.36149-0.20957-0.24945 0.71109-0.89838
  -3  -9  -515687.54  766.78   1-0.69561 0.38548-0.26463-0.19439 0.66789-0.90200
  -3  -9  -6  819.93  382.59   1-0.71528 0.40426-0.31710-0.14197 0.62274-0.90355
  -3  -9  -7 2958.44  548.84   1-0.73134 0.41967-0.36629-0.09279 0.57530-0.90291
  -3  -9  -8 3304.19  502.34   1-0.74345 0.43115-0.41221-0.04687 0.52664-0.90106
  -3  -9 -10  502.68  360.37   1-0.75707 0.44550-0.49043 0.03532 0.43162-0.89458
  -3  -9 -11 1781.24  443.65   1-0.76012 0.45015-0.52880 0.07347 0.37758-0.88992
  -3  -9 -12  265.64  201.76   1-0.75948 0.44903-0.56163 0.10629 0.32825-0.88717
  -3  -9 -13 1571.42  355.95   1-0.75632 0.44538-0.59151 0.13618 0.27943-0.88492
  -3  -9 -14  703.08  360.75   1-0.75060 0.43923-0.61900 0.16358 0.23111-0.88335
  -3  -9 -15  -96.46  216.70   1-0.74307 0.43123-0.64352 0.18810 0.18358-0.88241
   3 -10 -15   -9.39  203.26   1-0.56152 0.86438-0.77959 0.27435-0.27735-0.42138
   3  10 -15  454.96  297.09   1 0.14427 0.15659-0.46811 0.97160-0.87181 0.17739
   3 -10 -14   97.42  207.01   1-0.57381 0.87686-0.77787 0.27264-0.25620-0.39595
   3  10 -14  463.46  339.69   1 0.15444 0.14663-0.45940 0.96289-0.87469 0.22657
   3 -10 -13   92.75  182.99   1-0.58547 0.88871-0.77575 0.27051-0.23541-0.37015
   3  10 -13  433.45  304.31   1 0.16735 0.13395-0.44820 0.95168-0.87812 0.27630
   3  10 -12  437.76  213.34   1 0.18310 0.11842-0.43428 0.93777-0.88197 0.32643
   3 -10 -11 1818.59  399.40   1-0.60941 0.91103-0.76854 0.26280-0.19482-0.31771
   3  10 -11  943.32  449.57   1 0.20180 0.09994-0.41740 0.92088-0.88603 0.37679
   3 -10 -10 1329.39  361.80   1-0.61905 0.92100-0.76546 0.25972-0.17561-0.29033
   3 -10  -9  917.06  324.56   1-0.62803 0.93030-0.76216 0.25642-0.15709-0.26225
   3 -10  -8 4858.46  411.70   1-0.63631 0.93891-0.75872 0.25298-0.13943-0.23332
  -3 -10   7 9824.21  572.54   1-0.29899-0.00575 0.30543-0.81665 0.90405-0.57709
   3 -10  -7 8447.34  470.09   1-0.64386 0.94678-0.75522 0.24948-0.12279-0.20336
  -3 -10   6 -201.11  155.31   1-0.33244 0.02718 0.27028-0.78149 0.90356-0.62331
   3 -10  -6 -115.34  148.40   1-0.65061 0.95385-0.75177 0.24603-0.10745-0.17211
   3 -10  -5  -41.91  135.39   1-0.65647 0.96004-0.74850 0.24276-0.09374-0.13923
  -3 -10   446424.22 1544.12   1-0.40533 0.09904 0.18828-0.69949 0.89457-0.70774
   3 -10  -439274.30  989.60   1-0.66129 0.96519-0.74561 0.23987-0.08214-0.10423
  -3 -10   3 5842.44 1144.77   1-0.44357 0.13678 0.14189-0.65310 0.88493-0.74480
   3 -10  -3 4801.09  757.88   1-0.66486 0.96908-0.74334 0.23760-0.07338-0.06640
  -3 -10   219047.63 1113.00   1-0.48523 0.17697 0.09319-0.60530 0.86940-0.77606
   3 -10  -215875.56  627.66   1-0.66681 0.97136-0.74206 0.23632-0.06853-0.02465
   3 -10  -115966.54  564.80   1-0.66648 0.97135-0.74228 0.23654-0.06936 0.02277
   3 -10   011352.37  430.93   1-0.66259 0.96778-0.74480 0.23906-0.07898 0.07898
  -3 -10  -138537.64 1535.55   1-0.59421 0.28520-0.06554-0.44577 0.80162-0.84849
  -3 -10  -214759.31 1531.45   1-0.62612 0.31670-0.12020-0.39112 0.77039-0.86412
  -3 -10  -3  466.41  297.87   1-0.65389 0.34475-0.17446-0.33557 0.73619-0.87666
  -3 -10  -4 1634.51  389.39   1-0.67931 0.36968-0.22721-0.28282 0.69778-0.88506
  -3 -10  -5 8830.62  591.58   1-0.70110 0.39097-0.27809-0.23193 0.65659-0.89069
  -3 -10  -6 -156.74  186.92   1-0.71869 0.40767-0.32681-0.18327 0.61373-0.89454
  -3 -10  -7 2808.69  473.80   1-0.73322 0.42155-0.37274-0.13734 0.56872-0.89634
  -3 -10  -8 1626.47  366.44   1-0.74366 0.43349-0.41268-0.09299 0.52597-0.89634
  -3 -10  -9 3550.58  531.29   1-0.75185 0.44098-0.45275-0.05291 0.47929-0.89595
  -3 -10 -10 2633.13  538.53   1-0.75703 0.44545-0.48999-0.01568 0.43221-0.89516
  -3 -10 -11 5362.81  691.94   1-0.76008 0.45011-0.52685 0.02092 0.38039-0.89272
  -3 -10 -12  284.41  225.35   1-0.75965 0.44920-0.55861 0.05269 0.33296-0.89187
  -3 -10 -13  118.18  209.17   1-0.75687 0.44593-0.58774 0.08181 0.28582-0.89131
  -3 -10 -14  315.65  297.19   1-0.75165 0.44028-0.61471 0.10869 0.23902-0.89125
  -3 -10 -15  172.19  241.85   1-0.74469 0.43285-0.63895 0.13292 0.19278-0.89160
   3 -11 -14  407.89  314.86   1-0.58184 0.88489-0.77647 0.22070-0.24197-0.41018
   3  11 -14  251.55  199.31   1 0.20701 0.09407-0.41262 0.96646-0.88706 0.23894
   3 -11 -13  115.84  194.46   1-0.59614 0.89712-0.77207 0.21576-0.22023-0.38550
   3 -11 -12  337.26  343.98   1-0.60710 0.90840-0.76921 0.21290-0.19932-0.35981
   3 -11 -11  557.12  320.20   1-0.61744 0.91907-0.76600 0.20969-0.17886-0.33367
   3 -11 -10  608.97  323.06   1-0.62715 0.92910-0.76250 0.20619-0.15894-0.30700
   3 -11  -9 2102.52  337.56   1-0.63622 0.93849-0.75876 0.20245-0.13963-0.27971
  -3 -11   8 9801.44  819.16   1-0.31831 0.01407 0.28531-0.84764 0.90403-0.53037
   3 -11  -8 7416.23  631.31   1-0.64463 0.94722-0.75484 0.19853-0.12107-0.25168
  -3 -11   7  650.27  159.54   1-0.34727 0.04252 0.25422-0.81655 0.90264-0.57569
   3 -11  -7  442.87  246.72   1-0.65235 0.95527-0.75082 0.19451-0.10341-0.22274
  -3 -11   620145.29 2012.55   1-0.37827 0.07301 0.21964-0.78197 0.89925-0.61901
   3 -11  -618210.16  645.85   1-0.65934 0.96259-0.74680 0.19049-0.08687-0.19269
  -3 -11   5  816.50  418.21   1-0.41091 0.10514 0.18166-0.74400 0.89339-0.65985
   3 -11  -5  723.68  374.47   1-0.66554 0.96911-0.74290 0.18659-0.07171-0.16125
   3 -11  -4  -80.97  122.13   1-0.67033 0.97500-0.73953 0.18355-0.06110-0.12519
  -3 -11   353844.16 2797.15   1-0.48245 0.17446 0.09687-0.66019 0.87054-0.73054
   3 -11  -347419.47 1057.68   1-0.67449 0.97949-0.73655 0.18057-0.05038-0.08933
   3 -11  -2  242.00  138.04   1-0.67733 0.98266-0.73442 0.17844-0.04292-0.05022
  -3 -11   118491.12 1760.79   1-0.54998 0.24144 0.00232-0.56565 0.83517-0.78850
   3 -11  -114239.31  477.10   1-0.67840 0.98407-0.73359 0.17760-0.04006-0.00651
  -3 -11   0  119.10  182.24   1-0.58236 0.27375-0.04636-0.51609 0.81160-0.81160
   3 -11   0  100.65   78.53   1-0.67689 0.98290-0.73475 0.17877-0.04407 0.04407
  -3 -11  -1 5436.96  989.23   1-0.61277 0.30376-0.09675-0.46570 0.78430-0.83117
  -3 -11  -2 8258.90  846.71   1-0.64084 0.33142-0.14716-0.41529 0.75343-0.84716
  -3 -11  -3  -77.75  182.96   1-0.66514 0.35600-0.19709-0.36394 0.72023-0.86069
  -3 -11  -424102.42  865.11   1-0.68760 0.37796-0.24580-0.31523 0.68321-0.87050
  -3 -11  -517682.23  743.06   1-0.70640 0.39602-0.29313-0.26797 0.64425-0.87827
  -3 -11  -6 4780.89  503.06   1-0.72255 0.41153-0.33824-0.22285 0.60291-0.88372
  -3 -11  -7 1186.30  406.97   1-0.73558 0.42392-0.38116-0.17994 0.56002-0.88764
  -3 -11  -8  124.00  207.87   1-0.74499 0.43482-0.41840-0.13783 0.51954-0.88990
  -3 -11  -9  -89.06  215.88   1-0.75245 0.44158-0.45630-0.09994 0.47497-0.89163
  -3 -11 -10  726.02  425.86   1-0.75721 0.44563-0.49172-0.06452 0.42993-0.89288
  -3 -11 -11  -15.45  211.47   1-0.76008 0.45011-0.52702-0.02949 0.38014-0.89248
  -3 -11 -12  175.71  232.80   1-0.75971 0.44925-0.55763 0.00111 0.33449-0.89340
  -3 -11 -13 1539.85  477.51   1-0.75713 0.44619-0.58587 0.02935 0.28896-0.89445
  -3 -11 -14 -136.08  214.12   1-0.75250 0.44108-0.61183 0.05531 0.24369-0.89575
   3 -12 -13  194.75  199.74   1-0.60217 0.90315-0.77056 0.16368-0.20883-0.39689
   3 -12 -12  655.17  281.68   1-0.61311 0.91441-0.76741 0.16052-0.18753-0.37159
  -3 -12  11   54.13  155.04   1-0.29724-0.00545 0.30724-0.92069 0.90401-0.39023
   3 -12 -11  623.25  357.53   1-0.62342 0.92505-0.76390 0.15702-0.16667-0.34586
  -3 -12  10  990.94  515.26   1-0.31775 0.01454 0.28590-0.89936 0.90404-0.43696
   3 -12 -10 1224.13  353.46   1-0.63312 0.93507-0.76009 0.15321-0.14631-0.31963
  -3 -12   9 1948.19  464.28   1-0.34056 0.03684 0.26152-0.87498 0.90311-0.48274
   3 -12  -9 2125.73  451.67   1-0.64219 0.94446-0.75603 0.14914-0.12653-0.29282
  -3 -12   8 3657.97  569.43   1-0.36551 0.06127 0.23404-0.84750 0.90090-0.52724
   3 -12  -8 3382.99  438.36   1-0.65061 0.95321-0.75176 0.14488-0.10744-0.26531
  -3 -12   7  319.58  204.15   1-0.39236 0.08761 0.20345-0.81690 0.89702-0.57007
   3 -12  -7 -115.37  146.64   1-0.65838 0.96130-0.74738 0.14049-0.08918-0.23697
  -3 -12   6  271.00  170.49   1-0.42082 0.11555 0.16979-0.78325 0.89111-0.61086
   3 -12  -6  -10.54  131.31   1-0.66545 0.96869-0.74296 0.13608-0.07194-0.20762
  -3 -12   5  161.60   87.58   1-0.45049 0.14472 0.13322-0.74668 0.88278-0.64924
   3 -12  -5  -50.45  127.78   1-0.67140 0.97573-0.73878 0.13226-0.05838-0.17449
  -3 -12   4 5358.81  584.14   1-0.48453 0.17680 0.09413-0.70866 0.86969-0.68303
   3 -12  -4 5488.71  385.23   1-0.67684 0.98150-0.73479 0.12827-0.04422-0.14207
  -3 -12   3  713.34  392.70   1-0.51506 0.20706 0.05264-0.66718 0.85553-0.71553
   3 -12  -3   41.36  114.34   1-0.68134 0.98634-0.73125 0.12473-0.03216-0.10756
  -3 -12   210054.17 1071.91   1-0.54535 0.23709 0.00918-0.62372 0.83815-0.74482
   3 -12  -2 7249.62  366.31   1-0.68471 0.99004-0.72845 0.12192-0.02289-0.07025
  -3 -12   1 1533.40  292.94   1-0.57501 0.26681-0.03473-0.57885 0.81740-0.77054
   3 -12  -1 1022.02  212.09   1-0.68664 0.99231-0.72678 0.12025-0.01749-0.02908
  -3 -12   0   53.01  178.07   1-0.60345 0.29484-0.08089-0.53269 0.79328-0.79328
  -3 -12  -1 3619.74  568.14   1-0.63019 0.32117-0.12752-0.48607 0.76589-0.81275
  -3 -12  -210595.33  639.22   1-0.65368 0.34503-0.17404-0.43799 0.73648-0.83012
  -3 -12  -3 7842.44  591.02   1-0.67606 0.36692-0.22012-0.39192 0.70319-0.84366
  -3 -12  -4   17.23  184.41   1-0.69584 0.38621-0.26520-0.34684 0.66743-0.85471
  -3 -12  -5 8358.44  697.58   1-0.71239 0.40201-0.30910-0.30300 0.63003-0.86404
  -3 -12  -6 1065.27  319.37   1-0.72671 0.41568-0.35110-0.26100 0.59043-0.87125
  -3 -12  -7   81.55  205.95   1-0.73828 0.42662-0.39123-0.22088 0.54942-0.87704
  -3 -12  -8 2211.77  370.58   1-0.74665 0.43648-0.42592-0.18088 0.51097-0.88134
  -3 -12  -9 2782.61  509.01   1-0.75332 0.44245-0.46171-0.14509 0.46831-0.88497
  -3 -12 -10   -2.75  194.83   1-0.75756 0.44598-0.49534-0.11146 0.42511-0.88807
  -3 -12 -11   -5.13  202.07   1-0.76013 0.45016-0.52907-0.07803 0.37719-0.88952
  -3 -12 -12   98.46  220.87   1-0.75966 0.44921-0.55847-0.04863 0.33318-0.89209
  -3 -13  12  165.18  252.10   1-0.32869 0.02651 0.27429-0.93887 0.90372-0.34323
   3 -13 -12 -144.08  188.92   1-0.61729 0.91860-0.76605 0.10859-0.17916-0.37997
  -3 -13  11  106.81  147.08   1-0.34596 0.04326 0.25565-0.92023 0.90274-0.38896
   3 -13 -11  -22.61  161.11   1-0.62755 0.92917-0.76235 0.10489-0.15810-0.35443
  -3 -13  10  174.49  119.57   1-0.36531 0.06210 0.23426-0.89884 0.90092-0.43384
   3 -13 -10  183.61  250.17   1-0.63718 0.93913-0.75833 0.10087-0.13754-0.32840
  -3 -13   9  250.92  198.36   1-0.38664 0.08291 0.21006-0.87464 0.89798-0.47761
   3 -13  -9   34.79  153.09   1-0.64619 0.94846-0.75406 0.09660-0.11755-0.30179
  -3 -13   8 2571.70  375.93   1-0.40974 0.10550 0.18305-0.84763 0.89364-0.51998
   3 -13  -8 1910.64  357.64   1-0.65456 0.95716-0.74959 0.09213-0.09824-0.27450
  -3 -13   7 1699.54  361.33   1-0.43438 0.12963 0.15327-0.81785 0.88758-0.56063
   3 -13  -7 1654.73  383.88   1-0.66228 0.96520-0.74499 0.08753-0.07974-0.24641
  -3 -13   6  305.88  291.77   1-0.46027 0.15501 0.12081-0.78539 0.87951-0.59927
   3 -13  -6  -18.29  140.84   1-0.66904 0.97303-0.74042 0.08336-0.06439-0.21505
  -3 -13   5 1339.34  324.73   1-0.49080 0.18334 0.08578-0.75152 0.86703-0.63370
   3 -13  -5 1249.12  254.86   1-0.67530 0.97964-0.73595 0.07888-0.04825-0.18461
  -3 -13   4 2920.70  457.79   1-0.51789 0.21016 0.04868-0.71443 0.85405-0.66739
   3 -13  -4 1664.28  350.98   1-0.68079 0.98545-0.73170 0.07463-0.03365-0.15264
  -3 -13   3  974.20  270.25   1-0.54506 0.23707 0.00961-0.67536 0.83833-0.69834
   3 -13  -3  516.17  176.50   1-0.68539 0.99039-0.72786 0.07079-0.02098-0.11873
  -3 -13   2  100.78  106.25   1-0.57188 0.26408-0.02983-0.63489 0.81979-0.72606
   3 -13  -2  106.44  134.45   1-0.68897 0.99431-0.72470 0.06763-0.01088-0.08226
  -3 -13   1  140.09  160.88   1-0.59806 0.28986-0.07189-0.59283 0.79821-0.75135
  -3 -13   0 7613.54  899.91   1-0.62306 0.31445-0.11473-0.54999 0.77371-0.77371
  -3 -13  -112350.64 1555.12   1-0.64651 0.33749-0.15791-0.50681 0.74637-0.79324
  -3 -13  -2  887.50  427.16   1-0.66695 0.35831-0.20084-0.46220 0.71751-0.81115
  -3 -13  -3 2257.52 1013.04   1-0.68658 0.37744-0.24348-0.41956 0.68506-0.82553
  -3 -13  -4 1903.84  470.35   1-0.70394 0.39431-0.28526-0.37778 0.65044-0.83773
  -3 -13  -5  -71.74  179.33   1-0.71843 0.40804-0.32605-0.33706 0.61444-0.84845
  -3 -13  -6 3956.33  460.87   1-0.73101 0.41999-0.36518-0.29793 0.57641-0.85722
  -3 -13  -7 2783.41  458.60   1-0.74119 0.42953-0.40271-0.26040 0.53707-0.86469
  -3 -13  -8   59.66  175.29   1-0.74853 0.43836-0.43498-0.22239 0.50048-0.87084
  -3 -13  -9  620.32  385.42   1-0.75438 0.44351-0.46875-0.18862 0.45953-0.87619
  -3 -13 -10 1080.79  429.31   1-0.75803 0.44645-0.50064-0.15673 0.41801-0.88097
  -3 -13 -11  304.53  320.25   1-0.76019 0.45022-0.53279-0.12490 0.37180-0.88413
  -3 -13 -12 1182.71  327.36   1-0.75952 0.44907-0.56094-0.09675 0.32932-0.88824
  -3 -14  10 1085.69  279.28   1-0.41025 0.10704 0.18245-0.89815 0.89353-0.42645
   3 -14 -10  317.81  297.60   1-0.63951 0.94146-0.75728 0.04925-0.13244-0.33349
  -3 -14   9  323.42  172.91   1-0.42992 0.12620 0.15873-0.87443 0.88879-0.46843
   3 -14  -9  458.27  307.08   1-0.64842 0.95069-0.75292 0.04489-0.11248-0.30686
  -3 -14   8 8169.56 1024.74   1-0.45108 0.14684 0.13248-0.84818 0.88259-0.50893
   3 -14  -8 7458.16  576.58   1-0.65668 0.95928-0.74837 0.04034-0.09322-0.27953
  -3 -14   7  397.89  293.63   1-0.47751 0.17060 0.10336-0.82032 0.87251-0.54585
   3 -14  -7 -158.03  133.39   1-0.66430 0.96722-0.74371 0.03567-0.07477-0.25138
  -3 -14   6 2268.72  323.82   1-0.50069 0.19351 0.07243-0.78939 0.86258-0.58259
   3 -14  -6 2061.54  305.30   1-0.67099 0.97498-0.73907 0.03146-0.05943-0.22001
  -3 -14   5  407.76  163.09   1-0.52451 0.21706 0.03934-0.75630 0.85049-0.61716
   3 -14  -5  555.22  236.40   1-0.67717 0.98150-0.73454 0.02693-0.04334-0.18952
  -3 -14   4 4745.07  630.38   1-0.54863 0.24091 0.00433-0.72128 0.83605-0.64938
   3 -14  -4 4351.22  461.96   1-0.68258 0.98725-0.73023 0.02262-0.02876-0.15753
  -3 -14   3  537.25  246.12   1-0.57260 0.26520-0.03095-0.68489 0.81924-0.67865
   3 -14  -3  -52.01   93.66   1-0.68714 0.99214-0.72633 0.01872-0.01607-0.12364
  -3 -14   2 7145.97  822.82   1-0.59637 0.28858-0.06910-0.64675 0.79972-0.70599
  -3 -14   1 1049.96  399.43   1-0.61938 0.31117-0.10823-0.60762 0.77759-0.73072
  -3 -14   0 5799.56  822.61   1-0.64128 0.33267-0.14799-0.56786 0.75289-0.75289
  -3 -14  -1 2976.04  436.67   1-0.66052 0.35237-0.18767-0.52638 0.72697-0.77379
  -3 -14  -2 3173.84  437.45   1-0.67950 0.37086-0.22762-0.48642 0.69746-0.79110
  -3 -14  -3  259.59  278.96   1-0.69664 0.38750-0.26713-0.44691 0.66582-0.80628
  -3 -14  -4 2233.60  430.15   1-0.71130 0.40156-0.30612-0.40800 0.63271-0.81992
  -3 -14  -5 -115.03  183.88   1-0.72438 0.41400-0.34382-0.37030 0.59753-0.83155
  -3 -14  -6  156.65  187.37   1-0.73534 0.42432-0.38030-0.33382 0.56091-0.84172
  -3 -14  -7  656.67  313.95   1-0.74349 0.43402-0.41193-0.29601 0.52681-0.85088
  -3 -14  -8 3953.65  531.19   1-0.75053 0.44037-0.44537-0.26257 0.48819-0.85856
  -3 -14  -9  222.04  220.39   1-0.75553 0.44466-0.47721-0.23073 0.44880-0.86546
  -3 -14 -10 3188.90  563.07   1-0.75855 0.44697-0.50740-0.20054 0.40882-0.87177
   3 -15  -9  -13.20  158.55   1-0.64901 0.95129-0.75261-0.00599-0.11111-0.30823
  -3 -15   8 3331.94  592.45   1-0.49374 0.18710 0.08184-0.85000 0.86574-0.49242
   3 -15  -8 4014.37  562.79   1-0.65715 0.95975-0.74810-0.01050-0.09211-0.28064
  -3 -15   7  824.21  262.61   1-0.51372 0.20681 0.05450-0.82267 0.85622-0.52956
   3 -15  -7 1022.88  307.48   1-0.66463 0.96755-0.74349-0.01510-0.07396-0.25219
  -3 -15   6  448.49  213.71   1-0.53444 0.22726 0.02512-0.79329 0.84482-0.56483
   3 -15  -6  456.52  257.23   1-0.67119 0.97519-0.73893-0.01922-0.05891-0.22053
  -3 -15   5 7824.87  874.12   1-0.55562 0.24817-0.00612-0.76204 0.83141-0.59808
   3 -15  -5 7102.71  504.61   1-0.67723 0.98156-0.73450-0.02365-0.04319-0.18967
  -3 -15   4   79.01  160.62   1-0.57679 0.26980-0.03753-0.72945 0.81602-0.62856
  -3 -15   3 2080.72  547.11   1-0.59810 0.29071-0.07196-0.69502 0.79817-0.65758
  -3 -15   2  530.42  241.02   1-0.61896 0.31117-0.10751-0.65947 0.77802-0.68429
  -3 -15   1  -27.25  187.42   1-0.63908 0.33088-0.14387-0.62311 0.75555-0.70869
  -3 -15   0  249.13  212.01   1-0.65682 0.34917-0.18025-0.58479 0.73218-0.73218
  -3 -15  -1  760.64  389.53   1-0.67479 0.36664-0.21738-0.54766 0.70526-0.75208
  -3 -15  -2  -93.88  176.95   1-0.69130 0.38266-0.25440-0.51065 0.67629-0.76993
  -3 -15  -3  780.44  375.79   1-0.70570 0.39660-0.29131-0.47382 0.64584-0.78625
  -3 -15  -4 2061.83  429.96   1-0.71883 0.40909-0.32723-0.43790 0.61334-0.80054
  -3 -15  -5 1682.59  359.95   1-0.73015 0.41977-0.36230-0.40283 0.57932-0.81333
  -3 -15  -6  -58.27  177.77   1-0.73960 0.42857-0.39632-0.36881 0.54398-0.82479
  -3 -15  -7  229.97  311.19   1-0.74656 0.43710-0.42552-0.33298 0.51143-0.83550
  -3 -15  -8 1363.03  444.26   1-0.75255 0.44238-0.45691-0.30159 0.47422-0.84458
  -3 -15  -9   96.95  212.64   1-0.75670 0.44582-0.48691-0.27160 0.43625-0.85291
  -3 -16   6   45.12  123.35   1-0.56532 0.25914-0.01968-0.79843 0.82463-0.54345
  -3 -16   5  201.61  185.78   1-0.58409 0.27751-0.04913-0.76899 0.81019-0.57587
  -3 -16   4  -63.24  167.26   1-0.60293 0.29594-0.08001-0.73810 0.79376-0.60631
  -3 -16   3 1283.44  347.70   1-0.62158 0.31419-0.11211-0.70601 0.77528-0.63469
  -3 -16   2  994.65  254.50   1-0.63977 0.33197-0.14516-0.67295 0.75472-0.66099
  -3 -16   1  388.51  258.38   1-0.65581 0.34865-0.17824-0.63781 0.73357-0.68675
  -3 -16   0 1782.94  399.21   1-0.67250 0.36485-0.21248-0.60357 0.70893-0.70893
  -3 -16  -1 3302.11  583.81   1-0.68806 0.37991-0.24688-0.56917 0.68235-0.72917
  -3 -16  -2 3799.00  649.21   1-0.70233 0.39368-0.28117-0.53488 0.65395-0.74760
  -3 -16  -3 4404.06  676.62   1-0.71468 0.40558-0.31541-0.50073 0.62429-0.76470
  -3 -16  -4  424.49  344.38   1-0.72596 0.41622-0.34876-0.46738 0.59273-0.77994
  -3 -16  -5  -52.76  199.46   1-0.73564 0.42526-0.38138-0.43476 0.55979-0.79380
  -3 -16  -6  503.74  343.09   1-0.74289 0.43413-0.40944-0.39963 0.52957-0.80735
  -3 -17   0  659.95  345.58   1-0.68696 0.37931-0.24436-0.62270 0.68436-0.68436
  -3 -17  -1  505.11  287.15   1-0.70034 0.39219-0.27619-0.59086 0.65820-0.70502
   4   0 -17  263.91  285.21   1-0.26976 0.67165-0.72432 0.72432-0.63448-0.15565
   4   0 -16  351.66  286.67   1-0.27533 0.67744-0.72664 0.72664-0.62942-0.11423
   4   0 -15   -8.30  196.29   1-0.27924 0.68158-0.72825 0.72825-0.62583-0.07134
   4   0 -14 3658.39  471.78   1-0.28132 0.68388-0.72909 0.72909-0.62391-0.02678
   4   0 -13  -96.86  194.83   1-0.28133 0.68412-0.72910 0.72910-0.62390 0.01968
   4   0 -12 2450.01  413.11   1-0.27899 0.68200-0.72815 0.72815-0.62606 0.06831
   4   0 -11 -157.76  209.07   1-0.27393 0.67716-0.72606 0.72606-0.63069 0.11943
   4   0 -1019899.66  845.40   1-0.26422 0.66759-0.72422 0.72422-0.63693 0.17265
   4   0  -9    8.74  176.02   1-0.25227 0.65588-0.71907 0.71907-0.64752 0.22968
   4   0  -8  138.16  164.02   1-0.23585 0.63969-0.71170 0.71170-0.66169 0.29027
   4   0  -7   82.76  149.47   1-0.21404 0.61812-0.70144 0.70144-0.67982 0.35483
   4   0  -612569.12  513.14   1-0.18571 0.59002-0.68730 0.68730-0.70222 0.42366
   4   0  -5  434.18  226.04   1-0.14948 0.55401-0.66793 0.66793-0.72904 0.49691
   4   0  -4 3158.50  231.14   1-0.10305 0.50799-0.64259 0.64259-0.75924 0.57359
   4   0  -3  -30.80  101.06   1-0.04619 0.45136-0.60674 0.60674-0.79355 0.65431
   4   0  -2 5892.24  351.23   1 0.02363 0.38120-0.56084 0.56084-0.82758 0.73494
   4   0  -1   76.71   96.59   1 0.10672 0.29837-0.49692 0.49692-0.86120 0.81488
   4   0   0 1847.47  195.32   1 0.20278 0.20278-0.41650 0.41650-0.88623 0.88623
  -4   0  -1  185.56  156.45   1-0.31105-0.10057 0.29293-0.29293 0.90412-0.95082
  -4   0  -2 8290.54  698.40   1-0.41874 0.00660 0.17229-0.17229 0.89160-0.98502
  -4   0  -4 6769.25  671.00   1-0.60737 0.19427-0.08751 0.08751 0.78958-0.97703
  -4   0  -5  -55.62   76.61   1-0.67376 0.26108-0.21518 0.21518 0.70691-0.94102
  -4   0  -6 4314.55  381.08   1-0.71878 0.30537-0.32709 0.32709 0.61347-0.89429
  -4   0  -7   71.10   88.16   1-0.74457 0.33359-0.41657 0.41657 0.52161-0.84568
  -4   0  -8 2035.08  195.97   1-0.75736 0.34568-0.49327 0.49327 0.42786-0.79823
  -4   0  -9  191.06  149.94   1-0.75967 0.34912-0.55834 0.55834 0.33338-0.75257
  -4   0 -10  159.69  112.02   1-0.75303 0.34190-0.60855 0.60855 0.25019-0.71607
  -4   0 -11  -48.30   98.25   1-0.74127 0.32968-0.64829 0.64829 0.17384-0.68631
  -4   0 -12 1223.02  263.80   1-0.72580 0.31374-0.68005 0.68005 0.10358-0.66263
  -4   0 -13   58.08  123.18   1-0.70468 0.29232-0.70856 0.70856 0.03677-0.64224
  -4   0 -14 1893.16  323.88   1-0.68454 0.27185-0.72859 0.72859-0.02336-0.62868
   4  -1 -17  -15.83  201.54   1-0.30136 0.70326-0.73697 0.68640-0.60501-0.18512
   4   1 -17  237.51  345.58   1-0.23413 0.63588-0.71091 0.76141-0.66315-0.12611
   4  -1 -16   66.36  193.27   1-0.30804 0.71016-0.73948 0.68891-0.59855-0.14510
   4   1 -16  -42.26  194.33   1-0.23851 0.64049-0.71292 0.76341-0.65943-0.08340
   4  -1 -15  264.80  223.86   1-0.31321 0.71555-0.74138 0.69081-0.59350-0.10368
   4   1 -15    7.81  211.39   1-0.24110 0.64332-0.71409 0.76459-0.65721-0.03919
   4  -1 -14  972.85  440.28   1-0.31670 0.71926-0.74264 0.69208-0.59006-0.06064
   4   1 -14  899.41  405.78   1-0.24171 0.64415-0.71436 0.76486-0.65669 0.00671
   4  -1 -13 5677.12  557.47   1-0.31830 0.72109-0.74322 0.69265-0.58847-0.01575
   4   1 -13 5652.49  572.14   1-0.24007 0.64275-0.71363 0.76412-0.65809 0.05453
   4  -1 -12 1651.03  380.04   1-0.31776 0.72077-0.74303 0.69246-0.58900 0.03126
   4   1 -12 1840.10  336.62   1-0.23590 0.63881-0.71173 0.76222-0.66165 0.10452
   4  -1 -1121312.50  844.91   1-0.31473 0.71797-0.74194 0.69137-0.59200 0.08073
   4   1 -1121579.80  842.18   1-0.22881 0.63195-0.70845 0.75894-0.66763 0.15693
   4  -1 -1086687.82 1862.28   1-0.30879 0.71225-0.73976 0.68919-0.59782 0.13303
   4   1 -1088012.34 1889.04   1-0.21833 0.62171-0.70350 0.75399-0.67632 0.21204
   4  -1  -9   58.36  316.89   1-0.29938 0.70307-0.73621 0.68565-0.60691 0.18860
   4   1  -9 -175.00  202.78   1-0.20388 0.60749-0.69647 0.74696-0.68800 0.27015
   4  -1  -8 7299.23  448.80   1-0.28578 0.68969-0.73089 0.68033-0.61976 0.24793
   4   1  -8 7049.99  447.89   1-0.18476 0.58860-0.68681 0.73730-0.70295 0.33153
   4  -1  -7  316.51  249.97   1-0.26582 0.66989-0.72490 0.67441-0.63549 0.31049
   4   1  -7  353.14  218.08   1-0.16011 0.56419-0.67377 0.72426-0.72138 0.39638
   4  -1  -640618.82  836.80   1-0.24086 0.64516-0.71398 0.66349-0.65742 0.37885
   4   1  -641042.66  845.43   1-0.12802 0.53250-0.65729 0.70777-0.74268 0.46421
   4  -1  -537536.98  744.56   1-0.20805 0.61259-0.69852 0.64803-0.68467 0.45253
   4   1  -536033.17  740.48   1-0.08923 0.49394-0.63418 0.68466-0.76801 0.53595
   4  -1  -4 -131.21  105.96   1-0.16545 0.57022-0.67665 0.62615-0.71747 0.53176
   4   1  -4   -9.73  122.33   1-0.04156 0.44650-0.60368 0.65416-0.79613 0.61049
   4  -1  -339697.62 1024.20   1-0.11025 0.51541-0.64689 0.59641-0.75456 0.61533
   4   1  -338128.02 1003.02   1 0.01661 0.38796-0.56592 0.61628-0.82428 0.68532
   4  -1  -259329.00 1396.45   1-0.04101 0.44641-0.60331 0.55283-0.79644 0.70362
   4   1  -261499.21 1470.18   1 0.08487 0.31996-0.51441 0.56477-0.85332 0.76068
   4  -1  -1 4617.82  299.22   1 0.04482 0.36026-0.54521 0.49484-0.83709 0.79077
   4   1  -1 5109.61  332.87   1 0.16425 0.24109-0.45090 0.50125-0.87732 0.83103
   4  -1   0 1505.67  171.41   1 0.14821 0.25735-0.46475 0.41440-0.87294 0.87294
  -4  -1  -1133782.2 3160.41   1-0.34584-0.06578 0.25578-0.30691 0.90275-0.94946
  -4   1  -228480.48  825.61   1-0.39854-0.01358 0.19625-0.14513 0.89590-0.98931
  -4  -1  -227857.37  937.99   1-0.43901 0.02687 0.14756-0.19868 0.88627-0.97969
  -4   1  -329110.67  875.14   1-0.51698 0.10443 0.04995 0.00125 0.85453-0.99453
  -4  -1  -329037.65  863.66   1-0.52611 0.11356 0.03706-0.08828 0.84960-0.98960
  -4   1  -4   91.19   60.02   1-0.61867 0.20557-0.10700 0.15813 0.77832-0.96578
  -4  -1  -4 -115.01   82.99   1-0.60268 0.18958-0.07960 0.02847 0.79399-0.98145
  -4   1  -512759.65  369.79   1-0.69112 0.27844-0.25398 0.30499 0.67663-0.91074
  -4  -1  -512000.64  421.96   1-0.66273 0.25004-0.19215 0.14115 0.72377-0.95788
  -4  -1  -6 4466.23  401.25   1-0.70649 0.29308-0.29338 0.24237 0.64404-0.92485
  -4   1  -6 4298.09  346.44   1-0.73464 0.32122-0.37775 0.42876 0.56356-0.84437
  -4  -1  -7 8769.08  401.13   1-0.73566 0.32160-0.38145 0.33044 0.55972-0.88734
  -4   1  -7 8108.83 2625.85   1-0.75466 0.34369-0.47075 0.52131 0.45702-0.78108
  -4  -1  -8  231.44  171.24   1-0.75176 0.34008-0.45223 0.40166 0.47993-0.85029
  -4   1  -8   23.78   72.16   1-0.76002 0.34996-0.54988 0.60047 0.34638-0.71899
  -4  -1  -9 4666.55  341.13   1-0.75977 0.34922-0.51800 0.46741 0.39295-0.81213
  -4   1  -9 5121.01  312.24   1-0.75305 0.34238-0.60848 0.65908 0.25031-0.66960
  -4  -1 -10  584.28  271.84   1-0.75884 0.34781-0.57022 0.51963 0.31462-0.78038
  -4   1 -10  686.59  285.98   1-0.73949 0.32835-0.65273 0.70333 0.16459-0.63047
  -4  -1 -11   55.06  122.99   1-0.75184 0.34024-0.61393 0.56333 0.24045-0.75291
  -4   1 -11  -55.62   90.34   1-0.71872 0.30704-0.69002 0.74056 0.08541-0.59773
  -4  -1 -12  815.62  436.59   1-0.74075 0.32869-0.64961 0.59901 0.17111-0.73016
  -4   1 -12  613.35  349.75   1-0.69820 0.28617-0.71571 0.76625 0.01638-0.57528
  -4  -1 -13   71.88  137.17   1-0.72643 0.31390-0.67899 0.62838 0.10610-0.71174
  -4   1 -13   62.34  115.19   1-0.67609 0.26373-0.73536 0.78590-0.04619-0.55927
  -4  -1 -14 2097.00  353.89   1-0.70673 0.29404-0.70613 0.65559 0.04346-0.69550
  -4  -1 -15    7.04  134.09   1-0.68786 0.27483-0.72570 0.67516-0.01406-0.68456
   4  -2 -17  494.47  283.17   1-0.33052 0.73241-0.74749 0.64636-0.57619-0.21394
   4   2 -17  398.82  307.71   1-0.19785 0.59960-0.69347 0.79445-0.69278-0.09648
   4  -2 -16  -31.62  198.15   1-0.33822 0.74034-0.75008 0.64895-0.56830-0.17535
   4   2 -16   71.86  186.90   1-0.20099 0.60297-0.69503 0.79602-0.69030-0.05253
   4  -2 -15 3194.61  446.45   1-0.34454 0.74688-0.75215 0.65101-0.56174-0.13543
   4   2 -15 1815.49  335.39   1-0.20220 0.60442-0.69564 0.79663-0.68934-0.00707
   4  -2 -14 1153.01  473.68   1-0.34933 0.75189-0.75367 0.65254-0.55671-0.09398
   4   2 -14  722.71  389.78   1-0.20128 0.60373-0.69518 0.79617-0.69007 0.04008
   4  -2 -13  281.48  290.70   1-0.35242 0.75521-0.75464 0.65351-0.55345-0.05077
   4   2 -13 -100.53  175.43   1-0.19797 0.60065-0.69353 0.79452-0.69268 0.08912
   4  -2 -12  724.09  477.94   1-0.35357 0.75658-0.75500 0.65387-0.55222-0.00551
   4   2 -12 1014.48  346.38   1-0.19196 0.59487-0.69049 0.79148-0.69739 0.14026
   4  -2 -11 4171.58  585.79   1-0.35249 0.75572-0.75466 0.65353-0.55338 0.04211
   4   2 -11 5478.27  505.16   1-0.18285 0.58599-0.68582 0.78681-0.70441 0.19371
   4   2 -10  153.79  189.87   1-0.17019 0.57357-0.67918 0.78017-0.71396 0.24968
   4  -2  -9 2434.26  323.38   1-0.34191 0.74559-0.75129 0.65016-0.56448 0.14617
   4   2  -9 2994.77  372.94   1-0.15343 0.55704-0.67012 0.77110-0.72622 0.30837
   4  -2  -818426.23  768.89   1-0.33123 0.73513-0.74774 0.64660-0.57547 0.20364
   4   2  -818062.72  759.50   1-0.13085 0.53487-0.65891 0.75987-0.74074 0.36945
   4  -2  -755760.09 1011.19   1-0.31582 0.71995-0.74233 0.64120-0.59092 0.26557
   4   2  -755995.02 1046.75   1-0.10386 0.50811-0.64308 0.74404-0.75871 0.43383
   4  -2  -6  153.03  212.43   1-0.29447 0.69882-0.73432 0.63319-0.61159 0.33272
   4   2  -6  374.55  260.47   1-0.07053 0.47501-0.62249 0.72345-0.77943 0.50096
   4  -2  -5 8099.84  595.73   1-0.26463 0.66917-0.72440 0.62341-0.63655 0.40441
   4   2  -5 8755.69  654.09   1-0.02999 0.43470-0.59593 0.69689-0.80247 0.57041
   4  -2  -4   40.97  106.14   1-0.22618 0.63095-0.70722 0.60623-0.66983 0.48412
   4   2  -4  -50.09  116.48   1 0.01933 0.38499-0.56396 0.66469-0.82557 0.64028
   4  -2  -3   57.92  101.03   1-0.17522 0.58022-0.68184 0.58085-0.71020 0.57092
   4   2  -3  133.04  122.44   1 0.07642 0.32815-0.52104 0.62177-0.85009 0.71113
   4  -2  -2 9118.08  432.30   1-0.10798 0.51337-0.64554 0.54458-0.75604 0.66322
   4   2  -2 9176.86  468.67   1 0.14309 0.26203-0.46911 0.56981-0.87146 0.77888
   4  -2  -1 4345.96  293.79   1-0.02115 0.42678-0.58992 0.48896-0.80718 0.76077
  -4  -2   0 -179.78   99.28   1-0.29520-0.11591 0.30933-0.41157 0.90397-0.90397
   4  -2   0   59.42   85.95   1 0.08797 0.31737-0.51196 0.41123-0.85449 0.85449
  -4  -2  -1 3112.89  411.24   1-0.37787-0.03374 0.22009-0.32233 0.89931-0.94602
  -4   2  -2 9488.55  695.70   1-0.37880-0.03332 0.21903-0.11679 0.89918-0.99259
  -4  -2  -210191.58 1286.42   1-0.45911 0.04698 0.12229-0.22453 0.87991-0.97333
  -4   2  -339556.87 1046.81   1-0.52099 0.10844 0.04431 0.05810 0.85240-0.99240
  -4  -2  -338259.46 1070.75   1-0.53523 0.12267 0.02399-0.12641 0.84436-0.98436
  -4  -2  -4 1196.15  206.54   1-0.60249 0.18939-0.07927-0.02298 0.79417-0.98163
  -4   2  -4  947.11  116.79   1-0.64041 0.22822-0.14857 0.25057 0.75352-0.94081
  -4  -2  -544482.72  780.40   1-0.65652 0.24384-0.17966 0.07765 0.73259-0.96670
  -4   2  -542230.64  580.24   1-0.71611 0.30333-0.31942 0.42144 0.62060-0.85461
  -4  -2  -6 2630.19  287.19   1-0.69825 0.28507-0.27104 0.16903 0.66255-0.94348
  -4   2  -6 2429.46  232.37   1-0.75088 0.34061-0.44726 0.54840 0.48592-0.76369
  -4  -2  -7 1832.66  262.39   1-0.72745 0.31339-0.35347 0.25145 0.58810-0.91572
  -4   2  -7 1681.78  193.81   1-0.76007 0.35049-0.54838 0.64956 0.34866-0.67469
  -4  -2  -8   -5.73   99.91   1-0.74566 0.33398-0.42141 0.32028 0.51612-0.88649
  -4   2  -8  -39.41   53.13   1-0.75081 0.34061-0.61817 0.71937 0.23266-0.60537
  -4  -2  -9 1736.88  234.28   1-0.75627 0.34389-0.48318 0.38204 0.44111-0.85777
  -4   2  -9 1539.94  169.19   1-0.73304 0.32238-0.66683 0.76804 0.13404-0.55333
  -4  -2 -10 1536.50  347.49   1-0.76021 0.34918-0.53897 0.43778 0.36274-0.82849
  -4   2 -10 1190.43  437.96   1-0.70765 0.29629-0.70503 0.80611 0.04648-0.51223
  -4  -2 -11 2077.85  347.87   1-0.75738 0.34587-0.58391 0.48273 0.29224-0.80457
  -4   2 -11 2728.30  353.65   1-0.68350 0.27181-0.72947 0.83055-0.02622-0.48609
  -4  -2 -12  118.27  134.34   1-0.74971 0.33765-0.62243 0.52122 0.22472-0.78377
  -4  -2 -13  915.25  300.63   1-0.73873 0.32620-0.65453 0.55333 0.16078-0.76642
  -4  -2 -14   90.47  143.40   1-0.72491 0.31191-0.68153 0.58033 0.10004-0.75227
  -4  -2 -15  441.54  245.77   1-0.70597 0.29294-0.70704 0.60596 0.04096-0.73958
  -4  -2 -16  518.01  342.25   1-0.68784 0.27448-0.72571 0.62463-0.01410-0.73109
   4  -3 -17   19.34  198.38   1-0.35720 0.75909-0.75611 0.60441-0.54836-0.24178
   4   3 -17  489.66  339.85   1-0.15948 0.56123-0.67342 0.82490-0.72184-0.06742
   4  -3 -16  367.62  244.59   1-0.36581 0.76792-0.75867 0.60697-0.53906-0.20459
   4   3 -16  830.07  372.13   1-0.16135 0.56333-0.67444 0.82592-0.72048-0.02236
   4  -3 -15  107.89  173.93   1-0.37316 0.77550-0.76077 0.60908-0.53100-0.16617
   4   3 -15  358.49  288.95   1-0.16118 0.56339-0.67434 0.82583-0.72060 0.02419
   4  -3 -14  354.70  295.93   1-0.37913 0.78169-0.76242 0.61072-0.52437-0.12633
   4   3 -14  259.22  233.21   1-0.15874 0.56119-0.67302 0.82451-0.72237 0.07239
   4  -3 -13 5147.21  584.09   1-0.38357 0.78635-0.76361 0.61191-0.51938-0.08483
   4   3 -13 5140.29  594.95   1-0.15379 0.55647-0.67031 0.82180-0.72596 0.12240
   4  -3 -12 2006.46  381.34   1-0.38627 0.78928-0.76432 0.61262-0.51633-0.04141
   4   3 -12 2587.08  444.02   1-0.14599 0.54891-0.66600 0.81748-0.73152 0.17438
   4  -3 -1127873.26  842.74   1-0.38461 0.79032-0.76421 0.61265-0.51774 0.00582
   4   3 -1127215.14  857.45   1-0.13380 0.53714-0.66059 0.81203-0.73871 0.22818
   4  -3 -10 5363.64  861.78   1-0.38535 0.78880-0.76408 0.61238-0.51737 0.05259
   4   3 -10 5713.67  911.04   1-0.11918 0.52274-0.65216 0.80360-0.74865 0.28453
   4  -3  -9 6964.80 1070.87   1-0.38091 0.78459-0.76290 0.61120-0.52237 0.10406
   4   3  -9 5289.29  844.10   1-0.10041 0.50420-0.64100 0.79244-0.76094 0.34323
   4  -3  -8 1657.56  284.34   1-0.37306 0.77697-0.76075 0.60905-0.53111 0.15927
   4   3  -8 1367.49  259.30   1-0.07692 0.48094-0.62652 0.77796-0.77559 0.40430
   4  -3  -712314.98  587.94   1-0.36096 0.76509-0.75724 0.60554-0.54431 0.21896
   4   3  -712311.06  623.11   1-0.04808 0.45233-0.60799 0.75943-0.79248 0.46760
   4  -3  -624637.05  624.80   1-0.34345 0.74780-0.75180 0.60010-0.56287 0.28400
   4   3  -624606.08  684.48   1-0.01326 0.41774-0.58448 0.73592-0.81129 0.53282
   4  -3  -5   79.79  124.14   1-0.31894 0.72352-0.74345 0.59175-0.58783 0.35543
   4   3  -5   66.23  139.45   1 0.02908 0.37498-0.55687 0.70795-0.83009 0.59848
   4  -3  -4 6415.04  498.98   1-0.28519 0.68999-0.73066 0.57896-0.62032 0.43440
   4   3  -4 6424.90  522.17   1 0.07748 0.32683-0.52021 0.67130-0.85051 0.66522
   4  -3  -3 5685.94  340.73   1-0.23864 0.64364-0.71297 0.56149-0.65932 0.52004
   4   3  -3 5661.96  360.42   1 0.13423 0.27067-0.47659 0.62764-0.86881 0.72993
   4  -3  -2  434.51  141.13   1-0.17606 0.58130-0.68228 0.53080-0.70956 0.61671
   4   3  -2  227.29  170.71   1 0.19648 0.20864-0.42224 0.57328-0.88493 0.79234
   4  -3  -1 5240.11  291.94   1-0.09122 0.49685-0.63541 0.48397-0.76676 0.72035
  -4  -3   029598.12  867.85   1-0.33426-0.07684 0.26833-0.42169 0.90347-0.90347
   4  -3   027164.56  694.65   1 0.02110 0.38424-0.56268 0.41159-0.82640 0.82640
  -4  -3  -158764.41 1597.03   1-0.40762-0.00399 0.18556-0.33893 0.89409-0.94080
   4  -3   156554.80 1265.24   1 0.16679 0.23899-0.44868 0.29763-0.87798 0.92428
  -4   3  -270780.76 1610.46   1-0.36023-0.05190 0.23993-0.08657 0.90147-0.99489
  -4  -3  -268267.13 1909.17   1-0.47995 0.06767 0.10016-0.25380 0.87155-0.96488
  -4   3  -315772.75  617.83   1-0.53804 0.12534 0.02106 0.13233 0.84265-0.98324
  -4  -3  -315630.64  956.50   1-0.54599 0.13343 0.00824-0.16188 0.83774-0.97774
  -4  -3  -428826.76  700.52   1-0.60542 0.19232-0.08421-0.06918 0.79143-0.97888
  -4   3  -427509.50  406.11   1-0.67839 0.26620-0.22519 0.37820 0.69933-0.88662
  -4  -3  -5   -0.69  115.05   1-0.65396 0.24127-0.17458 0.02157 0.73610-0.97021
  -4   3  -5    0.12   34.51   1-0.74585 0.33629-0.42227 0.57397 0.51515-0.74663
  -4  -3  -6 6452.72  540.93   1-0.69279 0.27961-0.25791 0.10490 0.67343-0.95436
  -4   3  -6 5241.61  359.32   1-0.75935 0.35026-0.56362 0.71540 0.32512-0.60457
  -4  -3  -7  148.39  143.07   1-0.72127 0.30721-0.33440 0.18137 0.60657-0.93419
  -4   3  -7  -28.53   35.67   1-0.74125 0.33151-0.64835 0.80016 0.17371-0.49983
  -4  -3  -8 7381.96  481.67   1-0.74115 0.32645-0.40253 0.24951 0.53726-0.91168
  -4  -3  -9  405.75  282.57   1-0.75283 0.34045-0.45865 0.30695 0.47208-0.88874
  -4  -3 -10 2394.15  477.16   1-0.75879 0.34570-0.51099 0.35929 0.40387-0.86683
  -4  -3 -11  -24.49  132.21   1-0.75962 0.34810-0.55929 0.40751 0.33191-0.84424
  -4  -3 -12  -13.91  144.17   1-0.75516 0.34316-0.59855 0.44678 0.26729-0.82620
  -4  -3 -13 2247.46  992.52   1-0.74670 0.33418-0.63280 0.48099 0.20488-0.81053
  -4  -3 -14  712.70  349.20   1-0.73549 0.32250-0.66178 0.50997 0.14521-0.79744
  -4  -3 -15  989.97  297.76   1-0.71913 0.30610-0.68941 0.53777 0.08693-0.78555
  -4  -3 -16 8449.05  915.72   1-0.70317 0.28980-0.71030 0.55867 0.03191-0.77710
  -4  -3 -17   92.13  225.43   1-0.68540 0.27170-0.72785 0.57622-0.02096-0.77080
   4  -4 -17 -255.91  192.92   1-0.38139 0.78329-0.76303 0.56077-0.52183-0.26830
   4   4 -17   89.01  214.01   1-0.11790 0.51986-0.65141 0.85333-0.74950-0.03949
   4  -4 -16  -51.61  190.23   1-0.38841 0.79336-0.76520 0.56313-0.51340-0.23119
   4   4 -16  -34.96  168.22   1-0.11853 0.52072-0.65178 0.85370-0.74908 0.00650
   4  -4 -15 1007.87  310.70   1-0.39666 0.80176-0.76729 0.56521-0.50390-0.19415
   4   4 -15 1479.79  305.41   1-0.11701 0.51943-0.65088 0.85280-0.75010 0.05392
   4  -4 -14  964.93  434.75   1-0.40366 0.80891-0.76897 0.56689-0.49571-0.15580
   4   4 -14  310.52  211.58   1-0.11312 0.51577-0.64860 0.85052-0.75267 0.10291
   4  -4 -13 1413.36  333.77   1-0.40928 0.81469-0.77026 0.56819-0.48906-0.11592
   4   4 -13 1109.25  436.82   1-0.10661 0.50949-0.64473 0.84665-0.75693 0.15358
   4  -4 -12  171.44  197.50   1-0.41335 0.81891-0.77116 0.56909-0.48419-0.07425
   4   4 -12   -1.92  174.48   1-0.09719 0.50030-0.63905 0.84097-0.76299 0.20605
   4  -4 -11 7744.14  515.37   1-0.41564 0.82136-0.77166 0.56959-0.48142-0.03048
   4   4 -11 8629.49  567.71   1-0.08450 0.48783-0.63126 0.83318-0.77095 0.26042
   4  -4 -10 3268.59  586.35   1-0.41587 0.82174-0.77171 0.56963-0.48115 0.01578
   4   4 -10 2718.01  538.21   1-0.06814 0.47171-0.62097 0.82289-0.78086 0.31674
   4  -4  -9   42.74  154.49   1-0.41363 0.81965-0.77122 0.56915-0.48385 0.06501
   4   4  -9   20.89  167.12   1-0.04768 0.45148-0.60772 0.80965-0.79271 0.37500
   4  -4  -8  -50.19  162.02   1-0.40838 0.81455-0.77006 0.56798-0.49013 0.11783
   4   4  -8  -33.60  165.22   1-0.02265 0.42667-0.59094 0.79286-0.80639 0.43510
   4  -4  -730194.49 1041.23   1-0.39937 0.80570-0.76795 0.56587-0.50074 0.17498
   4   4  -730390.60 1093.26   1 0.00853 0.39502-0.57171 0.77316-0.82040 0.49616
   4  -4  -6  293.49  177.16   1-0.38822 0.79257-0.76482 0.56256-0.51411 0.23524
   4   4  -6  959.04  448.42   1 0.04411 0.35969-0.54573 0.74718-0.83679 0.55886
   4  -4  -543814.44  815.96   1-0.36819 0.77277-0.75936 0.55710-0.53646 0.30406
   4   4  -544396.39  898.65   1 0.08555 0.31851-0.51387 0.71532-0.85358 0.62198
   4  -4  -4 3425.30  338.98   1-0.33971 0.74451-0.75058 0.54831-0.56676 0.38084
   4   4  -4 3759.61  385.68   1 0.13437 0.27031-0.47647 0.67787-0.86885 0.68368
   4  -4  -3  218.75  156.71   1-0.29956 0.70458-0.73628 0.53402-0.60675 0.46731
   4   4  -3  213.43  155.08   1 0.18753 0.21737-0.43031 0.63171-0.88298 0.74409
   4  -4  -2  888.16  144.66   1-0.24297 0.64821-0.71493 0.51296-0.65560 0.56275
  -4  -4   1   43.67  114.95   1-0.30503-0.10556 0.29919-0.50368 0.90412-0.85741
   4  -4  -1   15.21   65.51   1-0.16308 0.56855-0.67537 0.47339-0.71921 0.67278
  -4  -4   0 3696.78  456.24   1-0.37020-0.04090 0.22877-0.43326 0.90033-0.90033
   4  -4   0 3246.22  172.88   1-0.04993 0.45578-0.60920 0.40728-0.79143 0.79143
  -4  -4  -143650.80 1233.81   1-0.43543 0.02381 0.15198-0.35646 0.88729-0.93400
   4  -4   143303.67  985.95   1 0.10508 0.30070-0.50061 0.29922-0.85926 0.90556
  -4  -4  -2  414.71   98.72   1-0.49966 0.08737 0.07384-0.27868 0.86306-0.95639
  -4  -4  -3 4859.06  761.28   1-0.55782 0.14526-0.00944-0.19540 0.82990-0.96990
  -4  -4  -4 3651.27  501.75   1-0.61057 0.19747-0.09296-0.11156 0.78648-0.97393
  -4  -4  -5 1882.25  246.70   1-0.65413 0.24145-0.17493-0.02907 0.73586-0.96997
  -4  -4  -6 1118.21  432.39   1-0.68995 0.27677-0.25125 0.04724 0.67884-0.95977
  -4  -4  -7 5198.95  372.87   1-0.71710 0.30304-0.32224 0.11820 0.61799-0.94561
  -4  -4  -8  513.43  246.95   1-0.73702 0.32233-0.38647 0.18243 0.55446-0.92888
  -4  -4  -910953.07  557.59   1-0.74959 0.33721-0.44034 0.23807 0.49416-0.91082
  -4  -4 -10  809.55  360.19   1-0.75717 0.34409-0.49140 0.28913 0.43035-0.89331
  -4  -4 -11 1546.47  347.60   1-0.76021 0.34869-0.53931 0.33694 0.36223-0.87457
  -4  -4 -12  590.78  318.44   1-0.75798 0.34598-0.57896 0.37659 0.30043-0.85934
  -4  -4 -13   40.58  149.30   1-0.75180 0.33927-0.61408 0.41167 0.24017-0.84582
  -4  -4 -14 1033.09  454.87   1-0.74279 0.32979-0.64430 0.44189 0.18200-0.83424
  -4  -4 -15  110.47  164.05   1-0.73116 0.31770-0.67051 0.46810 0.12576-0.82458
  -4  -4 -16   84.34  167.85   1-0.71465 0.30129-0.69591 0.49373 0.07055-0.81575
  -4  -4 -17  220.80  198.01   1-0.69870 0.28500-0.71519 0.51301 0.01791-0.80968
   4   5 -17   44.07  189.22   1-0.07594 0.47790-0.62591 0.87831-0.77618-0.01281
   4  -5 -16  -33.87  198.37   1-0.41079 0.81574-0.77060 0.51801-0.48725-0.25734
   4   5 -16   46.76  209.56   1-0.07536 0.47755-0.62554 0.87794-0.77653 0.03395
   4  -5 -15  119.01  249.68   1-0.41982 0.82492-0.77254 0.51995-0.47636-0.22169
   4   5 -15  250.78  240.83   1-0.07254 0.47496-0.62376 0.87616-0.77823 0.08205
   4  -5 -14  -43.12  168.39   1-0.42771 0.83296-0.77412 0.52153-0.46668-0.18484
   4   5 -14   38.51  145.92   1-0.06729 0.46994-0.62043 0.87283-0.78136 0.13160
   4  -5 -13   -4.76  139.80   1-0.43436 0.83977-0.77537 0.52277-0.45840-0.14658
   4   5 -13   95.95  174.05   1-0.05935 0.46223-0.61533 0.86773-0.78602 0.18267
   4  -5 -1211175.67  847.24   1-0.43962 0.84518-0.77630 0.52370-0.45175-0.10669
   4   5 -1212088.00  856.32   1-0.04846 0.45157-0.60823 0.86064-0.79227 0.23533
   4  -5 -11 3034.38  478.90   1-0.44332 0.84904-0.77692 0.52433-0.44705-0.06486
   4   5 -11 3246.33  511.50   1-0.03430 0.43763-0.59883 0.85123-0.80013 0.28961
   4  -5 -1010250.99  572.34   1-0.44520 0.85107-0.77722 0.52463-0.44464-0.02073
   4   5 -1010316.06  582.71   1-0.01652 0.42009-0.58674 0.83914-0.80960 0.34548
   4  -5  -9 1955.20  380.70   1-0.44492 0.85095-0.77718 0.52459-0.44499 0.02616
   4   5  -9 1956.37  426.29   1 0.00640 0.39663-0.57322 0.82503-0.81937 0.40248
   4  -5  -8 8285.32  485.72   1-0.44203 0.84821-0.77670 0.52411-0.44869 0.07639
   4   5  -8 8118.09  529.40   1 0.03249 0.37080-0.55436 0.80617-0.83163 0.46107
   4  -5  -7 1239.57  210.65   1-0.43588 0.84221-0.77564 0.52305-0.45648 0.13072
   4   5  -7 1330.23  244.85   1 0.06326 0.34029-0.53123 0.78304-0.84485 0.52061
   4  -5  -6  360.89  215.39   1-0.42556 0.83204-0.77370 0.52111-0.46934 0.19011
   4   5  -6  -80.90  149.72   1 0.09897 0.30483-0.50318 0.75499-0.85849 0.58056
   4  -5  -514149.86  494.87   1-0.40973 0.81636-0.77036 0.51777-0.48852 0.25583
   4   5  -514289.51  542.37   1 0.14130 0.26316-0.47062 0.72237-0.87094 0.63947
   4  -5  -4  944.21  361.52   1-0.38936 0.79415-0.76512 0.51228-0.51282 0.32690
   4   5  -4 1836.42  278.99   1 0.18700 0.21767-0.43078 0.68253-0.88286 0.69768
   4  -5  -326291.57  564.59   1-0.35563 0.76065-0.75563 0.50280-0.55003 0.41060
   4  -5  -220162.21  461.98   1-0.30649 0.71173-0.73890 0.48607-0.60006 0.50711
  -4  -5   119426.59  617.20   1-0.34477-0.06582 0.25695-0.51255 0.90283-0.85612
   4  -5  -117645.34  389.85   1-0.23471 0.64018-0.71118 0.45871-0.66266 0.61623
  -4  -5   0 4811.60  716.09   1-0.40345-0.00765 0.19049-0.44610 0.89495-0.89495
   4  -5   0 3619.94  278.74   1-0.12698 0.53284-0.65669 0.40429-0.74338 0.74338
  -4  -5  -115888.36 1621.04   1-0.46156 0.04994 0.11916-0.37477 0.87906-0.92577
  -4  -5  -227029.09 1140.46   1-0.51884 0.10656 0.04734-0.30340 0.85355-0.94688
  -4  -5  -3  -23.99  121.05   1-0.57115 0.15846-0.02871-0.22695 0.82033-0.96092
  -4  -5  -443144.77 1415.91   1-0.61729 0.20419-0.10458-0.15107 0.77974-0.96720
  -4  -5  -517208.55  640.86   1-0.65638 0.24370-0.17938-0.07563 0.73278-0.96689
  -4  -5  -6  250.48  165.09   1-0.68923 0.27605-0.24957-0.00544 0.68019-0.96112
  -4  -5  -7 4347.95  403.09   1-0.71472 0.30066-0.31552 0.06047 0.62419-0.95181
  -4  -5  -8  453.45  263.95   1-0.73412 0.31943-0.37593 0.12088 0.56544-0.93986
  -4  -5  -9 1396.22  346.58   1-0.74694 0.33455-0.42727 0.17443 0.50943-0.92609
  -4  -5 -10 6414.54  432.37   1-0.75546 0.34237-0.47661 0.22377 0.44957-0.91252
  -4  -5 -11  492.06  353.66   1-0.75998 0.34847-0.52358 0.27062 0.38506-0.89740
  -4  -5 -12 2246.12  363.45   1-0.75939 0.34739-0.56303 0.31006 0.32606-0.88497
  -4  -5 -13 4052.58  543.43   1-0.75526 0.34278-0.59800 0.34503 0.26826-0.87375
  -4  -5 -14   59.55  161.71   1-0.74777 0.33478-0.62930 0.37629 0.21166-0.86390
  -4  -5 -15 1470.23  373.74   1-0.73791 0.32445-0.65644 0.40343 0.15673-0.85555
  -4  -5 -16   16.24  164.29   1-0.72573 0.31181-0.68017 0.42716 0.10329-0.84870
   4  -6 -16  390.44  268.71   1-0.43069 0.83564-0.77469 0.47158-0.46298-0.28161
   4   6 -16  335.31  307.37   1-0.03087 0.43306-0.59652 0.89940-0.80200 0.05941
   4  -6 -15  -69.03  181.43   1-0.44037 0.84547-0.77642 0.47331-0.45080-0.24725
   4   6 -15  -64.17  172.62   1-0.02686 0.42928-0.59381 0.89669-0.80415 0.10798
   4  -6 -14  120.53  180.83   1-0.44901 0.85427-0.77783 0.47472-0.43972-0.21179
   4   6 -14 -126.45  141.46   1-0.02037 0.42302-0.58938 0.89226-0.80759 0.15783
   4  -6 -13  341.51  219.78   1-0.45653 0.86194-0.77893 0.47582-0.42992-0.17505
   4   6 -13  250.24  189.31   1-0.01118 0.41406-0.58304 0.88592-0.81236 0.20901
   4  -6 -12 3772.23  473.00   1-0.46280 0.86837-0.77977 0.47666-0.42161-0.13682
   4   6 -12 5500.63  584.89   1 0.00217 0.40009-0.57622 0.87839-0.81729 0.26144
   4  -6 -11  396.86  303.82   1-0.46769 0.87341-0.78036 0.47725-0.41507-0.09683
   4   6 -11 1022.27  426.83   1 0.01754 0.38498-0.56525 0.86743-0.82472 0.31519
   4  -6 -1015565.92  664.00   1-0.47098 0.87685-0.78074 0.47763-0.41062-0.05474
   4   6 -1015968.11  741.00   1 0.03639 0.36638-0.55148 0.85365-0.83339 0.37018
   4  -6  -9  861.59  520.12   1-0.47239 0.87841-0.78089 0.47778-0.40871-0.01012
   4   6  -9  725.99  413.19   1 0.05902 0.34401-0.53447 0.83664-0.84311 0.42623
   4  -6  -832995.70  950.74   1-0.47154 0.87772-0.78080 0.47769-0.40986 0.03756
   4   6  -835051.32 1024.29   1 0.08568 0.31761-0.51377 0.81594-0.85363 0.48306
   4  -6  -7  286.04  225.58   1-0.46789 0.87422-0.78039 0.47728-0.41480 0.08903
   4   6  -7   28.08  162.54   1 0.11658 0.28696-0.48886 0.79103-0.86453 0.54028
   4  -6  -6 5693.35  335.62   1-0.46067 0.86715-0.77949 0.47638-0.42445 0.14523
   4   6  -6 6382.08  440.01   1 0.15350 0.25074-0.46021 0.76230-0.87443 0.59666
   4  -6  -5  -22.52  127.73   1-0.44873 0.85537-0.77778 0.47467-0.44009 0.20740
   4   6  -5 -131.78  152.86   1 0.19299 0.21146-0.42539 0.72749-0.88418 0.65271
   4  -6  -4 5382.82  312.96   1-0.43034 0.83713-0.77462 0.47151-0.46341 0.27727
   4  -6  -3 2337.83  255.13   1-0.40274 0.80968-0.76875 0.46564-0.49680 0.35719
  -4  -6   2  -45.98  146.02   1-0.32925-0.08083 0.27370-0.58043 0.90370-0.81028
   4  -6  -2   39.41  109.05   1-0.36482 0.77007-0.75838 0.45499-0.54013 0.44717
  -4  -6   1 2497.78  331.34   1-0.38156-0.02903 0.21589-0.52262 0.89877-0.85206
   4  -6  -1 1655.43  179.25   1-0.30200 0.70747-0.73721 0.43381-0.60440 0.55792
  -4  -6   0 5440.20  772.63   1-0.43436 0.02324 0.15330-0.46003 0.88759-0.88759
   4  -6   0 4556.14  332.01   1-0.20428 0.60998-0.69667 0.39370-0.68769 0.68769
  -4  -6  -1  362.58  189.17   1-0.48816 0.07614 0.08931-0.39657 0.86817-0.91483
   4  -6   1    8.16   30.00   1-0.03942 0.44551-0.60226 0.29938-0.79732 0.84373
  -4  -6  -2   27.82   85.20   1-0.53748 0.12520 0.02071-0.32798 0.84301-0.93634
  -4  -6  -3 4719.11  752.49   1-0.58398 0.17128-0.04894-0.25784 0.81029-0.95088
  -4  -6  -416777.66 1285.84   1-0.62513 0.21203-0.11842-0.18837 0.77148-0.95893
  -4  -6  -5 1353.74  246.25   1-0.66019 0.24751-0.18701-0.11901 0.72743-0.96154
  -4  -6  -6  623.20  285.77   1-0.69019 0.27700-0.25179-0.05422 0.67840-0.95933
  -4  -6  -7 -119.69  145.30   1-0.71387 0.29981-0.31316 0.00710 0.62635-0.95397
  -4  -6  -8  892.46  414.68   1-0.73240 0.31770-0.36991 0.06386 0.57161-0.94603
  -4  -6  -9  816.25  345.26   1-0.74503 0.33264-0.41859 0.11519 0.51932-0.93598
  -4  -6 -10 -128.29  147.23   1-0.75398 0.34089-0.46600 0.16260 0.46297-0.92593
  -4  -6 -11  525.74  302.75   1-0.75866 0.34487-0.50902 0.20561 0.40660-0.91585
  -4  -6 -12  598.91  349.00   1-0.76000 0.34800-0.55048 0.24692 0.34547-0.90438
  -4  -6 -13  211.22  231.05   1-0.75720 0.34472-0.58529 0.28173 0.28993-0.89542
  -4  -6 -14  182.98  191.98   1-0.75115 0.33816-0.61679 0.31317 0.23521-0.88744
  -4  -6 -15   -5.06  166.47   1-0.74274 0.32928-0.64443 0.34081 0.18175-0.88057
  -4  -6 -16  303.67  284.15   1-0.73201 0.31808-0.66887 0.36526 0.12946-0.87487
   4  -7 -16    2.23  206.31   1-0.44819 0.85314-0.77770 0.42407-0.44078-0.30380
   4   7 -16   54.27  176.94   1 0.01583 0.38541-0.56649 0.91902-0.82391 0.08278
   4  -7 -15  170.49  216.51   1-0.45841 0.86351-0.77919 0.42556-0.42744-0.27061
   4   7 -15  152.44  203.46   1 0.02092 0.38057-0.56281 0.91535-0.82631 0.13150
   4  -7 -14  -69.72  177.07   1-0.46767 0.87292-0.78036 0.42673-0.41510-0.23641
   4   7 -14  236.47  195.67   1 0.02849 0.37326-0.55729 0.90983-0.82982 0.18133
   4  -7 -13 1527.23  315.82   1-0.47589 0.88130-0.78126 0.42763-0.40392-0.20106
   4   7 -13 1161.06  297.71   1 0.03875 0.36326-0.54973 0.90227-0.83443 0.23226
   4  -7 -12  109.12  241.87   1-0.48300 0.88856-0.78191 0.42828-0.39409-0.16435
   4  -7 -11 2940.12  416.74   1-0.48887 0.89458-0.78237 0.42874-0.38586-0.12604
   4   7 -11 3063.17  446.34   1 0.06814 0.33438-0.52747 0.88000-0.84683 0.33730
   4  -7 -10  -35.14  178.52   1-0.49332 0.89919-0.78267 0.42904-0.37954-0.08583
   4   7 -10  -64.10  188.63   1 0.08771 0.31506-0.51216 0.86469-0.85439 0.39118
   4  -7  -9 8111.18  495.73   1-0.49614 0.90216-0.78283 0.42921-0.37550-0.04332
   4   7  -9 7680.15  583.48   1 0.11080 0.29223-0.49359 0.84613-0.86260 0.44571
   4  -7  -8 9651.40  513.89   1-0.49700 0.90318-0.78288 0.42925-0.37427 0.00197
   4   7  -810773.75  605.50   1 0.13942 0.26438-0.47222 0.82466-0.87038 0.50002
   4  -7  -711283.37  526.46   1-0.49546 0.90179-0.78280 0.42917-0.37647 0.05071
   4   7  -711343.62  595.55   1 0.16988 0.23413-0.44597 0.79842-0.87877 0.55471
   4  -7  -6  428.16  214.83   1-0.49089 0.89737-0.78251 0.42888-0.38300 0.10377
   4   7  -6  999.00  450.65   1 0.20412 0.20012-0.41527 0.76772-0.88649 0.60873
   4  -7  -525463.27  891.36   1-0.48232 0.88896-0.78185 0.42823-0.39503 0.16235
   4  -7  -4 4434.72  352.32   1-0.46831 0.87510-0.78044 0.42681-0.41424 0.22809
   4  -7  -386424.43 2356.81   1-0.44649 0.85343-0.77743 0.42380-0.44299 0.30337
  -4  -7   218266.33 1338.62   1-0.36823-0.04184 0.23099-0.58884 0.90057-0.80716
   4  -7  -216631.86  592.92   1-0.41284 0.81994-0.77105 0.41742-0.48480 0.39172
  -4  -7   1 3117.67  315.84   1-0.41571 0.00511 0.17593-0.53378 0.89231-0.84560
   4  -7  -1 2398.24  183.60   1-0.36395 0.76942-0.75813 0.40417-0.54108 0.49460
  -4  -7   024150.54  807.61   1-0.46320 0.05208 0.11706-0.47491 0.87848-0.87848
   4  -7   022759.46  406.20   1-0.27976 0.68546-0.73067 0.37721-0.62277 0.62277
  -4  -7  -1  106.47   84.68   1-0.51164 0.09962 0.05740-0.41588 0.85727-0.90394
  -4  -7  -212171.39 1529.16   1-0.55554 0.14326-0.00601-0.35246 0.83146-0.92479
  -4  -7  -3  -66.68  156.36   1-0.59697 0.18428-0.07009-0.28783 0.79919-0.93978
  -4  -7  -4 3301.12  482.06   1-0.63374 0.22064-0.13400-0.22392 0.76184-0.94930
  -4  -7  -5 2677.37  314.27   1-0.66517 0.25248-0.19715-0.15987 0.72019-0.95430
  -4  -7  -6  316.55  243.95   1-0.69246 0.27928-0.25713-0.09988 0.67406-0.95499
  -4  -7  -7 6559.49 3142.28   1-0.71429 0.30023-0.31432-0.04274 0.62529-0.95290
  -4  -7  -8  193.95  190.03   1-0.73173 0.31704-0.36763 0.01057 0.57393-0.94835
  -4  -7  -9 1584.32  338.68   1-0.74389 0.33150-0.41364 0.05966 0.52490-0.94156
  -4  -7 -10  260.41  250.01   1-0.75289 0.33980-0.45900 0.10503 0.47165-0.93461
  -4  -7 -11 -108.97  155.49   1-0.75802 0.34423-0.50056 0.14659 0.41811-0.92736
  -4  -7 -12  202.97  263.95   1-0.76020 0.34820-0.54103 0.18688 0.35969-0.91860
  -4  -7 -13  395.54  280.94   1-0.75836 0.34588-0.57535 0.22120 0.30634-0.91182
  -4  -7 -14  116.89  190.69   1-0.75369 0.34072-0.60630 0.25215 0.25365-0.90571
  -4  -7 -15  291.68  272.47   1-0.74617 0.33271-0.63449 0.28027 0.20159-0.90041
   4  -8 -15  405.56  263.41   1-0.47404 0.87914-0.78107 0.37692-0.40646-0.29159
   4   8 -15  283.20  218.76   1 0.06806 0.33344-0.52754 0.93043-0.84679 0.15198
   4  -8 -14 1949.46  458.12   1-0.48379 0.88904-0.78198 0.37783-0.39299-0.25852
   4   8 -14 2451.11  501.09   1 0.07650 0.32525-0.52098 0.92387-0.85013 0.20163
   4  -8 -13   36.88  176.68   1-0.49258 0.89799-0.78262 0.37848-0.38059-0.22439
   4   8 -13   15.52  177.80   1 0.08757 0.31443-0.51227 0.91517-0.85434 0.25217
   4  -8 -12  -24.99  163.78   1-0.50155 0.90683-0.78148 0.37729-0.37112-0.18786
   4   8 -12   22.57  162.69   1 0.10144 0.30082-0.50119 0.90409-0.85936 0.30351
   4  -8 -11   38.74  177.92   1-0.50813 0.91360-0.78173 0.37754-0.36149-0.15091
   4   8 -11   76.21  165.98   1 0.11826 0.28426-0.48748 0.89037-0.86508 0.35555
   4  -8 -10 1347.56  385.23   1-0.51345 0.91911-0.78187 0.37768-0.35360-0.11221
   4   8 -10 1546.35  350.02   1 0.14017 0.26319-0.47158 0.87438-0.87060 0.40766
   4  -8  -9  812.50  281.84   1-0.51731 0.92315-0.78192 0.37773-0.34782-0.07142
   4   8  -9  117.15  196.25   1 0.16327 0.24031-0.45176 0.85455-0.87707 0.46042
   4  -8  -8   33.80  154.05   1-0.51946 0.92548-0.78193 0.37774-0.34458-0.02807
   4   8  -8  926.30  565.29   1 0.18967 0.21413-0.42839 0.83118-0.88346 0.51310
   4  -8  -720808.66  680.35   1-0.51952 0.92572-0.78193 0.37774-0.34449 0.01841
   4  -8  -622592.14  724.77   1-0.51696 0.92335-0.78191 0.37772-0.34835 0.06885
   4  -8  -513992.55  550.51   1-0.51099 0.91756-0.78181 0.37762-0.35726 0.12435
  -4  -8   4   39.83  174.02   1-0.32108-0.08797 0.28238-0.69135 0.90396-0.71713
   4  -8  -4  108.71  124.18   1-0.50030 0.90709-0.78304 0.37890-0.36950 0.18335
  -4  -8   3  118.72  126.59   1-0.36210-0.04747 0.23785-0.64682 0.90128-0.76115
   4  -8  -3    3.07   90.95   1-0.48346 0.89040-0.78195 0.37781-0.39345 0.25384
  -4  -8   2 1689.22  258.42   1-0.40452-0.00556 0.18923-0.59820 0.89473-0.80132
   4  -8  -2  663.43  257.68   1-0.45675 0.86384-0.77896 0.37482-0.42964 0.33656
  -4  -8   1  928.31  395.15   1-0.44752 0.03692 0.13696-0.54593 0.88372-0.83701
   4  -8  -1  184.56  128.64   1-0.41384 0.82108-0.77127 0.36712-0.48360 0.43706
  -4  -8   0 7986.49 2941.12   1-0.49262 0.08087 0.08334-0.49303 0.86624-0.86624
   4  -8   0 7103.49  259.70   1-0.34589 0.75158-0.75258 0.34805-0.56033 0.56033
  -4  -8  -1 5487.68  856.42   1-0.53387 0.12185 0.02595-0.43564 0.84516-0.89183
  -4  -8  -213921.95 1601.32   1-0.57357 0.16128-0.03248-0.37658 0.81850-0.91223
  -4  -8  -311775.40 1365.37   1-0.60999 0.19729-0.09196-0.31709 0.78705-0.92764
  -4  -8  -416444.34 2183.21   1-0.64286 0.22976-0.15098-0.25807 0.75094-0.93840
  -4  -8  -5 4936.78  801.47   1-0.67100 0.25832-0.20931-0.19871 0.71129-0.94540
  -4  -8  -6 9618.92  602.62   1-0.69576 0.28258-0.26501-0.14301 0.66758-0.94851
  -4  -8  -7  494.74  311.57   1-0.71574 0.30168-0.31838-0.08968 0.62156-0.94917
  -4  -8  -8 1810.04  393.34   1-0.73198 0.31728-0.36847-0.03959 0.57308-0.94750
  -4  -8  -9  828.06  315.99   1-0.74346 0.33108-0.41184 0.00730 0.52691-0.94357
  -4  -8 -10 2868.13  454.67   1-0.75225 0.33916-0.45512 0.05058 0.47640-0.93936
  -4  -8 -11  664.40  349.47   1-0.75754 0.34375-0.49511 0.09057 0.42543-0.93468
  -4  -8 -12  394.72  296.18   1-0.76020 0.34820-0.53437 0.12963 0.36950-0.92841
  -4  -8 -13   47.42  197.03   1-0.75903 0.34655-0.56797 0.16323 0.31823-0.92371
  -4  -8 -14 2967.42  528.67   1-0.75517 0.34220-0.59852 0.19378 0.26736-0.91942
  -4  -8 -15  300.27  229.53   1-0.74857 0.33511-0.62657 0.22175 0.21688-0.91570
   4  -9 -14    3.24  180.12   1-0.49874 0.90366-0.78134 0.32662-0.37518-0.27696
   4   9 -14   65.43  175.35   1 0.12448 0.27727-0.48233 0.93559-0.86709 0.21860
   4  -9 -13  703.22  402.83   1-0.50793 0.91303-0.78173 0.32701-0.36179-0.24377
   4   9 -13  743.00  369.86   1 0.13824 0.26445-0.47321 0.92635-0.87003 0.26820
   4  -9 -12  104.66  184.00   1-0.51616 0.92145-0.78191 0.32719-0.34955-0.20943
   4   9 -12  104.62  171.81   1 0.15251 0.25040-0.46106 0.91420-0.87416 0.31862
   4  -9 -11   44.26  170.54   1-0.52336 0.92883-0.78192 0.32721-0.33864-0.17376
   4   9 -11  133.68  178.98   1 0.16955 0.23358-0.44627 0.89941-0.87868 0.36944
   4  -9 -10 5584.78  579.57   1-0.52941 0.93507-0.78183 0.32711-0.32932-0.13650
   4   9 -10 6665.89  627.44   1 0.18945 0.21390-0.42859 0.88173-0.88341 0.42046
   4  -9  -9 4220.13  450.19   1-0.53416 0.94000-0.78168 0.32697-0.32190-0.09733
   4   9  -9 3287.50  441.68   1 0.21227 0.19130-0.40777 0.86091-0.88806 0.47141
   4  -9  -8   28.92  146.51   1-0.53740 0.94342-0.78155 0.32684-0.31680-0.05585
   4  -9  -7 7565.74  463.10   1-0.53882 0.94503-0.78148 0.32677-0.31454-0.01153
  -4  -9   630653.34  901.12   1-0.29169-0.11634 0.31291-0.77301 0.90387-0.62363
   4  -9  -624257.70  670.05   1-0.53800 0.94438-0.78152 0.32681-0.31585 0.03636
  -4  -9   5  951.28  411.24   1-0.32580-0.08274 0.27737-0.73746 0.90383-0.67029
   4  -9  -5  532.87  223.43   1-0.53428 0.94085-0.78168 0.32697-0.32173 0.08882
  -4  -9   4  434.11  201.01   1-0.36197-0.04708 0.23799-0.69808 0.90129-0.71446
   4  -9  -4  355.95  207.52   1-0.52666 0.93342-0.78188 0.32717-0.33357 0.14724
  -4  -9   3 6141.56 1131.50   1-0.39969-0.00987 0.19490-0.65500 0.89568-0.75556
   4  -9  -3 4594.83  702.56   1-0.51354 0.92048-0.78187 0.32715-0.35348 0.21373
  -4  -9   221392.19 1997.95   1-0.43834 0.02825 0.14839-0.60848 0.88647-0.79305
   4  -9  -218736.50  544.17   1-0.49292 0.90001-0.78264 0.32798-0.38011 0.28704
   4  -9  -1 4174.13  635.97   1-0.45867 0.86592-0.77922 0.32456-0.42710 0.38056
  -4  -9  -120341.35 1748.03   1-0.55494 0.14293-0.00510-0.45579 0.83186-0.87853
  -4  -9  -2 8662.69  899.40   1-0.59040 0.17811-0.05932-0.40087 0.80492-0.89865
  -4  -9  -3 3955.54  690.29   1-0.62289 0.21020-0.11444-0.34575 0.77388-0.91447
  -4  -9  -4  538.84  278.39   1-0.65140 0.23921-0.16958-0.28944 0.73953-0.92681
  -4  -9  -5 3380.15  603.30   1-0.67745 0.26476-0.22313-0.23589 0.70090-0.93501
  -4  -9  -6  349.75  291.67   1-0.69984 0.28666-0.27496-0.18407 0.65925-0.94018
  -4  -9  -7    9.16  185.11   1-0.71801 0.30395-0.32485-0.13422 0.61556-0.94318
  -4  -9  -8  811.71  365.01   1-0.73298 0.31828-0.37193-0.08715 0.56955-0.94397
  -4  -9  -9 3476.51  485.06   1-0.74368 0.33129-0.41273-0.04237 0.52591-0.94257
  -4  -9 -10  299.46  204.27   1-0.75205 0.33897-0.45395-0.00115 0.47784-0.94079
  -4  -9 -11  410.61  315.82   1-0.75726 0.34347-0.49229 0.03718 0.42917-0.93842
  -4  -9 -12  453.87  292.57   1-0.76015 0.34815-0.53022 0.07489 0.37552-0.93444
  -4  -9 -13  260.77  247.26   1-0.75940 0.34691-0.56293 0.10759 0.32621-0.93170
  -4  -9 -14  121.83  218.10   1-0.75611 0.34314-0.59288 0.13755 0.27709-0.92915
   4 -10 -14  588.70  359.03   1-0.51012 0.91504-0.78179 0.27655-0.35855-0.29359
   4  10 -14   52.58  190.08   1 0.17425 0.22822-0.44213 0.94562-0.87985 0.23173
   4 -10 -13 -206.79  165.89   1-0.51965 0.92475-0.78193 0.27669-0.34429-0.26127
   4  10 -13  204.12  200.00   1 0.18618 0.21651-0.43152 0.93501-0.88267 0.28085
   4 -10 -12  554.14  405.09   1-0.52827 0.93356-0.78185 0.27661-0.33109-0.22789
   4  10 -12  842.12  411.79   1 0.20063 0.20229-0.41846 0.92195-0.88579 0.33026
   4 -10 -11  105.58  183.40   1-0.53593 0.94140-0.78162 0.27638-0.31911-0.19328
   4 -10 -10   98.74  179.27   1-0.54254 0.94819-0.78128 0.27604-0.30860-0.15721
   4 -10  -9  593.68  317.24   1-0.54796 0.95380-0.78091 0.27567-0.29983-0.11940
   4 -10  -8  612.46  208.90   1-0.55203 0.95805-0.78057 0.27534-0.29317-0.07948
  -4 -10   7 6062.74  619.17   1-0.30524-0.10228 0.29897-0.81019 0.90412-0.57716
   4 -10  -7 4607.04  427.30   1-0.55449 0.96070-0.78035 0.27511-0.28910-0.03696
  -4 -10   6  697.16  336.21   1-0.33508-0.07295 0.26744-0.77866 0.90343-0.62318
   4 -10  -6   78.53  129.66   1-0.55499 0.96138-0.78030 0.27506-0.28827 0.00878
   4 -10  -5 1191.59  262.66   1-0.55301 0.95958-0.78049 0.27525-0.29156 0.05865
  -4 -10   416778.59 1571.01   1-0.40029-0.00876 0.19420-0.70541 0.89557-0.70874
   4 -10  -414394.20  524.55   1-0.54771 0.95447-0.78093 0.27569-0.30024 0.11391
  -4 -10   3 2521.11  367.81   1-0.43482 0.02524 0.15274-0.66395 0.88746-0.74734
   4 -10  -3 1825.02  290.85   1-0.53780 0.94473-0.78153 0.27630-0.31617 0.17642
  -4 -10   2 -193.35  189.08   1-0.47289 0.06169 0.10940-0.62151 0.87430-0.78096
   4 -10  -2    0.26   83.95   1-0.52098 0.92810-0.78193 0.27669-0.34227 0.24910
   4 -10  -1  493.27  227.43   1-0.49453 0.90178-0.78274 0.27756-0.37781 0.33127
  -4 -10  -1  367.63  190.84   1-0.57529 0.16341-0.03518-0.47614 0.81718-0.86404
  -4 -10  -213403.14 1414.39   1-0.60661 0.19432-0.08621-0.42510 0.79030-0.88403
  -4 -10  -3 3863.39  698.15   1-0.63560 0.22290-0.13741-0.37391 0.75968-0.90027
  -4 -10  -4 9816.25  652.19   1-0.66094 0.24876-0.18853-0.32150 0.72636-0.91364
  -4 -10  -5 4870.27  507.96   1-0.68431 0.27162-0.23832-0.27171 0.68914-0.92325
  -4 -10  -6 5587.79  599.52   1-0.70449 0.29130-0.28664-0.22338 0.64925-0.93018
  -4 -10  -7  717.83  263.44   1-0.72092 0.30686-0.33334-0.17674 0.60758-0.93519
  -4 -10  -8 2335.14  456.75   1-0.73459 0.31989-0.37760-0.13249 0.56372-0.93814
  -4 -10  -9  528.42  326.33   1-0.74442 0.33204-0.41593-0.08973 0.52232-0.93898
  -4 -10 -10  453.53  322.27   1-0.75225 0.33916-0.45512-0.05054 0.47641-0.93936
  -4 -10 -11 1041.39  311.67   1-0.75721 0.34342-0.49180-0.01387 0.42982-0.93907
  -4 -10 -12  825.55  352.50   1-0.76011 0.34811-0.52832 0.02240 0.37827-0.93718
  -4 -10 -13  412.10  286.48   1-0.75958 0.34709-0.56001 0.05409 0.33078-0.93626
  -4 -10 -14  389.79  279.11   1-0.75666 0.34369-0.58922 0.08330 0.28331-0.93537
   4 -11 -13  402.32  350.30   1-0.52914 0.93424-0.78183 0.22607-0.32975-0.27581
   4 -11 -12 4226.40  547.77   1-0.53804 0.94333-0.78152 0.22576-0.31578-0.24320
   4 -11 -11  233.46  211.79   1-0.54604 0.95151-0.78105 0.22529-0.30296-0.20944
   4 -11 -10 1939.13  357.40   1-0.55304 0.95870-0.78048 0.22472-0.29150-0.17431
  -4 -11   9  959.17  372.47   1-0.29825-0.10824 0.30619-0.86853 0.90403-0.48367
   4 -11  -9  250.11  194.58   1-0.55896 0.96479-0.77988 0.22412-0.28166-0.13758
  -4 -11   8  515.20  272.31   1-0.32217-0.08483 0.28123-0.84356 0.90394-0.53028
   4 -11  -8  961.42  446.39   1-0.56363 0.96965-0.77933 0.22357-0.27376-0.09889
  -4 -11   7 1832.25  287.21   1-0.34818-0.05933 0.25322-0.81555 0.90257-0.57562
   4 -11  -7 1102.76  292.35   1-0.56686 0.97306-0.77891 0.22315-0.26825-0.05782
  -4 -11   6   74.22   99.42   1-0.37606-0.03196 0.22214-0.78448 0.89956-0.61932
   4 -11  -6  185.17  193.64   1-0.56834 0.97473-0.77870 0.22294-0.26570-0.01379
  -4 -11   5 4408.75  551.93   1-0.40552-0.00302 0.18804-0.75038 0.89453-0.66099
   4 -11  -5 3440.77  372.67   1-0.56764 0.97421-0.77880 0.22304-0.26691 0.03399
  -4 -11   4 7622.88  983.55   1-0.43619 0.02713 0.15104-0.71337 0.88708-0.70025
   4 -11  -4 5656.45  450.47   1-0.56408 0.97083-0.77928 0.22351-0.27300 0.08667
   4 -11  -3 1513.38  282.93   1-0.55658 0.96351-0.78014 0.22438-0.28564 0.14589
  -4 -11   218069.26 1933.53   1-0.50243 0.09123 0.07006-0.63338 0.86177-0.76843
   4 -11  -216453.89  486.75   1-0.54327 0.95039-0.78124 0.22547-0.30743 0.21427
  -4 -11   1 2394.54  362.74   1-0.53380 0.12233 0.02605-0.58937 0.84520-0.79854
  -4 -11   0 2308.53  354.26   1-0.56445 0.15271-0.01956-0.54375 0.82522-0.82522
  -4 -11  -2  695.83  416.46   1-0.62217 0.20988-0.11316-0.44929 0.77465-0.86837
  -4 -11  -315996.05 2043.37   1-0.64802 0.23532-0.16081-0.40164 0.74444-0.88504
  -4 -11  -4 1110.71  381.55   1-0.67051 0.25832-0.20827-0.35276 0.71206-0.89934
  -4 -11  -5 4727.90  612.22   1-0.69141 0.27873-0.25466-0.30637 0.67607-0.91018
  -4 -11  -6 9808.32  831.07   1-0.70904 0.29562-0.30007-0.26103 0.63813-0.91894
  -4 -11  -7  659.22  461.46   1-0.72429 0.31023-0.34354-0.21756 0.59781-0.92543
  -4 -11  -8 4726.82  609.38   1-0.73667 0.32197-0.38516-0.17593 0.55583-0.93025
  -4 -11  -9 6132.05  597.61   1-0.74560 0.33321-0.42112-0.13511 0.51645-0.93311
  -4 -11 -10 1086.71  439.33   1-0.75278 0.33970-0.45834-0.09789 0.47246-0.93542
  -4 -11 -11  337.86  247.62   1-0.75737 0.34358-0.49335-0.06288 0.42776-0.93701
  -4 -11 -12  425.17  331.99   1-0.76011 0.34811-0.52843-0.02808 0.37811-0.93702
  -4 -11 -13  185.52  239.16   1-0.75963 0.34715-0.55903 0.00251 0.33231-0.93780
   4 -12 -12 2693.36  489.03   1-0.54562 0.95091-0.78108 0.17480-0.30363-0.25535
  -4 -12  11 1283.39  345.36   1-0.30283-0.10264 0.30148-0.91493 0.90410-0.39032
   4 -12 -11 1197.72  322.54   1-0.55385 0.95932-0.78041 0.17412-0.29018-0.22222
  -4 -12  10 1082.61  357.35   1-0.32138-0.08460 0.28207-0.89552 0.90396-0.43688
   4 -12 -10 1249.13  334.91   1-0.56113 0.96678-0.77964 0.17335-0.27801-0.18781
  -4 -12   9  281.96  206.78   1-0.34199-0.06450 0.25997-0.87343 0.90302-0.48265
   4 -12  -9  430.07  254.74   1-0.56738 0.97321-0.77884 0.17255-0.26736-0.15188
  -4 -12   8 4431.29  660.12   1-0.36454-0.04246 0.23512-0.84858 0.90101-0.52735
   4 -12  -8 3845.06  436.43   1-0.57247 0.97849-0.77809 0.17180-0.25853-0.11412
  -4 -12   7  -60.78  171.36   1-0.38886-0.01866 0.20750-0.82096 0.89762-0.57067
   4 -12  -7  -84.99  132.44   1-0.57624 0.98244-0.77747 0.17119-0.25193-0.07413
  -4 -12   6 1234.00  497.13   1-0.41470 0.00666 0.17713-0.79059 0.89254-0.61230
   4 -12  -6  876.96  401.00   1-0.57841 0.98480-0.77710 0.17081-0.24809-0.03140
  -4 -12   5 1217.05  486.14   1-0.44180 0.03325 0.14409-0.75755 0.88546-0.65192
   4 -12  -5  888.98  365.13   1-0.57862 0.98519-0.77706 0.17077-0.24771 0.01480
  -4 -12   4 1209.26  429.41   1-0.47324 0.06258 0.10894-0.72347 0.87416-0.68750
   4 -12  -4 1502.70  272.07   1-0.57630 0.98306-0.77746 0.17118-0.25182 0.06549
  -4 -12   3   50.78  167.15   1-0.50159 0.09066 0.07121-0.68574 0.86216-0.72217
   4 -12  -3  142.49  146.54   1-0.57053 0.97747-0.77838 0.17210-0.26191 0.12216
  -4 -12   2  589.80  238.92   1-0.53005 0.11885 0.03144-0.64597 0.84737-0.75404
  -4 -12   1 2361.46 1035.81   1-0.55821 0.14673-0.01003-0.60450 0.82963-0.78297
  -4 -12   011432.72 1116.77   1-0.58582 0.17434-0.05191-0.56168 0.80877-0.80877
  -4 -12  -1 3147.83  505.88   1-0.61222 0.20034-0.09580-0.51778 0.78485-0.83171
  -4 -12  -2 9249.78 1187.31   1-0.63709 0.22480-0.14016-0.47342 0.75793-0.85166
  -4 -12  -3  485.98  327.05   1-0.65902 0.24732-0.18464-0.42740 0.72910-0.86957
  -4 -12  -4  763.07  432.01   1-0.67999 0.26780-0.22869-0.38334 0.69663-0.88392
  -4 -12  -5  350.99  314.71   1-0.69863 0.28595-0.27198-0.34006 0.66176-0.89587
  -4 -12  -6 2141.69  378.85   1-0.71433 0.30091-0.31443-0.29767 0.62518-0.90600
  -4 -12  -7 2375.73  430.38   1-0.72798 0.31392-0.35519-0.25691 0.58640-0.91402
  -4 -12  -8  -29.27  193.84   1-0.73909 0.32440-0.39435-0.21775 0.54609-0.92051
  -4 -12  -9  151.50  202.69   1-0.74710 0.33472-0.42804-0.17877 0.50854-0.92520
  -4 -12 -10  575.75  320.20   1-0.75358 0.34049-0.46335-0.14345 0.46628-0.92923
  -4 -12 -11   70.84  205.77   1-0.75769 0.34390-0.49672-0.11008 0.42327-0.93253
  -4 -12 -12  -53.97  206.51   1-0.76015 0.34815-0.53033-0.07677 0.37537-0.93428
  -4 -13  10  316.85  204.15   1-0.36431-0.04167 0.23538-0.89996 0.90103-0.43396
   4 -13 -10  302.18  263.25   1-0.56696 0.97262-0.77889 0.12209-0.26807-0.19774
  -4 -13   9  -54.37  168.07   1-0.38370-0.02279 0.21343-0.87801 0.89845-0.47808
   4 -13  -9   55.18  145.95   1-0.57343 0.97926-0.77794 0.12113-0.25687-0.16236
  -4 -13   8  735.89  323.45   1-0.40475-0.00225 0.18895-0.85353 0.89468-0.52102
   4 -13  -8   41.39  137.42   1-0.57879 0.98481-0.77703 0.12022-0.24741-0.12524
   4 -13  -7  141.51  181.03   1-0.58290 0.98910-0.77626 0.11945-0.24006-0.08600
  -4 -13   6  333.58  242.26   1-0.45107 0.04303 0.13249-0.79707 0.88259-0.60235
   4 -13  -6  221.25  143.64   1-0.58553 0.99191-0.77574 0.11893-0.23531-0.04417
  -4 -13   5 1171.61  278.14   1-0.47945 0.06906 0.10083-0.76657 0.87175-0.63842
   4 -13  -5  467.46  210.72   1-0.58635 0.99292-0.77557 0.11876-0.23383 0.00091
   4 -13  -4 1733.33  288.01   1-0.58486 0.99161-0.77587 0.11906-0.23653 0.05020
  -4 -13   3 5035.81  680.20   1-0.53031 0.11938 0.03108-0.69682 0.84723-0.70723
  -4 -13   1  678.07  271.32   1-0.58115 0.17008-0.04444-0.62028 0.81257-0.76571
  -4 -13   0  147.75  165.81   1-0.60574 0.19426-0.08475-0.57997 0.79113-0.79113
  -4 -13  -1  184.58  140.06   1-0.62924 0.21735-0.12579-0.53892 0.76696-0.81382
  -4 -13  -2  340.53  192.09   1-0.65014 0.23894-0.16712-0.49591 0.74120-0.83484
  -4 -13  -3 2800.74  441.75   1-0.67066 0.25897-0.20859-0.45445 0.71182-0.85229
  -4 -13  -4 2910.05  474.96   1-0.68928 0.27709-0.24969-0.41335 0.68009-0.86738
  -4 -13  -5 9802.09  642.64   1-0.70584 0.29316-0.29012-0.37291 0.64622-0.88033
  -4 -13  -6  -21.04  187.24   1-0.71973 0.30632-0.32986-0.33325 0.61087-0.89168
  -4 -13  -7  893.87  338.68   1-0.73187 0.31781-0.36809-0.29502 0.57346-0.90108
  -4 -13  -8  540.33  291.51   1-0.74173 0.32704-0.40494-0.25817 0.53464-0.90905
  -4 -13  -9  553.01  293.37   1-0.74883 0.33644-0.43645-0.22092 0.49876-0.91542
  -4 -13 -10 -116.00  188.90   1-0.75455 0.34146-0.46992-0.18745 0.45805-0.92101
   4 -14  -9  -96.47  147.10   1-0.57727 0.98310-0.77730 0.06996-0.25011-0.16912
  -4 -14   8  587.54  206.93   1-0.44282 0.03580 0.14283-0.85853 0.88515-0.51149
   4 -14  -8  741.26  292.83   1-0.58277 0.98879-0.77629 0.06895-0.24029-0.13236
   4 -14  -7  -72.15  134.92   1-0.58707 0.99328-0.77542 0.06808-0.23250-0.09356
  -4 -14   6 3890.79  606.23   1-0.48900 0.07888 0.08818-0.80513 0.86781-0.58781
  -4 -14   5 1221.92  397.23   1-0.51132 0.10094 0.05783-0.77479 0.85743-0.62410
  -4 -14   412205.39 1273.75   1-0.53414 0.12348 0.02556-0.74251 0.84500-0.65834
  -4 -14   3  678.51  227.33   1-0.55715 0.14622-0.00843-0.70852 0.83036-0.69037
  -4 -14   2 1281.65  274.56   1-0.58000 0.16934-0.04261-0.67324 0.81349-0.71976
  -4 -14   1  342.94  185.07   1-0.60260 0.19153-0.07946-0.63639 0.79407-0.74720
  -4 -14   0 4398.71  631.18   1-0.62447 0.21299-0.11724-0.59861 0.77219-0.77219
  -4 -14  -1   -5.33  150.24   1-0.64531 0.23343-0.15562-0.56023 0.74789-0.79476
  -4 -14  -2 4148.78  467.82   1-0.66368 0.25249-0.19410-0.51994 0.72238-0.81602
  -4 -14  -3  142.60  185.19   1-0.68184 0.27015-0.23281-0.48124 0.69345-0.83392
  -4 -14  -4 3313.12  440.87   1-0.69831 0.28612-0.27119-0.44285 0.66242-0.84971
  -4 -14  -5  433.49  341.88   1-0.71246 0.29968-0.30929-0.40484 0.62986-0.86388
  -4 -14  -6  520.83  342.47   1-0.72515 0.31173-0.34620-0.36792 0.59522-0.87604
  -4 -14  -7  354.72  300.91   1-0.73583 0.32178-0.38208-0.33204 0.55906-0.88668
  -4 -14  -8 1046.80  357.21   1-0.74374 0.33206-0.41302-0.29492 0.52559-0.89596
  -4 -15   6 1960.79  411.63   1-0.52103 0.11091 0.04427-0.81244 0.85238-0.57239
  -4 -15   5   75.87  219.10   1-0.54116 0.13077 0.01535-0.78352 0.84077-0.60744
  -4 -15   4 3932.79  539.95   1-0.56164 0.15098-0.01525-0.75290 0.82723-0.64057
  -4 -15   3 1162.25  295.69   1-0.58209 0.17183-0.04593-0.72105 0.81182-0.67123
  -4 -15   2 1105.65  304.84   1-0.60261 0.19194-0.07947-0.68751 0.79406-0.70033
  -4 -15   1 6648.51  977.38   1-0.62268 0.21160-0.11405-0.65293 0.77411-0.72725
  -4 -15   0 1205.50  254.97   1-0.64204 0.23056-0.14942-0.61756 0.75196-0.75196
  -4 -15  -1  493.30  322.24   1-0.65917 0.24847-0.18494-0.58010 0.72889-0.77571
  -4 -15  -2  -77.63  183.10   1-0.67652 0.26533-0.22112-0.54393 0.70243-0.79607
  -4 -15  -3  122.35  264.73   1-0.69252 0.28083-0.25727-0.50778 0.67395-0.81442
  -4 -15  -4  631.93  315.79   1-0.70653 0.29439-0.29346-0.47167 0.64396-0.83117
  -4 -15  -5  486.66  236.59   1-0.71936 0.30658-0.32876-0.43637 0.61190-0.84591
  -4 -15  -6   47.51  200.56   1-0.73046 0.31705-0.36334-0.40179 0.57827-0.85909
  -4 -16   2  274.41  207.78   1-0.62369 0.21303-0.11586-0.70225 0.77302-0.67930
  -4 -16   0  -16.55  192.83   1-0.65710 0.24690-0.18082-0.63523 0.73178-0.73178
  -4 -16  -1 1182.98  400.99   1-0.67340 0.26270-0.21440-0.60165 0.70749-0.75432
  -4 -16  -2  952.51  391.16   1-0.68863 0.27743-0.24819-0.56786 0.68130-0.77495
   5   0 -16  169.34  215.48   1-0.20918 0.71259-0.69908 0.69908-0.68375-0.05908
   5   0 -15  223.33  228.07   1-0.21059 0.71423-0.69976 0.69976-0.68262-0.01379
   5   0 -14 6231.11  537.53   1-0.21001 0.71388-0.69948 0.69948-0.68309 0.03310
   5   0 -13  532.86  355.64   1-0.20720 0.71130-0.69810 0.69810-0.68535 0.08179
   5   0 -12  -87.07  176.31   1-0.20188 0.70622-0.69548 0.69548-0.68959 0.13246
   5   0 -11  -46.04  159.83   1-0.19373 0.69830-0.69139 0.69139-0.69601 0.18531
   5   0 -10  886.53  509.91   1-0.18233 0.68713-0.68555 0.68555-0.70481 0.24054
   5   0  -9  -54.96  167.14   1-0.16718 0.67221-0.67757 0.67757-0.71619 0.29834
   5   0  -8 1603.15  361.21   1-0.14770 0.65297-0.66695 0.66695-0.73031 0.35889
   5   0  -7  332.99  292.43   1-0.12236 0.62808-0.65401 0.65401-0.74651 0.42163
   5   0  -6  746.22  324.53   1-0.09211 0.59805-0.63595 0.63595-0.76620 0.48773
   5   0  -5  -42.54  145.80   1-0.05518 0.56135-0.61263 0.61263-0.78843 0.55638
   5   0  -4   -2.84  125.78   1-0.01067 0.51707-0.58269 0.58269-0.81262 0.62697
   5   0  -3  108.20  125.13   1 0.04240 0.46351-0.54702 0.54702-0.83604 0.69708
   5   0  -222111.60  628.75   1 0.10411 0.40206-0.49903 0.49903-0.86030 0.76766
   5   0  -1  154.58  138.68   1 0.17508 0.33165-0.44140 0.44140-0.88006 0.83376
  -5   0  -1  -51.94  100.12   1-0.34131-0.17308 0.26070-0.26070 0.90306-0.94977
  -5   0  -2 1870.04  302.23   1-0.42730-0.08761 0.16194-0.16194 0.88948-0.98290
  -5   0  -3   26.44   56.24   1-0.50982-0.00566 0.05991-0.05991 0.85818-0.99818
  -5   0  -4 1512.89  231.95   1-0.58585 0.06988-0.05196 0.05196 0.80874-0.99620
  -5   0  -5   37.93   89.55   1-0.64853 0.13330-0.16402 0.16402 0.74329-0.97740
  -5   0  -612878.36  535.99   1-0.69684 0.18111-0.26762 0.26762 0.66541-0.94634
  -5   0  -7  -45.40   83.19   1-0.72998 0.21354-0.36175 0.36175 0.57987-0.90748
  -5   0  -8 1966.12  364.60   1-0.74908 0.23589-0.43775 0.43775 0.49723-0.86759
  -5   0  -9   38.55  101.36   1-0.75848 0.24458-0.50636 0.50636 0.41024-0.82690
  -5   0 -10  128.84  164.43   1-0.75914 0.24656-0.56653 0.56653 0.32052-0.78628
  -5   0 -11  -47.34  104.79   1-0.75173 0.23851-0.61439 0.61439 0.23961-0.75208
  -5   0 -12  156.35  159.46   1-0.73933 0.22565-0.65310 0.65310 0.16380-0.72286
   5  -1 -16 -141.87  198.79   1-0.24021 0.74361-0.71369 0.66319-0.65798-0.08485
   5   1 -16  -52.68  198.43   1-0.17617 0.67958-0.68234 0.73283-0.70948-0.03335
   5  -1 -15  814.45  331.57   1-0.24270 0.74634-0.71481 0.66432-0.65584-0.04057
   5   1 -15  553.22  280.91   1-0.17647 0.68011-0.68250 0.73299-0.70926 0.01284
   5  -1 -14   23.37  166.70   1-0.24331 0.74718-0.71509 0.66459-0.65532 0.00533
   5   1 -14  508.45  299.33   1-0.17467 0.67854-0.68155 0.73204-0.71061 0.06062
   5  -1 -13   84.82  178.61   1-0.24181 0.74591-0.71441 0.66392-0.65660 0.05304
   5   1 -13  158.90  189.66   1-0.17055 0.67465-0.67937 0.72986-0.71369 0.11013
   5  -1 -12  615.65  302.27   1-0.23793 0.74227-0.71265 0.66216-0.65992 0.10279
   5   1 -12  585.60  281.43   1-0.16382 0.66816-0.67577 0.72626-0.71867 0.16154
   5  -1 -11  129.37  181.81   1-0.23134 0.73591-0.70963 0.65913-0.66550 0.15480
   5   1 -11  430.17  268.34   1-0.15415 0.65872-0.67051 0.72101-0.72570 0.21499
   5  -1 -10 1419.87  330.64   1-0.22163 0.72643-0.70507 0.65457-0.67360 0.20933
   5   1 -10 1614.14  335.41   1-0.14115 0.64595-0.66329 0.71378-0.73492 0.27065
   5  -1  -915586.08  669.76   1-0.20827 0.71331-0.69863 0.64814-0.68449 0.26664
   5   1  -913183.03  575.53   1-0.12338 0.62863-0.65460 0.70508-0.74583 0.32812
   5  -1  -8 2943.34  526.02   1-0.19066 0.69593-0.68983 0.63934-0.69840 0.32698
   5   1  -8 2949.59  541.61   1-0.10229 0.60777-0.64213 0.69261-0.75973 0.38844
   5  -1  -730227.03  924.96   1-0.16803 0.67353-0.67803 0.62753-0.71556 0.39057
   5   1  -730299.43  988.46   1-0.07627 0.58199-0.62612 0.67660-0.77598 0.45110
   5  -1  -6105520.835505.42   1-0.13876 0.64470-0.66340 0.61292-0.73527 0.45680
   5   1  -6102994.3 2914.02   1-0.04467 0.55061-0.60574 0.65622-0.79440 0.51593
   5  -1  -5  590.35  314.27   1-0.10330 0.60948-0.64274 0.59226-0.75907 0.52702
   5   1  -5   78.51  183.58   1-0.00681 0.51298-0.57999 0.63047-0.81458 0.58253
   5  -1  -4  -61.74  121.07   1-0.05970 0.56610-0.61555 0.56507-0.78582 0.60018
   5   1  -4  542.79  276.67   1 0.03837 0.46728-0.55002 0.60038-0.83426 0.64898
   5  -1  -3 1389.93  503.80   1-0.00670 0.51333-0.57992 0.52944-0.81464 0.67540
   5   1  -3 1323.39  500.05   1 0.09037 0.41554-0.51005 0.56041-0.85537 0.71641
   5  -1  -234725.87  719.73   1 0.05658 0.44959-0.53633 0.48597-0.84210 0.74946
   5   1  -235071.56  754.68   1 0.15053 0.35598-0.46276 0.51311-0.87360 0.78101
   5  -1  -113386.80  447.65   1 0.13108 0.37565-0.47922 0.42887-0.86784 0.82155
  -5   1  -129086.61  637.52   1-0.31528-0.19912 0.28850-0.23738 0.90408-0.95078
  -5  -1  -127513.80 1263.15   1-0.36676-0.14763 0.23263-0.28376 0.90075-0.94746
  -5   1  -223427.18 1217.65   1-0.41264-0.10226 0.17960-0.12848 0.89300-0.98642
  -5  -1  -222447.11  669.17   1-0.44317-0.07174 0.14240-0.19352 0.88505-0.97846
  -5   1  -3 3923.66  574.50   1-0.50640-0.00908 0.06463-0.01342 0.85987-0.99986
  -5  -1  -3 4699.14  572.21   1-0.51648 0.00098 0.05066-0.10187 0.85479-0.99479
  -5  -1  -4 2360.89  324.20   1-0.58406 0.06809-0.04908-0.00204 0.81022-0.99767
  -5   1  -4 1808.36  286.22   1-0.59255 0.07658-0.06283 0.11396 0.80307-0.99052
  -5  -1  -5 9626.37 1050.22   1-0.64104 0.12467-0.14755 0.09642 0.75318-0.98750
  -5   1  -5 9665.99  440.06   1-0.66169 0.14645-0.19003 0.24104 0.72529-0.95940
  -5  -1  -6 4964.93  318.19   1-0.68631 0.17058-0.24287 0.19186 0.68555-0.96648
  -5   1  -6 4778.59  272.39   1-0.71144 0.19564-0.30652 0.35753 0.63236-0.91317
  -5  -1  -7 5291.84  822.03   1-0.71969 0.20324-0.32972 0.27871 0.61100-0.93862
  -5   1  -7 4388.49  668.26   1-0.74102 0.22854-0.40183 0.45240 0.53796-0.86202
  -5  -1  -8  157.72  159.01   1-0.74110 0.22791-0.40214 0.35157 0.53762-0.90799
  -5   1  -8  277.64  160.93   1-0.75656 0.24337-0.48570 0.53627 0.43782-0.80819
  -5  -1  -9  899.52  243.40   1-0.75443 0.24053-0.46908 0.41852 0.45911-0.87577
  -5   1  -9  381.03  227.73   1-0.75974 0.24764-0.55700 0.60759 0.33546-0.75465
  -5  -1 -10  141.33  140.21   1-0.76014 0.24756-0.52962 0.47903 0.37640-0.84216
  -5   1 -10  -52.16   76.87   1-0.75223 0.23947-0.61223 0.66283 0.24355-0.70943
  -5  -1 -11 1173.63  333.66   1-0.75799 0.24493-0.57882 0.52823 0.30067-0.81300
  -5  -1 -12 -100.96  111.66   1-0.75012 0.23644-0.62088 0.57027 0.22762-0.78668
  -5  -1 -13  707.42  318.59   1-0.73823 0.22408-0.65570 0.60509 0.15831-0.76396
   5  -2 -16  -60.68  206.23   1-0.27051 0.77405-0.72464 0.62351-0.63380-0.10985
   5   2 -16  -50.08  196.84   1-0.14131 0.64472-0.66338 0.76437-0.73481-0.00802
   5  -2 -15  691.54  311.87   1-0.27403 0.77779-0.72611 0.62497-0.63060-0.06657
   5   2 -15  520.86  288.31   1-0.14050 0.64414-0.66292 0.76391-0.73538 0.03896
   5  -2 -14  105.78  169.95   1-0.27577 0.77976-0.72683 0.62569-0.62901-0.02168
   5   2 -14  358.66  220.29   1-0.13636 0.64047-0.66205 0.76301-0.73694 0.08718
   5  -2 -13  863.98  385.98   1-0.27553 0.77974-0.72673 0.62559-0.62924 0.02501
   5   2 -13  953.29  394.77   1-0.13097 0.63531-0.65898 0.75994-0.74066 0.13731
   5  -2 -12  338.97  259.41   1-0.27304 0.77747-0.72570 0.62456-0.63151 0.07376
   5   2 -12  680.34  352.91   1-0.12290 0.62747-0.65433 0.75529-0.74615 0.18921
   5  -2 -11 4374.45  515.01   1-0.26671 0.77128-0.72528 0.62429-0.63468 0.12398
   5   2 -11 4186.76  521.73   1-0.11184 0.61664-0.64784 0.74880-0.75351 0.24299
   5  -2 -10  880.50  470.51   1-0.25872 0.76352-0.72187 0.62088-0.64183 0.17756
   5   2 -10 1134.26  291.29   1-0.09741 0.60244-0.63918 0.74014-0.76285 0.29873
   5  -2  -9 1384.52  319.45   1-0.24724 0.75228-0.71685 0.61586-0.65191 0.23406
   5   2  -9  920.20  392.17   1-0.07919 0.58445-0.62795 0.72891-0.77420 0.35650
   5  -2  -8  409.15  288.27   1-0.23165 0.73691-0.70977 0.60878-0.66525 0.29383
   5   2  -8   27.56  181.98   1-0.05672 0.56221-0.61363 0.71459-0.78754 0.41625
   5  -2  -718408.47  703.16   1-0.21113 0.71663-0.70003 0.59904-0.68218 0.35719
   5   2  -718576.66  751.40   1-0.02950 0.53521-0.59559 0.69655-0.80274 0.47785
   5  -2  -6 6954.42  448.90   1-0.18470 0.69043-0.68678 0.58579-0.70300 0.42443
   5   2  -6 7308.46  500.76   1 0.00368 0.50146-0.57515 0.67587-0.81803 0.54011
   5  -2  -513267.74  605.77   1-0.15113 0.65710-0.66885 0.56786-0.72786 0.49572
   5   2  -513453.66  653.33   1 0.04188 0.46352-0.54740 0.64813-0.83581 0.60421
   5  -2  -432562.55 1094.22   1-0.10851 0.61491-0.64586 0.54490-0.75570 0.57005
   5   2  -432918.27 1134.99   1 0.08620 0.41945-0.51336 0.61408-0.85383 0.66854
   5  -2  -353352.17  922.50   1-0.05623 0.56286-0.61331 0.51235-0.78783 0.64860
   5   2  -354489.90 1017.87   1 0.13778 0.36851-0.47360 0.57430-0.86989 0.73101
   5  -2  -2  182.61  186.39   1 0.00762 0.49855-0.57236 0.47164-0.81996 0.72732
   5  -2  -1 2837.79  287.55   1 0.08500 0.42142-0.51431 0.41358-0.85337 0.80705
  -5  -2   0  962.78  379.56   1-0.32291-0.19097 0.28045-0.38269 0.90392-0.90392
   5  -2   0  398.73  175.88   1 0.17596 0.33100-0.44062 0.33992-0.88027 0.88027
  -5  -2  -1  256.50  149.12   1-0.39156-0.12283 0.20437-0.30662 0.89716-0.94387
  -5   2  -2   24.68   39.83   1-0.39991-0.11499 0.19464-0.09240 0.89564-0.98905
  -5  -2  -2  112.51  132.51   1-0.45978-0.05512 0.12144-0.22368 0.87968-0.97310
  -5   2  -3 4196.48  643.51   1-0.50781-0.00767 0.06269 0.03972 0.85918-0.99918
  -5  -2  -3 4729.20  655.46   1-0.52536 0.00986 0.03814-0.14056 0.85002-0.99002
  -5  -2  -4   37.62   50.26   1-0.58575 0.06978-0.05180-0.05046 0.80882-0.99628
  -5   2  -4  -18.57   42.33   1-0.60638 0.09041-0.08583 0.18810 0.79052-0.97797
  -5  -2  -5 4227.82  546.52   1-0.63738 0.12101-0.14071 0.03845 0.75758-0.99190
  -5   2  -5 3777.68  228.70   1-0.68202 0.16678-0.23319 0.33520 0.69315-0.92726
  -5  -2  -6  -16.85  109.57   1-0.67944 0.16371-0.22750 0.12549 0.69756-0.97849
  -5   2  -6   40.02   64.77   1-0.73076 0.21495-0.36434 0.46636 0.57726-0.85807
  -5  -2  -7 1616.72  333.95   1-0.71189 0.19544-0.30772 0.20570 0.63128-0.95889
  -5   2  -7 1293.24  254.86   1-0.75386 0.24138-0.46523 0.56637 0.46394-0.78800
  -5  -2  -8  157.83  179.97   1-0.73533 0.21824-0.38025 0.27823 0.56096-0.93538
  -5  -2  -9 5347.87  438.87   1-0.74962 0.23573-0.44051 0.33937 0.49397-0.91063
  -5  -2 -10  357.55  216.98   1-0.75775 0.24315-0.49737 0.39624 0.42240-0.88536
  -5  -2 -11  175.21  147.14   1-0.76003 0.24696-0.54972 0.44854 0.34662-0.85896
  -5  -2 -12   40.87  136.09   1-0.75615 0.24260-0.59263 0.49144 0.27752-0.83643
  -5  -2 -13   31.55  125.35   1-0.74758 0.23343-0.62996 0.52875 0.21039-0.81604
  -5  -2 -14  270.08  241.84   1-0.73569 0.22107-0.66137 0.56016 0.14609-0.79833
   5  -3 -16  998.30  422.79   1-0.29720 0.80074-0.73537 0.58368-0.60900-0.13465
   5   3 -16  413.14  368.79   1-0.10358 0.60723-0.64291 0.79435-0.75890 0.01631
   5  -3 -15  522.35  287.49   1-0.30169 0.80545-0.73709 0.58539-0.60470-0.09247
   5   3 -15  269.08  237.71   1-0.10169 0.60557-0.64177 0.79321-0.76012 0.06394
   5  -3 -14  471.62  321.96   1-0.30451 0.80850-0.73816 0.58646-0.60198-0.04872
   5   3 -14   35.85  189.89   1-0.09755 0.60166-0.63927 0.79071-0.76276 0.11300
   5  -3 -13   16.24  166.22   1-0.30549 0.80970-0.73853 0.58683-0.60103-0.00318
   5   3 -13  301.74  242.77   1-0.09094 0.59529-0.63524 0.78668-0.76694 0.16358
   5  -3 -12  211.80  192.56   1-0.30436 0.80879-0.73810 0.58640-0.60212 0.04438
   5   3 -12   22.45  184.55   1-0.08161 0.58618-0.62946 0.78090-0.77272 0.21578
   5  -3 -11  280.32  200.95   1-0.30082 0.80548-0.73676 0.58507-0.60553 0.09426
   5   3 -11  843.48  295.29   1-0.06926 0.57406-0.62168 0.77312-0.78019 0.26966
   5  -3 -10 5156.62  449.66   1-0.29448 0.79936-0.73432 0.58263-0.61158 0.14679
   5   3 -10 5558.24  489.85   1-0.05355 0.55858-0.61157 0.76301-0.78937 0.32525
   5  -3  -9 8220.39  496.17   1-0.28484 0.78995-0.73052 0.57882-0.62064 0.20233
   5   3  -9 9355.62  545.37   1-0.03412 0.53938-0.59871 0.75015-0.80023 0.38252
   5  -3  -8 6578.57 1025.35   1-0.27126 0.77659-0.72495 0.57326-0.63312 0.26129
   5   3  -8 5847.11  915.79   1-0.01058 0.51607-0.58262 0.73406-0.81267 0.44137
   5  -3  -717017.80  681.40   1-0.25199 0.75749-0.71894 0.56746-0.64777 0.32278
   5   3  -717805.02  768.72   1 0.01828 0.48660-0.56472 0.71580-0.82507 0.50083
   5  -3  -614676.13  648.28   1-0.22795 0.73368-0.70805 0.55656-0.66835 0.38978
   5   3  -616883.31  773.02   1 0.05119 0.45395-0.54042 0.69150-0.83983 0.56191
   5  -3  -5  731.84  282.21   1-0.19678 0.70275-0.69293 0.54145-0.69362 0.46148
   5   3  -5  887.84  375.46   1 0.08928 0.41611-0.51092 0.66200-0.85497 0.62337
   5  -3  -4  695.28  332.22   1-0.15680 0.66299-0.67196 0.52048-0.72379 0.53808
   5   3  -4   74.70  155.20   1 0.13391 0.37216-0.47685 0.62790-0.86871 0.68354
   5  -3  -3 8424.27  458.57   1-0.10566 0.61229-0.64416 0.49272-0.75755 0.61831
   5   3  -3 8470.93  495.44   1 0.18254 0.32375-0.43478 0.58582-0.88184 0.74295
   5  -3  -244762.76  782.35   1-0.04162 0.54848-0.60372 0.45228-0.79610 0.70328
  -5  -3   1 1690.50  616.50   1-0.29266-0.22071 0.31192-0.46529 0.90390-0.85719
   5  -3  -1  889.27  350.27   1 0.03727 0.46915-0.55083 0.39974-0.83378 0.78746
  -5  -3   016484.35  821.72   1-0.35362-0.16026 0.24725-0.40062 0.90211-0.90211
   5  -3   016111.76  426.38   1 0.13390 0.37306-0.47687 0.32582-0.86871 0.86871
  -5  -3  -1 4743.48  742.65   1-0.41567-0.09872 0.17598-0.32934 0.89232-0.93903
  -5   3  -2 1488.37  308.42   1-0.39024-0.12467 0.20590-0.05254 0.89739-0.99080
  -5  -3  -3  576.22  231.60   1-0.53578 0.02029 0.02318-0.17682 0.84403-0.98403
  -5  -3  -4 6425.15  763.84   1-0.58997 0.07400-0.05862-0.09477 0.80528-0.99274
  -5   3  -4 5689.53  263.40   1-0.63143 0.11669-0.13198 0.28499 0.76411-0.95139
  -5  -3  -5 6280.53  714.36   1-0.63677 0.12039-0.13958-0.01381 0.75831-0.99262
  -5  -3  -614833.64  674.33   1-0.67557 0.15983-0.21905 0.06604 0.70400-0.98493
  -5  -3  -710254.30  573.09   1-0.70647 0.19003-0.29333 0.14030 0.64408-0.97170
  -5  -3  -8  419.32  208.74   1-0.72989 0.21280-0.36143 0.20840 0.58019-0.95461
  -5  -3  -9  401.81  271.22   1-0.74514 0.23125-0.41909 0.26738 0.51876-0.93542
  -5  -3 -10 2108.20  297.92   1-0.75516 0.24056-0.47432 0.32262 0.45249-0.91544
  -5  -3 -11   66.16  125.68   1-0.76006 0.24700-0.52611 0.37433 0.38145-0.89379
  -5  -3 -12  549.94  301.10   1-0.75891 0.24537-0.56940 0.41762 0.31595-0.87486
  -5  -3 -13  300.05  252.12   1-0.75349 0.23946-0.60725 0.45547 0.25194-0.85743
  -5  -3 -14  -11.02  138.58   1-0.74411 0.22949-0.64063 0.48883 0.18941-0.84165
  -5  -3 -15  263.84  279.22   1-0.73192 0.21684-0.66904 0.51723 0.12909-0.82791
   5  -4 -16  149.55  209.79   1-0.32165 0.82519-0.74441 0.54215-0.58513-0.15852
   5   4 -16  214.74  224.97   1-0.06554 0.56919-0.61931 0.82123-0.78240 0.03981
   5  -4 -15   92.22  217.65   1-0.32703 0.83080-0.74629 0.54403-0.57972-0.11745
   5   4 -15  621.66  356.97   1-0.06261 0.56649-0.61743 0.81935-0.78412 0.08795
   5  -4 -14  765.73  400.09   1-0.33086 0.83485-0.74761 0.54535-0.57584-0.07486
   5   4 -14  428.58  303.52   1-0.05739 0.56150-0.61406 0.81598-0.78716 0.13740
   5  -4 -13  199.32  244.25   1-0.33297 0.83718-0.74833 0.54606-0.57369-0.03052
   5   4 -13  270.26  299.32   1-0.04966 0.55400-0.60902 0.81094-0.79159 0.18823
   5  -4 -12  130.54  176.46   1-0.33312 0.83755-0.74838 0.54611-0.57354 0.01579
   5   4 -12  -20.28  200.80   1-0.03920 0.54377-0.60211 0.80403-0.79744 0.24050
   5  -4 -11 2431.85  391.83   1-0.33103 0.83569-0.74767 0.54540-0.57567 0.06440
   5   4 -11 3051.63  402.25   1-0.02573 0.53053-0.59304 0.79496-0.80476 0.29423
   5  -4 -10 2185.94  440.56   1-0.32633 0.83121-0.74605 0.54379-0.58043 0.11564
   5   4 -10 1492.07  397.75   1-0.00896 0.51399-0.58149 0.78341-0.81349 0.34938
   5  -4  -9  255.78  247.77   1-0.31854 0.82364-0.74331 0.54104-0.58823 0.16992
   5   4  -9  531.95  354.49   1 0.01234 0.49203-0.56899 0.77044-0.82224 0.40536
   5  -4  -8 1150.14  266.48   1-0.30704 0.81237-0.73911 0.53684-0.59953 0.22770
   5   4  -8 1297.60  314.54   1 0.03661 0.46801-0.55132 0.75276-0.83348 0.46292
   5  -4  -740206.32 1071.20   1-0.29102 0.79657-0.73297 0.53070-0.61486 0.28950
   5   4  -739994.72 1118.84   1 0.06509 0.43979-0.52982 0.73127-0.84560 0.52135
   5  -4  -6  137.00  201.08   1-0.26869 0.77442-0.72611 0.52413-0.63290 0.35433
   5   4  -6  141.41  174.48   1 0.09802 0.40712-0.50394 0.70539-0.85815 0.58022
   5  -4  -5  226.46  152.38   1-0.24023 0.74619-0.71370 0.51172-0.65796 0.42582
   5   4  -5  323.76  242.48   1 0.13690 0.36895-0.47434 0.67574-0.86962 0.63815
   5  -4  -4  -68.53  118.58   1-0.20294 0.70913-0.69600 0.49403-0.68875 0.50304
   5   4  -4   53.99  150.21   1 0.17893 0.32714-0.43799 0.63938-0.88099 0.69581
   5  -4  -3 4497.16  267.05   1-0.15437 0.66079-0.67063 0.46865-0.72554 0.58626
   5  -4  -2 2720.93  230.47   1-0.09143 0.59829-0.63553 0.43361-0.76663 0.67381
  -5  -4   129423.11 1075.81   1-0.32720-0.18617 0.27589-0.48037 0.90378-0.85707
  -5  -4   0 1275.61  210.14   1-0.38291-0.13097 0.21434-0.41882 0.89857-0.89857
   5  -4   0  974.26  149.85   1 0.09070 0.41598-0.50979 0.30834-0.85550 0.85550
  -5   4  -2    1.41   40.15   1-0.38556-0.12935 0.21131-0.00682 0.89815-0.99157
  -5  -4  -2  130.38   76.62   1-0.49523-0.01998 0.07983-0.28467 0.86508-0.95841
  -5  -4  -3  161.59  148.92   1-0.54727 0.03178 0.00635-0.21119 0.83692-0.97692
  -5  -4  -4 1048.45  166.47   1-0.59604 0.08007-0.06856-0.13597 0.80001-0.98747
  -5  -4  -519533.28 1729.65   1-0.63848 0.12211-0.14276-0.06176 0.75627-0.99059
  -5  -4  -7 1180.18  454.81   1-0.70358 0.18735-0.28433 0.08031 0.65125-0.97900
  -5  -4  -8 3642.18  518.81   1-0.72596 0.20887-0.34873 0.14470 0.59275-0.96717
  -5  -4  -9   46.22  148.59   1-0.74238 0.22464-0.40761 0.20357 0.53171-0.95293
  -5  -4 -10  593.99  290.49   1-0.75253 0.23793-0.45678 0.25451 0.47438-0.93734
  -5  -4 -11  154.40  165.14   1-0.75836 0.24306-0.50480 0.30253 0.41237-0.92162
  -5  -4 -12   70.84  145.83   1-0.76001 0.24646-0.55040 0.34803 0.34559-0.90450
  -5  -4 -13  666.97  310.91   1-0.75675 0.24272-0.58857 0.38620 0.28441-0.88990
  -5  -4 -14  270.15  226.97   1-0.74963 0.23502-0.62272 0.42031 0.22417-0.87641
  -5  -4 -15   -4.67  142.50   1-0.73968 0.22460-0.65226 0.44985 0.16557-0.86439
   5  -5 -15  838.80  350.38   1-0.35004 0.85380-0.75390 0.50107-0.55596-0.14121
   5   5 -15 1157.52  345.33   1-0.02235 0.52624-0.59074 0.84314-0.80655 0.11037
   5  -5 -14  865.64  366.70   1-0.35478 0.85877-0.75537 0.50254-0.55093-0.09976
   5   5 -14  277.13  234.81   1-0.01614 0.52025-0.58647 0.83887-0.80980 0.16004
   5  -5 -13  213.84  183.57   1-0.35792 0.86213-0.75633 0.50350-0.54758-0.05664
   5   5 -13  384.76  308.25   1-0.00742 0.51176-0.58042 0.83282-0.81427 0.21092
   5  -5 -12  293.39  212.03   1-0.35924 0.86368-0.75673 0.50390-0.54616-0.01158
   5   5 -12  -62.53  197.07   1 0.00501 0.49859-0.57421 0.82602-0.81868 0.26283
   5  -5 -11   71.46  168.39   1-0.35849 0.86315-0.75650 0.50367-0.54697 0.03570
   5   5 -11  568.05  342.53   1 0.01941 0.48445-0.56391 0.81571-0.82560 0.31607
   5  -5 -10  853.42  290.70   1-0.35532 0.86020-0.75554 0.50271-0.55036 0.08557
   5   5 -10 1165.03  338.92   1 0.03700 0.46712-0.55103 0.80284-0.83365 0.37045
   5  -5  -9 1795.21  331.08   1-0.34929 0.85439-0.75366 0.50083-0.55676 0.13845
   5   5  -9 1361.24  322.71   1 0.05802 0.44635-0.53524 0.78705-0.84270 0.42581
   5  -5  -8 8385.39  484.01   1-0.33980 0.84513-0.75060 0.49777-0.56667 0.19483
   5   5  -8 8309.08  522.43   1 0.08271 0.42191-0.51611 0.76792-0.85251 0.48194
   5  -5  -7  -79.01  161.27   1-0.32608 0.83163-0.74596 0.49313-0.58068 0.25533
   5   5  -7  -58.74  161.99   1 0.11127 0.39362-0.49321 0.74502-0.86275 0.53851
   5  -5  -621090.16  716.46   1-0.30706 0.81284-0.73912 0.48628-0.59950 0.32063
   5   5  -620603.43  763.96   1 0.14531 0.36032-0.46722 0.71896-0.87211 0.59434
   5  -5  -5   40.50  129.32   1-0.28132 0.78732-0.72910 0.47627-0.62391 0.39151
   5   5  -5  224.96  184.83   1 0.18179 0.32406-0.43544 0.68719-0.88166 0.65019
   5  -5  -4 1617.82  230.77   1-0.24664 0.75283-0.71658 0.46410-0.65244 0.46673
   5  -5  -3  458.47  196.28   1-0.20105 0.70748-0.69507 0.44259-0.69025 0.55097
  -5  -5   2 6219.71  435.92   1-0.31032-0.20253 0.29369-0.54929 0.90412-0.81070
   5  -5  -2 5471.66  278.09   1-0.14050 0.64736-0.66439 0.41199-0.73405 0.64123
  -5  -5   1 1167.88  173.23   1-0.36001-0.15336 0.24018-0.49578 0.90150-0.85479
   5  -5  -1  937.34  136.17   1-0.05988 0.56696-0.61567 0.36327-0.78572 0.73931
  -5  -5   0  154.95  173.73   1-0.41088-0.10300 0.18169-0.43730 0.89339-0.89339
   5  -5   0  285.31  132.29   1 0.04504 0.46164-0.54504 0.29323-0.83719 0.83719
  -5  -5  -122523.38 1904.04   1-0.46174-0.05266 0.11894-0.37454 0.87900-0.92571
   5  -5   119604.30  624.57   1 0.18314 0.32403-0.43424 0.18249-0.88198 0.92827
  -5  -5  -2 6004.63  717.23   1-0.51269-0.00252 0.05594-0.31199 0.85674-0.95007
  -5  -5  -3 3984.42  648.94   1-0.55948 0.04399-0.01196-0.24409 0.82875-0.96875
  -5  -5  -4  208.48  189.21   1-0.60347 0.08750-0.08092-0.17473 0.79326-0.98071
  -5  -5  -5 2577.25  524.79   1-0.64197 0.12560-0.14930-0.10635 0.75204-0.98636
  -5  -5  -612328.71  642.19   1-0.67456 0.15882-0.21688-0.03813 0.70563-0.98656
  -5  -5  -7 1110.91  259.50   1-0.70208 0.18585-0.28055 0.02553 0.65449-0.98224
  -5  -5  -8 4891.31  406.80   1-0.72346 0.20637-0.34099 0.08594 0.60027-0.97469
  -5  -5  -9 2724.28  403.22   1-0.73972 0.22199-0.39680 0.14175 0.54346-0.96468
  -5  -5 -10  168.95  223.31   1-0.75027 0.23567-0.44394 0.19110 0.48990-0.95285
  -5  -5 -11  -18.32  141.62   1-0.75708 0.24178-0.49051 0.23768 0.43151-0.94076
  -5  -5 -13    6.23  165.08   1-0.75857 0.24454-0.57327 0.32031 0.30971-0.91520
  -5  -5 -14  541.74  317.83   1-0.75350 0.23899-0.60720 0.35424 0.25203-0.90409
  -5  -5 -15  343.63  265.51   1-0.74508 0.23000-0.63780 0.38479 0.19506-0.89388
   5  -6 -15  496.85  334.53   1-0.37071 0.87447-0.76008 0.45669-0.53370-0.16347
   5   6 -15  524.29  312.44   1 0.01984 0.48299-0.56359 0.86576-0.82581 0.13099
   5  -6 -14  106.69  197.65   1-0.37626 0.88025-0.76164 0.45824-0.52756-0.12314
   5   6 -14  -93.49  174.23   1 0.02693 0.47615-0.55843 0.86061-0.82910 0.18061
   5  -6 -13  717.05  357.62   1-0.38032 0.88453-0.76274 0.45935-0.52303-0.08118
   5   6 -13  790.83  380.67   1 0.03651 0.46683-0.55139 0.85356-0.83344 0.23127
   5  -6 -12  475.31  274.26   1-0.38270 0.88713-0.76338 0.45998-0.52036-0.03738
   5   6 -12  801.65  403.97   1 0.04876 0.45484-0.54225 0.84442-0.83879 0.28294
   5  -6 -11  762.80  390.37   1-0.38316 0.88782-0.76350 0.46011-0.51984 0.00858
   5   6 -11  629.76  363.33   1 0.06387 0.43999-0.53077 0.83294-0.84510 0.33557
   5  -6 -10   42.57  185.02   1-0.38139 0.88627-0.76303 0.45963-0.52184 0.05705
   5   6 -10  236.81  214.95   1 0.08202 0.42209-0.51665 0.81882-0.85225 0.38904
   5  -6  -9  276.16  185.74   1-0.37697 0.88208-0.76183 0.45844-0.52677 0.10846
   5   6  -9  248.56  196.65   1 0.10342 0.40095-0.49959 0.80176-0.86006 0.44317
   5  -6  -8 4807.68  368.57   1-0.36937 0.87470-0.75970 0.45630-0.53517 0.16334
   5   6  -8 6249.01  493.02   1 0.12989 0.37530-0.48022 0.78231-0.86747 0.49711
   5  -6  -7  284.64  196.44   1-0.35783 0.86339-0.75630 0.45291-0.54767 0.22232
   5   6  -7   23.16  178.34   1 0.15810 0.34730-0.45624 0.75833-0.87569 0.55163
   5  -6  -610660.94  506.17   1-0.34136 0.84713-0.75111 0.44772-0.56505 0.28618
   5   6  -611170.70  601.16   1 0.18985 0.31577-0.42822 0.73032-0.88350 0.60573
   5  -6  -5  985.59  394.42   1-0.31853 0.82452-0.74330 0.43991-0.58824 0.35585
   5  -6  -470532.72 1429.23   1-0.28733 0.79356-0.73151 0.42811-0.61832 0.43240
  -5  -6   3  -38.27  171.92   1-0.30131-0.21103 0.30304-0.60977 0.90408-0.76396
   5  -6  -3  162.61  149.23   1-0.24509 0.75152-0.71588 0.41292-0.65378 0.51449
  -5  -6   2 4922.29  460.39   1-0.34545-0.16740 0.25620-0.56293 0.90278-0.80936
   5  -6  -2 4568.38  292.92   1-0.18756 0.69422-0.68825 0.38528-0.70080 0.60794
  -5  -6   1  233.09  142.83   1-0.39118-0.12219 0.20481-0.51154 0.89723-0.85052
   5  -6  -1   12.15   66.88   1-0.10894 0.61602-0.64611 0.34323-0.75542 0.70900
  -5  -6   0 1900.78  346.97   1-0.43760-0.07628 0.14930-0.45603 0.88668-0.88668
   5  -6   0 1350.92  172.89   1-0.00190 0.50859-0.57909 0.27691-0.81526 0.81526
  -5  -6  -1 3215.26  470.93   1-0.48546-0.02948 0.09289-0.40015 0.86930-0.91597
  -5  -6  -2 2906.60  472.73   1-0.52999 0.01477 0.03152-0.33879 0.84741-0.94074
  -5  -6  -3 3315.06  618.24   1-0.57288 0.05732-0.03140-0.27538 0.81903-0.95962
  -5  -6  -4 8809.88 1001.37   1-0.61189 0.09592-0.09522-0.21157 0.78518-0.97264
  -5  -6  -5 1426.69  296.56   1-0.64682 0.13044-0.15851-0.14828 0.74598-0.98030
  -5  -6  -6 1512.18  300.11   1-0.67654 0.16081-0.22117-0.08485 0.70239-0.98333
  -5  -6  -7  867.21  351.05   1-0.70208 0.18585-0.28055-0.02546 0.65449-0.98224
  -5  -6  -8 5425.39  450.71   1-0.72224 0.20515-0.33730 0.03124 0.60381-0.97823
  -5  -6  -9  160.41  166.16   1-0.73800 0.22027-0.39013 0.08408 0.55058-0.97180
  -5  -6 -10  134.57  236.60   1-0.74856 0.23396-0.43511 0.13170 0.50032-0.96328
  -5  -6 -11  134.38  194.90   1-0.75589 0.24059-0.48004 0.17664 0.44516-0.95441
  -5  -6 -12  379.27  286.13   1-0.75999 0.24644-0.52369 0.22013 0.38491-0.94382
  -5  -6 -13  173.96  248.73   1-0.75951 0.24548-0.56111 0.25755 0.32907-0.93456
  -5  -6 -14    8.76  181.79   1-0.75578 0.24127-0.59490 0.29134 0.27362-0.92569
  -5  -6 -15  135.68  190.33   1-0.74882 0.23374-0.62568 0.32206 0.21858-0.91740
   5  -7 -14  -10.92  183.49   1-0.39252 0.89963-0.76625 0.41263-0.50869-0.14282
   5   7 -14  320.84  321.38   1 0.06956 0.43352-0.52637 0.87891-0.84739 0.19890
   5   7 -13  257.68  206.42   1 0.07982 0.42352-0.51838 0.87092-0.85141 0.24924
   5  -7 -12    1.95  179.61   1-0.40064 0.90806-0.76825 0.41463-0.49925-0.05919
   5   7 -12  467.58  286.71   1 0.09267 0.41093-0.50822 0.86076-0.85622 0.30037
   5  -7 -11  -39.63  163.13   1-0.40214 0.90971-0.76861 0.41498-0.49750-0.01440
   5   7 -11  -71.32  194.13   1 0.10826 0.39560-0.49567 0.84820-0.86173 0.35220
   5  -7 -10  299.21  226.71   1-0.40157 0.90929-0.76847 0.41485-0.49817 0.03279
   5   7 -10  124.71  209.87   1 0.12857 0.37618-0.48132 0.83377-0.86705 0.40411
   5  -7  -9 4100.74  446.10   1-0.39856 0.90643-0.76775 0.41412-0.50169 0.08285
   5   7  -9 4337.48  535.35   1 0.14999 0.35498-0.46322 0.81567-0.87345 0.45680
   5  -7  -8  890.47  309.24   1-0.39260 0.90063-0.76628 0.41265-0.50860 0.13630
   5   7  -8  954.20  288.14   1 0.17451 0.33068-0.44190 0.79434-0.87992 0.50956
   5  -7  -7 5835.97  410.27   1-0.38613 0.89168-0.76428 0.41032-0.51649 0.19114
   5   7  -7 5534.33  474.75   1 0.20216 0.30325-0.41706 0.76950-0.88610 0.56204
   5  -7  -6   79.42  136.23   1-0.37204 0.87781-0.76046 0.40650-0.53224 0.25336
   5  -7  -5 1293.69  232.73   1-0.35202 0.85802-0.75452 0.40055-0.55387 0.32147
  -5  -7   4 2574.13  564.55   1-0.29880-0.21303 0.30563-0.66348 0.90404-0.71721
   5  -7  -4 1045.62  392.26   1-0.32411 0.83033-0.74528 0.39131-0.58267 0.39675
  -5  -7   3 5519.00  904.08   1-0.33792-0.17442 0.26438-0.62223 0.90327-0.76315
   5  -7  -3 4183.06  635.30   1-0.28534 0.79179-0.73072 0.37675-0.62017 0.48074
  -5  -7   2 6290.43 1095.51   1-0.37882-0.13404 0.21901-0.57686 0.89917-0.80576
   5  -7  -2 5161.33  776.36   1-0.23200 0.73866-0.70993 0.35647-0.66495 0.57209
  -5  -7   112198.10 1318.44   1-0.42081-0.09255 0.16980-0.52765 0.89111-0.84440
   5  -7  -110882.65  409.03   1-0.15570 0.66260-0.67136 0.31790-0.72458 0.67815
  -5  -7   0 5281.69 1070.08   1-0.46312-0.05076 0.11716-0.47501 0.87851-0.87851
   5  -7   0 3254.59  497.87   1-0.04564 0.55295-0.60637 0.25301-0.79386 0.79386
  -5  -7  -2 7671.32 1031.49   1-0.54705 0.03183 0.00667-0.36515 0.83707-0.93040
  -5  -7  -3 1606.16  436.78   1-0.58577 0.07021-0.05182-0.30610 0.80881-0.94940
  -5  -7  -4 3645.40  752.90   1-0.62100 0.10503-0.11109-0.24683 0.77589-0.96334
  -5  -7  -5  539.19  327.99   1-0.65195 0.13671-0.17064-0.18638 0.73881-0.97291
  -5  -7  -6 7548.86  535.76   1-0.67973 0.16400-0.22813-0.12888 0.69707-0.97800
  -5  -7  -8 1082.68  341.69   1-0.72213 0.20504-0.33697-0.02009 0.60412-0.97854
  -5  -7  -9  105.01  164.74   1-0.73715 0.21942-0.38696 0.02989 0.55394-0.97517
  -5  -7 -10   15.81  168.33   1-0.74745 0.23286-0.42972 0.07574 0.50660-0.96955
  -5  -7 -11  398.47  215.96   1-0.75496 0.23966-0.47290 0.11893 0.45429-0.96354
  -5  -7 -12  -38.06  172.37   1-0.75889 0.24289-0.51277 0.15879 0.40142-0.95696
  -5  -7 -13  136.28  190.08   1-0.75996 0.24593-0.55182 0.19767 0.34342-0.94891
  -5  -7 -14   28.09  189.85   1-0.75722 0.24270-0.58518 0.23103 0.29012-0.94218
   5  -8 -14 1853.38  412.82   1-0.40919 0.91630-0.77024 0.36609-0.48916-0.16236
   5   8 -14 2153.32  487.95   1 0.11244 0.39065-0.49226 0.89515-0.86315 0.21466
   5  -8 -13  -97.75  166.70   1-0.41473 0.92199-0.77146 0.36732-0.48252-0.12246
   5   8 -13  -26.34  191.17   1 0.12320 0.38014-0.48339 0.88629-0.86668 0.26451
   5  -8 -12   20.63  177.16   1-0.41881 0.92622-0.77233 0.36818-0.47759-0.08085
   5   8 -12   39.74  165.22   1 0.13839 0.36591-0.47308 0.87588-0.87007 0.31454
   5  -8 -11 1060.86  289.82   1-0.42123 0.92880-0.77283 0.36868-0.47464-0.03727
   5   8 -11  976.02  474.02   1 0.15419 0.35033-0.45962 0.86241-0.87462 0.36538
   5  -8 -10 1223.70  340.23   1-0.42175 0.92947-0.77293 0.36879-0.47401 0.00864
   5   8 -10  680.22  338.28   1 0.17268 0.33206-0.44351 0.84630-0.87947 0.41652
   5  -8  -9 1706.18  334.66   1-0.42001 0.92788-0.77258 0.36843-0.47613 0.05730
   5   8  -9 1482.61  377.84   1 0.19394 0.31102-0.42453 0.82733-0.88439 0.46774
   5  -8  -8  920.94  279.39   1-0.41556 0.92358-0.77164 0.36749-0.48153 0.10923
   5  -8  -7   48.86  134.50   1-0.40776 0.91594-0.76991 0.36577-0.49087 0.16510
   5  -8  -6  618.41  222.17   1-0.39572 0.90405-0.76705 0.36291-0.50499 0.22577
  -5  -8   5  154.13  194.60   1-0.30169-0.20963 0.30265-0.71162 0.90409-0.67055
   5  -8  -5   18.35  106.25   1-0.38156 0.88756-0.76308 0.35855-0.52164 0.28924
  -5  -8   4  172.40  212.90   1-0.33630-0.17553 0.26613-0.67510 0.90336-0.71653
   5  -8  -4  144.88  119.37   1-0.35679 0.86301-0.75598 0.35146-0.54879 0.36288
   5  -8  -3 2624.61  357.95   1-0.32173 0.82817-0.74444 0.33991-0.58505 0.44561
  -5  -8   229896.25 1236.76   1-0.41050-0.10235 0.18214-0.59111 0.89347-0.80006
   5  -8  -225308.70  551.87   1-0.27270 0.77936-0.72778 0.32382-0.62925 0.53640
  -5  -8   113861.90 1553.81   1-0.44899-0.06438 0.13511-0.54408 0.88326-0.83655
   5  -8  -110745.89  381.54   1-0.20039 0.70728-0.69473 0.29078-0.69078 0.64435
  -5  -8   0  -59.32  189.35   1-0.48977-0.02490 0.08715-0.49684 0.86748-0.86748
  -5  -8  -1 2821.20  569.44   1-0.52745 0.01250 0.03515-0.44484 0.84885-0.89551
  -5  -8  -2  479.23  284.28   1-0.56378 0.04856-0.01853-0.39115 0.82571-0.91904
  -5  -8  -3  300.30  237.15   1-0.59876 0.08320-0.07305-0.33600 0.79758-0.93817
  -5  -8  -411039.37 1448.00   1-0.63059 0.11462-0.12825-0.28080 0.76543-0.95289
  -5  -8  -5 4737.66  469.32   1-0.65852 0.14329-0.18365-0.22437 0.72980-0.96391
  -5  -8  -6 1181.64  368.71   1-0.68386 0.16812-0.23731-0.17071 0.68993-0.97086
  -5  -8  -7 3788.72  444.67   1-0.70551 0.18928-0.28928-0.11874 0.64696-0.97471
  -5  -8  -8 2461.58  402.51   1-0.72295 0.20586-0.33945-0.06861 0.60175-0.97617
  -5  -8  -9  604.63  281.56   1-0.73709 0.21936-0.38673-0.02134 0.55418-0.97540
  -5  -8 -10 1017.57  432.88   1-0.74694 0.23234-0.42728 0.02274 0.50941-0.97236
  -5  -8 -11  125.94  187.32   1-0.75437 0.23907-0.46867 0.06413 0.45963-0.96888
  -5  -8 -12  387.89  250.35   1-0.75853 0.24252-0.50716 0.10262 0.40915-0.96470
   5  -9 -13  315.29  291.54   1-0.42969 0.93695-0.77450 0.31984-0.46422-0.14076
   5   9 -13   35.84  211.75   1 0.16837 0.33572-0.44730 0.90044-0.87838 0.27656
   5  -9 -12  -52.93  151.87   1-0.43444 0.94186-0.77538 0.32072-0.45829-0.10015
   5   9 -12 -238.05  195.84   1 0.18178 0.32253-0.43546 0.88860-0.88166 0.32613
   5  -9 -11  590.83  268.92   1-0.43765 0.94522-0.77595 0.32129-0.45425-0.05765
   5   9 -11  476.82  260.45   1 0.19762 0.30691-0.42120 0.87434-0.88517 0.37593
   5  -9 -10  379.95  286.12   1-0.43908 0.94680-0.77620 0.32154-0.45244-0.01293
   5  -9  -9 3691.50  437.95   1-0.43843 0.94630-0.77609 0.32143-0.45327 0.03443
   5  -9  -8  168.70  171.28   1-0.43527 0.94330-0.77553 0.32087-0.45724 0.08495
   5  -9  -7   29.05  136.03   1-0.42904 0.93722-0.77437 0.31971-0.46503 0.13927
  -5  -9   6 7415.39  761.90   1-0.30912-0.20169 0.29494-0.75504 0.90412-0.62388
   5  -9  -6 5677.02  525.33   1-0.41890 0.92723-0.77235 0.31768-0.47748 0.19826
  -5  -9   5 6023.44  604.94   1-0.33967-0.17165 0.26248-0.72258 0.90317-0.66963
   5  -9  -5 5891.93  481.71   1-0.40366 0.91215-0.76897 0.31430-0.49571 0.26302
  -5  -9   4  808.13  228.85   1-0.37204-0.13979 0.22670-0.68680 0.90010-0.71327
   5  -9  -4   72.91  103.30   1-0.38514 0.89136-0.76402 0.30893-0.51761 0.33169
  -5  -9   311129.09 1007.25   1-0.40583-0.10651 0.18768-0.64777 0.89446-0.75434
   5  -9  -3 9425.86  401.39   1-0.35359 0.86004-0.75500 0.29991-0.55220 0.41276
  -5  -9   226505.19 2795.59   1-0.44059-0.07227 0.14560-0.60569 0.88581-0.79240
   5  -9  -223305.50  561.18   1-0.30773 0.81440-0.73936 0.28427-0.59886 0.50590
  -5  -9   1  120.81  176.21   1-0.47833-0.03607 0.10229-0.56319 0.87219-0.82553
  -5  -9   0 7771.37  767.24   1-0.51318-0.00148 0.05525-0.51615 0.85649-0.85649
  -5  -9  -1 2913.92  506.81   1-0.54731 0.03236 0.00628-0.46718 0.83690-0.88356
  -5  -9  -2 5285.76  698.20   1-0.58062 0.06546-0.04359-0.41659 0.81300-0.90673
  -5  -9  -3 2933.93  524.30   1-0.61173 0.09617-0.09495-0.36523 0.78534-0.92593
  -5  -9  -4 7646.15  886.38   1-0.64048 0.12451-0.14649-0.31369 0.75386-0.94132
  -5  -9  -5 3775.18  509.97   1-0.66565 0.15042-0.19814-0.26088 0.71947-0.95357
  -5  -9  -6  863.79  278.35   1-0.68869 0.17296-0.24833-0.21070 0.68119-0.96212
  -5  -9  -7  305.01  238.29   1-0.70805 0.19160-0.29745-0.16163 0.64045-0.96807
  -5  -9  -8   60.97  168.11   1-0.72454 0.20745-0.34430-0.11477 0.59706-0.97148
  -5  -9  -9  226.72  204.62   1-0.73770 0.21997-0.38902-0.07005 0.55176-0.97298
  -5  -9 -10    3.44  173.09   1-0.74696 0.23237-0.42740-0.02770 0.50927-0.97223
  -5  -9 -11  443.47  300.77   1-0.75412 0.23882-0.46699 0.01188 0.46173-0.97098
  -5  -9 -12  145.49  208.61   1-0.75830 0.24230-0.50403 0.04892 0.41342-0.96896
  -5  -9 -13  295.70  313.44   1-0.76020 0.24617-0.54085 0.08551 0.35995-0.96544
   5 -10 -12  285.16  225.66   1-0.44763 0.95504-0.77761 0.27243-0.44152-0.11692
   5 -10 -11 3657.35  509.33   1-0.45148 0.95904-0.77820 0.27302-0.43653-0.07538
   5 -10 -10   94.01  142.44   1-0.45367 0.96139-0.77852 0.27334-0.43367-0.03169
   5 -10  -9   96.20  138.07   1-0.45392 0.96179-0.77856 0.27338-0.43335 0.01451
  -5 -10   8 1143.71  513.19   1-0.29548-0.21431 0.30904-0.82026 0.90398-0.53032
   5 -10  -8  924.64  247.31   1-0.45185 0.95987-0.77825 0.27307-0.43605 0.06375
  -5 -10   7  372.22  305.55   1-0.32039-0.18991 0.28311-0.79433 0.90398-0.57703
   5 -10  -7  560.14  332.71   1-0.44692 0.95510-0.77750 0.27232-0.44242 0.11666
  -5 -10   6  138.52  124.46   1-0.34728-0.16353 0.25421-0.76542 0.90264-0.62240
   5 -10  -6  392.47  252.95   1-0.43839 0.94673-0.77608 0.27090-0.45331 0.17408
  -5 -10   5 5736.82  828.14   1-0.37593-0.13539 0.22230-0.73351 0.89958-0.66604
   5 -10  -5 4198.14  381.41   1-0.42516 0.93364-0.77362 0.26844-0.46983 0.23714
  -5 -10   4  -61.14  199.48   1-0.40604-0.10579 0.18743-0.69865 0.89442-0.70759
   5 -10  -4 -120.09   87.53   1-0.40553 0.91417-0.76940 0.26422-0.49351 0.30736
  -5 -10   3 6569.48 1105.91   1-0.43725-0.07509 0.14973-0.66095 0.88678-0.74666
   5 -10  -3 5416.87  420.26   1-0.38069 0.88714-0.76284 0.25718-0.52261 0.38318
  -5 -10   2   14.20  157.20   1-0.47197-0.04216 0.11059-0.62270 0.87464-0.78131
  -5 -10   1  260.80  139.81   1-0.50389-0.01051 0.06807-0.58018 0.86108-0.81441
  -5 -10   012219.23 1516.07   1-0.53554 0.02086 0.02354-0.53565 0.84418-0.84418
  -5 -10  -1  173.83  124.49   1-0.56642 0.05147-0.02258-0.48952 0.82380-0.87046
  -5 -10  -2  273.47  233.10   1-0.59652 0.08136-0.06934-0.44198 0.79959-0.89332
  -5 -10  -3 1191.71  312.35   1-0.62458 0.10901-0.11743-0.39388 0.77207-0.91266
  -5 -10  -426866.06 2923.51   1-0.64957 0.13483-0.16602-0.34400 0.74194-0.92923
  -5 -10  -5  177.59  220.19   1-0.67316 0.15792-0.21388-0.29614 0.70788-0.94199
  -5 -10  -6 3845.78  519.48   1-0.69405 0.17832-0.26090-0.24913 0.67098-0.95191
  -5 -10  -7  129.54  249.39   1-0.71163 0.19518-0.30704-0.20305 0.63189-0.95951
  -5 -10  -8 2213.89  380.25   1-0.72673 0.20964-0.35118-0.15890 0.59035-0.96477
  -5 -10  -9  137.07  173.35   1-0.73887 0.22114-0.39348-0.11660 0.54702-0.96824
  -5 -10 -10  603.26  319.66   1-0.74746 0.23286-0.42973-0.07593 0.50658-0.96954
  -5 -10 -11  350.43  319.95   1-0.75421 0.23890-0.46755-0.03812 0.46104-0.97029
  -5 -10 -12  431.73  281.01   1-0.75823 0.24222-0.50311-0.00255 0.41466-0.97021
   5 -11 -11 -114.94  185.55   1-0.46281 0.97038-0.77977 0.22407-0.42161-0.09029
  -5 -11  10  568.47  312.07   1-0.29351-0.21525 0.31106-0.87339 0.90393-0.43685
   5 -11 -10  138.95  239.85   1-0.46561 0.97333-0.78012 0.22442-0.41787-0.04750
  -5 -11   9  215.84  214.59   1-0.31324-0.19603 0.29064-0.85297 0.90410-0.48373
   5 -11  -9  103.40  148.78   1-0.46658 0.97446-0.78023 0.22453-0.41656-0.00227
  -5 -11   8 1669.80  369.24   1-0.33495-0.17483 0.26758-0.82992 0.90343-0.52977
   5 -11  -8 1537.30  286.51   1-0.46539 0.97341-0.78009 0.22439-0.41816 0.04586
  -5 -11   7 1327.44  314.45   1-0.35852-0.15177 0.24183-0.80416 0.90165-0.57469
   5 -11  -7  352.78  159.66   1-0.46153 0.96971-0.77960 0.22390-0.42331 0.09755
  -5 -11   6 2116.43  342.30   1-0.38377-0.12703 0.21335-0.77569 0.89843-0.61819
   5 -11  -6 1746.99  325.95   1-0.45432 0.96265-0.77862 0.22292-0.43282 0.15359
  -5 -11   5  621.16  273.03   1-0.41048-0.10084 0.18217-0.74451 0.89348-0.65994
   5 -11  -5  711.38  302.99   1-0.44273 0.95122-0.77682 0.22112-0.44779 0.21511
  -5 -11   4  234.03  195.49   1-0.43836-0.07348 0.14837-0.71070 0.88646-0.69963
  -5 -11   3 1785.08  316.75   1-0.47014-0.04372 0.11297-0.67629 0.87533-0.73533
  -5 -11   2  -24.98  193.57   1-0.49912-0.01500 0.07456-0.63788 0.86331-0.76998
  -5 -11   1 2158.05  353.27   1-0.52817 0.01376 0.03413-0.59745 0.84844-0.80178
  -5 -11   0 2004.15  313.71   1-0.55686 0.04218-0.00799-0.55532 0.83056-0.83056
  -5 -11  -1  736.38  351.42   1-0.58508 0.07032-0.05071-0.51174 0.80938-0.85625
  -5 -11  -2 6573.63  827.66   1-0.61194 0.09678-0.09531-0.46714 0.78513-0.87886
  -5 -11  -3  987.34  401.30   1-0.63722 0.12165-0.14041-0.42204 0.75778-0.89837
  -5 -11  -4 2081.30  439.36   1-0.65961 0.14487-0.18584-0.37520 0.72826-0.91555
  -5 -11  -5 6788.51  738.83   1-0.68089 0.16565-0.23069-0.33034 0.69509-0.92920
  -5 -11  -6  346.69  245.94   1-0.69978 0.18404-0.27480-0.28623 0.65938-0.94031
  -5 -11  -7 6981.90  620.33   1-0.71567 0.19922-0.31818-0.24291 0.62175-0.94936
  -5 -11  -8 1756.64  418.21   1-0.72939 0.21230-0.35980-0.20130 0.58182-0.95624
  -5 -11  -9 1294.41  340.47   1-0.74047 0.22274-0.39981-0.16128 0.54021-0.96144
  -5 -11 -10 3100.02  518.35   1-0.74833 0.23374-0.43400-0.12224 0.50162-0.96458
  -5 -11 -11  -55.00  218.91   1-0.75457 0.23927-0.47007-0.08616 0.45787-0.96712
   5 -12 -10  184.91  175.06   1-0.47501 0.98273-0.78117 0.17495-0.40513-0.06023
  -5 -12   9  413.32  218.72   1-0.35237-0.15690 0.24862-0.86208 0.90222-0.48186
   5 -12  -9  112.72  159.65   1-0.47654 0.98442-0.78132 0.17510-0.40302-0.01580
  -5 -12   8 3578.52  620.94   1-0.37290-0.13688 0.22573-0.83918 0.89999-0.52633
   5 -12  -8 2141.99  360.72   1-0.47602 0.98405-0.78127 0.17505-0.40374 0.03144
  -5 -12   7 3524.85  493.59   1-0.39504-0.11526 0.20034-0.81380 0.89655-0.56959
  -5 -12   6  849.13  329.22   1-0.41859-0.09221 0.17247-0.78593 0.89164-0.61139
   5 -12  -6  163.20  130.86   1-0.46682 0.97515-0.78026 0.17404-0.41624 0.13702
  -5 -12   4 4791.15  542.83   1-0.47232-0.04127 0.11014-0.72467 0.87451-0.68785
  -5 -12   3  471.23  247.07   1-0.49845-0.01541 0.07548-0.69001 0.86362-0.72362
  -5 -12   2  340.68  175.85   1-0.52487 0.01073 0.03883-0.65337 0.85029-0.75696
  -5 -12   1  213.11  191.73   1-0.55124 0.03683 0.00044-0.61498 0.83434-0.78767
  -5 -12   0  235.55  169.57   1-0.57734 0.06300-0.03840-0.57518 0.81559-0.81559
  -5 -12  -1  228.68  146.66   1-0.60266 0.08791-0.07956-0.53403 0.79401-0.84088
  -5 -12  -2  292.84  204.70   1-0.62684 0.11168-0.12148-0.49210 0.76961-0.86334
  -5 -12  -3 3090.81  536.58   1-0.64848 0.13424-0.16391-0.44812 0.74336-0.88383
  -5 -12  -4 6852.18  672.98   1-0.66958 0.15484-0.20632-0.40571 0.71349-0.90078
  -5 -12  -5 3086.23  494.06   1-0.68873 0.17349-0.24840-0.36363 0.68113-0.91524
  -5 -12  -6 2770.93  413.36   1-0.70573 0.19000-0.28984-0.32220 0.64647-0.92740
  -5 -12  -7 -215.46  216.13   1-0.72001 0.20356-0.33066-0.28144 0.61011-0.93773
  -5 -12  -8  477.23  312.65   1-0.73240 0.21531-0.36991-0.24219 0.57161-0.94603
  -5 -12  -9  342.56  311.76   1-0.74241 0.22468-0.40777-0.20433 0.53154-0.95276
  -5 -13   8  717.10  199.94   1-0.40928-0.10050 0.18360-0.84818 0.89374-0.52008
  -5 -13   7 1259.24  294.42   1-0.42992-0.08038 0.15874-0.82332 0.88880-0.56184
  -5 -13   6  -12.59  200.24   1-0.45176-0.05905 0.13163-0.79621 0.88237-0.60213
  -5 -13   5   27.81  178.87   1-0.47805-0.03527 0.10266-0.76841 0.87231-0.63898
  -5 -13   4  124.93   93.31   1-0.50142-0.01216 0.07143-0.73718 0.86224-0.67558
  -5 -13   3  674.90  268.87   1-0.52526 0.01139 0.03828-0.70402 0.85007-0.71008
  -5 -13   2 -172.59  173.81   1-0.54926 0.03513 0.00339-0.66913 0.83563-0.74230
  -5 -13   1 1279.44  304.42   1-0.57315 0.05921-0.03182-0.63290 0.81882-0.77196
  -5 -13   0  355.61  190.61   1-0.59670 0.08235-0.06964-0.59508 0.79943-0.79943
  -5 -13  -1 4202.71  581.59   1-0.61948 0.10473-0.10841-0.55630 0.77748-0.82434
  -5 -13  -2 -113.75  191.52   1-0.64120 0.12604-0.14784-0.51688 0.75299-0.84672
  -5 -13  -3  119.74  183.64   1-0.66048 0.14623-0.18758-0.47546 0.72703-0.86749
  -5 -13  -4   27.45  195.35   1-0.67940 0.16466-0.22739-0.43564 0.69764-0.88492
  -5 -13  -5  987.50  368.61   1-0.69655 0.18132-0.26691-0.39613 0.66600-0.90011
  -5 -13  -6  526.18  304.81   1-0.71133 0.19552-0.30622-0.35689 0.63263-0.91345
  -5 -13  -7 1737.31  472.97   1-0.72453 0.20809-0.34430-0.31881 0.59707-0.92469
  -5 -13  -8  251.10  287.23   1-0.73563 0.21854-0.38134-0.28177 0.55983-0.93425
  -5 -14   6 1247.90  252.34   1-0.48826-0.02299 0.08917-0.80631 0.86812-0.59104
  -5 -14   5  249.22  216.63   1-0.50765-0.00566 0.06290-0.77985 0.85925-0.62592
  -5 -14   4  646.84  239.10   1-0.52898 0.01538 0.03298-0.74993 0.84799-0.66132
  -5 -14   3  654.17  303.56   1-0.55063 0.03676 0.00135-0.71831 0.83474-0.69474
  -5 -14   2 3537.30  613.02   1-0.57226 0.05873-0.03043-0.68542 0.81950-0.72577
  -5 -14   1  358.82  239.97   1-0.59392 0.07997-0.06505-0.65079 0.80188-0.75502
  -5 -14   0 7401.95 1125.08   1-0.61509 0.10074-0.10076-0.61509 0.78198-0.78198
  -5 -14  -1  532.02  167.62   1-0.63553 0.12077-0.13728-0.57857 0.75977-0.80663
  -5 -14  -2   77.03  202.96   1-0.65375 0.14000-0.17418-0.53986 0.73638-0.83002
  -5 -14  -3  187.07  203.19   1-0.67208 0.15783-0.21158-0.50246 0.70960-0.85006
  -5 -14  -4  851.09  320.21   1-0.68897 0.17423-0.24898-0.46506 0.68067-0.86795
  -5 -14  -5  158.82  207.54   1-0.70428 0.18904-0.28611-0.42793 0.64970-0.88381
   6   0 -14 2963.30  571.32   1-0.13909 0.74439-0.66213 0.66213-0.73636 0.08637
   6   0 -13   77.69  195.88   1-0.13295 0.73875-0.66011 0.66011-0.73930 0.13595
   6   0 -12 1877.34  320.27   1-0.12529 0.73132-0.65571 0.65571-0.74453 0.18759
   6   0 -11   25.01  178.18   1-0.11480 0.72106-0.64958 0.64958-0.75156 0.24103
   6   0 -1014263.76 1010.32   1-0.10112 0.70762-0.64143 0.64143-0.76048 0.29636
   6   0  -9  403.63  260.03   1-0.08388 0.69060-0.63087 0.63087-0.77133 0.35362
   6   0  -8 1056.56  332.99   1-0.06263 0.66958-0.61744 0.61744-0.78411 0.41282
   6   0  -7   43.66  143.95   1-0.03687 0.64404-0.60055 0.60055-0.79873 0.47385
   6   0  -6  -14.54  141.43   1-0.00608 0.61349-0.57948 0.57948-0.81495 0.53648
   6   0  -5  173.60  173.21   1 0.03047 0.57626-0.55585 0.55585-0.83072 0.59911
   6   0  -4  706.89  297.17   1 0.07273 0.53426-0.52392 0.52392-0.84865 0.66337
   6   0  -3  275.66  227.93   1 0.12133 0.48592-0.48494 0.48494-0.86608 0.72712
   6   0  -2 6913.83 1043.35   1 0.17690 0.43101-0.43979 0.43979-0.88050 0.78791
  -6   0   0   74.61  124.91   1-0.30833-0.30833 0.29576-0.29577 0.90412-0.90412
  -6   0  -1   62.59  121.94   1-0.37841-0.23876 0.21948-0.21948 0.89923-0.94594
  -6   0  -212135.04 1145.73   1-0.44946-0.16822 0.13452-0.13452 0.88311-0.97652
  -6   0  -3  -39.04  103.14   1-0.51834-0.10008 0.04805-0.04805 0.85382-0.99381
  -6   0  -4  154.27   89.67   1-0.58340-0.03543-0.04802 0.04802 0.81076-0.99821
  -6   0  -5  167.00  125.28   1-0.63961 0.02036-0.14486 0.14486 0.75492-0.98924
  -6   0  -6  129.09  162.01   1-0.68529 0.06701-0.24055 0.24055 0.68739-0.96832
  -6   0  -8  465.47  222.66   1-0.74158 0.12688-0.40406 0.40406 0.53552-0.90588
   6  -1 -14   83.98  222.43   1-0.16985 0.77514-0.67900 0.62850-0.71421 0.06423
   6   1 -14   10.86  207.89   1-0.10565 0.71123-0.64415 0.69463-0.75755 0.10779
   6  -1 -13  756.27  313.70   1-0.16571 0.77124-0.67679 0.62629-0.71728 0.11372
   6   1 -13  233.61  221.67   1-0.09956 0.70537-0.64049 0.69097-0.76148 0.15813
   6  -1 -12  751.27  367.05   1-0.15908 0.76485-0.67321 0.62271-0.72213 0.16500
   6   1 -12  113.81  184.28   1-0.09089 0.69693-0.63520 0.68568-0.76697 0.21003
   6  -1 -11  257.26  277.03   1-0.14966 0.75565-0.66804 0.61754-0.72891 0.21821
   6   1 -11  616.92  284.47   1-0.07937 0.68564-0.62806 0.67854-0.77409 0.26357
   6  -1 -10  231.42  195.26   1-0.13620 0.74269-0.66196 0.61148-0.73705 0.27294
   6   1 -10   38.10  169.39   1-0.06468 0.67117-0.61876 0.66924-0.78290 0.31879
   6  -1  -9  -74.70  159.78   1-0.12006 0.72678-0.65267 0.60219-0.74805 0.33035
   6   1  -9  -55.88  172.44   1-0.04647 0.65319-0.60693 0.65741-0.79339 0.37568
   6  -1  -8 2311.78 1016.60   1-0.09985 0.70680-0.64066 0.59018-0.76129 0.39000
   6   1  -8 1316.17  317.26   1-0.02436 0.63131-0.59210 0.64258-0.80548 0.43419
   6  -1  -7   60.98  197.57   1-0.07500 0.68217-0.62532 0.57483-0.77675 0.45187
   6   1  -7  140.61  180.86   1 0.00253 0.60369-0.57596 0.62632-0.81747 0.49322
   6  -1  -6  585.50  347.26   1-0.04486 0.65227-0.60587 0.55539-0.79429 0.51582
   6   1  -6  445.52  269.84   1 0.03364 0.57284-0.55352 0.60388-0.83215 0.55423
   6  -1  -5 6797.66 1036.19   1-0.00878 0.61642-0.58137 0.53089-0.81358 0.58153
   6   1  -5 7382.02 3512.78   1 0.06983 0.53691-0.52617 0.57653-0.84750 0.61590
   6  -1  -4 2927.45  518.75   1 0.03391 0.57308-0.55332 0.50295-0.83227 0.64699
   6   1  -4 3371.26  574.90   1 0.11141 0.49558-0.49310 0.54346-0.86280 0.67752
   6  -1  -314188.47  582.10   1 0.08370 0.52355-0.51533 0.46497-0.85288 0.71392
   6   1  -314127.45  615.70   1 0.15931 0.44838-0.45520 0.50555-0.87601 0.73713
   6  -1  -246896.41 1114.37   1 0.14146 0.46644-0.47049 0.42014-0.87099 0.77840
   6  -1  -1  585.37  288.49   1 0.20617 0.40196-0.41339 0.36304-0.88690 0.84060
  -6  -1   0 1396.36  545.48   1-0.33282-0.28384 0.26987-0.32099 0.90354-0.90354
  -6   1  -1 2995.47  566.30   1-0.36087-0.25630 0.23922-0.18809 0.90141-0.94811
  -6  -1  -1 3358.50  679.53   1-0.39673-0.22044 0.19837-0.24949 0.89624-0.94295
  -6  -1  -210996.07 1391.07   1-0.46119-0.15695 0.12446-0.17567 0.87852-0.97185
  -6   1  -2 9983.10  842.11   1-0.43989-0.17779 0.14646-0.09534 0.88602-0.97943
  -6   1  -3 3181.40  639.67   1-0.51649-0.10193 0.05064 0.00056 0.85479-0.99479
  -6  -1  -3 2892.04  557.28   1-0.52327-0.09515 0.04111-0.09232 0.85117-0.99117
  -6  -1  -4 1278.96  486.82   1-0.58205-0.03678-0.04587-0.00525 0.81185-0.99930
  -6   1  -4 1357.12  301.87   1-0.58884-0.02999-0.05677 0.10791 0.80625-0.99370
  -6  -1  -5 4441.87 1492.01   1-0.63345 0.01420-0.13346 0.08233 0.76218-0.99650
  -6   1  -5 3943.28  490.08   1-0.65005 0.03227-0.16696 0.21796 0.74131-0.97542
  -6  -1  -6 3925.88  506.55   1-0.67625 0.05796-0.22052 0.16952 0.70289-0.98382
  -6   1  -6 4030.57 1291.52   1-0.69819 0.07999-0.27241 0.32342 0.66205-0.94286
  -6  -1  -7 1196.37  293.32   1-0.70997 0.09112-0.30254 0.25153 0.63593-0.96354
  -6  -1  -8  725.53  222.62   1-0.73460 0.11512-0.37762 0.32661 0.56370-0.93812
  -6  -1  -9   20.52  109.32   1-0.74952 0.13412-0.44000 0.38943 0.49457-0.91123
  -6  -1 -10  280.95  209.91   1-0.75796 0.14185-0.49983 0.44926 0.41910-0.88206
   6  -2 -14  123.42  232.11   1-0.19883 0.80412-0.69395 0.59297-0.69201 0.04202
   6   2 -14  -61.16  201.75   1-0.07179 0.67737-0.62329 0.72425-0.77868 0.12892
   6  -2 -13 1099.70  379.42   1-0.19570 0.80123-0.69239 0.59140-0.69447 0.09091
   6   2 -13 1345.33  367.05   1-0.06478 0.67058-0.61882 0.71978-0.78285 0.17950
   6  -2 -12   67.62  175.83   1-0.19015 0.79592-0.68958 0.58859-0.69879 0.14166
   6   2 -12  317.98  272.24   1-0.05517 0.66121-0.61262 0.71358-0.78844 0.23150
   6  -2 -11 2720.35  451.12   1-0.18187 0.78787-0.68532 0.58433-0.70516 0.19445
   6   2 -11 2899.35  437.40   1-0.04272 0.64898-0.60445 0.70541-0.79549 0.28496
   6  -2 -10   61.74  167.72   1-0.17048 0.77670-0.67933 0.57834-0.71374 0.24947
   6   2 -10   70.04  165.02   1-0.02714 0.63364-0.59400 0.69496-0.80400 0.33988
   6  -2  -9  321.03  243.87   1-0.15552 0.76198-0.67126 0.57027-0.72471 0.30686
   6   2  -9  202.74  254.10   1-0.00813 0.61485-0.58092 0.68188-0.81391 0.39621
   6  -2  -8  200.72  244.73   1-0.13571 0.74266-0.66168 0.56072-0.73739 0.36610
   6   2  -8 -140.39  163.09   1 0.01522 0.59074-0.56692 0.66764-0.82362 0.45306
   6  -2  -7  837.45  445.12   1-0.11197 0.71915-0.64791 0.54695-0.75343 0.42855
   6   2  -7 1493.56  342.13   1 0.04204 0.56418-0.54728 0.64801-0.83588 0.51164
   6  -2  -6  689.34  425.76   1-0.08275 0.69016-0.63017 0.52921-0.77202 0.49355
   6   2  -6  465.35  279.03   1 0.07324 0.53324-0.52352 0.62425-0.84885 0.57092
   6  -2  -5 7027.17  443.57   1-0.04724 0.65488-0.60743 0.50647-0.79296 0.56090
   6   2  -5 6570.82  478.85   1 0.10906 0.49767-0.49501 0.59573-0.86201 0.63040
   6  -2  -4 6260.63  957.84   1-0.00470 0.61170-0.58105 0.48032-0.81385 0.62856
   6   2  -4 7133.96 1096.61   1 0.15067 0.45679-0.46264 0.56333-0.87364 0.68846
   6  -2  -323209.64  732.94   1 0.04591 0.56133-0.54439 0.44366-0.83757 0.69861
   6   2  -322635.74  804.99   1 0.19589 0.41179-0.42277 0.52346-0.88480 0.74592
   6  -2  -223970.21  726.14   1 0.10534 0.50217-0.49804 0.39731-0.86072 0.76808
  -6  -2   115437.37  702.94   1-0.30026-0.31589 0.30413-0.40637 0.90407-0.85736
   6  -2  -113723.87  530.52   1 0.17393 0.43419-0.44241 0.34171-0.87978 0.83348
  -6  -2   015631.41 1401.94   1-0.35715-0.25951 0.24334-0.34559 0.90178-0.90178
  -6   2  -126783.77 1519.26   1-0.34454-0.27263 0.25720-0.15496 0.90284-0.94955
  -6  -2  -128414.69 1783.43   1-0.41553-0.20164 0.17614-0.27838 0.89235-0.93906
  -6   2  -2  100.26   80.01   1-0.43301-0.18468 0.15496-0.05272 0.88796-0.98138
  -6  -2  -2   67.34   86.23   1-0.47434-0.14381 0.10751-0.20993 0.87374-0.96708
  -6   2  -3  110.04   89.57   1-0.51893-0.09949 0.04722 0.05519 0.85350-0.99350
  -6  -2  -3  341.20  190.20   1-0.53043-0.08799 0.03089-0.13332 0.84716-0.98715
  -6  -2  -4  821.58  305.55   1-0.58374-0.03509-0.04856-0.05369 0.81048-0.99794
  -6   2  -4  707.84  268.54   1-0.59993-0.01890-0.07500 0.17726 0.79652-0.98398
  -6  -2  -5  723.62  367.91   1-0.63074 0.01150-0.12853 0.02626 0.76526-0.99958
  -6  -2  -6 1858.76  296.05   1-0.67053 0.05225-0.20832 0.10631 0.71202-0.99295
  -6  -2  -7 1317.69  324.86   1-0.70290 0.08406-0.28415 0.18213 0.65205-0.97967
  -6  -2  -8   73.95  127.86   1-0.72776 0.10828-0.35448 0.25246 0.58710-0.96152
  -6  -2  -9  462.41  235.74   1-0.74400 0.12860-0.41414 0.31300 0.52434-0.94100
  -6  -2 -10  912.75  405.72   1-0.75486 0.13875-0.47215 0.37102 0.45524-0.91819
  -6  -2 -11   86.22  125.46   1-0.76007 0.14546-0.52645 0.42526 0.38096-0.89330
   6  -3 -14 2855.94  501.32   1-0.22590 0.83120-0.70709 0.55560-0.67006 0.02007
   6   3 -14 2457.79  490.88   1-0.03667 0.64224-0.60041 0.75186-0.79884 0.14908
   6  -3 -13  446.99  332.52   1-0.22377 0.82930-0.70609 0.55460-0.67183 0.06827
   6   3 -13  708.74  312.91   1-0.02880 0.63461-0.59512 0.74656-0.80311 0.19976
   6  -3 -12   34.13  178.09   1-0.21931 0.82507-0.70396 0.55248-0.67552 0.11839
   6   3 -12  226.73  265.41   1-0.01835 0.62439-0.58800 0.73944-0.80865 0.25171
   6  -3 -11  484.18  276.94   1-0.21218 0.81818-0.70054 0.54905-0.68133 0.17063
   6   3 -11    9.59  164.40   1-0.00510 0.61136-0.57880 0.73024-0.81545 0.30492
   6  -3 -10 1028.46  447.58   1-0.20202 0.80825-0.69555 0.54406-0.68948 0.22521
   6   3 -10  424.63  232.49   1 0.01192 0.59353-0.56929 0.72038-0.82204 0.35883
   6  -3  -9  310.03  276.84   1-0.18835 0.79481-0.68865 0.53717-0.70019 0.28234
   6   3  -9 -280.02  166.86   1 0.03153 0.57418-0.55507 0.70615-0.83120 0.41431
   6  -3  -8 1108.69  300.52   1-0.17059 0.77728-0.67939 0.52791-0.71366 0.34224
   6   3  -8  895.91  330.18   1 0.05471 0.55125-0.53775 0.68884-0.84132 0.47075
   6  -3  -7  794.62  244.30   1-0.14806 0.75498-0.66715 0.51567-0.73005 0.40506
   6   3  -7  420.21  267.43   1 0.08171 0.52451-0.51690 0.66799-0.85213 0.52788
   6  -3  -612972.53  544.86   1-0.11937 0.72678-0.65227 0.50083-0.74852 0.47005
   6   3  -613910.17  638.05   1 0.11272 0.49375-0.49202 0.64311-0.86324 0.58532
   6  -3  -5 6597.44  413.33   1-0.08473 0.69237-0.63140 0.47996-0.77080 0.53874
   6   3  -5 7241.80  507.35   1 0.14909 0.45815-0.46399 0.61504-0.87319 0.64172
   6  -3  -4 2484.91  434.82   1-0.04239 0.65026-0.60423 0.45279-0.79567 0.61003
   6   3  -4 2437.39  461.69   1 0.18833 0.41913-0.42959 0.58064-0.88316 0.69798
   6  -3  -3  885.45  359.92   1 0.00832 0.59892-0.57186 0.42077-0.82030 0.68134
   6  -3  -217692.15  609.67   1 0.06946 0.53805-0.52645 0.37537-0.84735 0.75471
  -6  -3   1  485.96  269.93   1-0.32870-0.28745 0.27429-0.42765 0.90372-0.85701
   6  -3  -1  234.41  168.97   1 0.14141 0.46672-0.47053 0.31949-0.87097 0.82468
  -6  -3   0  -84.43  136.11   1-0.38120-0.23546 0.21630-0.36967 0.89883-0.89883
  -6   3  -1 1593.92  290.00   1-0.32998-0.28719 0.27292-0.11955 0.90367-0.95038
  -6  -3  -1 1488.26  545.66   1-0.43460-0.18257 0.15301-0.30637 0.88752-0.93423
  -6   3  -211415.84 1042.79   1-0.42995-0.18773 0.15870-0.00533 0.88879-0.98220
  -6  -3  -214743.56 1567.77   1-0.48839-0.12975 0.08899-0.24262 0.86807-0.96140
  -6  -3  -3 2339.54  446.37   1-0.53925-0.07917 0.01815-0.17178 0.84195-0.98194
  -6  -3  -411765.03 1527.19   1-0.58771-0.03112-0.05495-0.09844 0.80720-0.99465
  -6  -3  -5  186.20  127.30   1-0.63071 0.01147-0.12847-0.02492 0.76530-0.99962
  -6  -3  -6 1181.60  274.21   1-0.66752 0.04924-0.20202 0.04901 0.71665-0.99758
  -6  -3  -7  190.32  177.48   1-0.69853 0.07975-0.27174 0.11873 0.66196-0.98971
  -6  -3  -8  404.22  192.03   1-0.72258 0.10309-0.33831 0.18529 0.60284-0.97726
  -6  -3  -9    3.34  126.30   1-0.74044 0.12031-0.39965 0.24663 0.54038-0.96161
  -6  -3 -10 1015.72  301.83   1-0.75152 0.13541-0.45086 0.29916 0.48158-0.94454
  -6  -3 -11 2419.61  401.89   1-0.75810 0.14129-0.50150 0.34979 0.41685-0.92610
  -6  -3 -12  415.10  268.67   1-0.76004 0.14494-0.54940 0.39762 0.34711-0.90602
   6  -4 -14  372.48  306.56   1-0.25097 0.85627-0.71850 0.51652-0.64866-0.00132
   6   4 -14   41.54  190.65   1 0.00029 0.60414-0.57754 0.77899-0.81635 0.16786
   6  -4 -13   70.96  191.82   1-0.24981 0.85534-0.71798 0.51600-0.64968 0.04612
   6   4 -13 -218.51  186.55   1 0.00892 0.59576-0.57143 0.77288-0.82059 0.21842
   6  -4 -12  189.44  271.14   1-0.24639 0.85215-0.71647 0.51449-0.65265 0.09552
   6   4 -12  399.71  298.01   1 0.02010 0.58484-0.56341 0.76485-0.82593 0.27008
   6  -4 -11 1641.66  371.84   1-0.24041 0.84641-0.71378 0.51180-0.65780 0.14710
   6   4 -11 1334.35  353.54   1 0.03402 0.57118-0.55323 0.75468-0.83232 0.32279
   6  -4 -10 1481.47  323.85   1-0.23149 0.83771-0.70969 0.50772-0.66538 0.20110
   6   4 -10 2094.47  393.86   1 0.05089 0.55456-0.54064 0.74209-0.83970 0.37649
   6  -4  -9  330.49  274.84   1-0.21914 0.82560-0.70388 0.50191-0.67565 0.25781
   6   4  -9  141.65  196.50   1 0.07093 0.53478-0.52532 0.72677-0.84794 0.43105
   6  -4  -8  133.61  210.69   1-0.20277 0.80946-0.69592 0.49394-0.68889 0.31747
   6   4  -8  112.48  185.83   1 0.09432 0.51164-0.50690 0.70835-0.85682 0.48625
   6  -4  -7  722.12  231.02   1-0.18163 0.78856-0.68519 0.48321-0.70534 0.38035
   6   4  -7  778.53  308.70   1 0.12125 0.48498-0.48501 0.68646-0.86605 0.54181
   6  -4  -6 1686.83  316.39   1-0.15483 0.76198-0.67088 0.46891-0.72521 0.44664
   6   4  -6 1427.49  318.52   1 0.15317 0.45385-0.46050 0.66189-0.87434 0.59657
   6  -4  -5  127.58  153.14   1-0.12084 0.72848-0.65313 0.45121-0.74753 0.51547
   6   4  -5  197.57  195.31   1 0.18734 0.41990-0.43048 0.63187-0.88294 0.65146
   6  -4  -4 6218.70  397.33   1-0.07922 0.68709-0.62797 0.42605-0.77419 0.58854
   6  -4  -341720.63  810.37   1-0.02790 0.63599-0.59451 0.39259-0.80360 0.66436
  -6  -4   2 4899.29  829.28   1-0.30951-0.30613 0.29454-0.49902 0.90412-0.81071
   6  -4  -2 3124.46  535.87   1 0.03380 0.57370-0.55339 0.35195-0.83223 0.73958
   6  -4  -1  371.66  187.99   1 0.10932 0.49844-0.49480 0.29335-0.86209 0.81577
  -6  -4   0  242.84  125.87   1-0.40485-0.21181 0.18884-0.39332 0.89466-0.89466
   6  -4   0   -5.30   82.01   1 0.19826 0.41008-0.42062 0.21922-0.88530 0.88530
  -6  -4  -1  228.58  122.05   1-0.45374-0.16343 0.12912-0.33361 0.88172-0.92843
  -6  -4  -2 2290.82  481.31   1-0.50306-0.11509 0.06920-0.27404 0.86147-0.95480
  -6  -4  -3 2566.85  482.07   1-0.54927-0.06915 0.00338-0.20822 0.83563-0.97563
  -6  -4  -4  288.45  205.10   1-0.59341-0.02542-0.06423-0.14029 0.80232-0.98978
  -6  -4  -5 1042.94  189.80   1-0.63276 0.01352-0.13221-0.07231 0.76297-0.99728
  -6  -4  -6  505.13  325.39   1-0.66671 0.04842-0.20032-0.00368 0.71788-0.99881
  -6  -4  -7  155.40  224.11   1-0.69586 0.07708-0.26525 0.06123 0.66738-0.99514
  -6  -4  -8  251.79  171.70   1-0.71899 0.09951-0.32770 0.12366 0.61290-0.98732
  -6  -4  -9 3464.58  452.94   1-0.73684 0.11672-0.38580 0.18176 0.55516-0.97638
  -6  -4 -10  625.83  339.08   1-0.74852 0.13241-0.43492 0.23265 0.50054-0.96350
  -6  -4 -11  320.99  172.34   1-0.75637 0.13955-0.48401 0.28174 0.44003-0.94928
  -6  -4 -12    4.40  146.12   1-0.76016 0.14507-0.53106 0.32869 0.37431-0.93322
  -6  -4 -13  742.90  301.60   1-0.75875 0.14317-0.57132 0.36895 0.31286-0.91835
   6  -5 -13   60.91  186.53   1-0.27474 0.88037-0.72640 0.47357-0.62996 0.02573
   6   5 -13  130.28  215.90   1 0.04666 0.55802-0.54383 0.79564-0.83789 0.23572
   6  -5 -12 1608.83  349.70   1-0.27229 0.87814-0.72538 0.47255-0.63219 0.07444
   6   5 -12 1242.09  352.16   1 0.05844 0.54650-0.53492 0.78673-0.84287 0.28702
   6  -5 -11 2462.83  421.00   1-0.26643 0.87242-0.72516 0.47268-0.63494 0.12423
   6   5 -11 2170.10  385.75   1 0.07287 0.53232-0.52381 0.77561-0.84871 0.33918
   6  -5 -10   77.61  180.69   1-0.25872 0.86494-0.72187 0.46940-0.64184 0.17756
   6   5 -10  359.94  263.58   1 0.09014 0.51531-0.51023 0.76204-0.85529 0.39208
   6  -5  -9   80.47  176.84   1-0.24768 0.85414-0.71704 0.46457-0.65153 0.23368
   6   5  -9   59.57  171.69   1 0.11040 0.49531-0.49392 0.74573-0.86246 0.44557
   6  -5  -8  398.53  255.16   1-0.23272 0.83941-0.71026 0.45779-0.66434 0.29292
   6   5  -8  333.16  224.10   1 0.13533 0.47125-0.47566 0.72740-0.86915 0.49879
   6  -5  -7   54.64  142.01   1-0.21306 0.81998-0.70096 0.44849-0.68062 0.35563
   6   5  -7   42.51  173.63   1 0.16188 0.44492-0.45297 0.70471-0.87670 0.55264
   6  -5  -6 2504.01  364.65   1-0.18772 0.79488-0.68833 0.43586-0.70067 0.42211
   6   5  -6 1412.98  328.08   1 0.19170 0.41532-0.42656 0.67830-0.88390 0.60614
   6  -5  -5 5414.79  385.62   1-0.15547 0.76286-0.67124 0.41877-0.72474 0.49260
   6  -5  -4 1158.60  222.09   1-0.11456 0.72243-0.64945 0.39705-0.75172 0.56607
  -6  -5   3 2525.98  428.27   1-0.29803-0.31710 0.30642-0.56203 0.90403-0.76391
   6  -5  -3 2355.33  356.38   1-0.06357 0.67167-0.61805 0.36565-0.78355 0.64432
  -6  -5   212389.78  689.50   1-0.33983-0.27580 0.26231-0.51792 0.90316-0.80974
   6  -5  -210119.28  443.66   1-0.00119 0.60870-0.57859 0.32678-0.81561 0.72297
  -6  -5   1  326.07  216.92   1-0.38343-0.23272 0.21375-0.46936 0.89849-0.85178
   6  -5  -1  610.34  358.43   1 0.07744 0.53032-0.52025 0.26844-0.85049 0.80417
  -6  -5   0   56.09  122.65   1-0.42805-0.18861 0.16102-0.41663 0.88929-0.88929
   6  -5   0  286.22  194.64   1 0.17275 0.43559-0.44345 0.19171-0.87949 0.87949
  -6  -5  -1   83.07  155.86   1-0.47431-0.14356 0.10754-0.36360 0.87375-0.92042
  -6  -5  -2 8705.89  949.13   1-0.51812-0.10003 0.04836-0.30442 0.85393-0.94727
  -6  -5  -3  111.36   85.95   1-0.56017-0.05824-0.01302-0.24303 0.82826-0.96826
  -6  -5  -4   82.41  109.04   1-0.60043-0.01840-0.07583-0.17983 0.79607-0.98352
  -6  -5  -5 3238.78  559.35   1-0.63644 0.01719-0.13897-0.11669 0.75870-0.99301
  -6  -5  -6 1154.59  335.76   1-0.66765 0.04937-0.20229-0.05272 0.71645-0.99738
  -6  -5  -7  407.63  246.67   1-0.69490 0.07612-0.26292 0.00790 0.66931-0.99706
  -6  -5  -8  387.94  289.30   1-0.71687 0.09739-0.32159 0.06654 0.61859-0.99301
  -6  -5  -9   78.71  156.80   1-0.73431 0.11418-0.37658 0.12153 0.56477-0.98599
  -6  -5 -10 2307.24  412.73   1-0.74612 0.13001-0.42349 0.17065 0.51375-0.97671
  -6  -5 -11  187.77  170.67   1-0.75468 0.13786-0.47083 0.21799 0.45691-0.96616
  -6  -5 -12 -104.09  159.15   1-0.75898 0.14146-0.51434 0.26150 0.39923-0.95477
  -6  -5 -13  379.48  313.45   1-0.75977 0.14419-0.55640 0.30344 0.33638-0.94187
   6  -6 -13 -126.72  178.49   1-0.29638 0.90201-0.73506 0.43166-0.60978 0.00556
   6   6 -13  -15.41  193.52   1 0.08492 0.51976-0.51437 0.81654-0.85334 0.25117
   6  -6 -12 1766.36  402.39   1-0.29487 0.90072-0.73447 0.43108-0.61122 0.05347
   6   6 -12 2857.69  472.86   1 0.09715 0.50779-0.50464 0.80681-0.85784 0.30199
   6  -6 -11  180.38  255.71   1-0.29099 0.89707-0.73296 0.42956-0.61489 0.10362
   6   6 -11  698.01  333.60   1 0.11194 0.49325-0.49266 0.79483-0.86298 0.35345
   6  -6 -10  308.26  251.62   1-0.28436 0.89067-0.73032 0.42693-0.62109 0.15630
   6   6 -10   64.49  175.29   1 0.13113 0.47501-0.47919 0.78128-0.86786 0.40491
   6  -6  -9  591.92  316.62   1-0.27452 0.88105-0.72631 0.42291-0.63015 0.21184
   6   6  -9  824.06  375.26   1 0.15135 0.45501-0.46206 0.76415-0.87383 0.45718
   6  -6  -8  792.64  347.19   1-0.26024 0.86693-0.72252 0.41956-0.64049 0.26906
   6   6  -8 1628.31  343.92   1 0.17445 0.43213-0.44195 0.74405-0.87990 0.50955
   6  -6  -7  803.08  233.99   1-0.24207 0.84899-0.71453 0.41156-0.65638 0.33139
   6   6  -7 1125.41  337.11   1 0.20049 0.40631-0.41859 0.72068-0.88576 0.56170
   6  -6  -6  159.75  184.22   1-0.21828 0.82543-0.70347 0.40051-0.67636 0.39780
   6  -6  -5  -23.11  119.52   1-0.18752 0.79491-0.68823 0.38526-0.70083 0.46869
  -6  -6   4 1284.39  408.60   1-0.29298-0.32163 0.31160-0.61833 0.90391-0.71708
   6  -6  -4  983.89  265.44   1-0.14806 0.75568-0.66715 0.36418-0.73005 0.54434
  -6  -6   3 -132.02  187.26   1-0.33015-0.28498 0.27274-0.57947 0.90366-0.76354
   6  -6  -3  193.59  166.69   1-0.09766 0.70575-0.63933 0.33645-0.76269 0.62346
  -6  -6   2 3827.62  583.96   1-0.36922-0.24642 0.22988-0.53661 0.90045-0.80704
   6  -6  -2 3220.38  393.48   1-0.03337 0.64169-0.59820 0.29532-0.80064 0.70782
   6  -6  -1  443.78  274.14   1 0.04645 0.56131-0.54399 0.24182-0.83780 0.79148
  -6  -6   035626.58 1499.56   1-0.45073-0.16593 0.13292-0.43965 0.88270-0.88270
  -6  -6  -1  234.68  162.07   1-0.49341-0.12446 0.08227-0.38954 0.86589-0.91255
  -6  -6  -2  486.96  286.78   1-0.53338-0.08476 0.02665-0.33391 0.84545-0.93878
  -6  -6  -3  301.75  279.41   1-0.57238-0.04604-0.03062-0.27617 0.81941-0.96000
  -6  -6  -4 5509.21  842.72   1-0.60844-0.01039-0.08932-0.21747 0.78855-0.97601
  -6  -6  -5 1715.50  386.63   1-0.64138 0.02213-0.14818-0.15861 0.75277-0.98709
  -6  -6  -6 2817.03  464.03   1-0.67001 0.05173-0.20723-0.09879 0.71283-0.99376
  -6  -6  -7  459.17  297.65   1-0.69534 0.07656-0.26400-0.04202 0.66842-0.99617
  -6  -6  -8 2850.41  468.22   1-0.71602 0.09654-0.31919 0.01313 0.62082-0.99524
  -6  -6  -9  331.68  262.15   1-0.73278 0.11266-0.37123 0.06517 0.57027-0.99149
  -6  -6 -10 1781.61  425.14   1-0.74441 0.12830-0.41589 0.11248 0.52237-0.98533
  -6  -6 -11  -69.30  165.37   1-0.75327 0.13646-0.46139 0.15798 0.46871-0.97796
  -6  -6 -12  996.65  331.61   1-0.75827 0.14075-0.50357 0.20016 0.41405-0.96959
  -6  -6 -13  -30.37  178.59   1-0.76015 0.14457-0.54473 0.24117 0.35416-0.95965
   6  -7 -12  139.64  180.09   1-0.31512 0.92098-0.74208 0.38811-0.59161 0.03386
   6   7 -12  318.18  299.14   1 0.13784 0.46786-0.47355 0.82599-0.86991 0.31437
   6  -7 -11 -194.97  152.85   1-0.31221 0.91829-0.74101 0.38705-0.59448 0.08321
   6   7 -11  438.99  332.19   1 0.15277 0.45315-0.46084 0.81328-0.87423 0.36499
   6  -7 -10  318.74  177.07   1-0.30666 0.91297-0.73896 0.38500-0.59989 0.13511
   6   7 -10  596.31  363.55   1 0.17023 0.43591-0.44567 0.79811-0.87885 0.41591
   6  -7  -9  -38.58  144.21   1-0.29802 0.90455-0.73569 0.38173-0.60822 0.18991
   6   7  -9  346.04  276.72   1 0.19029 0.41607-0.42783 0.78028-0.88359 0.46694
   6  -7  -8  186.38  171.92   1-0.28567 0.89242-0.73085 0.37689-0.61987 0.24804
   6   7  -8 -204.27  165.63   1 0.21299 0.39359-0.40710 0.75955-0.88819 0.51784
   6  -7  -7   92.45  140.86   1-0.26844 0.87536-0.72600 0.37254-0.63313 0.30813
   6  -7  -6  917.58  383.45   1-0.24620 0.85335-0.71638 0.36292-0.65282 0.37425
  -6  -7   5 2582.37  582.35   1-0.29333-0.32077 0.31124-0.66909 0.90392-0.67038
   6  -7  -5 2223.89  961.80   1-0.21702 0.82441-0.70287 0.34941-0.67739 0.44525
  -6  -7   4 2433.07  543.48   1-0.32632-0.28829 0.27683-0.63468 0.90381-0.71698
   6  -7  -4 1524.32  314.23   1-0.17898 0.78660-0.68381 0.33035-0.70736 0.52165
  -6  -7   3 5197.07  825.98   1-0.36122-0.25390 0.23883-0.59668 0.90137-0.76125
   6  -7  -3 4215.75  378.74   1-0.12963 0.73772-0.65821 0.30485-0.74158 0.60235
  -6  -7   2  633.79  239.82   1-0.39763-0.21800 0.19731-0.55516 0.89607-0.80266
   6  -7  -2  181.71  136.22   1-0.06514 0.67347-0.61906 0.26570-0.78263 0.68981
  -6  -7   1  196.10  264.81   1-0.43504-0.18111 0.15246-0.51031 0.88740-0.84069
  -6  -7   0  -16.84  186.10   1-0.47485-0.14275 0.10684-0.46532 0.87355-0.87355
  -6  -7  -2 6822.03  970.00   1-0.54872-0.06943 0.00420-0.36267 0.83599-0.92932
  -6  -7  -3 2072.51  405.44   1-0.58429-0.03413-0.04945-0.30847 0.81002-0.95062
  -6  -7  -4  619.88  219.88   1-0.61717-0.00165-0.10438-0.25354 0.77986-0.96732
  -6  -7  -5 8554.95  985.41   1-0.64729 0.02805-0.15942-0.19850 0.74537-0.97969
  -6  -7  -6 1536.60  380.48   1-0.67350 0.05522-0.21462-0.14240 0.70733-0.98826
  -6  -7  -7  344.05  285.33   1-0.69695 0.07817-0.26788-0.08913 0.66519-0.99294
  -6  -7  -8  -16.90  197.34   1-0.71627 0.09678-0.31987-0.03718 0.62019-0.99460
  -6  -7  -9  364.17  226.78   1-0.73217 0.11205-0.36914 0.01207 0.57240-0.99362
  -6  -7 -10 1141.36  269.24   1-0.74340 0.12729-0.41155 0.05758 0.52723-0.99019
  -6  -7 -11  945.80  339.44   1-0.75226 0.13545-0.45517 0.10120 0.47635-0.98560
  -6  -7 -12  156.78  197.48   1-0.75761 0.14010-0.49591 0.14193 0.42436-0.97991
   6  -8 -12  289.47  319.89   1-0.33304 0.93889-0.74835 0.34382-0.57362 0.01588
   6   8 -12  594.28  296.43   1 0.17664 0.42906-0.44002 0.84281-0.88044 0.32490
   6  -8 -11  333.90  276.74   1-0.33099 0.93707-0.74765 0.34313-0.57571 0.06444
   6   8 -11   45.43  198.13   1 0.19160 0.41432-0.42665 0.82944-0.88388 0.37464
   6  -8 -10 3219.96  467.24   1-0.32642 0.93272-0.74608 0.34155-0.58034 0.11555
   6   8 -10 3896.74  593.18   1 0.20893 0.39721-0.41085 0.81365-0.88743 0.42449
   6  -8  -9  329.58  209.41   1-0.31888 0.92541-0.74343 0.33890-0.58789 0.16958
   6  -8  -8  458.54  227.22   1-0.30776 0.91451-0.73938 0.33485-0.59882 0.22699
   6  -8  -7   84.51  130.82   1-0.29228 0.89926-0.73346 0.32894-0.61367 0.28831
  -6  -8   6   15.33  197.37   1-0.29826-0.31532 0.30618-0.71515 0.90403-0.62379
   6  -8  -6  258.58  236.08   1-0.27126 0.87841-0.72718 0.32322-0.63057 0.35200
  -6  -8   5 1087.63  465.94   1-0.32748-0.28662 0.27559-0.68456 0.90377-0.67023
   6  -8  -5  540.29  241.10   1-0.24364 0.85103-0.71524 0.31128-0.65503 0.42289
  -6  -8   4 3053.30  430.67   1-0.35857-0.25604 0.24177-0.65075 0.90164-0.71481
   6  -8  -4 1606.95  230.13   1-0.20710 0.81472-0.69806 0.29410-0.68543 0.49972
  -6  -8   3  520.88  286.94   1-0.39123-0.22389 0.20476-0.61373 0.89722-0.75709
   6  -8  -3  318.58  174.32   1-0.15866 0.76651-0.67298 0.26902-0.72244 0.58315
  -6  -8   2  161.05  166.53   1-0.42507-0.19057 0.16465-0.57362 0.89005-0.79664
  -6  -8   1   24.55  149.26   1-0.45962-0.15652 0.12164-0.53061 0.87974-0.83303
  -6  -8   0  -89.53  183.26   1-0.49650-0.12110 0.07811-0.48780 0.86451-0.86451
  -6  -8  -1  456.98  217.81   1-0.53071-0.08716 0.03049-0.44018 0.84700-0.89366
  -6  -8  -211363.39 1354.58   1-0.56401-0.05414-0.01888-0.39080 0.82554-0.91887
  -6  -8  -3 2447.80  360.07   1-0.59646-0.02196-0.06925-0.33981 0.79964-0.94023
  -6  -8  -4  339.17  226.70   1-0.62644 0.00760-0.12076-0.28829 0.77005-0.95751
  -6  -8  -5 4352.30  568.95   1-0.65313 0.03534-0.17295-0.23507 0.73722-0.97133
  -6  -8  -6  152.47  186.61   1-0.67788 0.05959-0.22406-0.18396 0.70019-0.98112
  -6  -8  -7  263.70  267.67   1-0.69951 0.08073-0.27413-0.13389 0.65994-0.98770
  -6  -8  -8 4830.37  517.73   1-0.71742 0.09794-0.32316-0.08491 0.61714-0.99156
  -6  -8  -9 2290.32  404.12   1-0.73237 0.11225-0.36981-0.03826 0.57172-0.99294
  -6  -8 -10  274.70  216.97   1-0.74303 0.12692-0.41002 0.00548 0.52894-0.99189
  -6  -8 -11  172.28  205.65   1-0.75168 0.13487-0.45177 0.04723 0.48048-0.98973
   6  -9 -11   90.82  177.23   1-0.34731 0.95339-0.75303 0.29794-0.55884 0.04757
   6  -9 -10  134.58  181.64   1-0.34361 0.94991-0.75185 0.29675-0.56271 0.09792
   6  -9  -9  486.60  281.79   1-0.33705 0.94358-0.74969 0.29460-0.56951 0.15120
   6  -9  -8  105.53  133.47   1-0.32704 0.93379-0.74630 0.29120-0.57971 0.20788
  -6  -9   7  122.66  190.12   1-0.30711-0.30596 0.29703-0.75713 0.90412-0.57717
   6  -9  -7  290.57  212.72   1-0.31281 0.91978-0.74123 0.28614-0.59389 0.26854
  -6  -9   6  995.82  394.62   1-0.33291-0.28068 0.26978-0.72987 0.90354-0.62329
   6  -9  -6  759.86  350.76   1-0.29325 0.90045-0.73384 0.27875-0.61275 0.33387
   6  -9  -5 6173.68  528.66   1-0.26715 0.87454-0.72546 0.27101-0.63429 0.40215
  -6  -9   4  747.83  328.17   1-0.38970-0.22491 0.20653-0.66662 0.89748-0.71065
  -6  -9   1 3812.50  561.55   1-0.48580-0.13153 0.09244-0.55334 0.86916-0.82249
  -6  -9   0   28.08  126.50   1-0.51751-0.10010 0.04921-0.51011 0.85425-0.85425
  -6  -9  -1 5072.61  784.80   1-0.54879-0.06909 0.00409-0.46499 0.83594-0.88261
  -6  -9  -2 6666.08  864.05   1-0.57961-0.03841-0.04198-0.41820 0.81381-0.90753
  -6  -9  -3  464.03  197.41   1-0.60875-0.00968-0.08985-0.37033 0.78825-0.92884
  -6  -9  -4 9442.44 1103.70   1-0.63606 0.01722-0.13826-0.32193 0.75915-0.94660
  -6  -9  -5  203.22  202.35   1-0.66029 0.04250-0.18720-0.27182 0.72729-0.96140
  -6  -9  -6  334.59  211.15   1-0.68293 0.06465-0.23524-0.22379 0.69155-0.97249
  -6  -9  -7  841.34  467.95   1-0.70281 0.08403-0.28238-0.17665 0.65292-0.98067
  -6  -9  -8  -90.30  201.49   1-0.71932 0.09984-0.32866-0.13041 0.61199-0.98641
  -6  -9  -9   47.42  192.80   1-0.73325 0.11313-0.37285-0.08622 0.56860-0.98983
  -6  -9 -10 -171.66  183.23   1-0.74324 0.12714-0.41091-0.04418 0.52794-0.99089
   6 -10 -10   47.87  152.78   1-0.35822 0.96452-0.75642 0.25076-0.54726 0.08247
  -6 -10   9  618.07  375.76   1-0.29850-0.31355 0.30594-0.81715 0.90404-0.48367
   6 -10  -9  706.81  319.11   1-0.35251 0.95903-0.75467 0.24901-0.55335 0.13504
  -6 -10   8  305.18  301.62   1-0.31933-0.29323 0.28423-0.79545 0.90401-0.53035
   6 -10  -8  234.98  207.61   1-0.34346 0.95022-0.75180 0.24614-0.56286 0.19103
  -6 -10   7 4105.99  641.72   1-0.34203-0.27105 0.25993-0.77115 0.90302-0.57606
   6 -10  -7 2700.92  347.19   1-0.33032 0.93729-0.74742 0.24176-0.57640 0.25104
  -6 -10   6  123.93  141.20   1-0.36645-0.24714 0.23299-0.74420 0.90079-0.62054
  -6 -10   5  210.81  147.45   1-0.39242-0.22168 0.20338-0.71459 0.89701-0.66347
  -6 -10   4 1604.21  265.68   1-0.41970-0.19491 0.17114-0.68236 0.89138-0.70455
  -6 -10   3 1295.84  515.21   1-0.44800-0.16712 0.13635-0.64757 0.88357-0.74344
  -6 -10   2  537.76  299.36   1-0.47968-0.13738 0.10052-0.61263 0.87166-0.77833
  -6 -10   1 8051.45  887.89   1-0.50880-0.10853 0.06132-0.57343 0.85869-0.81202
  -6 -10   0   45.65  237.82   1-0.53785-0.07975 0.02018-0.53229 0.84279-0.84279
  -6 -10  -1 4441.10  646.85   1-0.56642-0.05146-0.02258-0.48952 0.82380-0.87046
  -6 -10  -2  942.52  385.82   1-0.59452-0.02350-0.06605-0.44527 0.80135-0.89508
  -6 -10  -3  317.00  150.98   1-0.62104 0.00261-0.11116-0.40016 0.77585-0.91644
  -6 -10  -4 2308.11  300.80   1-0.64589 0.02705-0.15672-0.35460 0.74716-0.93462
  -6 -10  -5  655.84  353.18   1-0.66784 0.05005-0.20268-0.30735 0.71616-0.95027
  -6 -10  -6  132.23  179.80   1-0.68851 0.07022-0.24790-0.26213 0.68154-0.96247
  -6 -10  -7  261.42  236.41   1-0.70626 0.08742-0.29278-0.21730 0.64456-0.97217
  -6 -10  -8 7910.00  969.48   1-0.72183 0.10235-0.33607-0.17402 0.60498-0.97940
  -6 -10  -9  598.11  311.99   1-0.73469 0.11457-0.37794-0.13214 0.56336-0.98458
  -6 -11   8  261.07  218.88   1-0.35435-0.25821 0.24644-0.80878 0.90205-0.52839
  -6 -11   7  555.57  333.44   1-0.37585-0.23722 0.22239-0.78472 0.89959-0.57264
  -6 -11   6 1198.01  316.24   1-0.39885-0.21474 0.19589-0.75823 0.89584-0.61560
  -6 -11   5  -38.42  132.98   1-0.42315-0.19094 0.16697-0.72930 0.89053-0.65699
  -6 -11   4  350.63  234.62   1-0.44855-0.16606 0.13567-0.69800 0.88339-0.69656
  -6 -11   3  875.67  343.57   1-0.47769-0.13910 0.10313-0.66645 0.87244-0.73245
  -6 -11   2  538.90  238.85   1-0.50423-0.11284 0.06761-0.63093 0.86091-0.76758
  -6 -11   1   65.32  135.53   1-0.53095-0.08639 0.03015-0.59348 0.84686-0.80019
  -6 -11   0  -30.27  189.24   1-0.55751-0.06009-0.00898-0.55434 0.83011-0.83011
  -6 -11  -1 1291.20  303.03   1-0.58383-0.03379-0.04871-0.51374 0.81041-0.85727
  -6 -11  -2  273.29  151.48   1-0.60915-0.00887-0.09053-0.47192 0.78786-0.88159
  -6 -11  -3  498.44  234.33   1-0.63325 0.01481-0.13309-0.42936 0.76241-0.90300
  -6 -11  -4  670.12  396.97   1-0.65480 0.03751-0.17625-0.38478 0.73495-0.92224
  -6 -11  -5  419.10  366.56   1-0.67564 0.05786-0.21922-0.34181 0.70387-0.93798
  -6 -11  -6  902.50  346.33   1-0.69444 0.07616-0.26183-0.29920 0.67021-0.95114
  -6 -11  -7   47.72  215.67   1-0.71058 0.09174-0.30419-0.25690 0.63445-0.96207
  -6 -11  -8 2148.48  523.63   1-0.72480 0.10532-0.34512-0.21598 0.59628-0.97070
  -6 -12   6  586.92  365.05   1-0.43006-0.18352 0.15856-0.77202 0.88876-0.60851
  -6 -12   5  408.45  210.36   1-0.45271-0.16139 0.13042-0.74388 0.88206-0.64852
  -6 -12   3 3863.35  577.09   1-0.50341-0.11339 0.06873-0.68326 0.86130-0.72131
  -6 -12   2  440.65  260.41   1-0.52778-0.08928 0.03469-0.64922 0.84866-0.75533
  -6 -12   1 1108.34  290.03   1-0.55224-0.06510-0.00104-0.61348 0.83368-0.78701
  -6 -12   0  997.29  291.62   1-0.57659-0.04061-0.03722-0.57636 0.81617-0.81617
  -6 -12  -1  126.57  139.83   1-0.60044-0.01718-0.07584-0.53775 0.79606-0.84292
  -6 -12  -2  459.12  284.98   1-0.62343 0.00540-0.11539-0.49820 0.77331-0.86704
  -6 -12  -3  249.55  153.78   1-0.64528 0.02684-0.15556-0.45803 0.74793-0.88852
  -6 -12  -4  170.03  222.14   1-0.66469 0.04740-0.19617-0.41587 0.72089-0.90818
  -6 -12  -5  422.67  322.60   1-0.68358 0.06579-0.23668-0.37536 0.69043-0.92454
  -6 -12  -6  183.56  289.59   1-0.70061 0.08233-0.27688-0.33516 0.65762-0.93855
  -6 -13   3 1358.82  308.65   1-0.52803-0.08876 0.03433-0.70007 0.84852-0.70852
  -6 -13   2   -7.62  187.06   1-0.55035-0.06671 0.00177-0.66751 0.83492-0.74159
  -6 -13   1  860.52  240.85   1-0.57266-0.04415-0.03105-0.63367 0.81920-0.77233
  -6 -13   0  363.80  216.62   1-0.59484-0.02236-0.06658-0.59814 0.80107-0.80107
  -6 -13  -1 1962.72  428.04   1-0.61648-0.00113-0.10317-0.56155 0.78057-0.82744
  -6 -13  -2  178.23  205.03   1-0.63730 0.01928-0.14057-0.52415 0.75767-0.85140
  -6 -13  -3  767.01  294.85   1-0.65593 0.03913-0.17848-0.48456 0.73341-0.87387
   7   0 -12  459.16  272.46   1-0.05002 0.75751-0.60926 0.60926-0.79139 0.23445
   7   0 -11  190.57  225.64   1-0.03780 0.74553-0.60117 0.60117-0.79821 0.28769
   7   0 -10 6853.10  591.55   1-0.02257 0.73052-0.59088 0.59088-0.80643 0.34232
   7   0  -9  250.26  221.62   1-0.00372 0.71077-0.58036 0.58036-0.81434 0.39746
   7   0  -8 5883.70  630.43   1 0.01842 0.68888-0.56462 0.56462-0.82514 0.45457
   7   0  -7   -3.48  183.53   1 0.04453 0.66303-0.54543 0.54543-0.83697 0.51272
   7   0  -610099.28  836.22   1 0.07491 0.63290-0.52222 0.52222-0.84951 0.57158
   7   0  -5  148.37  230.00   1 0.10987 0.59820-0.49435 0.49435-0.86228 0.63068
   7   0  -4 1404.31  316.30   1 0.15041 0.55844-0.46286 0.46286-0.87357 0.68839
   7   0  -3    8.44  131.56   1 0.19488 0.51420-0.42369 0.42369-0.88459 0.74571
  -7   0   1   83.81  115.14   1-0.30224-0.41668 0.30208-0.30208 0.90409-0.85738
  -7   0   0  956.07  264.10   1-0.35972-0.35972 0.24050-0.24050 0.90153-0.90153
  -7   0  -1  229.88  138.33   1-0.41932-0.30063 0.17159-0.17159 0.89146-0.93817
  -7   0  -2 9805.75 1410.05   1-0.47942-0.24167 0.10087-0.10087 0.87176-0.96510
  -7   0  -3   16.18   92.73   1-0.53783-0.18352 0.02021-0.02021 0.84280-0.98280
  -7   0  -4   65.91  143.13   1-0.59356-0.12814-0.06447 0.06447 0.80220-0.98965
  -7   0  -5  115.27  102.14   1-0.64233-0.07800-0.15219 0.15219 0.75115-0.98526
   7  -1 -12  227.87  212.22   1-0.07940 0.78690-0.62808 0.57760-0.77408 0.21714
   7   1 -12  449.01  279.88   1-0.01938 0.72687-0.58870 0.63918-0.80811 0.25117
   7  -1 -11    2.54  184.11   1-0.06787 0.77560-0.62080 0.57032-0.78102 0.27049
   7   1 -11  697.10  311.59   1-0.00655 0.71427-0.57981 0.63029-0.81472 0.30419
   7   1 -10 1402.63  419.79   1 0.00964 0.69715-0.57092 0.62128-0.82094 0.35773
   7  -1 -10  910.24  429.51   1-0.05328 0.76123-0.61139 0.56091-0.78953 0.32541
   7  -1  -9  603.11  327.50   1-0.03528 0.74346-0.59948 0.54900-0.79960 0.38189
   7   1  -9  574.21  250.75   1 0.02860 0.67844-0.55721 0.60758-0.82987 0.41298
   7  -1  -8  -80.43  184.65   1-0.01350 0.72191-0.58465 0.53417-0.81117 0.43987
   7   1  -8  927.01  462.57   1 0.05104 0.65626-0.54053 0.59089-0.83977 0.46920
   7  -1  -7  258.10  224.36   1 0.01253 0.69502-0.56885 0.51849-0.82234 0.49809
   7   1  -7   39.11  159.95   1 0.07721 0.63035-0.52043 0.57079-0.85040 0.52615
   7  -1  -6 1045.16  490.89   1 0.04300 0.66481-0.54657 0.49621-0.83630 0.55838
   7   1  -6 -198.50  165.86   1 0.10735 0.60047-0.49641 0.54677-0.86142 0.58349
   7  -1  -5  402.81  170.97   1 0.07845 0.62963-0.51946 0.46910-0.85088 0.61927
   7   1  -5  158.16  173.63   1 0.14265 0.56598-0.46948 0.51983-0.87134 0.63986
   7  -1  -4  500.66  254.46   1 0.11922 0.58911-0.48669 0.43633-0.86539 0.68011
   7   1  -4  245.16  170.82   1 0.18110 0.52776-0.43606 0.48641-0.88150 0.69632
   7  -1  -3  185.50  192.20   1 0.16609 0.54298-0.44929 0.39894-0.87780 0.73892
  -7  -1   1  224.37  132.15   1-0.32394-0.39499 0.27935-0.33048 0.90389-0.85718
  -7   1   0  158.94  162.82   1-0.34315-0.37629 0.25871-0.20759 0.90294-0.90294
  -7  -1   0  282.29  151.28   1-0.37723-0.34221 0.22083-0.27195 0.89940-0.89940
  -7  -1  -1 1674.51  323.06   1-0.43202-0.28793 0.15617-0.20729 0.88823-0.93494
  -7   1  -1 1781.38  340.53   1-0.40817-0.31178 0.18491-0.13379 0.89397-0.94068
  -7  -1  -2 4105.24  796.68   1-0.48725-0.23384 0.09052-0.14173 0.86855-0.96188
  -7   1  -2 5478.94  875.43   1-0.47383-0.24725 0.10817-0.05696 0.87394-0.96727
  -7   1  -3   58.81   88.23   1-0.53821-0.18315 0.01966 0.03154 0.84258-0.98257
  -7  -1  -3   -2.85  152.26   1-0.54049-0.18086 0.01633-0.06754 0.84118-0.98118
  -7  -1  -4 2506.38  393.30   1-0.59150-0.13020-0.06111 0.00997 0.80398-0.99143
  -7  -1  -5  904.22  207.65   1-0.63696-0.08514-0.13993 0.08880 0.75808-0.99240
  -7  -1  -6 1398.78  289.90   1-0.67571-0.04511-0.21937 0.16837 0.70376-0.98469
  -7  -1  -7  194.10  141.42   1-0.70745-0.01377-0.29588 0.24487 0.64183-0.96945
   7  -2 -12  233.93  213.00   1-0.10737 0.81487-0.64518 0.54422-0.75644 0.19950
   7   2 -12   18.78  204.10   1 0.01284 0.69344-0.56863 0.66936-0.82248 0.26663
   7  -2 -11  850.65  335.25   1-0.09658 0.80431-0.63868 0.53772-0.76338 0.25285
   7   2 -11  720.23  371.19   1 0.02619 0.68034-0.55898 0.65970-0.82876 0.31923
   7  -2 -10  359.69  283.95   1-0.08270 0.79065-0.63014 0.52918-0.77206 0.30794
   7   2 -10  676.47  264.39   1 0.04240 0.66439-0.54702 0.64774-0.83604 0.37283
   7  -2  -9 1315.20  370.60   1-0.06534 0.77353-0.61918 0.51822-0.78251 0.36481
   7   2  -9  888.27  448.35   1 0.06169 0.64536-0.53244 0.63316-0.84421 0.42732
   7  -2  -8  228.45  213.94   1-0.04410 0.75251-0.60536 0.50440-0.79472 0.42343
   7   2  -8  429.24  288.64   1 0.08427 0.62303-0.51489 0.61561-0.85310 0.48253
   7  -2  -7 2622.57  396.60   1-0.01850 0.72714-0.58809 0.48713-0.80857 0.48369
   7   2  -7 4352.16  527.25   1 0.11034 0.59722-0.49397 0.59469-0.86244 0.53820
   7  -2  -6  500.27  298.08   1 0.01186 0.69596-0.56933 0.46861-0.82201 0.54409
   7   2  -6  563.44  298.64   1 0.14124 0.56717-0.47067 0.57137-0.87092 0.59315
   7  -2  -5  117.68  151.39   1 0.04762 0.66045-0.54311 0.44238-0.83830 0.60670
   7   2  -5  527.81  333.99   1 0.17463 0.53401-0.44180 0.54249-0.87995 0.64847
   7  -2  -4  -62.74  106.89   1 0.08927 0.61906-0.51093 0.41021-0.85497 0.66968
   7   2  -4   57.37  161.02   1 0.21179 0.49707-0.40821 0.50891-0.88797 0.70279
   7  -2  -3  191.28  165.20   1 0.13764 0.57143-0.47371 0.37302-0.86985 0.73096
   7  -2  -2   72.84  129.58   1 0.19192 0.51737-0.42636 0.32566-0.88395 0.79136
  -7  -2   1 7496.57  948.87   1-0.34596-0.37297 0.25565-0.35789 0.90274-0.85603
  -7   2   0 9588.33  737.82   1-0.32788-0.39156 0.27516-0.17292 0.90375-0.90375
  -7  -2   010016.20 1233.67   1-0.39540-0.32404 0.19992-0.30216 0.89648-0.89648
  -7   2  -1 7226.76 1040.12   1-0.39908-0.32086 0.19561-0.09337 0.89580-0.94250
  -7  -2  -110732.25 1414.32   1-0.44586-0.27409 0.13903-0.24128 0.88423-0.93094
  -7   2  -218573.19 1977.43   1-0.47126-0.24983 0.11152-0.00910 0.87491-0.96824
  -7  -2  -220262.01 1982.59   1-0.49678-0.22431 0.07774-0.18016 0.86438-0.95771
  -7  -2  -3 3991.22  531.67   1-0.54546-0.17589 0.00902-0.11144 0.83808-0.97808
  -7  -2  -4 1018.03  225.84   1-0.59226-0.12944-0.06234-0.03991 0.80332-0.99078
  -7  -2  -5 6899.39  937.52   1-0.63423-0.08787-0.13490 0.03263 0.76127-0.99559
  -7  -2  -6  468.83  312.73   1-0.67046-0.05037-0.20816 0.10615 0.71214-0.99307
  -7  -2  -7  360.97  220.31   1-0.70121-0.02012-0.27835 0.17634 0.65636-0.98412
  -7  -2  -8  -34.24  116.98   1-0.72511 0.00324-0.34610 0.24408 0.59532-0.96974
   7  -3 -12 1538.16  448.44   1-0.13376 0.84126-0.66057 0.50913-0.73874 0.18180
   7   3 -12 2082.64  471.21   1 0.04551 0.66077-0.54469 0.69578-0.83739 0.28154
   7  -3 -11  272.13  211.78   1-0.12375 0.83147-0.65482 0.50338-0.74558 0.23505
   7   3 -11   23.66  217.17   1 0.05929 0.64724-0.53427 0.68535-0.84322 0.33370
   7  -3 -10 1772.64  372.13   1-0.11063 0.81858-0.64712 0.49568-0.75431 0.29019
   7   3 -10 2012.56  420.99   1 0.07583 0.63096-0.52150 0.67259-0.84986 0.38666
   7  -3  -9  604.48  295.40   1-0.09399 0.80218-0.63710 0.48566-0.76502 0.34731
   7   3  -9  851.67  424.49   1 0.09531 0.61173-0.50611 0.65720-0.85718 0.44029
   7  -3  -8  322.83  261.83   1-0.07338 0.78180-0.62430 0.47286-0.77772 0.40643
   7   3  -8 -229.36  169.40   1 0.11789 0.58941-0.48778 0.63887-0.86496 0.49439
   7  -3  -7  -63.84  165.52   1-0.04825 0.75689-0.60810 0.45666-0.79238 0.46750
   7   3  -7    3.26  151.91   1 0.14502 0.56317-0.46746 0.61851-0.87203 0.54797
   7  -3  -6 2271.79  379.33   1-0.01799 0.72686-0.58775 0.43631-0.80883 0.53036
   7   3  -6 2887.26  447.20   1 0.17409 0.53432-0.44227 0.59331-0.87982 0.60205
   7  -3  -5  277.84  233.53   1 0.01766 0.69041-0.56516 0.41408-0.82478 0.59318
   7   3  -5    4.86  157.44   1 0.20654 0.50209-0.41305 0.56410-0.88697 0.65550
   7  -3  -4  590.61  200.90   1 0.06002 0.64830-0.53371 0.38262-0.84353 0.65824
   7  -3  -3  232.95  149.40   1 0.10947 0.59911-0.49468 0.34359-0.86215 0.72318
  -7  -3   210883.29  833.08   1-0.32379-0.39462 0.27951-0.43288 0.90389-0.81048
   7  -3  -2 8750.42  641.56   1 0.16659 0.54271-0.44886 0.29781-0.87793 0.78534
  -7  -3   1 1264.80  306.88   1-0.36813-0.35080 0.23110-0.38447 0.90059-0.85388
  -7  -3   0  -30.34  175.65   1-0.41400-0.30543 0.17797-0.33133 0.89270-0.89270
  -7   3  -1  357.07  168.53   1-0.39278-0.32717 0.20296-0.04960 0.89695-0.94366
  -7  -3  -1  162.23  189.31   1-0.46054-0.25941 0.12047-0.27383 0.87942-0.92613
  -7  -3  -2 6800.59 1006.84   1-0.50759-0.21349 0.06299-0.21662 0.85929-0.95262
  -7  -3  -3  347.29  173.93   1-0.55221-0.16915-0.00100-0.15263 0.83370-0.97370
  -7  -3  -4  -24.80  124.59   1-0.59520-0.12649-0.06717-0.08621 0.80075-0.98821
  -7  -3  -5  379.04  186.96   1-0.63395-0.08816-0.13438-0.01901 0.76160-0.99592
  -7  -3  -6 1036.48  456.76   1-0.66767-0.05316-0.20232 0.04930 0.71643-0.99736
  -7  -3  -7  665.35  366.11   1-0.69688-0.02444-0.26770 0.11469 0.66534-0.99309
  -7  -3  -8 1368.70  303.91   1-0.72020-0.00166-0.33124 0.17821 0.60957-0.98398
  -7  -3  -9   41.59  134.74   1-0.73814 0.01563-0.39069 0.23766 0.54999-0.97122
   7  -4 -11  181.71  305.80   1-0.14996 0.85738-0.66820 0.46622-0.72870 0.21799
   7   4 -11  625.65  314.61   1 0.09299 0.61355-0.50797 0.70942-0.85633 0.34680
   7  -4 -10  178.50  190.08   1-0.13689 0.84484-0.66235 0.46043-0.73658 0.27246
   7   4 -10 -180.06  167.21   1 0.10974 0.59705-0.49446 0.69591-0.86224 0.39903
   7  -4  -9 1295.28  311.74   1-0.12103 0.82921-0.65324 0.45132-0.74741 0.32970
   7   4  -9 1314.79  330.06   1 0.13077 0.57698-0.47948 0.68088-0.86774 0.45110
   7  -4  -8  147.77  175.07   1-0.10112 0.80954-0.64143 0.43951-0.76048 0.38918
   7   4  -8  313.34  261.82   1 0.15313 0.55484-0.46053 0.66192-0.87433 0.50397
   7  -4  -7  257.64  230.60   1-0.07657 0.78521-0.62630 0.42438-0.77580 0.45092
   7   4  -7  630.87  349.95   1 0.17847 0.52972-0.43840 0.63979-0.88088 0.55682
   7  -4  -6 1510.79  321.74   1-0.04666 0.75553-0.60705 0.40513-0.79329 0.51482
   7   4  -6 2201.48  414.12   1 0.20684 0.50157-0.41278 0.61417-0.88703 0.60926
   7  -4  -5  -13.18  134.45   1-0.01059 0.71968-0.58263 0.38071-0.81266 0.58060
   7  -4  -4   87.45  138.11   1 0.03178 0.67654-0.55488 0.35343-0.83131 0.64603
  -7  -4   3  -83.27  146.57   1-0.30925-0.40865 0.29481-0.49929 0.90412-0.76400
   7  -4  -3  -19.62  104.66   1 0.08263 0.62596-0.51618 0.31473-0.85248 0.71352
  -7  -4   2  170.42  106.05   1-0.34889-0.36953 0.25245-0.45694 0.90251-0.80910
   7  -4  -2   82.29   94.68   1 0.14214 0.56716-0.46992 0.26852-0.87118 0.77860
  -7  -4   1 5663.82  821.41   1-0.39030-0.32862 0.20583-0.41031 0.89737-0.85067
  -7  -4   0 5816.40  759.11   1-0.43287-0.28657 0.15513-0.35961 0.88800-0.88800
  -7  -4  -113932.32 1911.28   1-0.47706-0.24375 0.10395-0.30880 0.87269-0.91936
  -7  -4  -2 5009.17  822.77   1-0.51936-0.20172 0.04661-0.25146 0.85327-0.94661
  -7  -4  -3  492.97  227.13   1-0.56031-0.16104-0.01323-0.19160 0.82817-0.96816
  -7  -4  -4  282.54  189.84   1-0.59986-0.12184-0.07488-0.12964 0.79659-0.98404
  -7  -4  -5  677.78  348.38   1-0.63561-0.08649-0.13744-0.06708 0.75967-0.99399
  -7  -4  -6  379.46  245.11   1-0.66689-0.05393-0.20071-0.00330 0.71760-0.99853
  -7  -4  -7  403.69  240.37   1-0.69444-0.02688-0.26183 0.05782 0.67021-0.99796
  -7  -4  -8   99.16  148.60   1-0.71686-0.00501-0.32155 0.11751 0.61863-0.99305
  -7  -4  -9  -62.55  141.14   1-0.73466 0.01214-0.37783 0.17379 0.56348-0.98470
  -7  -4 -10  119.80  212.91   1-0.74658 0.02896-0.42559 0.22332 0.51135-0.97431
   7  -5 -11  336.15  286.71   1-0.17354 0.88096-0.68095 0.42848-0.71146 0.20075
   7   5 -11  702.66  305.21   1 0.12874 0.57857-0.48118 0.73292-0.86711 0.35787
   7  -5 -10   43.20  168.73   1-0.16197 0.86962-0.67477 0.42230-0.72002 0.25575
   7   5 -10  419.72  269.24   1 0.14552 0.56201-0.46704 0.71879-0.87217 0.40923
   7  -5  -9  544.81  270.40   1-0.14685 0.85474-0.66648 0.41401-0.73091 0.31306
   7   5  -9  334.72  267.29   1 0.16490 0.54285-0.45034 0.70208-0.87749 0.46084
   7  -5  -8 1862.75  295.95   1-0.12710 0.83552-0.65676 0.40436-0.74330 0.37201
   7   5  -8 2447.60  406.41   1 0.18697 0.52100-0.43081 0.68256-0.88285 0.51250
   7  -5  -7 1496.22  259.31   1-0.10320 0.81184-0.64268 0.39028-0.75914 0.43426
   7   5  -7 2355.89  389.70   1 0.21177 0.49642-0.40823 0.65997-0.88797 0.56391
   7  -5  -6   96.57  135.74   1-0.07373 0.78260-0.62452 0.37212-0.77751 0.49904
   7  -5  -5  535.07  308.50   1-0.03776 0.74686-0.60115 0.34875-0.79824 0.56618
  -7  -5   4  501.69  323.21   1-0.30115-0.41624 0.30321-0.55882 0.90408-0.71725
   7  -5  -4  189.39  183.42   1 0.00486 0.70347-0.57432 0.32251-0.81861 0.63333
  -7  -5   3   -3.17  168.68   1-0.33649-0.38141 0.26592-0.52153 0.90335-0.76323
   7  -5  -3   61.43   93.87   1 0.05700 0.65159-0.53601 0.28421-0.84227 0.70331
  -7  -5   2  281.34  208.68   1-0.37372-0.34469 0.22480-0.48040 0.89988-0.80646
   7  -5  -2  626.84  273.28   1 0.11892 0.59037-0.48932 0.23757-0.86395 0.77136
  -7  -5   1 5885.29  701.31   1-0.41237-0.30656 0.17992-0.43553 0.89307-0.84636
  -7  -5   0   37.24  162.50   1-0.45185-0.26759 0.13151-0.38712 0.88234-0.88234
  -7  -5  -1 1848.47  366.16   1-0.49293-0.22789 0.08293-0.33898 0.86610-0.91277
  -7  -5  -2 1228.21  412.10   1-0.53184-0.18924 0.02887-0.28493 0.84634-0.93968
  -7  -5  -3  294.83  172.25   1-0.57011-0.15119-0.02708-0.22858 0.82112-0.96171
  -7  -5  -4 1129.35  403.58   1-0.60585-0.11585-0.08493-0.17072 0.79102-0.97848
  -7  -5  -5 1281.68  235.52   1-0.63883-0.08328-0.14340-0.11225 0.75586-0.99018
  -7  -5  -6 3263.77  435.00   1-0.66777-0.05306-0.20253-0.05248 0.71628-0.99721
  -7  -5  -7   44.33  159.26   1-0.69361-0.02772-0.25984 0.00482 0.67185-0.99960
  -7  -5  -8  152.76  221.35   1-0.71491-0.00695-0.31607 0.06102 0.62369-0.99811
  -7  -5  -9  357.75  223.85   1-0.73224 0.00972-0.36936 0.11432 0.57217-0.99339
  -7  -5 -10 -225.32  153.54   1-0.74419 0.02657-0.41492 0.16208 0.52346-0.98641
   7  -6 -10   19.66  181.51   1-0.18437 0.89202-0.68661 0.38364-0.70325 0.23898
   7   6 -10  205.50  226.78   1 0.17981 0.52772-0.43720 0.73930-0.88120 0.41825
   7  -6  -9   11.12  146.54   1-0.17005 0.87793-0.67910 0.37614-0.71407 0.29622
   7   6  -9  199.94  220.15   1 0.19898 0.50877-0.41996 0.72205-0.88545 0.46880
   7  -6  -8 1557.50  349.12   1-0.15160 0.85972-0.66911 0.36614-0.72753 0.35611
   7  -6  -7   28.72  124.22   1-0.12790 0.83655-0.65722 0.35434-0.74276 0.41788
   7  -6  -6  937.80  214.84   1-0.09896 0.80783-0.64012 0.33724-0.76187 0.48340
  -7  -6   5  859.23  357.36   1-0.29849-0.41838 0.30594-0.61267 0.90404-0.67050
   7  -6  -5  716.21  257.01   1-0.06318 0.77227-0.61779 0.31491-0.78379 0.55173
  -7  -6   4 1311.07  506.85   1-0.32995-0.38743 0.27294-0.57967 0.90367-0.71684
   7  -6  -4  804.81  339.74   1-0.01923 0.72855-0.58860 0.28571-0.80819 0.62254
  -7  -6   3  427.75  213.37   1-0.36331-0.35459 0.23650-0.54323 0.90114-0.76102
   7  -6  -3  254.19  183.32   1 0.03296 0.67563-0.55402 0.25184-0.83184 0.69288
  -7  -6   2   84.48  125.70   1-0.39821-0.32020 0.19663-0.50336 0.89596-0.80255
  -7  -6   1  662.28  295.17   1-0.43422-0.28470 0.15347-0.46020 0.88763-0.84092
  -7  -6   0  295.28  196.31   1-0.47260-0.24794 0.10977-0.41704 0.87441-0.87441
  -7  -6  -1 -255.22  165.89   1-0.50901-0.21180 0.06103-0.36830 0.85859-0.90525
  -7  -6  -2  826.46  331.69   1-0.54482-0.17626 0.00997-0.31723 0.83848-0.93182
  -7  -6  -3  127.23  124.96   1-0.58002-0.14128-0.04263-0.26415 0.81348-0.95407
  -7  -6  -4 4775.13  868.81   1-0.61288-0.10882-0.09694-0.20985 0.78420-0.97165
  -7  -6  -5  -16.35  189.79   1-0.64328-0.07883-0.15176-0.15503 0.75043-0.98475
  -7  -6  -6   39.17  171.18   1-0.66999-0.05084-0.20717-0.09884 0.71287-0.99380
  -7  -6  -7  113.55  173.57   1-0.69411-0.02721-0.26104-0.04497 0.67086-0.99861
  -7  -6  -8  422.86  300.63   1-0.71420-0.00767-0.31407 0.00801 0.62551-0.99993
  -7  -6  -9  541.24  337.71   1-0.73083 0.00831-0.36457 0.05852 0.57702-0.99825
  -7  -6 -10  529.40  268.72   1-0.74253 0.02491-0.40793 0.10453 0.53125-0.99420
   7  -7 -10  307.80  257.51   1-0.20465 0.91230-0.69685 0.34339-0.68739 0.22311
   7  -7  -9  142.40  162.55   1-0.19110 0.89898-0.69006 0.33660-0.69806 0.28021
   7  -7  -8  863.10  285.24   1-0.17341 0.88153-0.68088 0.32742-0.71155 0.34013
   7  -7  -7  329.55  206.03   1-0.15080 0.85915-0.66867 0.31521-0.72810 0.40311
  -7  -7   6 1242.17  419.86   1-0.30050-0.41586 0.30388-0.66173 0.90407-0.62383
   7  -7  -6  483.77  207.84   1-0.12206 0.83093-0.65384 0.30048-0.74671 0.46824
  -7  -7   5  339.22  298.64   1-0.32844-0.38843 0.27456-0.63241 0.90373-0.67019
   7  -7  -5  476.96  236.83   1-0.08652 0.79562-0.63251 0.27915-0.76970 0.53764
  -7  -7   4  477.16  272.11   1-0.35824-0.35915 0.24214-0.59999 0.90167-0.71485
  -7  -7   3   85.56  104.10   1-0.38963-0.32827 0.20661-0.56446 0.89749-0.75737
  -7  -7   2  191.86  133.86   1-0.42228-0.29613 0.16803-0.52588 0.89075-0.79733
  -7  -7   1  341.44  179.62   1-0.45578-0.26314 0.12653-0.48438 0.88104-0.83434
  -7  -7   0 1147.22  471.87   1-0.49159-0.22895 0.08472-0.44319 0.86669-0.86669
  -7  -7  -1  837.31  365.06   1-0.52518-0.19563 0.03839-0.39686 0.85011-0.89678
  -7  -7  -2   -6.11  160.27   1-0.55814-0.16295-0.00993-0.34854 0.82968-0.92301
  -7  -7  -3  178.31  241.12   1-0.59051-0.13079-0.05949-0.29843 0.80483-0.94542
  -7  -7  -4  698.38  275.80   1-0.62071-0.10099-0.11058-0.24734 0.77619-0.96365
  -7  -7  -5  434.03  164.87   1-0.64787-0.07246-0.16274-0.19427 0.74415-0.97826
  -7  -7  -6 1144.66  327.83   1-0.67329-0.04753-0.21417-0.14284 0.70767-0.98860
  -7  -7  -7 -148.57  170.27   1-0.69572-0.02560-0.26491-0.09211 0.66766-0.99541
  -7  -7  -8  247.76  211.36   1-0.71453-0.00733-0.31500-0.04206 0.62466-0.99908
  -7  -7  -9  109.78  185.59   1-0.73033 0.00781-0.36288 0.00582 0.57873-0.99995
   7  -8  -9  305.27  282.14   1-0.20987 0.91776-0.69941 0.29546-0.68320 0.26535
   7  -8  -8  100.02  141.19   1-0.19290 0.90101-0.69097 0.28701-0.69666 0.32524
  -7  -8   7   -7.62  193.47   1-0.30652-0.40933 0.29765-0.70662 0.90412-0.57717
   7  -8  -7  -56.72  129.88   1-0.17095 0.87930-0.67958 0.27562-0.71340 0.38840
  -7  -8   6 2221.76  535.81   1-0.33127-0.38510 0.27154-0.68051 0.90361-0.62337
  -7  -8   5   25.56  212.05   1-0.35780-0.35908 0.24263-0.65160 0.90172-0.66818
  -7  -8   4  671.10  343.55   1-0.38593-0.33146 0.21088-0.61985 0.89810-0.71127
  -7  -8   3   52.32  124.26   1-0.41538-0.30252 0.17632-0.58529 0.89239-0.75226
  -7  -8   1  271.98  209.99   1-0.47921-0.24106 0.10114-0.51083 0.87185-0.82518
  -7  -8   0 1147.79  220.44   1-0.51037-0.21017 0.05915-0.46884 0.85791-0.85791
  -7  -8  -1  813.45  294.55   1-0.54134-0.17947 0.01508-0.42477 0.84066-0.88733
  -7  -8  -2  154.91  173.27   1-0.57206-0.14882-0.03013-0.37893 0.81965-0.91337
  -7  -8  -3  579.01  287.24   1-0.60140-0.11989-0.07745-0.33160 0.79517-0.93576
  -7  -8  -4   55.37  141.55   1-0.62915-0.09255-0.12563-0.28342 0.76706-0.95451
  -7  -8  -5  309.70  204.55   1-0.65402-0.06631-0.17470-0.23332 0.73602-0.97013
  -7  -8  -6 1176.46  349.62   1-0.67746-0.04336-0.22317-0.18485 0.70087-0.98180
  -7  -8  -7   88.26  188.52   1-0.69825-0.02307-0.27104-0.13698 0.66255-0.99030
  -7  -8  -8  489.77  294.94   1-0.71575-0.00611-0.31841-0.08965 0.62153-0.99595
  -7  -9   7  118.06  217.25   1-0.33786-0.37799 0.26445-0.72454 0.90327-0.57632
  -7  -9   6  294.77  226.81   1-0.36140-0.35496 0.23863-0.69872 0.90135-0.62111
  -7  -9   5 2098.04  424.88   1-0.38650-0.33038 0.21022-0.67031 0.89800-0.66447
  -7  -9   4  553.48  284.99   1-0.41296-0.30443 0.17922-0.63931 0.89293-0.70610
  -7  -9   3   97.73  148.88   1-0.44052-0.27738 0.14568-0.60577 0.88583-0.74571
  -7  -9   1 3382.31  505.55   1-0.50008-0.22019 0.07326-0.53416 0.86286-0.81620
  -7  -9   0 1536.39  304.66   1-0.52887-0.19167 0.03313-0.49403 0.84805-0.84805
  -7  -9  -1  384.85  215.57   1-0.55739-0.16342-0.00879-0.45210 0.83020-0.87686
  -7  -9  -2  397.56  191.82   1-0.58564-0.13525-0.05162-0.40857 0.80892-0.90264
  -7  -9  -3 -112.21  197.80   1-0.61256-0.10873-0.09639-0.36380 0.78451-0.92510
  -7  -9  -4   -7.27  202.54   1-0.63802-0.08368-0.14189-0.31830 0.75683-0.94428
  -7  -9  -5  711.91  371.23   1-0.66074-0.05959-0.18812-0.27090 0.72665-0.96075
  -7  -9  -6   93.65  196.82   1-0.68232-0.03850-0.23387-0.22516 0.69262-0.97356
  -7  -9  -7  208.63  210.35   1-0.70151-0.01981-0.27910-0.17992 0.65572-0.98348
  -7 -10   5  731.96  318.40   1-0.41448-0.30239 0.17740-0.68861 0.89259-0.65905
  -7 -10   4  143.13  175.85   1-0.43929-0.27810 0.14722-0.65843 0.88619-0.69936
  -7 -10   3  265.00  182.03   1-0.46501-0.25289 0.11474-0.62595 0.87783-0.73771
  -7 -10   2  593.13  232.43   1-0.49396-0.22604 0.08154-0.59365 0.86565-0.77231
  -7 -10   1  116.01  166.05   1-0.52048-0.19979 0.04504-0.55715 0.85268-0.80601
  -7 -10   0  515.98  278.94   1-0.54703-0.17351 0.00671-0.51882 0.83708-0.83708
  -7 -10  -1  188.99  109.79   1-0.57349-0.14699-0.03235-0.47897 0.81857-0.86543
  -7 -10  -2   50.44  160.10   1-0.59919-0.12169-0.07377-0.43755 0.79719-0.89092
  -7 -10  -3 3344.56  614.15   1-0.62387-0.09743-0.11617-0.39515 0.77284-0.91343
  -7 -10  -4  316.91  317.97   1-0.64718-0.07452-0.15920-0.35212 0.74552-0.93298
  -7 -10  -5 1886.99  457.79   1-0.66790-0.05243-0.20280-0.30722 0.71608-0.95018
  -7 -11   3 1074.31  277.41   1-0.49375-0.22385 0.08181-0.64575 0.86574-0.72999
  -7 -11   2 1144.80  299.57   1-0.51587-0.20413 0.05150-0.61483 0.85511-0.76178
  -7 -11   1  729.74  269.47   1-0.54035-0.17992 0.01653-0.57985 0.84127-0.79460
  -7 -11   0  364.37  232.31   1-0.56478-0.15576-0.02006-0.54325 0.82499-0.82499
  -7 -11  -1  287.42  180.85   1-0.58909-0.13139-0.05719-0.50526 0.80603-0.85290
  -7 -11  -2  -56.02  205.61   1-0.61264-0.10825-0.09652-0.46593 0.78444-0.87817
   8   0  -9  368.75  269.36   1 0.07382 0.73457-0.52307 0.52307-0.84908 0.43219
   8   0  -8  872.32  296.59   1 0.09626 0.71238-0.50535 0.50535-0.85752 0.48695
   8   0  -7  -34.61  154.03   1 0.12216 0.68674-0.48425 0.48425-0.86635 0.54210
   8   0  -6 4536.42  432.89   1 0.15269 0.65712-0.46091 0.46091-0.87421 0.59644
   8   0  -5   32.18  145.19   1 0.18588 0.62415-0.43179 0.43179-0.88260 0.65113
  -8   0   2 4052.90  446.86   1-0.31306-0.50813 0.29082-0.29082 0.90410-0.81069
  -8   0   1  -58.84  129.41   1-0.36094-0.46076 0.23914-0.23914 0.90140-0.85469
  -8   0   0  149.14  137.24   1-0.41111-0.41111 0.18142-0.18142 0.89334-0.89334
  -8   0  -1  108.78   97.31   1-0.46293-0.36082 0.12224-0.12224 0.87792-0.92458
  -8   0  -2  147.57   87.92   1-0.51424-0.30978 0.05378-0.05378 0.85595-0.94928
   8  -1  -9   23.58  181.27   1 0.04718 0.76120-0.54344 0.49307-0.83811 0.42123
   8   1  -9   46.59  155.19   1 0.10133 0.70705-0.50128 0.55164-0.85932 0.44244
   8  -1  -8   26.89  146.01   1 0.06967 0.73897-0.52629 0.47593-0.84744 0.47687
   8   1  -8  101.52  159.12   1 0.12365 0.68499-0.48302 0.53338-0.86683 0.49626
   8  -1  -7   24.22  155.90   1 0.09584 0.71305-0.50569 0.45532-0.85737 0.53312
   8   1  -7  -12.59  154.00   1 0.15034 0.65924-0.46292 0.51327-0.87355 0.54949
   8  -1  -6 2276.08  415.34   1 0.12687 0.68293-0.48273 0.43238-0.86652 0.58875
   8   1  -6 1608.54  380.81   1 0.17913 0.63068-0.43781 0.48816-0.88103 0.60327
   8  -1  -5  126.79  150.12   1 0.16099 0.64903-0.45374 0.40339-0.87646 0.64499
   8   1  -5   88.71  157.89   1 0.21133 0.59870-0.40864 0.45899-0.88789 0.65641
   8  -1  -4   35.21  130.73   1 0.19939 0.61086-0.41959 0.36924-0.88554 0.70036
  -8  -1   2   21.06  148.01   1-0.33159-0.48960 0.27119-0.32231 0.90360-0.81018
  -8   1   1   82.20   72.05   1-0.34660-0.47511 0.25495-0.20383 0.90269-0.85599
  -8  -1   0   75.70   79.75   1-0.42308-0.39913 0.16705-0.21817 0.89055-0.89055
  -8   1   0  150.63  117.37   1-0.40065-0.42157 0.19378-0.14266 0.89550-0.89550
  -8  -1  -1  241.27  160.93   1-0.47128-0.35247 0.11148-0.16270 0.87490-0.92157
  -8  -1  -2   95.45   98.44   1-0.51855-0.30547 0.04776-0.09897 0.85371-0.94704
  -8  -1  -3  599.43  243.88   1-0.56515-0.25902-0.01942-0.03170 0.82475-0.96535
   8  -2  -9  457.42  308.45   1 0.02160 0.78678-0.56232 0.46159-0.82663 0.40974
   8   2  -9  246.43  302.52   1 0.13092 0.67822-0.47936 0.58006-0.86779 0.45114
   8  -2  -8  -76.78  171.39   1 0.04407 0.76457-0.54577 0.44505-0.83677 0.46620
   8   2  -8  249.37  206.92   1 0.15294 0.65642-0.46069 0.56139-0.87428 0.50392
   8  -2  -7  570.32  289.41   1 0.07043 0.73847-0.52570 0.42498-0.84774 0.52349
   8   2  -7   60.22  153.01   1 0.17795 0.63163-0.43885 0.53955-0.88075 0.55669
   8  -2  -6   -7.98  135.62   1 0.10103 0.70813-0.50152 0.40080-0.85922 0.58129
   8   2  -6  204.38  231.97   1 0.20602 0.60378-0.41352 0.51422-0.88687 0.60910
   8  -2  -5  397.75  249.75   1 0.13688 0.67315-0.47436 0.37366-0.86962 0.63814
   8  -2  -4   66.29  173.36   1 0.17664 0.63361-0.44002 0.33932-0.88044 0.69526
  -8  -2   3 1788.36  387.10   1-0.31083-0.50985 0.29316-0.39540 0.90412-0.76400
  -8  -2   2  111.28  151.24   1-0.35080-0.47039 0.25035-0.35260 0.90236-0.80894
  -8  -2   1 -108.56  149.21   1-0.39281-0.42890 0.20293-0.30517 0.89694-0.85024
  -8  -2   0  192.88  133.02   1-0.43624-0.38598 0.15098-0.25322 0.88707-0.88707
  -8  -2  -1   71.04  100.21   1-0.48116-0.34258 0.09857-0.20099 0.87106-0.91773
  -8  -2  -2  212.04  184.08   1-0.52481-0.29921 0.03892-0.14134 0.85032-0.94365
  -8  -2  -3 2258.40  406.34   1-0.56785-0.25632-0.02358-0.07867 0.82279-0.96338
  -8  -2  -4 3020.69  488.04   1-0.60822-0.21635-0.08895-0.01331 0.78876-0.97622
   8  -3  -8 1514.01  380.42   1 0.01963 0.78901-0.56375 0.41266-0.82571 0.45514
   8   3  -8 2416.38  460.39   1 0.18144 0.62793-0.43576 0.58680-0.88158 0.51122
   8  -3  -7  585.12  304.95   1 0.04612 0.76278-0.54423 0.39315-0.83766 0.51341
   8   3  -7  336.07  272.44   1 0.20592 0.60366-0.41362 0.56466-0.88685 0.56279
   8  -3  -6  339.65  272.22   1 0.07715 0.73201-0.52048 0.36939-0.85038 0.57245
   8  -3  -5  494.83  251.85   1 0.11311 0.69630-0.49170 0.34062-0.86338 0.63177
   8  -3  -4  -56.87  114.45   1 0.15486 0.65539-0.45904 0.30800-0.87481 0.68963
   8  -3  -3  244.90  203.32   1 0.20156 0.60891-0.41762 0.26657-0.88598 0.74710
  -8  -3   2  755.18  311.83   1-0.37048-0.45071 0.22846-0.38182 0.90030-0.80688
  -8  -3   1   82.25  130.49   1-0.40984-0.41186 0.18293-0.33630 0.89362-0.84691
  -8  -3   0   24.41  117.65   1-0.45030-0.37191 0.13346-0.28682 0.88284-0.88284
  -8  -3  -1  326.15  171.63   1-0.49224-0.33151 0.08384-0.23748 0.86640-0.91307
  -8  -3  -2 1419.58  253.58   1-0.53260-0.29141 0.02777-0.18140 0.84590-0.93923
  -8  -3  -3  460.37  170.15   1-0.57241-0.25175-0.03067-0.12272 0.81938-0.95997
  -8  -3  -4  279.06  137.02   1-0.60978-0.21478-0.09162-0.06177 0.78724-0.97470
  -8  -3  -5  728.07  213.44   1-0.64353-0.17935-0.15445 0.00143 0.74967-0.98378
   8  -4  -8   36.40  157.44   1-0.00344 0.81209-0.58017 0.37872-0.81448 0.44391
   8   4  -8  393.85  303.76   1 0.21022 0.59914-0.40966 0.61106-0.88768 0.51732
   8  -4  -7  425.59  277.02   1 0.02312 0.78578-0.56122 0.35977-0.82734 0.50309
   8  -4  -6   51.34  136.83   1 0.05452 0.75463-0.53789 0.33645-0.84124 0.56331
   8  -4  -5 2219.40  357.76   1 0.09130 0.71811-0.50932 0.30787-0.85571 0.62411
   8  -4  -4  534.58  258.86   1 0.13430 0.67595-0.47653 0.27513-0.86883 0.68366
  -8  -4   3  448.88  256.88   1-0.35500-0.46568 0.24573-0.45021 0.90199-0.76186
  -8  -4   2 1251.08  212.56   1-0.39049-0.43070 0.20561-0.41010 0.89734-0.80393
  -8  -4   1  478.05  174.40   1-0.42735-0.39436 0.16188-0.36636 0.88947-0.84276
  -8  -4   0  -46.27  165.20   1-0.46649-0.35699 0.11768-0.32252 0.87666-0.87666
  -8  -4  -1  511.37  242.71   1-0.50424-0.31950 0.06758-0.27243 0.86091-0.90757
  -8  -4  -2  117.19  196.40   1-0.54161-0.28241 0.01469-0.21954 0.84050-0.93383
  -8  -4  -3 5261.48  725.38   1-0.57846-0.24570-0.04017-0.16435 0.81471-0.95530
  -8  -4  -4  598.70  258.28   1-0.61307-0.21150-0.09726-0.10727 0.78401-0.97147
  -8  -4  -5 2387.53  427.78   1-0.64434-0.17854-0.15599-0.04801 0.74865-0.98276
  -8  -4  -6 2426.84  487.52   1-0.67328-0.15009-0.21415 0.01013 0.70768-0.98861
   8  -5  -7  -15.05  138.08   1 0.00163 0.80726-0.57659 0.32479-0.81702 0.49277
  -8  -5   5  461.60  346.29   1-0.31532-0.50434 0.28846-0.54406 0.90408-0.67054
  -8  -5   4 1041.13  273.50   1-0.34541-0.47476 0.25625-0.51186 0.90278-0.71595
  -8  -5   3  350.98  196.79   1-0.37730-0.44338 0.22074-0.47635 0.89939-0.75927
  -8  -5   2  313.58  137.95   1-0.41068-0.41051 0.18193-0.43753 0.89343-0.80002
  -8  -5   1  419.44  214.34   1-0.44518-0.37653 0.13989-0.39549 0.88444-0.83773
  -8  -5   0   67.67  198.70   1-0.48190-0.34158 0.09760-0.35366 0.87077-0.87077
  -8  -5  -1 1024.99  342.72   1-0.51695-0.30680 0.05000-0.30606 0.85455-0.90121
  -8  -5  -2   22.18  110.15   1-0.55155-0.27247-0.00001-0.25603 0.83413-0.92747
  -8  -5  -3  186.78  172.56   1-0.58568-0.23848-0.05168-0.20398 0.80888-0.94948
  -8  -5  -4   55.06  165.04   1-0.61773-0.20684-0.10534-0.15031 0.77930-0.96675
  -8  -5  -5  465.66  290.66   1-0.64668-0.17620-0.16045-0.09456 0.74569-0.97980
  -8  -5  -6  243.04  264.16   1-0.67371-0.14966-0.21507-0.03994 0.70699-0.98792
  -8  -5  -7  212.08  294.96   1-0.69748-0.12639-0.26916 0.01414 0.66412-0.99187
  -8  -6   6  268.99  330.95   1-0.31412-0.50503 0.28972-0.59645 0.90409-0.62385
  -8  -6   4  143.78  149.57   1-0.36947-0.45069 0.22959-0.53632 0.90042-0.71359
  -8  -6   3  513.03  266.59   1-0.39958-0.42110 0.19503-0.50176 0.89570-0.75558
  -8  -6   2  268.38  171.82   1-0.43094-0.39025 0.15749-0.46422 0.88852-0.79511
  -8  -6   1   20.41  179.93   1-0.46319-0.35851 0.11707-0.42380 0.87848-0.83178
  -8  -6   0  966.16  305.54   1-0.49764-0.32584 0.07657-0.38384 0.86399-0.86399
  -8  -6  -1  360.24  210.76   1-0.53017-0.29358 0.03127-0.33854 0.84731-0.89397
  -8  -6  -2  255.70  162.33   1-0.56221-0.26180-0.01613-0.29113 0.82683-0.92016
  -8  -6  -3 1099.99  294.05   1-0.59382-0.23034-0.06490-0.24189 0.80197-0.94256
  -8  -6  -4  424.96  233.55   1-0.62348-0.20109-0.11549-0.19130 0.77325-0.96071
  -8  -6  -5  885.74  374.81   1-0.65024-0.17264-0.16733-0.13868 0.74106-0.97517
  -8  -6  -6  238.25  265.19   1-0.67544-0.14794-0.21878-0.08724 0.70421-0.98514
  -8  -7   4 1937.82  385.88   1-0.39338-0.42678 0.20226-0.56011 0.89684-0.71001
  -8  -7   3  448.24  249.58   1-0.42176-0.39892 0.16866-0.52651 0.89088-0.75075
  -8  -7   2  460.07  261.21   1-0.45117-0.37002 0.13237-0.49022 0.88256-0.78915
  -8  -7   1  742.07  235.70   1-0.48333-0.33988 0.09571-0.45419 0.87018-0.82352
  -8  -7   0  -73.38  175.15   1-0.51358-0.30990 0.05470-0.41318 0.85629-0.85629
  -8  -7  -1 -170.42  184.05   1-0.54376-0.27999 0.01154-0.37001 0.83916-0.88582
  -8  -7  -2  471.22  261.78   1-0.57381-0.24995-0.03285-0.32507 0.81832-0.91205
  -8  -7  -3  -23.65  184.69   1-0.60268-0.22149-0.07958-0.27834 0.79400-0.93459
  -8  -7  -4  813.80  275.59   1-0.63011-0.19446-0.12738-0.23054 0.76597-0.95343
  -8  -8   2  164.65  190.41   1-0.47630-0.34434 0.10495-0.51577 0.87299-0.78447
  -8  -8   1  291.32  189.32   1-0.50150-0.32171 0.07133-0.48102 0.86221-0.81554
  -8  -8   0  232.62  157.73   1-0.52961-0.29387 0.03207-0.44176 0.84763-0.84763
  -8  -8  -1  155.00  184.63   1-0.55758-0.26617-0.00908-0.40060 0.83007-0.87673
;
_shelx_hkl_checksum              48629
_shelx_res_file
;
    shelx.res created by SHELXL-2014/7
TITL shelx in P 21/c
CELL  0.71073   7.0040  14.0540  15.2750   90.000   90.368   90.000
ZERR     4.00   0.0090   0.0170   0.0190    0.000    0.012    0.000
LATT   1
SYMM  - X, 1/2 + Y, 1/2 - Z
SFAC  C    H    N    O    S
UNIT  72 48 8 12 4
MERG   2
FMAP   2
BOND
L.S.  20
EQIV $1 -x,-1/2+y,1/2-Z
HTAB C1 N1
HTAB C8 O3_$1
PLAN -5
ACTA
CONF
BOND $H
WPDB
WGHT    0.106400    0.316400
FVAR       7.19557
MOLE    1
S1    5    0.161072    0.072983    0.199038    11.00000    0.07505    0.03605 =
         0.09139   -0.00215    0.01637   -0.00116
O1    4   -0.722255    0.317117    0.449908    11.00000    0.06541    0.05931 =
         0.07152   -0.00071    0.02271   -0.01187
O2    4    0.510467    0.100614    0.126837    11.00000    0.07323    0.04271 =
         0.09140   -0.00817    0.00954    0.01219
O3    4    0.292604    0.396581    0.194835    11.00000    0.06315    0.03878 =
         0.09336   -0.00355    0.02356    0.00354
N1    3    0.070711    0.238788    0.253498    11.00000    0.04919    0.04179 =
         0.05014    0.00011    0.00151   -0.00235
N2    3    0.358403    0.236231    0.173602    11.00000    0.04790    0.03592 =
         0.05481   -0.00078    0.00455    0.00216
C1    1   -0.263078    0.312198    0.335647    11.00000    0.05490    0.04382 =
         0.05359    0.00635    0.00422   -0.00888
AFIX  43
H1    2   -0.170941    0.353398    0.313892    11.00000   -1.20000
AFIX   0
C2    1   -0.423855    0.349967    0.375219    11.00000    0.05952    0.04575 =
         0.05483    0.00395    0.00745   -0.00666
AFIX  43
H2    2   -0.439910    0.415499    0.379341    11.00000   -1.20000
AFIX   0
C3    1   -0.560377    0.288548    0.408565    11.00000    0.05167    0.05452 =
         0.04721   -0.00045    0.00535   -0.00842
C4    1   -0.532738    0.192161    0.402042    11.00000    0.06334    0.04678 =
         0.06154    0.00175    0.00852   -0.01502
AFIX  43
H4    2   -0.623139    0.150887    0.425156    11.00000   -1.20000
AFIX   0
C5    1   -0.374000    0.155634    0.361999    11.00000    0.06357    0.04073 =
         0.05810    0.00396    0.00510   -0.01188
AFIX  43
H5    2   -0.358818    0.090052    0.357852    11.00000   -1.20000
AFIX   0
C6    1   -0.235683    0.215546    0.327578    11.00000    0.05213    0.04640 =
         0.04119    0.00659   -0.00252   -0.00509
C7    1   -0.070427    0.177458    0.280783    11.00000    0.05184    0.04088 =
         0.05004    0.00575   -0.00115   -0.00500
C8    1   -0.042721    0.086981    0.257438    11.00000    0.06469    0.04492 =
         0.08364    0.00168    0.01274   -0.00750
AFIX  43
H8    2   -0.125171    0.037485    0.271472    11.00000   -1.20000
AFIX   0
C9    1    0.198384    0.192632    0.210123    11.00000    0.05176    0.03803 =
         0.04958    0.00235   -0.00365    0.00159
C10   1    0.508538    0.185578    0.133787    11.00000    0.05288    0.04644 =
         0.05591   -0.00458    0.00124    0.01330
C11   1    0.648695    0.255574    0.106173    11.00000    0.04904    0.05272 =
         0.04617   -0.00045    0.00283    0.00682
C12   1    0.821642    0.243226    0.065267    11.00000    0.05550    0.06902 =
         0.05510   -0.00465    0.00496    0.01441
AFIX  43
H12   2    0.863802    0.183095    0.048888    11.00000   -1.20000
AFIX   0
C13   1    0.928581    0.322221    0.049690    11.00000    0.05605    0.09711 =
         0.05767    0.00230    0.01565    0.00832
AFIX  43
H13   2    1.045499    0.315879    0.021770    11.00000   -1.20000
AFIX   0
C14   1    0.868112    0.410314    0.074093    11.00000    0.05897    0.07972 =
         0.07235    0.01188    0.01808   -0.01314
AFIX  43
H14   2    0.946010    0.462723    0.064031    11.00000   -1.20000
AFIX   0
C15   1    0.692529    0.423277    0.113664    11.00000    0.06502    0.05193 =
         0.06588    0.00186    0.01461   -0.00312
AFIX  43
H15   2    0.649878    0.483507    0.129459    11.00000   -1.20000
AFIX   0
C16   1    0.584702    0.344051    0.128521    11.00000    0.05199    0.05074 =
         0.04282   -0.00053    0.00581    0.00587
C17   1    0.395499    0.334868    0.170110    11.00000    0.04721    0.03905 =
         0.05164    0.00077    0.00142    0.00316
C18   1   -0.777182    0.412607    0.439846    11.00000    0.07336    0.06813 =
         0.08585    0.00842    0.02733    0.00711
AFIX  33
H18A  2   -0.892507    0.423917    0.471839    11.00000   -1.50000
H18B  2   -0.677815    0.453290    0.461885    11.00000   -1.50000
H18C  2   -0.798773    0.425895    0.378935    11.00000   -1.50000
AFIX   0
HKLF 4
REM  shelx in P 21/c
REM R1 =  0.0655 for    2012 Fo > 4sig(Fo)  and  0.1041 for all    3280 data
REM    217 parameters refined using      0 restraints
END
WGHT      0.0906      0.6197
REM Highest difference peak  0.277,  deepest hole -0.381,  1-sigma level  0.057
Q1    1  -0.2425  0.2553  0.3408  11.00000  0.05    0.28
Q2    1  -0.5283  0.2136  0.4101  11.00000  0.05    0.24
Q3    1   0.6035  0.3227  0.1293  11.00000  0.05    0.24
Q4    1   0.3689  0.2726  0.1853  11.00000  0.05    0.24
Q5    1   0.1875  0.1430  0.2149  11.00000  0.05    0.24
;
_shelx_res_checksum              42759
loop_
_space_group_symop_operation_xyz
'x, y, z'
'-x, y+1/2, -z+1/2'
'-x, -y, -z'
'x, -y-1/2, z-1/2'
loop_
_atom_site_type_symbol
_atom_site_label
_atom_site_fract_x
_atom_site_fract_y
_atom_site_fract_z
_atom_site_U_iso_or_equiv
_atom_site_adp_type
_atom_site_calc_flag
_atom_site_occupancy
S S1 0.16107(14) 0.07298(6) 0.19904(7) 0.0674(4) Uani d 1
O O1 -0.7223(3) 0.31712(18) 0.44991(16) 0.0653(7) Uani d 1
O O2 0.5105(4) 0.10061(17) 0.12684(18) 0.0691(7) Uani d 1
O O3 0.2926(3) 0.39658(16) 0.19483(18) 0.0650(7) Uani d 1
N N1 0.0707(3) 0.23879(18) 0.25350(16) 0.0470(6) Uani d 1
N N2 0.3584(3) 0.23623(17) 0.17360(16) 0.0462(6) Uani d 1
C C1 -0.2631(4) 0.3122(2) 0.3356(2) 0.0508(7) Uani d 1
H H1 -0.1709 0.3534 0.3139 0.061 Uiso calc 1
C C2 -0.4239(5) 0.3500(2) 0.3752(2) 0.0533(8) Uani d 1
H H2 -0.4399 0.4155 0.3793 0.064 Uiso calc 1
C C3 -0.5604(4) 0.2885(2) 0.40857(19) 0.0511(7) Uani d 1
C C4 -0.5327(5) 0.1922(2) 0.4020(2) 0.0572(8) Uani d 1
H H4 -0.6231 0.1509 0.4252 0.069 Uiso calc 1
C C5 -0.3740(5) 0.1556(2) 0.3620(2) 0.0541(8) Uani d 1
H H5 -0.3588 0.0901 0.3579 0.065 Uiso calc 1
C C6 -0.2357(4) 0.2155(2) 0.32758(18) 0.0466(7) Uani d 1
C C7 -0.0704(4) 0.1775(2) 0.2808(2) 0.0476(7) Uani d 1
C C8 -0.0427(5) 0.0870(2) 0.2574(2) 0.0644(9) Uani d 1
H H8 -0.1252 0.0375 0.2715 0.077 Uiso calc 1
C C9 0.1984(4) 0.1926(2) 0.21012(19) 0.0465(7) Uani d 1
C C10 0.5085(4) 0.1856(2) 0.1338(2) 0.0517(8) Uani d 1
C C11 0.6487(4) 0.2556(2) 0.10617(19) 0.0493(7) Uani d 1
C C12 0.8216(5) 0.2432(3) 0.0653(2) 0.0599(9) Uani d 1
H H12 0.8638 0.1831 0.0489 0.072 Uiso calc 1
C C13 0.9286(5) 0.3222(3) 0.0497(2) 0.0702(10) Uani d 1
H H13 1.0455 0.3159 0.0218 0.084 Uiso calc 1
C C14 0.8681(5) 0.4103(3) 0.0741(2) 0.0703(10) Uani d 1
H H14 0.9460 0.4627 0.0640 0.084 Uiso calc 1
C C15 0.6925(5) 0.4233(2) 0.1137(2) 0.0609(9) Uani d 1
H H15 0.6499 0.4835 0.1295 0.073 Uiso calc 1
C C16 0.5847(4) 0.3441(2) 0.12852(19) 0.0485(7) Uani d 1
C C17 0.3955(4) 0.3349(2) 0.17011(19) 0.0460(7) Uani d 1
C C18 -0.7772(6) 0.4126(3) 0.4398(3) 0.0757(11) Uani d 1
H H18A -0.8925 0.4239 0.4718 0.114 Uiso calc 1
H H18B -0.6778 0.4533 0.4619 0.114 Uiso calc 1
H H18C -0.7988 0.4259 0.3789 0.114 Uiso calc 1
loop_
_atom_site_aniso_label
_atom_site_aniso_U_11
_atom_site_aniso_U_22
_atom_site_aniso_U_33
_atom_site_aniso_U_12
_atom_site_aniso_U_13
_atom_site_aniso_U_23
S1 0.0750(7) 0.0361(4) 0.0914(7) -0.0012(4) 0.0164(5) -0.0021(4)
O1 0.0654(15) 0.0593(15) 0.0715(15) -0.0119(12) 0.0227(12) -0.0007(12)
O2 0.0732(16) 0.0427(13) 0.0914(18) 0.0122(12) 0.0095(13) -0.0082(12)
O3 0.0631(14) 0.0388(12) 0.0934(18) 0.0035(11) 0.0236(12) -0.0036(11)
N1 0.0492(14) 0.0418(13) 0.0501(14) -0.0023(11) 0.0015(11) 0.0001(10)
N2 0.0479(13) 0.0359(12) 0.0548(14) 0.0022(11) 0.0045(11) -0.0008(10)
C1 0.0549(18) 0.0438(16) 0.0536(17) -0.0089(14) 0.0042(13) 0.0063(13)
C2 0.0595(19) 0.0457(17) 0.0548(18) -0.0067(15) 0.0075(14) 0.0040(14)
C3 0.0517(17) 0.0545(18) 0.0472(16) -0.0084(15) 0.0053(13) -0.0005(13)
C4 0.063(2) 0.0468(17) 0.062(2) -0.0150(16) 0.0085(15) 0.0017(14)
C5 0.064(2) 0.0407(16) 0.0581(18) -0.0119(15) 0.0051(15) 0.0040(14)
C6 0.0521(16) 0.0464(16) 0.0412(15) -0.0051(14) -0.0025(12) 0.0066(12)
C7 0.0518(17) 0.0409(16) 0.0500(16) -0.0050(13) -0.0012(13) 0.0058(12)
C8 0.065(2) 0.0449(18) 0.084(2) -0.0075(16) 0.0127(18) 0.0017(16)
C9 0.0518(16) 0.0380(14) 0.0496(16) 0.0016(13) -0.0037(13) 0.0023(12)
C10 0.0529(18) 0.0464(17) 0.0559(18) 0.0133(14) 0.0012(14) -0.0046(13)
C11 0.0490(16) 0.0527(18) 0.0462(15) 0.0068(14) 0.0028(13) -0.0004(13)
C12 0.0555(19) 0.069(2) 0.0551(19) 0.0144(17) 0.0050(15) -0.0047(16)
C13 0.056(2) 0.097(3) 0.058(2) 0.008(2) 0.0157(16) 0.002(2)
C14 0.059(2) 0.080(3) 0.072(2) -0.0131(19) 0.0181(17) 0.012(2)
C15 0.065(2) 0.0519(19) 0.066(2) -0.0031(17) 0.0146(16) 0.0019(16)
C16 0.0520(17) 0.0507(17) 0.0428(15) 0.0059(14) 0.0058(12) -0.0005(13)
C17 0.0472(16) 0.0390(15) 0.0516(16) 0.0032(13) 0.0014(12) 0.0008(12)
C18 0.073(2) 0.068(3) 0.086(3) 0.007(2) 0.027(2) 0.008(2)
loop_
_atom_type_symbol
_atom_type_description
_atom_type_scat_dispersion_real
_atom_type_scat_dispersion_imag
_atom_type_scat_source
C C 0.0033 0.0016 'International Tables Vol C Tables 4.2.6.8 and 6.1.1.4'
H H 0.0000 0.0000 'International Tables Vol C Tables 4.2.6.8 and 6.1.1.4'
N N 0.0061 0.0033 'International Tables Vol C Tables 4.2.6.8 and 6.1.1.4'
O O 0.0106 0.0060 'International Tables Vol C Tables 4.2.6.8 and 6.1.1.4'
S S 0.1246 0.1234 'International Tables Vol C Tables 4.2.6.8 and 6.1.1.4'
loop_
_geom_angle_atom_site_label_1
_geom_angle_atom_site_label_2
_geom_angle_atom_site_label_3
_geom_angle
C8 S1 C9 87.85(16)
C3 O1 C18 117.3(3)
C9 N1 C7 110.0(3)
C9 N2 C10 123.6(3)
C9 N2 C17 126.5(2)
C10 N2 C17 110.0(3)
C6 C1 C2 122.0(3)
C6 C1 H1 119.0
C2 C1 H1 119.0
C3 C2 C1 119.0(3)
C3 C2 H2 120.5
C1 C2 H2 120.5
O1 C3 C4 116.3(3)
O1 C3 C2 124.4(3)
C4 C3 C2 119.3(3)
C5 C4 C3 121.1(3)
C5 C4 H4 119.4
C3 C4 H4 119.4
C4 C5 C6 120.7(3)
C4 C5 H5 119.6
C6 C5 H5 119.6
C1 C6 C5 117.8(3)
C1 C6 C7 121.0(3)
C5 C6 C7 121.2(3)
C8 C7 N1 114.2(3)
C8 C7 C6 126.5(3)
N1 C7 C6 119.3(3)
C7 C8 S1 112.0(3)
C7 C8 H8 124.0
S1 C8 H8 124.0
N1 C9 N2 123.0(3)
N1 C9 S1 116.0(2)
N2 C9 S1 121.0(2)
O2 C10 N2 123.3(3)
O2 C10 C11 129.8(3)
N2 C10 C11 106.9(3)
C16 C11 C12 121.3(3)
C16 C11 C10 108.7(3)
C12 C11 C10 130.1(3)
C13 C12 C11 117.6(3)
C13 C12 H12 121.2
C11 C12 H12 121.2
C14 C13 C12 121.4(3)
C14 C13 H13 119.3
C12 C13 H13 119.3
C13 C14 C15 121.2(4)
C13 C14 H14 119.4
C15 C14 H14 119.4
C16 C15 C14 117.3(3)
C16 C15 H15 121.3
C14 C15 H15 121.3
C15 C16 C11 121.2(3)
C15 C16 C17 129.8(3)
C11 C16 C17 108.9(3)
O3 C17 N2 126.3(3)
O3 C17 C16 128.2(3)
N2 C17 C16 105.5(2)
O1 C18 H18A 109.5
O1 C18 H18B 109.5
H18A C18 H18B 109.5
O1 C18 H18C 109.5
H18A C18 H18C 109.5
H18B C18 H18C 109.5
loop_
_geom_bond_atom_site_label_1
_geom_bond_atom_site_label_2
_geom_bond_distance
S1 C8 1.699(4)
S1 C9 1.710(4)
O1 C3 1.362(4)
O1 C18 1.404(5)
O2 C10 1.199(4)
O3 C17 1.191(4)
N1 C9 1.291(4)
N1 C7 1.378(4)
N2 C9 1.397(4)
N2 C10 1.411(4)
N2 C17 1.411(4)
C1 C6 1.377(5)
C1 C2 1.387(4)
C1 H1 0.9300
C2 C3 1.387(4)
C2 H2 0.9300
C3 C4 1.372(5)
C4 C5 1.372(5)
C4 H4 0.9300
C5 C6 1.389(4)
C5 H5 0.9300
C6 C7 1.466(4)
C7 C8 1.335(5)
C8 H8 0.9300
C10 C11 1.454(5)
C11 C16 1.366(4)
C11 C12 1.378(4)
C12 C13 1.361(6)
C12 H12 0.9300
C13 C14 1.361(6)
C13 H13 0.9300
C14 C15 1.386(5)
C14 H14 0.9300
C15 C16 1.365(5)
C15 H15 0.9300
C16 C17 1.479(4)
C18 H18A 0.9600
C18 H18B 0.9600
C18 H18C 0.9600
loop_
_geom_hbond_atom_site_label_D
_geom_hbond_atom_site_label_H
_geom_hbond_atom_site_label_A
_geom_hbond_site_symmetry_A
_geom_hbond_distance_DH
_geom_hbond_distance_HA
_geom_hbond_distance_DA
_geom_hbond_angle_DHA
C1 H1 N1 . 0.93 2.52 2.853(5) 102
C8 H8 O3 2_545 0.93 2.36 3.282(5) 171
loop_
_geom_torsion_atom_site_label_1
_geom_torsion_atom_site_label_2
_geom_torsion_atom_site_label_3
_geom_torsion_atom_site_label_4
_geom_torsion
C6 C1 C2 C3 0.7(5)
C18 O1 C3 C4 -165.4(3)
C18 O1 C3 C2 15.9(5)
C1 C2 C3 O1 179.0(3)
C1 C2 C3 C4 0.3(5)
O1 C3 C4 C5 -179.7(3)
C2 C3 C4 C5 -1.0(5)
C3 C4 C5 C6 0.6(5)
C2 C1 C6 C5 -1.1(5)
C2 C1 C6 C7 176.2(3)
C4 C5 C6 C1 0.4(5)
C4 C5 C6 C7 -176.9(3)
C9 N1 C7 C8 0.5(4)
C9 N1 C7 C6 -176.9(3)
C1 C6 C7 C8 -169.4(3)
C5 C6 C7 C8 7.8(5)
C1 C6 C7 N1 7.7(4)
C5 C6 C7 N1 -175.1(3)
N1 C7 C8 S1 -0.5(4)
C6 C7 C8 S1 176.7(2)
C9 S1 C8 C7 0.2(3)
C7 N1 C9 N2 179.5(3)
C7 N1 C9 S1 -0.3(3)
C10 N2 C9 N1 173.4(3)
C17 N2 C9 N1 -6.9(5)
C10 N2 C9 S1 -6.8(4)
C17 N2 C9 S1 172.9(2)
C8 S1 C9 N1 0.1(3)
C8 S1 C9 N2 -179.8(3)
C9 N2 C10 O2 1.0(5)
C17 N2 C10 O2 -178.8(3)
C9 N2 C10 C11 -178.6(2)
C17 N2 C10 C11 1.6(3)
O2 C10 C11 C16 -179.7(4)
N2 C10 C11 C16 0.0(3)
O2 C10 C11 C12 -0.5(6)
N2 C10 C11 C12 179.1(3)
C16 C11 C12 C13 1.5(5)
C10 C11 C12 C13 -177.6(3)
C11 C12 C13 C14 0.5(5)
C12 C13 C14 C15 -1.8(6)
C13 C14 C15 C16 1.2(6)
C14 C15 C16 C11 0.8(5)
C14 C15 C16 C17 179.0(3)
C12 C11 C16 C15 -2.1(5)
C10 C11 C16 C15 177.1(3)
C12 C11 C16 C17 179.3(3)
C10 C11 C16 C17 -1.4(4)
C9 N2 C17 O3 -3.0(5)
C10 N2 C17 O3 176.7(3)
C9 N2 C17 C16 177.9(3)
C10 N2 C17 C16 -2.4(3)
C15 C16 C17 O3 4.9(6)
C11 C16 C17 O3 -176.7(3)
C15 C16 C17 N2 -176.0(3)
C11 C16 C17 N2 2.4(3)

_cod_database_fobs_code 1543624
