#------------------------------------------------------------------------------
#$Date: 2016-08-05 06:40:26 +0300 (Fri, 05 Aug 2016) $
#$Revision: 184975 $
#$URL: file:///home/coder/svn-repositories/cod/cif/1/54/33/1543317.cif $
#------------------------------------------------------------------------------
#
# This file is available in the Crystallography Open Database (COD),
# http://www.crystallography.net/
#
# All data on this site have been placed in the public domain by the
# contributors.
#
data_1543317
loop_
_publ_author_name
'Kikuchi, Jun'
'Momiyama, Norie'
'Terada, Masahiro'
_publ_section_title
;
 Chiral Phosphoric Acid Catalyzed Diastereo- and Enantioselective
 Mannich-Type Reaction between Enamides and Thiazolones.
;
_journal_issue                   11
_journal_name_full               'Organic letters'
_journal_page_first              2521
_journal_page_last               2523
_journal_paper_doi               10.1021/acs.orglett.6b00857
_journal_volume                  18
_journal_year                    2016
_chemical_absolute_configuration 'CHOOSE rm ad rmad syn or unk'
_chemical_formula_moiety         'C24 H19 Br N2 O2 S'
_chemical_formula_sum            'C24 H19 Br N2 O2 S'
_chemical_formula_weight         479.39
_space_group_crystal_system      triclinic
_space_group_IT_number           1
_space_group_name_Hall           'P 1'
_space_group_name_H-M_alt        'P 1'
_symmetry_space_group_name_Hall  'P 1'
_symmetry_space_group_name_H-M   'P 1'
_atom_sites_solution_hydrogens   geom
_atom_sites_solution_primary     direct
_atom_sites_solution_secondary   difmap
_cell_angle_alpha                107.0271(7)
_cell_angle_beta                 97.7315(7)
_cell_angle_gamma                113.1729(7)
_cell_formula_units_Z            3
_cell_length_a                   11.3141(2)
_cell_length_b                   13.0066(3)
_cell_length_c                   13.3059(3)
_cell_measurement_reflns_used    22958
_cell_measurement_temperature    123
_cell_measurement_theta_max      27.45
_cell_measurement_theta_min      3.09
_cell_volume                     1650.25(6)
_computing_cell_refinement       'RAPID AUTO'
_computing_data_collection       'RAPID AUTO (Rigaku, ????)'
_computing_data_reduction        'RAPID AUTO'
_computing_molecular_graphics    'CrystalStructure 4.1'
_computing_publication_material  'CrystalStructure 4.1 (Rigaku, 2014)'
_computing_structure_refinement  'SHELXL2013 (Sheldrick, 2008)'
_computing_structure_solution    'SIR92 (Altomare, et al., 1994)'
_diffrn_ambient_temperature      123
_diffrn_detector_area_resol_mean 10.000
_diffrn_measured_fraction_theta_full 0.998
_diffrn_measured_fraction_theta_max 0.999
_diffrn_measurement_device_type  'Rigaku R-AXIS RAPID'
_diffrn_measurement_method       \w
_diffrn_radiation_type           'Mo K\a'
_diffrn_radiation_wavelength     0.71075
_diffrn_reflns_av_R_equivalents  0.0346
_diffrn_reflns_Laue_measured_fraction_full 0.998
_diffrn_reflns_Laue_measured_fraction_max 0.999
_diffrn_reflns_limit_h_max       14
_diffrn_reflns_limit_h_min       -14
_diffrn_reflns_limit_k_max       16
_diffrn_reflns_limit_k_min       -16
_diffrn_reflns_limit_l_max       17
_diffrn_reflns_limit_l_min       -17
_diffrn_reflns_number            26788
_diffrn_reflns_point_group_measured_fraction_full 0.881
_diffrn_reflns_point_group_measured_fraction_max 0.865
_diffrn_reflns_theta_full        25.242
_diffrn_reflns_theta_max         27.449
_diffrn_reflns_theta_min         3.085
_diffrn_standards_number         0
_exptl_absorpt_coefficient_mu    1.991
_exptl_absorpt_correction_T_max  0.819
_exptl_absorpt_correction_T_min  0.677
_exptl_absorpt_correction_type   multi-scan
_exptl_absorpt_process_details   'ABSCOR (Rigaku, 1995)'
_exptl_crystal_colour            colorless
_exptl_crystal_density_diffrn    1.447
_exptl_crystal_density_method    'not measured'
_exptl_crystal_description       block
_exptl_crystal_F_000             732.00
_exptl_crystal_size_max          0.320
_exptl_crystal_size_mid          0.210
_exptl_crystal_size_min          0.100
_refine_diff_density_max         0.81
_refine_diff_density_min         -0.50
_refine_ls_abs_structure_details
;
 Flack x determined using 3892 quotients [(I+)-(I-)]/[(I+)+(I-)]
 (Parsons and Flack (2004), Acta Cryst. A60, s61).
;
_refine_ls_abs_structure_Flack   0.002(3)
_refine_ls_extinction_method     none
_refine_ls_goodness_of_fit_ref   1.143
_refine_ls_hydrogen_treatment    constr
_refine_ls_number_parameters     814
_refine_ls_number_reflns         13040
_refine_ls_number_restraints     3
_refine_ls_R_factor_all          0.0532
_refine_ls_R_factor_gt           0.0323
_refine_ls_shift/su_max          0.000
_refine_ls_structure_factor_coef Fsqd
_refine_ls_weighting_details
'w = 1/[\s^2^(Fo^2^)+(0.0331P)^2^+0.0746P] where P=(Fo^2^+2Fc^2^)/3'
_refine_ls_weighting_scheme      calc
_refine_ls_wR_factor_gt          0.0701
_refine_ls_wR_factor_ref         0.0975
_reflns_number_gt                10349
_reflns_number_total             13040
_reflns_threshold_expression     F^2^>2.0\s(F^2^)
_cod_data_source_file            ol6b00857_si_001.cif
_cod_data_source_block           4BrPhproduct
_cod_depositor_comments          'Adding full bibliography for 1543317.cif.'
_cod_original_cell_volume        1650.24(6)
_cod_database_code               1543317
_shelxl_res_file
;
TITL 4BrPhproduct
CELL  0.71075 11.31406 13.00656 13.30586 107.02710 97.73150 113.17290
ZERR  3 0.00022 0.00025 0.00030 0.00070 0.00070 0.00070
LATT -1
SFAC C H N O S BR
UNIT 72 57 6 6 3 3
L.S. 20
FMAP 2
PLAN -10
WPDB -2
HTAB
BOND $H
CONF
LIST 4
TEMP -150.0
ACTA
SIZE 0.320 0.210 0.100
WGHT    0.033100    0.074600
FVAR       0.74790
BR1   6   -0.057848    0.666299    1.131160    11.00000    0.04957    0.05280 =
         0.04338    0.03077    0.02823    0.02739
BR2   6    0.420881    1.045289    0.520615    11.00000    0.04056    0.07761 =
         0.06214    0.04130    0.02707    0.04013
BR3   6    0.605788    1.346181    0.883310    11.00000    0.03407    0.03998 =
         0.10321    0.03658   -0.00543    0.01606
S1    5    0.094443    0.856827    0.626296    11.00000    0.03419    0.02276 =
         0.02442    0.01120    0.00558    0.01212
S2    5   -0.281931    0.926936    0.613499    11.00000    0.03238    0.03694 =
         0.02181    0.01416    0.00494    0.00381
S3    5    0.947773    0.907033    0.850165    11.00000    0.02342    0.03116 =
         0.03276    0.00483    0.01015    0.01273
O1    4    0.281037    0.968944    0.817351    11.00000    0.02725    0.02283 =
         0.02871    0.00779    0.00418    0.00448
O2    4    0.445266    0.776307    0.972366    11.00000    0.02562    0.02691 =
         0.02313    0.00643    0.00069    0.00318
O3    4   -0.066666    1.122980    0.755881    11.00000    0.03625    0.04775 =
         0.02122    0.01035    0.00449    0.00783
O4    4    0.183243    1.410578    0.630592    11.00000    0.02733    0.02865 =
         0.02240    0.00597    0.00003    0.00609
O5    4    1.052196    1.119993    1.015623    11.00000    0.02124    0.03060 =
         0.03588    0.00569    0.00184    0.00893
O6    4    0.786131    1.155915    1.275684    11.00000    0.02489    0.02616 =
         0.02239    0.00282   -0.00115    0.00943
N1    3    0.080250    0.654296    0.641901    11.00000    0.02427    0.02136 =
         0.02130    0.00618    0.00513    0.01074
N2    3    0.306404    0.648784    0.801094    11.00000    0.02279    0.02132 =
         0.02047    0.00639    0.00177    0.00972
AFIX  43
H2    2    0.260667    0.573233    0.754508    11.00000   -1.20000
AFIX   0
N3    3   -0.206989    1.015041    0.464831    11.00000    0.02220    0.02432 =
         0.02347    0.00829    0.00493    0.01098
N4    3   -0.011952    1.268512    0.503938    11.00000    0.02277    0.02439 =
         0.02239    0.00781    0.00030    0.00853
AFIX  43
H4    2   -0.060332    1.235795    0.435036    11.00000   -1.20000
AFIX   0
N5    3    0.719800    0.870799    0.897108    11.00000    0.02264    0.02817 =
         0.02226    0.00611    0.00463    0.01172
N6    3    0.687462    1.002737    1.109805    11.00000    0.01858    0.01965 =
         0.02168    0.00497    0.00236    0.00391
AFIX  43
H6    2    0.611076    0.944248    1.062916    11.00000   -1.20000
AFIX   0
C1    1    0.011441    0.692135    1.012390    11.00000    0.03107    0.04205 =
         0.03535    0.02576    0.01579    0.02095
C2    1    0.131245    0.792251    1.034985    11.00000    0.02772    0.03485 =
         0.02802    0.01414    0.00526    0.01429
AFIX  43
H2A   2    0.178175    0.848461    1.108137    11.00000   -1.20000
AFIX   0
C3    1   -0.057642    0.608832    0.906852    11.00000    0.02089    0.02631 =
         0.04105    0.01412    0.00708    0.00265
AFIX  43
H3    2   -0.139375    0.539548    0.893054    11.00000   -1.20000
AFIX   0
C4    1    0.182240    0.809396    0.948215    11.00000    0.02395    0.03737 =
         0.02617    0.01789    0.00757    0.01331
AFIX  43
H4A   2    0.264738    0.878172    0.962617    11.00000   -1.20000
AFIX   0
C5    1   -0.006446    0.627374    0.821182    11.00000    0.02169    0.03027 =
         0.02736    0.01493    0.00839    0.00904
AFIX  43
H5    2   -0.054532    0.570995    0.748258    11.00000   -1.20000
AFIX   0
C6    1    0.113900    0.726987    0.840363    11.00000    0.02113    0.03104 =
         0.02518    0.01481    0.00526    0.01579
C7    1    0.173232    0.746974    0.747253    11.00000    0.01957    0.01879 =
         0.02056    0.00591    0.00089    0.00632
C8    1    0.199957    0.872082    0.747433    11.00000    0.02153    0.02793 =
         0.02385    0.01086    0.01004    0.01015
C9    1    0.035412    0.696413    0.579471    11.00000    0.02576    0.02607 =
         0.02573    0.01484    0.01140    0.01467
C10   1   -0.066583    0.621800    0.471381    11.00000    0.02115    0.02337 =
         0.02355    0.00942    0.00634    0.00753
C11   1   -0.138821    0.666708    0.420731    11.00000    0.03318    0.02677 =
         0.02968    0.01052    0.00189    0.01103
AFIX  43
H11   2   -0.119092    0.749158    0.453882    11.00000   -1.20000
AFIX   0
C12   1   -0.237749    0.594836    0.324165    11.00000    0.04219    0.04353 =
         0.02965    0.01191    0.00081    0.02345
AFIX  43
H12   2   -0.286525    0.627191    0.290990    11.00000   -1.20000
AFIX   0
C13   1   -0.266817    0.474994    0.274766    11.00000    0.04026    0.04198 =
         0.03024    0.00365   -0.00150    0.01802
AFIX  43
H13   2   -0.336747    0.424512    0.208271    11.00000   -1.20000
AFIX   0
C14   1   -0.193704    0.428129    0.322357    11.00000    0.04585    0.02936 =
         0.03780    0.00244    0.00241    0.01913
AFIX  43
H14   2   -0.211258    0.346595    0.286945    11.00000   -1.20000
AFIX   0
C15   1   -0.095552    0.500536    0.421227    11.00000    0.03502    0.01506 =
         0.03393    0.00384    0.00057    0.01428
AFIX  43
H15   2   -0.047721    0.467990    0.455168    11.00000   -1.20000
AFIX   0
C16   1    0.312262    0.744657    0.764616    11.00000    0.02130    0.02662 =
         0.02123    0.01066    0.00483    0.00935
AFIX  13
H16   2    0.378912    0.822840    0.824698    11.00000   -1.20000
AFIX   0
C17   1    0.361644    0.736959    0.663878    11.00000    0.02905    0.03035 =
         0.03065    0.01210    0.00967    0.01630
AFIX 137
H17A  2    0.449896    0.739027    0.679347    11.00000   -1.20000
H17B  2    0.368743    0.805574    0.644001    11.00000   -1.20000
H17C  2    0.298300    0.661284    0.602988    11.00000   -1.20000
AFIX   0
C18   1    0.369553    0.672425    0.905137    11.00000    0.01667    0.03095 =
         0.01795    0.00559    0.00137    0.00888
C19   1    0.342562    0.565405    0.935600    11.00000    0.02202    0.02361 =
         0.02056    0.01046    0.00502    0.00656
C20   1    0.217304    0.467068    0.899501    11.00000    0.03484    0.03524 =
         0.02117    0.00959    0.00112    0.01292
AFIX  43
H20   2    0.145949    0.464305    0.850321    11.00000   -1.20000
AFIX   0
C21   1    0.194905    0.372404    0.934461    11.00000    0.05672    0.03634 =
         0.03015    0.01602    0.00604    0.00744
AFIX  43
H21   2    0.107738    0.306313    0.911351    11.00000   -1.20000
AFIX   0
C22   1    0.299833    0.374290    1.003174    11.00000    0.07342    0.03759 =
         0.03428    0.02429    0.02000    0.02947
AFIX  43
H22   2    0.285300    0.307553    1.024300    11.00000   -1.20000
AFIX   0
C23   1    0.425905    0.472876    1.041335    11.00000    0.04099    0.05951 =
         0.04169    0.03341    0.01268    0.02744
AFIX  43
H23   2    0.497278    0.474449    1.089442    11.00000   -1.20000
AFIX   0
C24   1    0.446860    0.567849    1.009279    11.00000    0.02684    0.04901 =
         0.03463    0.02218    0.01058    0.01589
AFIX  43
H24   2    0.532642    0.636346    1.036902    11.00000   -1.20000
AFIX   0
C25   1    0.264727    1.066032    0.530514    11.00000    0.02523    0.03953 =
         0.04711    0.02802    0.01649    0.01756
C26   1    0.151327    1.000624    0.441628    11.00000    0.04000    0.05322 =
         0.03007    0.02424    0.01800    0.02586
AFIX  43
H26   2    0.153111    0.950050    0.374479    11.00000   -1.20000
AFIX   0
C27   1    0.264843    1.140872    0.628309    11.00000    0.02372    0.03137 =
         0.04086    0.01492    0.00140    0.01038
AFIX  43
H27   2    0.343635    1.185248    0.688574    11.00000   -1.20000
AFIX   0
C28   1    0.034842    1.009636    0.451543    11.00000    0.03163    0.03389 =
         0.02625    0.01617    0.00898    0.01400
AFIX  43
H28   2   -0.043620    0.964453    0.390972    11.00000   -1.20000
AFIX   0
C29   1    0.149209    1.150854    0.638004    11.00000    0.02867    0.01880 =
         0.03271    0.00710    0.00178    0.00740
AFIX  43
H29   2    0.149121    1.203086    0.705011    11.00000   -1.20000
AFIX   0
C30   1    0.032080    1.084481    0.549702    11.00000    0.02801    0.03108 =
         0.02362    0.01459    0.00686    0.01549
C31   1   -0.094644    1.096226    0.561698    11.00000    0.02519    0.02102 =
         0.02005    0.00815    0.00569    0.00844
C32   1   -0.130002    1.064751    0.661003    11.00000    0.02746    0.03353 =
         0.02299    0.00820    0.00596    0.01261
C33   1   -0.302187    0.933148    0.479994    11.00000    0.02521    0.03181 =
         0.01926    0.00821    0.00864    0.01252
C34   1   -0.433939    0.848092    0.396581    11.00000    0.02319    0.02690 =
         0.02074    0.00879    0.00537    0.00836
C35   1   -0.537354    0.769049    0.420396    11.00000    0.03260    0.03353 =
         0.02257    0.00992    0.00649    0.00869
AFIX  43
H35   2   -0.523027    0.761767    0.489452    11.00000   -1.20000
AFIX   0
C36   1   -0.663653    0.699046    0.344191    11.00000    0.03078    0.03871 =
         0.03722    0.01481    0.00822    0.00435
AFIX  43
H36   2   -0.735847    0.646254    0.362119    11.00000   -1.20000
AFIX   0
C37   1   -0.683081    0.706812    0.243291    11.00000    0.03408    0.03411 =
         0.03511    0.00819    0.00102    0.00977
AFIX  43
H37   2   -0.768529    0.658132    0.190645    11.00000   -1.20000
AFIX   0
C38   1   -0.578191    0.785656    0.217781    11.00000    0.03666    0.03980 =
         0.02428    0.01046   -0.00185    0.01045
AFIX  43
H38   2   -0.592270    0.791597    0.148116    11.00000   -1.20000
AFIX   0
C39   1   -0.454041    0.855072    0.293324    11.00000    0.03183    0.03266 =
         0.02520    0.01330    0.01041    0.01154
AFIX  43
H39   2   -0.381871    0.907816    0.275338    11.00000   -1.20000
AFIX   0
C40   1   -0.070595    1.229270    0.584780    11.00000    0.02729    0.02725 =
         0.02745    0.01110    0.00637    0.01202
AFIX  13
H40   2   -0.003606    1.281810    0.658313    11.00000   -1.20000
AFIX   0
C41   1   -0.196614    1.244027    0.588184    11.00000    0.03383    0.04010 =
         0.04117    0.01139    0.01036    0.02143
AFIX 137
H41A  2   -0.264128    1.193681    0.516853    11.00000   -1.20000
H41B  2   -0.175402    1.328946    0.604833    11.00000   -1.20000
H41C  2   -0.231754    1.218990    0.645068    11.00000   -1.20000
AFIX   0
C42   1    0.116900    1.355262    0.533612    11.00000    0.02699    0.02112 =
         0.02629    0.00893    0.00501    0.01272
C43   1    0.179282    1.378142    0.444760    11.00000    0.02365    0.02169 =
         0.02496    0.00826    0.00307    0.00841
C44   1    0.108730    1.337527    0.335578    11.00000    0.03155    0.03396 =
         0.02457    0.00537    0.00508    0.01355
AFIX  43
H44   2    0.013611    1.294236    0.313028    11.00000   -1.20000
AFIX   0
C45   1    0.177278    1.360309    0.260329    11.00000    0.03665    0.04364 =
         0.02250    0.00837    0.00270    0.00868
AFIX  43
H45   2    0.128578    1.331398    0.185681    11.00000   -1.20000
AFIX   0
C46   1    0.315096    1.424187    0.291010    11.00000    0.03919    0.04550 =
         0.03057    0.01438    0.01655    0.01475
AFIX  43
H46   2    0.361023    1.439148    0.238105    11.00000   -1.20000
AFIX   0
C47   1    0.385821    1.466296    0.399849    11.00000    0.02673    0.04885 =
         0.03785    0.01534    0.00572    0.01348
AFIX  43
H47   2    0.480915    1.509854    0.422163    11.00000   -1.20000
AFIX   0
C48   1    0.317513    1.444668    0.475576    11.00000    0.02701    0.03458 =
         0.02919    0.00967    0.00388    0.01505
AFIX  43
H48   2    0.366261    1.476057    0.550560    11.00000   -1.20000
AFIX   0
C49   1    0.673764    1.240331    0.907095    11.00000    0.02541    0.02348 =
         0.04786    0.02104    0.00717    0.00987
C50   1    0.605620    1.119537    0.839035    11.00000    0.01858    0.04110 =
         0.03379    0.02163    0.00569    0.00897
AFIX  43
H50   2    0.529048    1.091026    0.779736    11.00000   -1.20000
AFIX   0
C51   1    0.785571    1.284502    0.991837    11.00000    0.01988    0.02704 =
         0.04570    0.01475   -0.00247    0.00541
AFIX  43
H51   2    0.831424    1.368092    1.037110    11.00000   -1.20000
AFIX   0
C52   1    0.651252    1.040302    0.858955    11.00000    0.02389    0.02902 =
         0.02254    0.00885    0.00467    0.01129
AFIX  43
H52   2    0.605161    0.956953    0.812941    11.00000   -1.20000
AFIX   0
C53   1    0.831335    1.204595    1.010780    11.00000    0.02898    0.03043 =
         0.03401    0.00818    0.00031    0.01377
AFIX  43
H53   2    0.909635    1.234603    1.068937    11.00000   -1.20000
AFIX   0
C54   1    0.764229    1.082215    0.946008    11.00000    0.01402    0.02935 =
         0.02303    0.01084    0.00580    0.00742
C55   1    0.809144    0.994643    0.971586    11.00000    0.02042    0.02097 =
         0.02566    0.00667    0.00492    0.01007
C56   1    0.952130    1.027249    0.958972    11.00000    0.02783    0.02584 =
         0.02713    0.01181    0.00961    0.01483
C57   1    0.775718    0.821478    0.837597    11.00000    0.02423    0.02312 =
         0.01977    0.00544    0.00445    0.01166
C58   1    0.704181    0.690900    0.762186    11.00000    0.02137    0.02846 =
         0.02439    0.00897    0.00444    0.01631
C59   1    0.744172    0.647979    0.670336    11.00000    0.02595    0.02963 =
         0.03056    0.00870    0.00585    0.01305
AFIX  43
H59   2    0.814028    0.702052    0.651411    11.00000   -1.20000
AFIX   0
C60   1    0.679822    0.524807    0.607319    11.00000    0.03486    0.03650 =
         0.02732    0.00169    0.00684    0.01832
AFIX  43
H60   2    0.705965    0.494431    0.544740    11.00000   -1.20000
AFIX   0
C61   1    0.579072    0.446728    0.634502    11.00000    0.02686    0.02721 =
         0.03507    0.00589   -0.00484    0.01213
AFIX  43
H61   2    0.536926    0.362630    0.591159    11.00000   -1.20000
AFIX   0
C62   1    0.538143    0.488917    0.724165    11.00000    0.02790    0.02524 =
         0.03273    0.01053    0.00391    0.01326
AFIX  43
H62   2    0.466997    0.434690    0.741875    11.00000   -1.20000
AFIX   0
C63   1    0.602894    0.612691    0.788644    11.00000    0.02421    0.03256 =
         0.02436    0.01115    0.00623    0.01360
AFIX  43
H63   2    0.576384    0.642600    0.851150    11.00000   -1.20000
AFIX   0
C64   1    0.812365    1.005484    1.092334    11.00000    0.02572    0.03301 =
         0.02364    0.01334    0.00708    0.01431
AFIX  13
H64   2    0.887253    1.085937    1.142588    11.00000   -1.20000
AFIX   0
C65   1    0.838199    0.907317    1.117942    11.00000    0.04679    0.04118 =
         0.02985    0.01596    0.01028    0.02988
AFIX 137
H65A  2    0.764464    0.827593    1.071109    11.00000   -1.20000
H65B  2    0.843978    0.919737    1.195081    11.00000   -1.20000
H65C  2    0.922658    0.911913    1.103994    11.00000   -1.20000
AFIX   0
C66   1    0.685421    1.086850    1.195385    11.00000    0.03272    0.02098 =
         0.01766    0.00768    0.01054    0.01514
C67   1    0.560310    1.100465    1.189929    11.00000    0.02365    0.02123 =
         0.01978    0.00717    0.00617    0.00800
C68   1    0.488269    1.094430    1.092267    11.00000    0.02843    0.02487 =
         0.02453    0.00963    0.00547    0.00937
AFIX  43
H68   2    0.513802    1.073819    1.026959    11.00000   -1.20000
AFIX   0
C69   1    0.379460    1.118773    1.091717    11.00000    0.03866    0.02810 =
         0.03226    0.00885    0.00188    0.01878
AFIX  43
H69   2    0.332153    1.116849    1.025997    11.00000   -1.20000
AFIX   0
C70   1    0.338653    1.145805    1.185240    11.00000    0.02571    0.04356 =
         0.04030    0.00492    0.00204    0.01860
AFIX  43
H70   2    0.262750    1.160598    1.183661    11.00000   -1.20000
AFIX   0
C71   1    0.409895    1.150992    1.281066    11.00000    0.04608    0.06021 =
         0.03525    0.01652    0.02250    0.03656
AFIX  43
H71   2    0.382694    1.169566    1.345780    11.00000   -1.20000
AFIX   0
C72   1    0.520201    1.129451    1.283686    11.00000    0.03497    0.05534 =
         0.02386    0.01482    0.00847    0.02415
AFIX  43
H72   2    0.569000    1.134569    1.350431    11.00000   -1.20000
AFIX   0
HKLF 4
 
REM  4BrPhproduct
REM R1 =  0.0323 for   10349 Fo > 4sig(Fo)  and  0.0532 for all   13040 data
REM    814 parameters refined using      3 restraints
 
END  
     
WGHT      0.0236      0.0659 

REM Instructions for potential hydrogen bonds
EQIV $1 x, y-1, z
HTAB N2 O4_$1
EQIV $2 x-1, y, z-1
HTAB N4 O6_$2
HTAB N6 O2
EQIV $3 x-1, y-1, z
HTAB C3 Br3_$3
HTAB C27 Br3

REM Highest difference peak  0.808,  deepest hole -0.502,  1-sigma level  0.094
Q1    1  -0.1007  0.6221  1.1840  11.00000  0.05    0.81
Q2    1  -0.0236  0.7054  1.0771  11.00000  0.05    0.78
Q3    1   0.3853  0.9959  0.5717  11.00000  0.05    0.70
Q4    1   0.6262  1.3801  0.8314  11.00000  0.05    0.69
Q5    1   0.5593  1.3020  0.9255  11.00000  0.05    0.65
Q6    1   0.4568  1.0840  0.4601  11.00000  0.05    0.65
Q7    1   0.3953  1.0556  0.5956  11.00000  0.05    0.54
Q8    1  -0.0869  0.6821  1.2108  11.00000  0.05    0.51
Q9    1   0.6286  1.3187  0.8293  11.00000  0.05    0.51
Q10   1   0.5200  1.3584  0.9102  11.00000  0.05    0.49
;
_shelxl_hkl_file
;
   0   0   2 1818.12   66.19
   0   0   2 1890.85   64.91
   0   0  -2 2095.61   69.31
   0   0  -2 1942.85   70.40
   0   0   3 3193.96  135.88
   0   0   3 3291.63  125.72
   0   0  -3 2649.09  115.75
   0   0  -3 2638.72  104.70
   0   0   4  947.79   34.44
   0   0   4  961.45   38.98
   0   0  -4 1042.05   36.81
   0   0  -4 1132.02   45.83
   0   0  -5  674.25   26.39
   0   0  -5  714.64   39.65
   0   0   6 1286.49   53.69
   0   0   6 1297.04   62.00
   0   0  -6 1434.22   59.31
   0   0  -6 1477.58   70.54
   0   0   7  158.28    9.85
   0   0   7  165.61   13.18
   0   0  -7  111.68    9.49
   0   0  -7  118.43   13.52
   0   0   8 1316.32   71.63
   0   0   8 1318.54   61.25
   0   0  -8 1369.01   78.03
   0   0  -8 1391.89   65.33
   0   0   9  290.08   18.90
   0   0   9  313.80   26.05
   0   0  -9  322.89   20.06
   0   0  -9  320.91   28.53
   0   0  10  468.39   28.21
   0   0  10  511.61   38.75
   0   0 -10  474.85   29.43
   0   0 -10  463.80   40.42
   0   0  11   47.30    9.53
   0   0  11   48.94   23.92
   0   0 -11   51.76   15.81
   0   0 -11   57.68   10.78
   0   0  12  110.85   24.36
   0   0  12  115.08   15.09
   0   0 -12  165.24   26.15
   0   0 -12  172.07   17.41
   0   0  13   27.26   14.97
   0   0  13   27.59    8.67
   0   0 -13   28.33   24.44
   0   0 -13   18.17    9.67
   0   0  14  103.34   22.61
   0   0  14  100.67   24.37
   0   0 -14   -0.71   25.94
   0   0 -14  110.05   25.00
   0   0  15   33.76   17.23
   0   0  15   23.82    9.58
   0   0 -15   14.19   10.87
   0   0 -15    6.10   17.74
   0   1 -16   -1.09   12.37
   0   1 -16   -0.48    6.62
   0  -1  16    3.94    6.31
   0  -1  16   14.06   11.44
   0   1 -15   43.55   38.42
   0   1 -15   43.95   14.44
   0  -1  15   62.49   13.44
   0  -1  15   55.56   23.38
   0   1 -14   12.13    7.47
   0   1 -14   13.00   12.16
   0  -1  14    1.42    6.71
   0  -1  14    8.50   11.93
   0   1 -13  132.03   28.67
   0   1 -13  125.74   17.26
   0  -1  13  134.40   16.87
   0  -1  13  145.41   26.90
   0   1 -12  154.34   28.30
   0   1 -12  167.86   17.98
   0  -1  12  193.92   27.88
   0  -1  12  170.34   24.89
   0   1 -11  167.34   17.81
   0   1 -11  173.91   27.05
   0  -1  11  241.49   26.03
   0  -1  11  197.45   16.94
   0   1 -10  431.39   27.25
   0   1 -10  419.10   37.06
   0  -1  10  474.08   27.19
   0  -1  10  451.54   37.15
   0   1  -9 1415.41   86.89
   0   1  -9 1458.59   73.40
   0  -1   9 1643.34   90.55
   0  -1   9 1565.68   74.62
   0   1  -8  156.20   16.69
   0   1  -8  152.11   11.30
   0  -1   8  119.64   14.63
   0  -1   8  125.68   10.23
   0   1  -7  415.82   20.83
   0   1  -7  423.12   27.75
   0  -1   7  453.73   20.71
   0  -1   7  448.69   26.19
   0   1  -6 2499.75  107.61
   0   1  -6 2451.86  119.82
   0  -1   6 2331.53  101.62
   0  -1   6 2300.29  111.23
   0   1  -5  645.19   25.80
   0   1  -5  647.65   30.93
   0  -1   5  792.44   28.77
   0  -1   5  818.22   39.55
   0   1  -4 1185.16   47.58
   0   1  -4 1222.58   42.62
   0  -1   4 1038.51   37.85
   0  -1   4 1067.78   47.73
   0   1  -3 9213.92  500.91
   0   1  -3 9746.10  506.03
   0  -1   3 9602.05  498.84
   0  -1   3 9234.83  499.59
   0   1  -2  446.81   14.25
   0   1  -2  444.28   12.77
   0  -1   2  443.03   14.12
   0  -1   2  454.96   13.19
   0   1   2 7432.47  347.46
   0   1   2 7115.13  339.51
   0  -1  -2 6332.64  302.19
   0  -1  -2 5943.44  291.85
   0   1   3  194.89    9.67
   0   1   3  211.16   12.09
   0  -1  -3  186.02   11.92
   0  -1  -3  169.68    7.13
   0   1   4 2230.21   92.62
   0   1   4 2210.23   86.56
   0  -1  -4 1823.87   75.57
   0  -1  -4 1857.00   83.61
   0   1   5  449.72   21.24
   0   1   5  445.60   18.32
   0  -1  -5  374.46   20.66
   0  -1  -5  364.28   16.89
   0   1   6  327.60   15.40
   0   1   6  323.38   19.10
   0  -1  -6  297.59   19.68
   0  -1  -6  302.66   15.79
   0   1   7  697.33   37.25
   0   1   7  678.93   31.50
   0  -1  -7  639.35   38.16
   0  -1  -7  673.39   32.28
   0   1   8  501.46   25.59
   0   1   8  542.23   33.53
   0  -1  -8  498.33   34.10
   0  -1  -8  479.44   34.25
   0   1   9  562.73   40.40
   0   1   9  597.03   39.83
   0  -1  -9  611.87   43.05
   0  -1  -9  619.56   34.90
   0   1  10  202.50   17.60
   0   1  10  237.39   25.23
   0  -1 -10  239.75   26.43
   0  -1 -10  241.29   19.00
   0   1  11  423.48   37.89
   0   1  11  407.51   26.79
   0  -1 -11  357.50   28.36
   0  -1 -11  344.68   38.58
   0   1  12  486.92   44.52
   0   1  12  477.24   32.17
   0  -1 -12  363.49   44.28
   0  -1 -12  414.69   33.13
   0   1  13   11.17    7.68
   0   1  13   28.94   13.00
   0  -1 -13   17.51   21.00
   0  -1 -13    9.24   13.60
   0   1  14  173.65   49.62
   0   1  14  160.65   20.72
   0  -1 -14  179.41   22.40
   0  -1 -14  174.38   33.45
   0   1  15   16.72   15.68
   0   1  15   14.75    8.73
   0  -1 -15   32.28   15.75
   0  -1 -15    2.07   16.14
   0   2 -16   17.88   20.30
   0   2 -16   13.71   11.63
   0  -2  16   29.80   10.99
   0  -2  16   26.53   19.60
   0   2 -15   25.58   13.57
   0   2 -15   50.63   23.06
   0  -2  15   57.93   13.13
   0  -2  15   60.80   35.44
   0   2 -14   21.89   16.57
   0   2 -14    7.87   14.93
   0  -2  14   24.01    9.26
   0  -2  14   21.21   15.66
   0   2 -13  206.46   21.54
   0   2 -13  211.67   34.21
   0  -2  13  178.60   20.22
   0  -2  13  177.56   31.26
   0   2 -12   25.92   10.41
   0   2 -12   20.37   17.08
   0  -2  12   73.70   16.21
   0  -2  12   87.01   16.67
   0   2 -11  563.59   34.92
   0   2 -11  563.68   48.17
   0  -2  11  552.06   34.05
   0  -2  11  551.09   46.51
   0   2 -10   99.38   19.68
   0   2 -10  112.27   21.31
   0  -2  10  156.75   13.89
   0  -2  10  183.61   20.79
   0   2  -9  845.37   54.86
   0   2  -9  848.39   52.11
   0  -2   9  880.02   53.36
   0  -2   9  810.43   41.39
   0   2  -8  104.06   14.18
   0   2  -8  103.16    9.67
   0  -2   8  117.32   13.70
   0  -2   8  115.85    9.55
   0   2  -7 1602.59   82.18
   0   2  -7 1567.19   70.40
   0  -2   7 1591.75   70.56
   0  -2   7 1600.46   80.57
   0   2  -6  261.65   17.93
   0   2  -6  274.13   13.77
   0  -2   6  324.84   18.10
   0  -2   6  318.47   14.83
   0   2  -5 3277.29  144.11
   0   2  -5 3180.89  151.60
   0  -2   5 3191.66  150.41
   0  -2   5 3251.19  144.41
   0   2  -4 1249.63   49.32
   0   2  -4 1258.50   44.76
   0  -2   4  991.94   41.64
   0  -2   4 1000.21   38.82
   0   2  -3  740.07   28.73
   0   2  -3  744.18   27.07
   0  -2   3  880.32   30.35
   0  -2   3  878.15   31.69
   0   2  -2 9627.74  514.60
   0   2  -2 9962.59  531.42
   0  -2   2 9853.99  525.76
   0  -2   210606.51  564.14
   0   2  -1  203.86    7.44
   0   2  -1  202.47    7.62
   0  -2   1  222.12    7.98
   0  -2   1  227.03    6.73
   0   2   0 1194.49   37.31
   0   2   0 1233.81   42.89
   0  -2   0 1264.13   39.44
   0  -2   0 1260.68   43.85
   0   2   1 3966.70  178.07
   0   2   1 4183.50  179.57
   0  -2  -1 4429.35  196.38
   0  -2  -1 4694.81  197.34
   0   2   2  420.16   15.25
   0   2   2  415.42   15.43
   0   2   2  423.39   16.06
   0   2   2  417.44   14.97
   0   2   3 2521.16  108.28
   0   2   3 2513.67  108.36
   0  -2  -3 2791.14  117.75
   0  -2  -3 2693.81  115.85
   0   2   4 1202.93   48.78
   0   2   4 1135.02   49.32
   0  -2  -4  902.07   46.87
   0  -2  -4  878.82   37.68
   0   2   5  470.47   22.37
   0   2   5  471.56   20.47
   0  -2  -5  365.53   21.28
   0  -2  -5  374.37   18.72
   0   2   6  180.34   11.59
   0   2   6  176.35   13.97
   0  -2  -6  201.52   12.68
   0  -2  -6  205.98   15.59
   0   2   7  153.94   11.99
   0   2   7  162.00   14.52
   0  -2  -7  163.09   17.77
   0  -2  -7  157.27   15.89
   0   2   8  758.75   43.49
   0   2   8  737.49   36.69
   0  -2  -8  642.93   43.89
   0  -2  -8  646.40   36.07
   0   2   9  357.25   30.46
   0   2   9  337.75   23.56
   0  -2  -9  406.47   33.14
   0  -2  -9  440.69   27.15
   0   2  10   24.62   11.42
   0   2  10   29.63    7.81
   0  -2 -10   31.31    8.44
   0  -2 -10   34.13   18.37
   0   2  11   20.20    8.11
   0   2  11   25.69   11.96
   0  -2 -11   28.09    8.58
   0  -2 -11   27.98   12.37
   0   2  12  199.92   28.11
   0  -2 -12  170.41   20.86
   0  -2 -12  162.88   27.47
   0   2  13   62.13   13.29
   0   2  13   92.26   21.21
   0  -2 -13   67.54   20.63
   0  -2 -13   58.72   14.76
   0   2  14  135.71   18.31
   0   2  14  162.36   30.54
   0  -2 -14  118.04   30.94
   0  -2 -14  143.10   31.55
   0   3 -16  161.49   39.05
   0   3 -16  155.83   33.91
   0  -3  16  131.43   37.03
   0  -3  16  129.08   22.05
   0   3 -15  138.57   21.77
   0   3 -15  126.55   36.22
   0  -3  15  125.92   33.86
   0  -3  15  172.79   30.95
   0   3 -14   27.75   12.55
   0   3 -14   30.89   21.69
   0  -3  14   79.50   20.19
   0  -3  14   45.49   12.55
   0   3 -13   67.56   13.44
   0   3 -13   59.62   21.19
   0  -3  13   60.17   12.78
   0  -3  13   53.98   19.95
   0   3 -12   10.77    9.65
   0   3 -12    5.68    6.15
   0  -3  12    8.07    6.05
   0  -3  12    0.30    9.20
   0   3 -11  244.73   33.04
   0   3 -11  264.01   33.04
   0  -3  11  362.62   33.71
   0  -3  11  356.01   33.62
   0   3 -10  484.27   30.18
   0   3 -10  472.88   41.44
   0  -3  10  576.19   41.63
   0  -3  10  569.91   40.29
   0   3  -9  107.39   17.44
   0   3  -9  123.38   12.12
   0  -3   9  125.49   16.34
   0  -3   9  118.60   17.76
   0   3  -8 1002.31   55.15
   0   3  -8  949.14   55.03
   0  -3   8  963.66   46.62
   0  -3   8  960.90   53.64
   0   3  -7  382.26   24.41
   0   3  -7  392.98   19.88
   0  -3   7  346.47   18.99
   0  -3   7  359.77   23.38
   0   3  -6 1762.89   85.62
   0   3  -6 1818.48   79.45
   0  -3   6 1865.97   89.41
   0  -3   6 1813.10   85.74
   0   3  -5 2023.00   93.12
   0   3  -5 2027.21   87.07
   0  -3   5 2157.38   92.28
   0  -3   5 2104.89   94.74
   0   3  -4 2221.14   99.59
   0   3  -4 2227.79   97.60
   0  -3   4 2252.18   97.76
   0  -3   4 2463.33  108.53
   0   3  -3 5131.49  242.22
   0   3  -3 4996.30  236.50
   0  -3   3 5068.98  241.66
   0  -3   3 4889.01  239.06
   0   3  -2 2358.46   97.26
   0   3  -2 2349.60   93.02
   0  -3   2 2525.58  103.38
   0  -3   2 2395.75   94.65
   0   3  -1 1128.94   37.48
   0   3  -1 1107.04   41.14
   0  -3   1  978.80   33.98
   0  -3   1 1012.55   39.61
   0   3   0 7324.80  368.31
   0   3   0 7281.70  344.61
   0  -3   0 6471.48  334.47
   0  -3   0 6522.05  315.57
   0   3   1  308.17   19.22
   0  -3  -1  461.40   15.64
   0  -3  -1  469.06   22.28
   0   3   2  338.22   16.32
   0   3   2  335.78   15.48
   0   3   2  342.24   17.03
   0   3   2  342.04   15.41
   0   3   3 2365.89  102.95
   0   3   3 2340.30  112.55
   0   3   3 2343.51  103.75
   0   3   3 2334.55  105.01
   0   3   4  645.79   30.38
   0   3   4  678.13   30.50
   0   3   4  670.56   30.22
   0   3   4  662.50   30.84
   0   3   5  803.57   45.11
   0   3   5  835.19   44.64
   0  -3  -5  804.84   40.37
   0  -3  -5  802.94   38.39
   0   3   6   27.83   10.32
   0   3   6   28.13    5.98
   0  -3  -6   25.93    7.10
   0  -3  -6   40.97    6.29
   0   3   7  318.14   19.99
   0   3   7  326.86   23.24
   0  -3  -7  376.68   34.89
   0  -3  -7  364.23   30.05
   0   3   8   74.11   12.40
   0   3   8   88.45   10.45
   0  -3  -8   67.25   10.97
   0  -3  -8   85.72   19.94
   0   3   9 1707.12  100.30
   0   3   9 1644.79   87.72
   0  -3  -9 1669.18  106.35
   0  -3  -9 1639.99  102.03
   0   3  10   57.44   13.64
   0   3  10   52.91   10.14
   0  -3 -10   34.56   14.34
   0  -3 -10   37.62   16.51
   0   3  11  113.08   15.58
   0   3  11  133.04   21.28
   0  -3 -11  128.53   17.30
   0  -3 -11  117.21   22.22
   0   3  12    5.71    7.52
   0   3  12   -2.75    5.14
   0  -3 -12   12.75    7.74
   0  -3 -12    1.30    5.59
   0   3  13   84.59   23.70
   0   3  13  113.65   23.78
   0  -3 -13   85.13   16.98
   0   3  14   25.59   10.11
   0   3  14   -7.62   17.10
   0   3  14   43.46   16.44
   0   3  14   25.97   11.76
   0   4 -16    6.70   10.51
   0   4 -16   16.87   19.82
   0  -4  16   30.37   16.56
   0  -4  16   33.51   29.21
   0   4 -15   44.84   25.63
   0   4 -15   40.20   42.62
   0  -4  15   80.05   16.41
   0  -4  15   75.09   26.44
   0   4 -14  327.89   50.20
   0   4 -14  373.34   35.32
   0  -4  14  391.74   34.93
   0  -4  14  414.33   48.77
   0   4 -13   85.15   35.38
   0   4 -13   77.01   14.33
   0  -4  13   55.03   20.30
   0  -4  13   60.62   13.70
   0   4 -12  429.50   46.16
   0   4 -12  425.98   32.70
   0  -4  12  432.91   43.36
   0  -4  12  415.73   31.79
   0   4 -11  579.66   48.31
   0   4 -11  592.32   37.95
   0  -4  11  562.10   64.83
   0  -4  11  541.58   36.30
   0   4 -10   56.49   15.08
   0   4 -10   65.34   10.24
   0  -4  10   51.92   21.08
   0  -4  10   56.43   10.23
   0   4  -9  974.35   50.90
   0   4  -9  927.41   59.56
   0  -4   9  967.65   72.25
   0  -4   9  950.11   50.17
   0   4  -8   93.24   19.95
   0   4  -8   79.98    9.89
   0  -4   8   91.36   13.25
   0  -4   8  104.62   10.44
   0   4  -7  227.30   17.89
   0   4  -7  221.86   14.85
   0  -4   7  264.27   18.83
   0  -4   7  266.24   16.06
   0   4  -6 1468.46   67.11
   0   4  -6 1503.13   73.64
   0  -4   6 1619.41   80.88
   0  -4   6 1577.14   75.32
   0   4  -5   91.55    9.57
   0   4  -5  100.33    9.01
   0  -4   5  159.96   10.06
   0  -4   5  164.57   10.65
   0   4  -4 4029.70  188.45
   0   4  -4 4032.42  195.54
   0  -4   4 3629.18  176.18
   0  -4   4 3540.57  171.03
   0   4  -3 2688.77  116.71
   0   4  -3 2570.17  109.96
   0  -4   3 2486.95  111.56
   0  -4   3 2408.14  104.32
   0   4  -2 2065.09   88.03
   0   4  -2 1974.58   86.89
   0  -4   2 2424.42  103.73
   0  -4   2 2237.49   89.55
   0   4  -1 1607.56   61.32
   0   4  -1 1583.65   67.79
   0  -4   1 1880.07   78.55
   0  -4   1 1812.00   67.76
   0   4   0 2745.28  120.53
   0   4   0 2740.44  110.78
   0  -4   0 2374.20   98.04
   0  -4   0 2447.80  112.27
   0   4   1  205.58    9.22
   0   4   1  214.62   17.44
   0  -4  -1  294.89   13.98
   0  -4  -1  294.73   14.54
   0   4   2 4358.31  217.86
   0   4   2 4189.10  200.39
   0   4   2 4266.87  200.91
   0   4   2 4306.09  216.00
   0   4   3  660.39   32.11
   0   4   3  669.01   32.64
   0   4   3  687.88   29.53
   0   4   3  681.36   30.43
   0   4   4 1453.71   68.14
   0   4   4 1512.81   72.70
   0   4   4 1446.18   68.76
   0   4   4 1478.16   67.13
   0   4   5  693.62   35.95
   0   4   5  695.16   36.83
   0   4   5  738.09   36.49
   0   4   5  695.74   37.29
   0   4   6  958.67   49.41
   0   4   6  999.70   52.96
   0   4   6  951.63   52.09
   0   4   6  987.80   51.08
   0   4   7  545.99   33.13
   0   4   7  565.43   35.35
   0   4   7  592.80   35.31
   0   4   7  545.20   35.91
   0   4   8  585.72   35.97
   0   4   8  578.81   40.12
   0   4   8  592.39   38.59
   0   4   8  571.98   38.03
   0   4   9  235.50   21.93
   0   4   9  213.62   24.78
   0   4   9  244.83   23.57
   0   4   9  221.78   20.19
   0   4  10   26.91   10.71
   0   4  10   19.32   11.68
   0   4  10   23.64    9.66
   0   4  10   25.38    8.41
   0   4  11   35.21   13.61
   0   4  11   23.83   11.09
   0   4  11   30.37   13.08
   0   4  11   35.36   10.10
   0   4  12    0.94    6.97
   0   4  12    1.24    5.04
   0   4  12    5.61    9.05
   0   4  12    1.54    7.39
   0   4  13    2.68   36.01
   0   4  13   71.47   22.46
   0   4  13   88.83   15.37
   0   4  13   98.25   17.91
   0   5 -17   85.59   33.25
   0   5 -17   49.27   17.21
   0  -5  17   58.25   31.70
   0  -5  17   68.79   18.24
   0   5 -16    8.22   10.68
   0   5 -16   12.14   30.34
   0  -5  16   20.51   10.95
   0  -5  16   23.91   18.33
   0   5 -15  184.86   40.50
   0   5 -15  192.70   25.95
   0  -5  15  169.67   24.83
   0  -5  15  163.89   37.32
   0   5 -14   87.32   17.40
   0   5 -14   88.13   42.95
   0  -5  14   69.28   17.03
   0  -5  14  109.90   39.36
   0   5 -13  132.86   28.05
   0   5 -13  115.55   18.22
   0  -5  13   88.46   17.02
   0  -5  13  104.93   25.01
   0   5 -12  135.98   28.38
   0   5 -12  129.43   29.00
   0  -5  12  203.03   28.28
   0  -5  12  200.05   20.91
   0   5 -11   44.33   15.14
   0   5 -11   33.36   13.80
   0  -5  11   30.11   13.10
   0  -5  11   25.43    9.54
   0   5 -10  659.38   51.78
   0   5 -10  633.08   47.92
   0  -5  10  589.75   45.05
   0  -5  10  592.22   38.52
   0   5  -9   61.83    9.88
   0   5  -9   76.58   19.60
   0  -5   9   49.80    9.80
   0  -5   9   58.98   12.61
   0   5  -8  133.23   15.38
   0   5  -8  132.27   12.66
   0  -5   8  120.52   12.66
   0  -5   8  114.78   14.94
   0   5  -7 1521.61   73.73
   0   5  -7 1483.18   77.19
   0  -5   7 1437.71   72.84
   0  -5   7 1463.45   76.39
   0   5  -6 1046.71   53.92
   0   5  -6 1080.54   61.57
   0  -5   6 1252.30   59.40
   0  -5   6 1247.38   60.58
   0   5  -5 1229.31   55.41
   0   5  -5 1193.26   54.56
   0  -5   5 1034.24   57.14
   0  -5   5 1040.44   52.15
   0   5  -4  661.09   31.98
   0   5  -4  677.27   30.65
   0  -5   4  738.66   35.34
   0  -5   4  709.80   31.60
   0   5  -3 1150.33   48.10
   0   5  -3 1160.37   52.55
   0  -5   3 1319.75   66.78
   0  -5   3 1210.73   50.39
   0   5  -2 5414.51  257.97
   0   5  -2 4983.33  255.05
   0  -5   2 4822.41  236.58
   0  -5   2 4909.09  257.53
   0   5  -1 1278.72   58.22
   0   5  -1 1296.34   50.87
   0  -5   1 1395.00   64.28
   0  -5   1 1424.67   55.70
   0   5   0 1226.20   47.06
   0   5   0 1233.44   63.87
   0  -5   0 1227.57   66.71
   0  -5   0 1182.60   47.54
   0   5   1  584.74   28.16
   0   5   1  574.59   22.01
   0  -5  -1  454.32   23.90
   0  -5  -1  424.54   25.60
   0   5   2  132.90    8.46
   0   5   2  142.10   11.48
   0   5   2  130.64    8.41
   0   5   2  136.91   11.57
   0   5   3  113.51    8.57
   0   5   3  116.17    8.65
   0   5   3  113.11   10.94
   0   5   3  109.12   11.27
   0   5   4  485.97   32.11
   0   5   4  465.37   27.95
   0   5   4  461.71   27.56
   0   5   4  468.67   24.50
   0   5   5  139.53   14.67
   0   5   5  147.66   13.89
   0   5   5  141.81   12.61
   0   5   5  130.75   19.01
   0   5   6  107.79   12.86
   0   5   6  107.40   11.71
   0   5   6  104.36   13.66
   0   5   6   88.50   12.21
   0   5   7   74.05   11.46
   0   5   7   76.03   18.84
   0   5   7   72.03   11.84
   0   5   7   81.19   19.69
   0   5   8  376.13   28.58
   0   5   8  379.72   31.31
   0   5   8  367.03   39.72
   0   5   8  400.54   31.27
   0   5   9   17.22    8.83
   0   5   9   20.84    9.48
   0   5   9   17.69    9.10
   0   5   9   11.91   12.45
   0   5  10   18.46   11.54
   0   5  10   34.73   10.63
   0   5  10   12.36   10.48
   0   5  10   20.19   13.91
   0   5  11   12.29   11.51
   0   5  11   24.41   14.29
   0   5  11   16.16   12.16
   0   5  11   27.03   16.30
   0   5  12   85.04   20.21
   0   5  12   79.38   17.81
   0   5  12   79.82   24.14
   0   5  12   69.51   33.35
   0   6 -17   31.61   11.99
   0   6 -17   15.30   36.34
   0  -6  17   24.33   35.61
   0  -6  17   -0.55   12.88
   0   6 -16   80.72   32.32
   0   6 -16   86.13   19.06
   0  -6  16   77.35   30.43
   0  -6  16   55.40   19.46
   0   6 -15   52.22   34.04
   0   6 -15   -0.38   12.96
   0  -6  15   51.72   19.57
   0  -6  15   36.32   13.37
   0   6 -14  192.39   25.87
   0   6 -14  163.50   38.59
   0  -6  14  178.46   25.39
   0  -6  14  200.51   34.48
   0   6 -13  443.61   37.90
   0   6 -13  425.45   51.47
   0  -6  13  469.22   39.73
   0  -6  13  440.65   49.39
   0   6 -12  171.26   21.34
   0   6 -12  143.67   28.74
   0  -6  12  199.02   22.55
   0  -6  12  187.84   28.92
   0   6 -11  103.39   17.91
   0   6 -11  102.12   23.28
   0  -6  11  162.54   18.96
   0  -6  11  180.78   23.03
   0   6 -10  143.28   22.29
   0   6 -10  138.49   17.99
   0  -6  10  161.99   18.22
   0  -6  10  180.70   22.48
   0   6  -9   38.26    9.07
   0   6  -9   41.18   10.71
   0  -6   9   24.79    9.49
   0  -6   9   35.95   11.35
   0   6  -8  587.98   39.11
   0   6  -8  618.97   36.95
   0  -6   8  629.71   38.46
   0  -6   8  622.16   40.77
   0   6  -7  491.47   28.35
   0   6  -7  475.65   28.52
   0  -6   7  369.20   27.05
   0  -6   7  361.21   26.46
   0   6  -6  307.41   28.05
   0   6  -6  293.10   27.05
   0  -6   6  284.77   19.76
   0  -6   6  296.67   21.33
   0   6  -5 1723.93   81.57
   0   6  -5 1763.90   85.34
   0  -6   5 1657.52   83.87
   0  -6   5 1608.88   78.41
   0   6  -4 1104.50   49.19
   0   6  -4 1111.23   53.62
   0  -6   4 1008.82   52.17
   0  -6   4  986.33   46.42
   0   6  -3 1484.37   69.66
   0   6  -3 1458.24   77.83
   0  -6   3 1355.89   61.00
   0  -6   3 1394.30   70.22
   0   6  -2  886.44   36.68
   0   6  -2  875.95   43.34
   0  -6   2  902.00   45.81
   0  -6   2  888.83   37.75
   0   6  -1  774.36   36.52
   0   6  -1  767.64   39.97
   0  -6   1  908.56   44.93
   0  -6   1  918.94   37.48
   0   6   0  467.93   27.19
   0   6   0  463.71   20.02
   0  -6   0  570.22   28.03
   0  -6   0  588.32   31.66
   0   6   1  689.47   37.01
   0   6   1  697.76   32.64
   0  -6  -1  654.75   47.07
   0  -6  -1  668.94   29.27
   0   6   2   96.57   11.78
   0   6   2  102.15   12.10
   0   6   2  106.67    8.02
   0   6   2  108.23    8.20
   0   6   3  127.57   14.47
   0   6   3  136.57   14.21
   0   6   3  117.76   20.55
   0   6   3  130.34   13.80
   0   6   4  458.98   24.91
   0   6   4  438.19   29.32
   0   6   4  413.59   29.22
   0   6   4  424.73   24.56
   0   6   5   68.31   13.92
   0   6   5   61.03    9.87
   0   6   5   61.44   11.20
   0   6   5   69.00   11.79
   0   6   6  371.70   38.08
   0   6   6  384.09   30.63
   0   6   6  385.77   35.85
   0   6   6  373.98   24.96
   0   6   7   44.91   10.59
   0   6   7   39.85   10.53
   0   6   7   41.65   11.36
   0   6   7   43.85    9.70
   0   6   8  299.02   38.80
   0   6   8  272.35   25.63
   0   6   8  266.31   33.75
   0   6   8  277.58   26.85
   0   6   9  115.22   19.74
   0   6   9  152.39   30.75
   0   6   9  123.63   18.07
   0   6   9  140.83   18.51
   0   6  10   12.77    9.66
   0   6  10   16.35    8.72
   0   6  10   10.10   15.02
   0   6  10   15.78   16.05
   0   6  11  102.10   19.98
   0   6  11   75.38   32.02
   0   6  11   93.87   19.43
   0   6  11  101.77   17.03
   0   6  12  103.75   18.55
   0   6  12  106.45   33.25
   0   6  12   70.61   23.05
   0   6  12  107.28   20.29
   0   7 -17  107.28   41.85
   0   7 -17   87.65   23.69
   0  -7  17  134.88   41.32
   0  -7  17  137.59   25.59
   0   7 -16  204.01   31.62
   0   7 -16  298.42   81.75
   0  -7  16  245.40   33.68
   0  -7  16  268.54   50.54
   0   7 -15  299.22   55.58
   0   7 -15  337.27   37.87
   0  -7  15  357.19   39.60
   0  -7  15  375.98   53.51
   0   7 -14   -4.04   49.50
   0   7 -14  132.92   23.55
   0  -7  14  154.30   31.68
   0  -7  14  145.20   24.24
   0   7 -13   63.03   23.89
   0   7 -13   78.54   17.66
   0  -7  13   87.19   23.46
   0  -7  13   70.35   17.55
   0   7 -12  138.52   28.41
   0   7 -12  156.95   22.75
   0  -7  12  167.83   23.00
   0  -7  12  177.82   28.64
   0   7 -11  122.91   22.51
   0   7 -11  100.15   17.71
   0  -7  11  103.80   21.96
   0  -7  11  108.53   17.96
   0   7 -10  157.63   19.25
   0   7 -10  158.09   22.18
   0  -7  10  140.14   22.18
   0  -7  10  124.44   18.96
   0   7  -9  809.29   52.07
   0   7  -9  802.97   70.97
   0  -7   9  934.22   57.72
   0  -7   9  951.99   60.41
   0   7  -8  145.71   18.03
   0   7  -8  146.28   17.90
   0  -7   8  195.50   19.70
   0  -7   8  215.06   19.85
   0   7  -7  382.40   26.37
   0   7  -7  386.54   27.01
   0  -7   7  349.99   26.99
   0  -7   7  350.44   26.12
   0   7  -6 1590.84   79.16
   0   7  -6 1612.04   82.11
   0  -7   6 1294.19   71.08
   0  -7   6 1364.61   76.37
   0   7  -5 1191.18   60.12
   0   7  -5 1204.40   64.90
   0  -7   5 1412.92   73.98
   0  -7   5 1411.18   67.74
   0   7  -4  423.79   36.02
   0   7  -4  403.02   21.53
   0  -7   4  412.06   22.51
   0  -7   4  414.15   28.64
   0   7  -3  838.11   37.45
   0   7  -3  804.21   43.71
   0  -7   3  706.74   34.84
   0  -7   3  734.84   53.26
   0   7  -2 2114.13   93.08
   0   7  -2 2103.12  106.26
   0  -7   2 1944.01  104.74
   0  -7   2 1909.30   89.65
   0   7  -1 1208.20   63.36
   0   7  -1 1304.94   54.79
   0  -7   1 1166.08   52.98
   0  -7   1 1177.38   66.03
   0   7   0  356.64   24.53
   0   7   0  351.05   16.60
   0  -7   0  327.31   17.40
   0  -7   0  346.54   25.53
   0   7   1   26.58    7.34
   0   7   1   26.43    4.07
   0  -7  -1   10.66    7.45
   0  -7  -1   14.58    4.39
   0   7   2   93.70   14.00
   0   7   2  111.60    9.05
   0   7   2  117.18   13.46
   0   7   2  120.40   14.15
   0   7   3  709.75   45.05
   0   7   3  701.82   35.17
   0   7   3  734.27   45.12
   0   7   3  738.09   42.62
   0   7   4  155.60   18.62
   0   7   4  161.59   13.77
   0   7   4  172.46   18.55
   0   7   4  160.44   13.63
   0   7   5  110.12   16.54
   0   7   5  100.22   12.66
   0   7   5  132.42   16.13
   0   7   5  114.42   17.86
   0   7   6  144.31   16.65
   0   7   6  174.65   19.71
   0   7   6  179.24   15.98
   0   7   6  158.47   20.42
   0   7   7   48.52   12.68
   0   7   7   38.21   11.19
   0   7   7   49.01   13.47
   0   7   7   62.81   10.51
   0   7   8    8.94    9.33
   0   7   8   10.24    8.46
   0   7   8   19.34   14.25
   0   7   8   19.35    7.71
   0   7   9   56.22   13.74
   0   7   9   39.90   20.32
   0   7   9   31.16   19.33
   0   7   9   50.06   21.91
   0   7  10   28.00   12.68
   0   7  10   40.48   13.79
   0   7  10   44.22   12.98
   0   7  10   41.37   14.16
   0   7  11   48.68   15.19
   0   7  11   35.76   16.25
   0   7  11   42.31   15.62
   0   7  11   52.33   13.73
   0   8 -16    0.75    7.38
   0   8 -16   -2.28   11.76
   0  -8  16   -7.15   11.08
   0  -8  16    1.29   12.17
   0   8 -15  288.36   35.75
   0   8 -15  247.62   52.30
   0  -8  15  271.56   54.81
   0  -8  15  258.11   48.57
   0   8 -14    2.81   28.57
   0   8 -14   96.77   20.94
   0  -8  14  111.11   32.73
   0  -8  14  101.43   27.34
   0   8 -13  309.37   37.77
   0   8 -13  298.09   67.28
   0  -8  13  371.27   39.17
   0  -8  13  400.90   45.20
   0   8 -12  184.11   32.98
   0   8 -12  218.27   27.16
   0  -8  12  218.50   32.78
   0  -8  12  205.44   28.25
   0   8 -11  421.09   42.50
   0   8 -11  445.10   38.70
   0  -8  11  425.14   60.72
   0  -8  11  430.63   39.77
   0   8 -10  394.74   34.05
   0   8 -10  342.29   35.60
   0  -8  10  375.35   35.80
   0  -8  10  364.81   34.36
   0   8  -9   23.83   11.18
   0   8  -9   30.85   11.17
   0  -8   9   23.86   11.41
   0  -8   9   37.59   11.18
   0   8  -8  357.02   29.12
   0   8  -8  370.57   30.42
   0  -8   8  339.87   30.39
   0  -8   8  341.41   29.51
   0   8  -7  325.58   27.65
   0   8  -7  313.50   34.69
   0  -8   7  326.01   36.21
   0  -8   7  326.02   28.22
   0   8  -6 2733.42  146.36
   0   8  -6 2747.67  154.36
   0  -8   6 2754.58  159.27
   0  -8   6 2789.12  166.54
   0   8  -5  278.97   22.73
   0   8  -5  304.48   18.84
   0  -8   5  228.91   23.25
   0  -8   5  213.89   17.94
   0   8  -4  192.88   19.04
   0   8  -4  200.27   19.30
   0  -8   4  176.97   14.42
   0  -8   4  163.20   19.78
   0   8  -3  477.60   34.64
   0   8  -3  517.98   27.20
   0  -8   3  634.20   39.72
   0  -8   3  603.74   30.05
   0   8  -2  575.97   36.10
   0   8  -2  596.06   27.63
   0  -8   2  538.65   28.34
   0  -8   2  537.38   37.48
   0   8  -1  259.28   31.13
   0   8  -1  266.86   14.40
   0  -8   1  223.21   22.83
   0  -8   1  219.97   14.49
   0   8   0   80.52   13.27
   0   8   0   82.24   11.29
   0  -8   0   84.90   14.87
   0  -8   0   96.56    8.71
   0   8   1  228.14   13.56
   0   8   1  233.77   21.91
   0  -8  -1  173.93   21.96
   0  -8  -1  208.19   19.19
   0   8   2  405.12   31.75
   0   8   2  388.25   20.58
   0   8   2  372.56   31.05
   0   8   2  386.28   21.32
   0   8   3   68.39    8.48
   0   8   3   67.62    8.11
   0   8   3   65.94   13.91
   0   8   3   62.67   21.19
   0   8   4   54.23   13.15
   0   8   4   53.43   13.42
   0   8   4   50.97    8.82
   0   8   4   63.44   12.88
   0   8   5   46.36   12.12
   0   8   5   25.39   12.87
   0   8   5   32.29    7.94
   0   8   5   44.22   11.65
   0   8   6   47.99    9.10
   0   8   6   33.98   13.14
   0   8   6   36.18    9.62
   0   8   6   41.90   12.83
   0   8   7   83.21   16.58
   0   8   7   78.56   13.47
   0   8   7   84.24   13.05
   0   8   7   75.29   17.43
   0   8   8   24.39   11.52
   0   8   8   16.93   10.89
   0   8   8   24.66    8.74
   0   8   8   18.99    9.12
   0   8   9   49.97   15.74
   0   8   9   21.04   20.89
   0   8   9   58.53   24.91
   0   8   9   65.94   13.45
   0   8  10   29.75   18.69
   0   8  10   43.53   14.96
   0   8  10   29.44   12.85
   0   8  10   40.48   13.98
   0   9 -16  108.17   28.08
   0   9 -16   -4.86   43.21
   0  -9  16  204.51   31.39
   0  -9  16  210.25   40.65
   0   9 -15    2.00   15.33
   0   9 -15   -0.03   11.50
   0  -9  15   38.40   15.23
   0  -9  15    1.47   12.08
   0   9 -14   75.28   19.86
   0   9 -14   -3.25   24.14
   0  -9  14   69.98   24.02
   0  -9  14   60.94   19.91
   0   9 -13  153.44   39.64
   0   9 -13  119.72   30.39
   0  -9  13  149.47   40.73
   0  -9  13  135.41   30.77
   0   9 -12  136.14   30.12
   0   9 -12  107.74   39.77
   0  -9  12  173.78   26.28
   0  -9  12  182.73   28.79
   0   9 -11  501.88   43.13
   0   9 -11  505.47   45.70
   0  -9  11  379.29   41.93
   0  -9  11  395.28   44.20
   0   9 -10   26.33   18.35
   0   9 -10   16.48   11.57
   0  -9  10   21.88   11.74
   0  -9  10   23.99   12.03
   0   9  -9  871.21   59.97
   0   9  -9  917.58   62.22
   0  -9   9  781.50   59.29
   0  -9   9  794.23   58.47
   0   9  -8  435.70   35.67
   0   9  -8  445.71   32.30
   0  -9   8  304.23   33.31
   0  -9   8  295.42   30.33
   0   9  -7  765.66   46.18
   0   9  -7  750.92   51.63
   0  -9   7  696.27   51.82
   0  -9   7  654.81   45.12
   0   9  -6    7.41   10.66
   0   9  -6   16.82    9.27
   0  -9   6   20.37    7.29
   0  -9   6   26.47   15.83
   0   9  -5  139.90   18.36
   0   9  -5  132.99   13.26
   0  -9   5  111.83   19.46
   0  -9   5  118.24   13.83
   0   9  -4  498.95   36.94
   0   9  -4  497.39   37.88
   0  -9   4  568.51   41.82
   0  -9   4  542.18   31.50
   0   9  -3  706.29   49.41
   0   9  -3  758.78   38.05
   0  -9   3  728.98   39.25
   0  -9   3  690.61   50.48
   0   9  -2  321.10   19.10
   0   9  -2  318.91   40.11
   0  -9   2  355.49   31.98
   0  -9   2  365.58   21.49
   0   9  -1  857.55   40.44
   0   9  -1  820.52   53.55
   0  -9   1  831.38   42.41
   0  -9   1  855.96   58.66
   0   9   0  653.92   46.72
   0   9   0  678.35   33.10
   0  -9   0  690.24   35.65
   0  -9   0  684.57   50.53
   0   9   1  684.49   62.30
   0   9   1  642.90   31.55
   0  -9  -1  558.97   45.69
   0  -9  -1  538.14   30.20
   0   9   2  254.84   17.14
   0   9   2  259.76   39.68
   0   9   2  265.19   27.62
   0   9   2  264.44   16.77
   0   9   3   19.90    5.88
   0   9   3   34.05   17.66
   0   9   3   27.20    6.07
   0   9   3   26.01   10.86
   0   9   4  175.88   14.91
   0   9   4  162.30   23.62
   0   9   4  168.93   14.41
   0   9   4  144.45   23.65
   0   9   5  181.08   16.63
   0   9   5  169.46   24.48
   0   9   5  162.46   15.90
   0   9   5  143.85   23.33
   0   9   6   80.96   12.01
   0   9   6   75.76   18.43
   0   9   6   76.30   17.97
   0   9   6   74.37   12.21
   0   9   7   69.20   12.84
   0   9   7   71.45   12.05
   0   9   7   64.68   17.66
   0   9   7   57.94   27.89
   0   9   8   13.89    7.53
   0   9   8   17.83    8.27
   0   9   8    6.54   10.82
   0   9   8   18.40   17.68
   0   9   9   26.59    8.71
   0   9   9   43.08   20.50
   0   9   9   14.81   12.80
   0   9   9   14.43    9.56
   0  10 -16    5.32   11.22
   0  10 -16   -6.37   16.11
   0 -10  16   42.70   24.83
   0 -10  16    0.86   11.76
   0  10 -15   -1.35   16.19
   0 -10  15    1.52   12.96
   0 -10  15   63.81   25.81
   0  10 -14  107.82   25.82
   0  10 -14    1.56   29.92
   0 -10  14  124.90   30.97
   0 -10  14  126.89   25.47
   0  10 -13   95.25   22.45
   0  10 -13  107.66   24.76
   0 -10  13   46.60   21.75
   0 -10  13   51.16   24.99
   0  10 -12  254.94   57.00
   0  10 -12  267.51   36.87
   0 -10  12  343.19   56.30
   0 -10  12  318.18   41.68
   0  10 -11  115.09   23.10
   0  10 -11   94.54   22.27
   0 -10  11  102.97   23.85
   0 -10  11   96.13   23.49
   0  10 -10  270.02   30.92
   0  10 -10  272.27   33.00
   0 -10  10  236.66   31.78
   0 -10  10  229.37   33.48
   0  10  -9  321.74   33.63
   0  10  -9  320.27   29.96
   0 -10   9  171.76   49.66
   0 -10   9  206.24   28.60
   0  10  -8 1859.75  146.95
   0  10  -8 1875.30  114.05
   0 -10   8 1836.30  116.11
   0 -10   8 1930.26  129.48
   0  10  -7  328.63   33.43
   0  10  -7  354.63   28.23
   0 -10   7  308.08   33.69
   0 -10   7  283.84   28.05
   0  10  -6   42.61   11.77
   0  10  -6   22.68   10.68
   0 -10   6    2.72   11.44
   0 -10   6   11.48    7.76
   0  10  -5 1023.07   55.43
   0  10  -5 1029.08   69.22
   0 -10   5  912.36   67.54
   0 -10   5  908.82   69.19
   0  10  -4  625.21   49.13
   0  10  -4  634.31   36.97
   0 -10   4  737.49   42.15
   0 -10   4  691.97   53.99
   0  10  -3  296.07   20.29
   0  10  -3  275.99   30.76
   0 -10   3  352.93   23.22
   0 -10   3  366.21   35.30
   0  10  -2   43.07   10.77
   0  10  -2   54.09   12.65
   0 -10   2   33.24   13.92
   0 -10   2   24.13    7.27
   0  10  -1  412.17   22.32
   0  10  -1  400.23   34.61
   0 -10   1  312.39   21.61
   0 -10   1  315.12   35.62
   0  10   0  305.04   42.63
   0  10   0  281.01   17.65
   0 -10   0  259.86   31.89
   0 -10   0  264.43   18.38
   0  10   1  325.43   19.52
   0  10   1  336.83   33.09
   0  10   1  331.85   21.34
   0  10   1  300.82   34.81
   0  10   2   38.33   15.91
   0  10   2   53.12    8.22
   0  10   2   50.09   23.61
   0  10   2   58.82   11.93
   0  10   3   86.59   15.52
   0  10   3   88.85   19.53
   0  10   3   90.31   16.10
   0  10   3  107.21   19.81
   0  10   4    4.44    7.74
   0  10   4    0.70    6.12
   0  10   4   13.75    7.88
   0  10   4    2.15    4.17
   0  10   5   -0.02    7.66
   0  10   5    3.57    8.75
   0  10   5   13.62    8.40
   0  10   5    5.17    7.11
   0  10   6   48.52   17.43
   0  10   6   47.23   27.32
   0  10   6   53.49   10.07
   0  10   6   53.93   10.48
   0  10   7    0.61    5.22
   0  10   7   13.20    9.33
   0  10   7   12.13    8.92
   0  11 -15   27.74   15.51
   0  11 -15   -0.90   18.36
   0 -11  15    0.54   15.75
   0 -11  15   24.58   18.35
   0  11 -14  137.59   35.76
   0  11 -14  178.42   32.71
   0 -11  14  126.69   35.44
   0 -11  14  120.93   31.92
   0  11 -13   -0.78    9.13
   0  11 -13   -1.05    8.73
   0 -11  13   -7.81   15.19
   0 -11  13   -1.26    8.56
   0  11 -12   78.63   37.06
   0  11 -12   44.05   22.21
   0 -11  12   79.52   23.80
   0 -11  12   98.28   24.22
   0  11 -11  264.59   34.15
   0  11 -11  266.83   37.63
   0 -11  11  256.82   36.71
   0 -11  11  254.44   58.76
   0  11 -10  229.20   29.10
   0  11 -10  220.32   33.41
   0 -11  10  195.64   29.28
   0 -11  10  202.00   34.38
   0  11  -9  130.04   26.98
   0  11  -9  123.15   33.88
   0 -11   9  173.61   29.06
   0 -11   9  155.17   23.30
   0  11  -8  531.24   52.54
   0  11  -8  584.11   44.32
   0 -11   8  568.83   45.68
   0 -11   8  595.92   56.20
   0  11  -7   78.92   34.74
   0  11  -7   84.60   15.60
   0 -11   7  118.94   17.70
   0 -11   7  133.02   24.39
   0  11  -6  351.00   37.11
   0  11  -6  376.98   37.15
   0 -11   6  288.80   27.48
   0 -11   6  292.80   37.38
   0  11  -5   23.43   13.90
   0  11  -5   30.49    8.52
   0 -11   5   31.45    9.35
   0 -11   5   37.74   14.98
   0  11  -4   51.09   16.47
   0  11  -4   54.20    9.89
   0 -11   4   59.32   28.06
   0 -11   4   53.67   10.41
   0  11  -3   95.31   11.62
   0  11  -3  116.64   20.93
   0 -11   3   92.13   22.07
   0 -11   3   96.93   13.05
   0  11  -2  506.80   29.35
   0  11  -2  496.30   45.97
   0 -11   2  460.44   48.22
   0 -11   2  461.34   30.15
   0  11  -1  193.36   14.56
   0  11  -1  172.18   40.57
   0 -11   1  157.79   29.44
   0 -11   1  195.18   16.68
   0  11   0   -1.54    8.30
   0  11   0    4.78    3.79
   0 -11   0    9.26    6.57
   0 -11   0    4.81    9.01
   0  11   1   24.14   10.65
   0  11   1   27.54   22.50
   0  11   1   37.00    6.69
   0  11   1   28.76   14.80
   0  11   2   57.20    8.57
   0  11   2   65.78   18.09
   0  11   2   62.92   13.40
   0  11   2   54.46   18.28
   0  11   3  376.36   24.39
   0  11   3  372.57   25.43
   0  11   3  380.41   42.25
   0  11   3  389.57   41.64
   0  11   4   43.65   15.09
   0  11   4   37.12   21.80
   0  11   4   22.44    7.05
   0  11   4   22.47    6.75
   0  11   5   58.87   15.67
   0  11   5   -2.12   15.25
   0  11   6   66.60   21.10
   0  11   6   74.05   21.69
   0  12 -15  163.58   40.86
   0  12 -15  162.55   57.99
   0 -12  15  147.79   38.21
   0 -12  15  150.79   42.07
   0  12 -14    0.68   20.66
   0  12 -14   51.88   20.63
   0 -12  14   31.83   33.62
   0 -12  14   28.60   20.66
   0  12 -13   12.84   13.75
   0  12 -13   -0.01   13.08
   0 -12  13    6.32   14.39
   0 -12  13   14.19   13.82
   0  12 -12  162.54   33.88
   0  12 -12  173.18   30.50
   0 -12  12  125.65   30.25
   0 -12  12  117.62   33.95
   0  12 -11  218.47   32.98
   0  12 -11  227.02   38.42
   0 -12  11  227.15   34.69
   0 -12  11  237.11   40.07
   0  12 -10   91.02   22.45
   0  12 -10  120.78   42.80
   0 -12  10  123.29   29.43
   0 -12  10  117.48   23.41
   0  12  -9   86.32   21.60
   0  12  -9   81.19   16.72
   0 -12   9   25.79   23.18
   0 -12   9   36.11   26.75
   0  12  -8  153.24   21.32
   0  12  -8  176.70   28.52
   0 -12   8  105.82   29.69
   0 -12   8  110.99   21.17
   0  12  -7  734.67   50.38
   0  12  -7  687.58   63.38
   0 -12   7  690.80   66.62
   0 -12   7  660.38   50.45
   0  12  -6   61.83   18.11
   0  12  -6   41.61   10.80
   0 -12   6   37.03   18.28
   0 -12   6   25.92   18.99
   0  12  -5   54.38   10.97
   0  12  -5   47.20   18.86
   0 -12   5   48.79   20.01
   0 -12   5   62.15   12.11
   0  12  -4  522.16   52.53
   0  12  -4  545.88   35.14
   0 -12   4  543.74   49.88
   0 -12   4  570.19   56.83
   0  12  -3  102.65   19.23
   0  12  -3   99.42   24.63
   0 -12   3  136.59   27.33
   0 -12   3  114.10   14.54
   0  12  -2   -0.06   17.56
   0  12  -2   36.30    8.36
   0 -12   2   59.06    9.32
   0 -12   2   52.31   19.24
   0  12  -1    0.65   15.08
   0  12  -1   27.22    6.76
   0 -12   1   36.44   16.24
   0 -12   1   34.19   11.53
   0  12   0  154.93   27.42
   0  12   0    4.25   26.67
   0  12   0  181.25   13.95
   0 -12   0  147.50   13.95
   0  12   1   13.44    8.97
   0  12   1   -0.92    3.62
   0  12   1    5.32    5.91
   0  12   1   19.30    9.33
   0  12   2   81.13   10.67
   0  12   2   96.14    9.95
   0  12   2  103.22   24.57
   0  12   2   89.56   23.15
   0  12   3   17.69   12.17
   0  12   3    4.72   12.10
   0  12   4   77.69   18.65
   0  12   4   -0.55   19.39
   0  12   5    1.15    7.73
   0  13 -14    0.01   11.30
   0  13 -14    2.59   11.69
   0 -13  14  -11.83   12.02
   0 -13  14   -1.60   11.05
   0  13 -13  290.55   74.41
   0  13 -13  269.93   45.55
   0 -13  13  276.38   44.30
   0 -13  13  268.29   76.16
   0  13 -12   -0.00   16.78
   0  13 -12   57.63   20.10
   0 -13  12   60.83   20.56
   0 -13  12   -0.30   16.95
   0  13 -11   75.88   18.85
   0  13 -11   69.17   24.85
   0 -13  11   61.98   24.99
   0 -13  11    0.35   19.48
   0  13 -10   50.74   25.11
   0  13 -10   36.99   18.84
   0 -13  10   80.79   26.84
   0 -13  10   91.36   19.66
   0  13  -9  101.84   27.44
   0  13  -9   96.63   19.60
   0 -13   9   80.24   27.59
   0 -13   9   52.75   30.42
   0  13  -8  147.55   22.45
   0  13  -8  173.98   32.47
   0 -13   8  134.68   34.16
   0 -13   8  122.75   34.43
   0  13  -7  163.29   31.99
   0  13  -7  180.67   32.90
   0 -13   7  133.30   32.25
   0 -13   7  193.44   35.15
   0  13  -6   97.26   14.59
   0  13  -6   95.38   24.71
   0 -13   6   70.62   15.32
   0 -13   6   -1.54   25.04
   0  13  -5  277.54   25.21
   0  13  -5  286.87   41.86
   0 -13   5  325.23   44.85
   0 -13   5  295.98   27.44
   0  13  -4    9.33   13.65
   0  13  -4   20.63    6.77
   0 -13   4    1.20   14.97
   0 -13   4    6.91    7.22
   0  13  -3   78.96   21.87
   0  13  -3   71.69   10.66
   0 -13   3   43.05   18.11
   0 -13   3    0.86   37.39
   0  13  -2   81.65   14.73
   0  13  -2   91.36   21.49
   0 -13   2   29.82   15.87
   0 -13   2    2.12   23.27
   0  13  -1  108.85   12.65
   0  13  -1  153.81   28.06
   0 -13   1  132.01   19.74
   0 -13   1  121.23   29.98
   0  13   0    1.42    7.90
   0  13   0    1.15    2.89
   0  13   0    1.36    4.80
   0  13   0    0.30    8.18
   0  13   1   -7.37   15.97
   0  13   1   66.48   23.58
   0  13   2   39.22   15.73
   0  13   2   -1.74   16.25
   0  13   3   -2.58   17.46
   0  13   3   44.44   16.43
   0  14 -12  138.78   36.12
   0  14 -12  131.35   27.51
   0 -14  12  101.05   36.55
   0 -14  12   -0.11   42.92
   0  14 -11  250.71   36.01
   0  14 -11  257.79   47.56
   0 -14  11  213.74   47.19
   0 -14  11  200.42   35.26
   0  14 -10   39.49   26.35
   0  14 -10   31.33   17.87
   0 -14  10   53.34   28.15
   0 -14  10   88.20   18.89
   0  14  -9  135.58   19.93
   0  14  -9  136.97   29.41
   0 -14   9   -0.06   19.09
   0 -14   9   32.64   46.45
   0  14  -8   34.86   12.24
   0  14  -8   34.80   20.71
   0 -14   8   25.97   20.15
   0 -14   8    2.01   21.23
   0  14  -7   52.22   20.36
   0  14  -7   34.25   11.83
   0 -14   7   27.47   12.60
   0 -14   7   -1.55   34.68
   0  14  -6  135.33   19.08
   0  14  -6  124.64   33.59
   0 -14   6  136.85   20.08
   0 -14   6  127.60   35.66
   0  14  -5   47.11   23.22
   0  14  -5   70.28   11.91
   0 -14   5    1.02   25.81
   0 -14   5   35.66   19.22
   0  14  -4  102.78   28.17
   0  14  -4   98.01   13.18
   0 -14   4   85.10   14.53
   0 -14   4   -1.08   31.05
   0  14  -3  215.59   40.69
   0  14  -3  234.06   19.91
   0 -14   3  213.13   21.61
   0 -14   3  193.61   43.58
   0  14  -2  164.49   35.93
   0 -14   2  175.04   38.81
   0  14  -1  -13.53   12.98
   0  14  -1   -1.09   13.04
   0  14   0   -2.10   21.33
   0  14   0   72.64   21.27
   0  15 -10  116.26   38.36
   0  15 -10  112.13   23.80
   0 -15  10  103.57   22.99
   0 -15  10   79.98   38.77
   0  15  -9   60.23   16.84
   0  15  -9   52.89   28.39
   0 -15   9   -0.03   29.66
   0 -15   9   59.35   17.18
   0  15  -8  209.15   46.80
   0  15  -8  227.26   28.09
   0 -15   8  200.93   49.38
   0 -15   8  200.79   28.56
   0  15  -7   13.04    9.72
   0  15  -7   18.05   29.74
   0 -15   7    1.87   20.93
   0 -15   7   24.35   10.60
   0  15  -6   10.18    8.08
   0  15  -6   32.35   16.91
   0 -15   6    3.32   18.22
   0 -15   6    9.33    8.71
   0  15  -5  133.23   24.51
   0  15  -5  136.74   35.77
   0 -15   5  121.83   17.95
   0 -15   5  146.57   39.83
   0  15  -4   83.45   34.58
   0 -15   4  150.89   38.68
   0  15  -3   26.42   18.82
   0 -15   3    5.15   19.96
  -1  15  -1    2.38    9.67
  -1  15  -1   -0.41    9.43
  -1  15  -2    6.40   12.02
  -1  15  -2    0.19   12.10
   1 -15   3   -0.20   24.99
  -1  15  -3   71.50   23.25
   1 -15   4    0.05   25.35
  -1  15  -4  109.23   36.61
   1 -15   5    1.70   42.70
   1 -15   5   27.75   10.17
  -1  15  -5   62.95   24.82
  -1  15  -5   63.15    9.59
   1 -15   6   -4.70   33.90
   1 -15   6   81.18   14.34
  -1  15  -6   92.38   14.02
  -1  15  -6  128.01   48.06
   1 -15   7  136.04   20.60
   1 -15   7  138.97   40.25
  -1  15  -7  172.41   28.80
  -1  15  -7  154.91   38.19
   1 -15   8   21.98   11.29
   1 -15   8   41.73   22.23
  -1  15  -8   15.80   10.91
  -1  15  -8   30.90   20.01
   1 -15   9  -14.13    5.99
   1 -15   9   -4.05   10.84
  -1  15  -9    9.23    6.00
  -1  15  -9    8.43   10.54
   1 -15  10   66.02   27.24
   1 -15  10   44.57   16.95
  -1  15 -10   41.25   26.31
  -1  15 -10   38.05   16.78
   1 -15  11   17.52   15.41
   1 -15  11    4.99   10.40
  -1  15 -11   23.75   25.41
  -1  15 -11    0.02   10.24
  -1  14   2   13.92   14.25
  -1  14   2    4.56   14.53
  -1  14   1    2.92   10.54
  -1  14   1    1.49    9.93
  -1  14   0    2.26   15.15
  -1  14   0    0.86   14.52
  -1  14  -1  130.44   33.44
  -1  14  -1  139.36   32.76
   1 -14   2    1.37    9.73
  -1  14  -2    1.40    9.20
   1 -14   3    9.48    8.68
   1 -14   3   -0.85   16.18
  -1  14  -3   12.68    7.70
  -1  14  -3   31.17   14.67
   1 -14   4   -2.43   22.37
   1 -14   4   30.05   13.26
  -1  14  -4   30.57   19.89
  -1  14  -4   43.13    8.03
   1 -14   5  292.94   35.88
   1 -14   5  290.52   49.83
  -1  14  -5  304.45   23.99
  -1  14  -5  293.01   45.06
   1 -14   6   68.48   13.18
   1 -14   6   -0.79   26.68
  -1  14  -6   74.45   24.52
  -1  14  -6   66.95   12.36
   1 -14   7   33.73   20.54
   1 -14   7   54.10   26.20
  -1  14  -7   47.96   23.42
  -1  14  -7   64.92   13.11
   1 -14   8   47.22   22.03
   1 -14   8   76.29   24.79
  -1  14  -8   43.86   37.00
  -1  14  -8   46.74   13.99
   1 -14   9  171.17   39.15
   1 -14   9  191.55   38.79
  -1  14  -9  178.29   25.36
  -1  14  -9  187.13   38.28
   1 -14  10   46.23   22.60
   1 -14  10    0.07   14.99
  -1  14 -10   70.54   21.56
  -1  14 -10   57.34   22.78
   1 -14  11   15.40   17.15
   1 -14  11    0.41   12.78
  -1  14 -11   32.20   18.20
  -1  14 -11   20.28   12.85
   1 -14  12   82.73   34.85
   1 -14  12  130.19   28.84
  -1  14 -12   81.05   28.91
  -1  14 -12    0.01   22.92
   1 -14  13   80.76   23.22
   1 -14  13   79.49   42.64
  -1  14 -13    0.01   23.36
  -1  14 -13   75.32   28.30
  -1  13   4   -6.49   49.07
  -1  13   4  189.15   32.00
  -1  13   3   -0.17   13.32
  -1  13   3   17.77   12.84
  -1  13   2   32.67   14.23
  -1  13   2   -5.94   14.92
  -1  13   1  289.58   42.42
  -1  13   1  314.05   45.62
  -1  13   0    1.02    6.55
  -1  13   0   -1.86    6.73
   1 -13   1    8.06    3.67
   1 -13   1   -2.43   12.06
  -1  13  -1    0.39   11.29
  -1  13  -1    6.37    3.35
   1 -13   2   -3.16   14.81
  -1  13  -2   -1.28    8.42
   1 -13   3  172.69   15.95
   1 -13   3  181.41   36.94
  -1  13  -3  188.77   33.15
  -1  13  -3  191.43   14.98
   1 -13   4   29.65    9.12
   1 -13   4   41.13   20.41
  -1  13  -4   42.75   12.85
  -1  13  -4   67.26   18.41
   1 -13   5   14.09   14.84
   1 -13   5   10.18    7.02
  -1  13  -5   -0.67   21.14
  -1  13  -5   19.39    6.69
   1 -13   6  121.87   24.17
   1 -13   6  129.69   29.28
  -1  13  -6  110.14   22.24
  -1  13  -6   96.34   26.53
   1 -13   7  346.73   49.13
   1 -13   7  368.02   32.72
  -1  13  -7  438.67   49.56
  -1  13  -7  434.48   33.70
   1 -13   8   34.61   17.49
   1 -13   8   18.46   11.16
  -1  13  -8   27.01   16.78
  -1  13  -8   29.80   26.04
   1 -13   9   93.93   27.57
   1 -13   9   79.47   19.09
  -1  13  -9   80.44   26.24
  -1  13  -9  108.28   18.86
   1 -13  10    0.76   13.76
   1 -13  10   -3.73   15.87
  -1  13 -10   17.25    9.77
  -1  13 -10    9.61   13.14
   1 -13  11  174.65   37.87
   1 -13  11  183.49   30.51
  -1  13 -11  166.12   37.47
  -1  13 -11  182.48   29.98
   1 -13  12   48.40   18.50
   1 -13  12   28.39   24.50
  -1  13 -12   -0.03   15.53
  -1  13 -12   11.84   28.40
   1 -13  13   26.16   17.87
   1 -13  13   15.95   16.47
  -1  13 -13   30.85   17.75
  -1  13 -13    0.02   16.41
   1 -13  14  159.58   37.98
   1 -13  14  186.40   38.36
  -1  13 -14  151.90   38.02
  -1  13 -14  141.14   37.55
  -1  12   5    3.87    5.45
  -1  12   5   -3.81    5.54
  -1  12   4   22.28   12.94
  -1  12   4    0.07   13.58
  -1  12   3    2.12   10.17
  -1  12   3   11.31   15.98
  -1  12   2  206.59   12.67
  -1  12   2  212.75   13.38
  -1  12   2  279.24   33.73
  -1  12   2  265.02   52.70
  -1  12   1  120.51    9.14
  -1  12   1  107.80   26.69
  -1  12   1   99.11   25.38
  -1  12   1  122.37   12.79
  -1  12   0   -0.58   36.16
  -1  12   0  108.32    9.21
  -1  12   0  107.70    8.80
  -1  12   0  121.62   25.02
   1 -12   1  250.61   21.93
   1 -12   1  224.43   36.49
  -1  12  -1  256.55   15.38
  -1  12  -1  253.40   34.21
   1 -12   2   48.84   20.57
   1 -12   2   44.99    8.33
  -1  12  -2   96.37   11.72
  -1  12  -2    0.19   29.66
   1 -12   3   58.73   18.80
   1 -12   3   45.15   12.31
  -1  12  -3   45.32    7.30
  -1  12  -3    0.68   16.71
   1 -12   4    5.64   14.05
   1 -12   4    2.49    6.64
  -1  12  -4   -6.08    8.24
  -1  12  -4    5.00    3.80
   1 -12   5  121.46   15.99
   1 -12   5  123.27   29.64
  -1  12  -5  170.03   15.42
  -1  12  -5  182.57   27.46
   1 -12   6   52.70   20.16
   1 -12   6   54.10   11.40
  -1  12  -6   57.98   11.26
  -1  12  -6   49.88   18.93
   1 -12   7  430.26   64.20
   1 -12   7  408.50   32.48
  -1  12  -7  344.75   41.88
  -1  12  -7  354.21   30.02
   1 -12   8    6.62    8.07
   1 -12   8    8.38   11.66
  -1  12  -8   14.67   11.31
  -1  12  -8    9.41    7.79
   1 -12   9   33.42   14.46
   1 -12   9   33.78   29.50
  -1  12  -9   65.39   19.02
  -1  12  -9   53.35   13.97
   1 -12  10   94.68   31.46
   1 -12  10   76.55   25.83
  -1  12 -10  101.19   19.86
  -1  12 -10   97.42   24.63
   1 -12  11  108.32   25.52
   1 -12  11  141.20   28.49
  -1  12 -11  110.31   24.41
  -1  12 -11  106.94   27.83
   1 -12  12   48.19   19.91
   1 -12  12   38.25   21.02
  -1  12 -12   48.78   21.28
  -1  12 -12   49.05   19.75
   1 -12  13  107.10   26.56
   1 -12  13  122.29   26.91
  -1  12 -13   -0.01   25.73
  -1  12 -13   93.98   25.70
   1 -12  14  144.61   29.08
   1 -12  14  140.14   31.00
  -1  12 -14   -1.94   30.29
  -1  12 -14   55.09   43.54
   1 -12  15  144.18   34.68
   1 -12  15  120.16   40.41
  -1  12 -15  138.82   39.75
  -1  12 -15  145.87   33.45
  -1  11   7   23.01   14.92
  -1  11   7   18.27   15.23
  -1  11   6   80.33   22.15
  -1  11   6   71.69   22.57
  -1  11   5   68.89   21.76
  -1  11   5   81.41   21.67
  -1  11   4   95.51   11.61
  -1  11   4   50.25   34.09
  -1  11   4   79.18    7.89
  -1  11   4   99.50   22.56
  -1  11   3   33.24   15.98
  -1  11   3   38.44    5.18
  -1  11   3   37.96    5.50
  -1  11   3   36.56   16.35
  -1  11   2  352.10   17.94
  -1  11   2  351.57   38.16
  -1  11   2  335.60   18.22
  -1  11   2  344.27   40.41
  -1  11   1   41.06    8.64
  -1  11   1   47.15    5.35
  -1  11   1   37.73   16.54
  -1  11   1   38.92   24.60
   1 -11   0  217.88   13.38
   1 -11   0  215.78   30.46
  -1  11   0  193.58   27.73
  -1  11   0  198.04   12.20
   1 -11   1  339.31   18.68
   1 -11   1  328.52   37.17
  -1  11  -1  266.03   15.87
  -1  11  -1  254.49   47.27
   1 -11   2  777.82   84.64
   1 -11   2  744.55   45.46
  -1  11  -2  718.24   35.30
  -1  11  -2  667.69   55.14
   1 -11   3  366.15   22.60
   1 -11   3  380.67   39.29
  -1  11  -3  328.83   35.05
  -1  11  -3  318.89   19.92
   1 -11   4  375.91   39.17
   1 -11   4  366.95   24.70
  -1  11  -4  346.41   22.53
  -1  11  -4  370.52   51.12
   1 -11   5  197.06   26.94
   1 -11   5  200.43   16.92
  -1  11  -5  121.61   21.41
  -1  11  -5  120.96   24.52
   1 -11   6  199.23   39.98
   1 -11   6  177.91   17.84
  -1  11  -6  133.26   24.40
  -1  11  -6  137.15   16.26
   1 -11   7   18.29   11.79
   1 -11   7   24.85    8.06
  -1  11  -7   10.17    7.56
  -1  11  -7    5.14   11.24
   1 -11   8  266.25   35.88
   1 -11   8  263.79   28.31
  -1  11  -8  370.57   36.86
  -1  11  -8  350.68   29.72
   1 -11   9  327.63   33.49
   1 -11   9  293.19   38.68
  -1  11  -9  353.17   33.15
  -1  11  -9  377.72   38.84
   1 -11  10  100.74   20.71
   1 -11  10   78.98   23.50
  -1  11 -10   94.85   19.88
  -1  11 -10  124.75   35.70
   1 -11  11   49.98   19.68
   1 -11  11   58.45   18.35
  -1  11 -11   61.27   19.48
  -1  11 -11   50.03   18.41
   1 -11  12  396.91   49.83
   1 -11  12  443.15   49.05
  -1  11 -12  408.51   48.65
  -1  11 -12  456.13   48.70
   1 -11  13   16.57   21.93
   1 -11  13   -0.35   19.36
  -1  11 -13   -0.29   13.47
  -1  11 -13   20.94   12.48
   1 -11  14    0.84   21.55
   1 -11  14  101.12   25.61
  -1  11 -14    2.50   24.55
  -1  11 -14  104.77   21.68
   1 -11  15   -0.31   16.32
   1 -11  15   44.36   20.91
  -1  11 -15   39.22   16.04
  -1  11 -15   -2.87   21.53
  -1  10   8   30.57   14.43
  -1  10   8   18.49   15.19
  -1  10   7  101.25   22.36
  -1  10   7   96.48   23.73
  -1  10   6  100.64   10.92
  -1  10   6   92.30   10.35
  -1  10   6  115.67   23.29
  -1  10   6  107.36   23.09
  -1  10   5   81.83   31.24
  -1  10   5   86.00    8.87
  -1  10   5   88.71   20.00
  -1  10   5   76.19    8.45
  -1  10   4   90.83    8.63
  -1  10   4   93.23   21.29
  -1  10   4   93.11    8.77
  -1  10   4  122.63   20.62
  -1  10   3   57.99   18.78
  -1  10   3   85.06   18.33
  -1  10   3   80.51    7.51
  -1  10   3   72.53   10.56
  -1  10   2  264.72   14.43
  -1  10   2  269.95   14.21
  -1  10   2  258.84   45.35
  -1  10   2  274.47   32.08
  -1  10   1  165.62   23.93
  -1  10   1  163.83   23.56
  -1  10   1  160.82   10.29
  -1  10   1  170.02   13.55
   1 -10   0   15.11   12.76
   1 -10   0   11.16    4.70
  -1  10   0   48.21    4.70
  -1  10   0   51.56   18.85
   1 -10   1   10.80    3.49
   1 -10   1    5.63    8.78
  -1  10  -1   -1.16    4.86
  -1  10  -1    8.72    7.66
   1 -10   2  319.38   19.00
   1 -10   2  305.65   34.24
  -1  10  -2  368.49   18.70
  -1  10  -2  339.88   31.89
   1 -10   3  144.86   11.39
   1 -10   3  137.91   20.83
  -1  10  -3   91.68    9.75
  -1  10  -3   91.57   18.47
   1 -10   4  568.53   40.25
   1 -10   4  559.95   46.43
  -1  10  -4  589.06   30.90
  -1  10  -4  562.96   44.20
   1 -10   5  601.64   36.78
   1 -10   5  621.42   66.04
  -1  10  -5  664.24   44.85
  -1  10  -5  680.61   48.76
   1 -10   6  194.24   18.44
   1 -10   6  196.55   26.03
  -1  10  -6  197.29   17.80
  -1  10  -6  213.00   24.60
   1 -10   7   74.58   19.48
   1 -10   7   76.65   14.61
  -1  10  -7  139.99   15.04
  -1  10  -7  119.60   19.29
   1 -10   8 1049.35   79.58
   1 -10   8 1026.56   91.18
  -1  10  -8  828.61   72.54
  -1  10  -8  899.53   65.10
   1 -10   9   36.77   15.09
   1 -10   9   44.27   13.12
  -1  10  -9   36.72   12.34
  -1  10  -9   34.02   14.26
   1 -10  10  160.13   36.47
   1 -10  10  114.10   21.76
  -1  10 -10  114.94   22.01
  -1  10 -10  119.12   22.25
   1 -10  11  138.61   25.73
   1 -10  11  144.69   24.34
  -1  10 -11  127.99   25.16
  -1  10 -11  128.12   24.11
   1 -10  12   87.75   24.22
   1 -10  12   99.44   21.60
  -1  10 -12   81.62   24.27
  -1  10 -12   91.45   21.49
   1 -10  13   77.19   22.88
   1 -10  13   63.11   19.46
  -1  10 -13    1.16   22.86
  -1  10 -13   88.51   19.76
   1 -10  14  288.24   56.27
   1 -10  14  273.84   71.43
  -1  10 -14  294.26   39.00
  -1  10 -14  289.68   49.45
   1 -10  15   -0.70   12.52
   1 -10  15   -3.51   18.05
  -1  10 -15   -2.06   12.10
  -1  10 -15   -1.02   11.33
   1 -10  16   63.64   29.61
   1 -10  16   -2.71   20.26
  -1  10 -16   -0.13   30.21
  -1  10 -16    2.15   19.19
  -1   9   9  101.04   18.47
  -1   9   9   24.68   17.47
  -1   9   9  116.49   19.78
  -1   9   9    2.82   17.04
  -1   9   8    3.58    3.59
  -1   9   8   -8.01    5.98
  -1   9   8   -1.54    3.27
  -1   9   8   -3.92    6.11
  -1   9   7  116.97   22.46
  -1   9   7  140.44   23.39
  -1   9   7  124.11   12.79
  -1   9   7  116.87   13.67
  -1   9   6   56.21   17.32
  -1   9   6   61.62    9.15
  -1   9   6   66.32    8.57
  -1   9   6   63.47   26.57
  -1   9   5  230.40   27.06
  -1   9   5  188.25   26.66
  -1   9   5  216.67   14.36
  -1   9   5  193.66   14.61
  -1   9   4   47.79   16.78
  -1   9   4   73.81   16.77
  -1   9   4   73.37    7.59
  -1   9   4   75.47   11.58
  -1   9   3   26.07    4.26
  -1   9   3   19.44   10.81
  -1   9   3   14.86   10.63
  -1   9   3   21.39    4.48
  -1   9   2  255.19   27.48
  -1   9   2  250.64   27.97
  -1   9   2  273.41   17.49
  -1   9   2  259.07   13.43
  -1   9   1  888.46   60.58
  -1   9   1  926.82   39.78
  -1   9   1  874.88   59.03
  -1   9   1  914.97   42.56
   1  -9   0   14.08    3.90
   1  -9   0   18.83   10.44
  -1   9   0   28.76    3.64
  -1   9   0   25.37    9.72
   1  -9   1  188.83   11.67
   1  -9   1  181.59   23.66
  -1   9  -1  228.26   11.64
  -1   9  -1  223.35   21.55
   1  -9   2  513.94   56.31
   1  -9   2  515.99   26.21
  -1   9  -2  601.48   51.68
  -1   9  -2  635.28   32.45
   1  -9   3  547.82   28.07
   1  -9   3  540.47   41.19
  -1   9  -3  646.69   41.51
  -1   9  -3  666.01   30.26
   1  -9   4  238.72   25.66
   1  -9   4  245.23   16.99
  -1   9  -4  288.33   25.13
  -1   9  -4  285.25   17.28
   1  -9   5  626.88   35.54
   1  -9   5  645.55   45.68
  -1   9  -5  668.37   44.28
  -1   9  -5  650.02   43.67
   1  -9   6  216.34   17.20
   1  -9   6  237.79   22.79
  -1   9  -6  141.71   15.47
  -1   9  -6  126.85   19.88
   1  -9   7  924.41   61.17
   1  -9   7  939.35   56.29
  -1   9  -7  937.76   55.05
  -1   9  -7  974.88   60.51
   1  -9   8  272.45   28.25
   1  -9   8  286.68   25.29
  -1   9  -8  236.65   23.93
  -1   9  -8  257.12   26.56
   1  -9   9   17.77   10.85
   1  -9   9   16.22   11.03
  -1   9  -9   32.82   11.12
  -1   9  -9   27.76   10.42
   1  -9  10  535.23   43.98
   1  -9  10  555.66   46.73
  -1   9 -10  435.95   42.96
  -1   9 -10  490.69   59.22
   1  -9  11  133.61   25.17
   1  -9  11  106.57   21.13
  -1   9 -11   91.68   32.72
  -1   9 -11  164.41   24.61
   1  -9  12   15.28   12.25
   1  -9  12   16.86   15.14
  -1   9 -12   36.58   15.15
  -1   9 -12   24.02   19.34
   1  -9  13   41.44   16.92
   1  -9  13   40.89   21.64
  -1   9 -13   81.62   27.18
  -1   9 -13   69.43   22.47
   1  -9  14  146.78   32.86
   1  -9  14  151.03   24.24
  -1   9 -14  123.01   24.20
  -1   9 -14    1.74   32.44
   1  -9  15  127.43   36.84
   1  -9  15  115.21   25.51
  -1   9 -15  128.69   25.11
  -1   9 -15  145.76   38.32
   1  -9  16  107.86   25.17
   1  -9  16  148.65   37.67
  -1   9 -16   -0.37   37.64
  -1   9 -16  110.84   22.95
  -1   8  10   17.04   13.73
  -1   8  10   21.89    9.26
  -1   8  10   22.17   14.99
  -1   8  10   23.53   12.54
  -1   8   9   40.12   14.53
  -1   8   9   24.16   13.10
  -1   8   9   25.16    9.74
  -1   8   9   30.82    9.35
  -1   8   8   13.70    7.13
  -1   8   8   18.25    6.62
  -1   8   8   10.78   10.33
  -1   8   8    8.21   11.26
  -1   8   7  153.83   21.01
  -1   8   7  143.66   22.19
  -1   8   7  165.09   36.06
  -1   8   7  157.14   22.64
  -1   8   6   49.85   11.82
  -1   8   6   40.75   14.67
  -1   8   6   55.60    8.66
  -1   8   6   52.74   14.27
  -1   8   5  208.74   19.60
  -1   8   5  198.65   14.66
  -1   8   5  213.96   23.98
  -1   8   5  207.91   24.73
  -1   8   4  504.95   40.23
  -1   8   4  496.07   41.39
  -1   8   4  561.91   26.84
  -1   8   4  501.54   31.15
  -1   8   3  621.11   44.00
  -1   8   3  622.17   27.34
  -1   8   3  612.29   32.40
  -1   8   3  593.26   43.56
  -1   8   2  685.39   28.34
  -1   8   2  676.19   46.02
  -1   8   2  685.28   45.32
  -1   8   2  664.69   28.58
  -1   8   1  544.33   37.30
  -1   8   1  534.47   25.41
   1  -8   0  244.00   23.31
   1  -8   0  248.83   12.17
  -1   8   0  225.64   10.63
  -1   8   0  244.39   31.02
   1  -8   1 1890.96  105.93
   1  -8   1 1915.36   87.38
  -1   8  -1 1723.53   96.33
  -1   8  -1 1744.70   73.92
   1  -8   2  145.37    9.52
   1  -8   2  145.60   17.59
  -1   8  -2  166.71   12.67
  -1   8  -2  152.93   16.31
   1  -8   3    6.11    2.85
   1  -8   3    0.45    5.29
  -1   8  -3    2.93    4.80
  -1   8  -3    4.06    2.65
   1  -8   4  436.58   30.94
   1  -8   4  426.85   23.39
  -1   8  -4  479.44   24.24
  -1   8  -4  497.77   31.48
   1  -8   5 1030.77   53.78
   1  -8   5 1050.82   62.78
  -1   8  -5 1195.11   76.80
  -1   8  -5 1174.10   56.67
   1  -8   6  330.82   32.49
   1  -8   6  346.14   28.51
  -1   8  -6  407.59   24.87
  -1   8  -6  398.61   27.73
   1  -8   7  682.27   59.36
   1  -8   7  700.44   44.16
  -1   8  -7  825.47   48.97
  -1   8  -7  855.74   47.81
   1  -8   8   30.55    9.49
   1  -8   8   25.79    9.21
  -1   8  -8   16.73    8.43
  -1   8  -8   19.03    8.81
   1  -8   9  834.41   53.85
   1  -8   9  891.98   59.37
  -1   8  -9  846.76   54.11
  -1   8  -9  756.77   54.00
   1  -8  10   16.29   12.31
   1  -8  10   28.47   10.67
  -1   8 -10   26.13   12.28
  -1   8 -10   35.01   10.60
   1  -8  11  349.44   44.72
   1  -8  11  343.27   37.15
  -1   8 -11  306.90   29.87
  -1   8 -11  292.26   36.05
   1  -8  12  240.40   27.19
   1  -8  12  244.10   32.19
  -1   8 -12  187.06   31.62
  -1   8 -12  171.32   24.95
   1  -8  13  171.71   32.49
   1  -8  13  169.04   26.01
  -1   8 -13  188.49   35.95
  -1   8 -13  187.28   25.85
   1  -8  14   67.02   22.71
   1  -8  14   39.15   16.60
  -1   8 -14   69.35   16.36
  -1   8 -14    3.44   24.61
   1  -8  15  175.46   28.84
   1  -8  15  173.84   40.61
  -1   8 -15  196.16   27.44
  -1   8 -15  183.06   43.19
   1  -8  16  168.10   29.26
   1  -8  16  185.52   45.10
  -1   8 -16  160.52   27.35
  -1   8 -16  185.49   46.58
  -1   7  11   -4.21   12.29
  -1   7  11   -6.35   10.96
  -1   7  11    8.48    5.96
  -1   7  11    0.28    6.29
  -1   7  10   70.47   27.68
  -1   7  10   68.94   22.77
  -1   7  10   93.86   20.69
  -1   7  10   76.20   15.95
  -1   7   9   32.12    9.95
  -1   7   9   22.39    9.03
  -1   7   9   25.26   18.42
  -1   7   9   27.64   13.33
  -1   7   8  433.15   39.67
  -1   7   8  389.11   28.38
  -1   7   8  399.84   30.27
  -1   7   8  379.08   49.10
  -1   7   7   39.35   19.38
  -1   7   7   29.70    7.48
  -1   7   7   40.76   17.43
  -1   7   7   30.04    8.32
  -1   7   6  130.23   13.02
  -1   7   6  134.28   19.54
  -1   7   6  132.30   17.44
  -1   7   6  124.77   18.60
  -1   7   5  189.07   14.12
  -1   7   5  190.92   21.33
  -1   7   5  209.19   18.56
  -1   7   5  214.78   22.69
  -1   7   4   76.69   14.65
  -1   7   4   91.97   11.54
  -1   7   4   88.57    7.91
  -1   7   4   88.27   14.26
  -1   7   3  202.41   14.38
  -1   7   3  190.02   10.62
  -1   7   3  188.82   19.18
  -1   7   3  183.12   19.29
  -1   7   2 1177.42   66.87
  -1   7   2 1186.71   47.80
  -1   7   2 1207.24   51.14
  -1   7   2 1145.66   64.62
   1  -7  -1  704.40   40.92
   1  -7  -1  715.06   26.59
  -1   7   1  553.89   21.70
  -1   7   1  552.73   35.25
   1  -7   0 1995.21   81.52
   1  -7   0 1948.36  105.51
  -1   7   0 1837.66   97.74
  -1   7   0 1898.93   75.64
   1  -7   1 1454.29   77.69
   1  -7   1 1458.58   58.63
  -1   7  -1 1383.96   54.43
  -1   7  -1 1354.78   71.13
   1  -7   2  851.50   55.49
   1  -7   2  880.44   34.99
  -1   7  -2  747.05   30.55
  -1   7  -2  762.49   41.46
   1  -7   3  103.44   10.76
   1  -7   3  105.50   12.03
  -1   7  -3   84.27    6.96
  -1   7  -3   89.19   11.22
   1  -7   4 1600.45   80.64
   1  -7   4 1686.29   86.53
  -1   7  -4 1598.08   73.10
  -1   7  -4 1602.23   81.15
   1  -7   5  204.64   13.91
   1  -7   5  200.13   17.07
  -1   7  -5  177.75   13.67
  -1   7  -5  173.99   15.58
   1  -7   6  339.05   22.24
   1  -7   6  339.59   24.64
  -1   7  -6  334.40   21.60
  -1   7  -6  338.89   23.38
   1  -7   7 1224.60   65.15
   1  -7   7 1205.59   77.15
  -1   7  -7 1194.47   75.30
  -1   7  -7 1116.07   62.39
   1  -7   8 1076.33   62.94
   1  -7   8 1056.95   60.12
  -1   7  -8 1084.62   59.59
  -1   7  -8  983.52   60.04
   1  -7   9  375.69   29.09
   1  -7   9  398.62   32.10
  -1   7  -9  367.50   27.95
  -1   7  -9  363.23   31.80
   1  -7  10  155.18   28.04
   1  -7  10  104.70   15.80
  -1   7 -10   78.94   14.54
  -1   7 -10   80.00   18.30
   1  -7  11  841.71   65.58
   1  -7  11  839.94   57.29
  -1   7 -11  969.14   59.12
  -1   7 -11  871.92   68.68
   1  -7  12   97.24   25.79
   1  -7  12  128.35   19.29
  -1   7 -12  141.31   26.66
  -1   7 -12  136.14   18.42
   1  -7  13  208.12   26.39
   1  -7  13  215.01   53.95
  -1   7 -13  265.71   27.47
  -1   7 -13  234.49   39.79
   1  -7  14   75.32   37.66
   1  -7  14   68.46   16.73
  -1   7 -14   59.91   15.82
  -1   7 -14   -0.34   39.65
   1  -7  15  156.75   35.49
   1  -7  15  170.25   23.28
  -1   7 -15  127.77   22.16
  -1   7 -15   -1.68   37.59
   1  -7  16  226.06   44.56
   1  -7  16  205.59   47.62
  -1   7 -16  267.35   81.06
  -1   7 -16  221.44   28.71
  -1   6  12   35.33   20.44
  -1   6  12   16.41   11.70
  -1   6  12   23.36   12.82
  -1   6  12   27.10   18.73
  -1   6  11   32.26   12.67
  -1   6  11   35.67   20.72
  -1   6  11   35.36   12.51
  -1   6  11   31.41   14.51
  -1   6  10   21.60   18.98
  -1   6  10   43.84   11.54
  -1   6  10   37.80   12.77
  -1   6  10   34.54   14.04
  -1   6   9   25.54    9.42
  -1   6   9   28.23   15.62
  -1   6   9   33.42   11.09
  -1   6   9   29.44   12.44
  -1   6   8   77.77   11.52
  -1   6   8   69.44   15.97
  -1   6   8   67.83   13.98
  -1   6   8   58.70   12.02
  -1   6   7   50.62    9.43
  -1   6   7   54.95    8.77
  -1   6   7   54.81   12.04
  -1   6   7   50.66   13.32
  -1   6   6 1360.59   74.81
  -1   6   6 1386.86   98.78
  -1   6   6 1259.63   74.72
  -1   6   6 1305.51   77.14
  -1   6   5  128.62   11.00
  -1   6   5  126.56   14.31
  -1   6   5  128.10   16.36
  -1   6   5  122.42   15.41
  -1   6   4  450.51   21.98
  -1   6   4  441.35   31.06
  -1   6   4  446.38   21.22
  -1   6   4  423.64   29.85
  -1   6   3  201.49   10.39
  -1   6   3  194.02   10.00
  -1   6   3  206.64   17.81
  -1   6   3  211.80   17.46
  -1   6   2  605.67   26.09
  -1   6   2  571.97   34.03
  -1   6   2  609.43   43.00
  -1   6   2  573.65   21.73
   1  -6  -1 2603.13  138.10
   1  -6  -1 2750.49  114.10
  -1   6   1 2803.99  143.03
  -1   6   1 2806.01  113.66
   1  -6   0  184.50    7.95
   1  -6   0  209.42   16.40
  -1   6   0  202.88   15.16
  -1   6   0  223.07    8.03
   1  -6   1  473.84   17.83
   1  -6   1  479.68   27.80
  -1   6  -1  504.30   27.19
  -1   6  -1  511.35   18.03
   1  -6   2 3297.19  168.14
   1  -6   2 3273.31  146.09
  -1   6  -2 3380.06  147.87
  -1   6  -2 3321.55  165.06
   1  -6   3 1237.26   70.31
   1  -6   3 1152.19   49.20
  -1   6  -3 1357.68   55.02
  -1   6  -3 1395.60   63.77
   1  -6   4  263.08   19.73
  -1   6  -4  408.75   21.66
  -1   6  -4  414.10   19.08
   1  -6   5 1138.55   54.80
   1  -6   5 1100.88   50.22
  -1   6  -5  985.52   58.26
  -1   6  -5  937.03   46.29
   1  -6   6  634.51   34.75
   1  -6   6  648.98   35.29
  -1   6  -6  697.74   36.80
  -1   6  -6  704.96   35.78
   1  -6   7 2249.34  122.89
   1  -6   7 2308.44  122.76
  -1   6  -7 2764.98  135.78
  -1   6  -7 2646.10  137.66
   1  -6   8    3.51    5.13
   1  -6   8    1.85    4.40
  -1   6  -8   -2.30    5.43
  -1   6  -8    9.27    4.13
   1  -6   9   53.18   12.36
   1  -6   9   47.77    9.72
  -1   6  -9   59.69   19.88
  -1   6  -9   48.90    9.74
   1  -6  10 1808.31   99.88
   1  -6  10 1870.17  112.74
  -1   6 -10 1686.15   94.02
  -1   6 -10 1607.97  105.69
   1  -6  11  176.74   26.63
   1  -6  11  171.28   19.29
  -1   6 -11  184.29   28.76
  -1   6 -11  194.92   18.91
   1  -6  12  202.44   32.15
   1  -6  12  228.95   34.30
  -1   6 -12  272.73   37.31
  -1   6 -12  279.27   35.61
   1  -6  13   62.44   21.07
   1  -6  13   67.02   21.43
  -1   6 -13   61.00   21.86
  -1   6 -13   46.42   34.39
   1  -6  14  153.88   31.73
   1  -6  14  159.35   33.33
  -1   6 -14  160.49   31.97
  -1   6 -14  132.19   35.67
   1  -6  15  159.20   34.31
   1  -6  15  188.39   36.06
  -1   6 -15  112.92   31.70
  -1   6 -15  125.34   58.98
   1  -6  16  162.18   40.29
   1  -6  16  160.28   24.56
  -1   6 -16  160.41   42.87
  -1   6 -16  136.72   34.47
  -1   5  13   28.24   10.63
  -1   5  13    4.37   11.90
  -1   5  13   17.75   10.82
  -1   5  13   -2.32    9.05
  -1   5  12    4.68    6.19
  -1   5  12   -7.38    5.41
  -1   5  12   12.00    6.35
  -1   5  12   -0.70    5.95
  -1   5  11  203.94   27.32
  -1   5  11  224.96   28.41
  -1   5  11  226.32   24.90
  -1   5  11  233.18   26.86
  -1   5  10  160.40   30.78
  -1   5  10  161.08   21.10
  -1   5  10  158.25   20.37
  -1   5  10  164.94   22.60
  -1   5   9  337.40   29.36
  -1   5   9  367.63   28.49
  -1   5   9  348.36   32.18
  -1   5   9  364.58   41.40
  -1   5   8   67.67   11.09
  -1   5   8   67.69   19.22
  -1   5   8   64.23   11.77
  -1   5   8   68.26   13.62
  -1   5   7  686.78   45.97
  -1   5   7  636.18   38.46
  -1   5   7  664.48   53.97
  -1   5   7  686.56   46.58
  -1   5   6   20.72    7.96
  -1   5   6   11.50    6.54
  -1   5   6   11.08    4.63
  -1   5   6   21.56    7.22
  -1   5   5  180.72   16.66
  -1   5   5  171.66   11.39
  -1   5   5  181.81   24.55
  -1   5   5  174.52   12.46
  -1   5   4  587.66   27.22
  -1   5   4  582.23   25.02
  -1   5   4  585.68   32.94
  -1   5   4  592.97   34.84
  -1   5   3   72.88    5.19
  -1   5   3   77.19    5.71
  -1   5   3   78.91    9.92
  -1   5   3   78.84   14.01
  -1   5   2   86.18    4.73
  -1   5   2   93.67   15.03
  -1   5   2   96.03    9.59
  -1   5   2   85.16    6.57
   1  -5  -1  942.95   46.20
   1  -5  -1  985.53   33.29
  -1   5   1  931.68   30.80
  -1   5   1  984.66   52.91
   1  -5   0  576.41   29.29
   1  -5   0  529.05   17.63
  -1   5   0  625.28   29.04
  -1   5   0  627.24   19.01
   1  -5   1 1178.59   42.49
   1  -5   1 1211.67   56.63
  -1   5  -1 1348.82   46.13
  -1   5  -1 1469.36   62.30
   1  -5   2  464.71   19.48
   1  -5   2  451.72   22.22
  -1   5  -2  418.58   15.58
  -1   5  -2  423.10   20.48
   1  -5   3  525.97   21.52
   1  -5   3  536.10   26.14
  -1   5  -3  553.70   22.19
  -1   5  -3  600.50   26.45
   1  -5   4 1858.32   85.45
   1  -5   4 1803.45   79.55
  -1   5  -4 1896.12   83.75
  -1   5  -4 1969.89   87.18
   1  -5   5 1061.48   48.25
   1  -5   5 1078.37   48.70
  -1   5  -5  992.75   46.66
  -1   5  -5  993.19   45.16
   1  -5   6 1393.50   63.29
   1  -5   6 1419.98   62.51
  -1   5  -6 1013.09   48.94
  -1   5  -6  938.29   50.84
   1  -5   7  481.81   26.90
   1  -5   7  490.20   30.01
  -1   5  -7  512.24   31.48
  -1   5  -7  516.52   26.65
   1  -5   8  284.88   23.67
   1  -5   8  301.03   26.54
  -1   5  -8  297.28   24.44
  -1   5  -8  305.16   18.87
   1  -5   9  653.34   38.01
   1  -5   9  648.44   45.58
  -1   5  -9  818.05   50.84
  -1   5  -9  803.59   51.06
   1  -5  10  115.64   17.96
   1  -5  10  100.81   12.48
  -1   5 -10   85.22   11.97
  -1   5 -10   85.71   19.13
   1  -5  11  641.02   52.48
   1  -5  11  610.64   51.67
  -1   5 -11  664.67   57.23
  -1   5 -11  671.35   40.40
   1  -5  12  874.81   66.79
   1  -5  12  872.73   64.32
  -1   5 -12  664.58   64.27
  -1   5 -12  734.70   48.17
   1  -5  13   72.80   21.72
   1  -5  13   72.63   23.25
  -1   5 -13   85.88   24.11
  -1   5 -13   90.89   14.45
   1  -5  14  361.57   69.59
   1  -5  14  356.71   32.23
  -1   5 -14  355.53   76.14
  -1   5 -14  338.20   31.59
   1  -5  15   47.04   25.51
   1  -5  15   44.43   14.34
  -1   5 -15   70.18   27.29
  -1   5 -15   68.80   14.10
   1  -5  16   13.06    9.95
   1  -5  16   25.78   18.68
  -1   5 -16   11.36   31.47
  -1   5 -16   14.55    9.75
  -1   4  14   -1.42   13.56
  -1   4  14   12.29    9.82
  -1   4  14    3.89   12.06
  -1   4  14   13.70   11.06
   1  -4 -13   98.63   19.79
  -1   4  13   97.77   21.78
  -1   4  13   94.58   17.59
   1  -4 -12   45.98   15.65
   1  -4 -12   41.13   14.44
  -1   4  12   46.29   12.69
  -1   4  12   46.48   15.47
   1  -4 -11  131.06   21.62
   1  -4 -11  156.50   20.88
  -1   4  11  127.69   18.39
  -1   4  11  120.78   21.17
   1  -4 -10  196.53   23.55
   1  -4 -10  230.28   23.13
  -1   4  10  184.54   22.01
  -1   4  10  177.53   20.24
   1  -4  -9   73.02   19.67
   1  -4  -9   69.94   12.94
  -1   4   9   62.17   12.30
  -1   4   9   52.95   11.79
   1  -4  -8   68.69   16.32
   1  -4  -8   85.29   17.55
  -1   4   8   48.91   10.27
  -1   4   8   53.08   10.83
   1  -4  -7  234.33   25.81
   1  -4  -7  238.40   20.16
  -1   4   7  278.96   18.53
  -1   4   7  265.23   20.16
   1  -4  -6  253.02   19.13
   1  -4  -6  237.73   22.68
  -1   4   6  233.77   15.30
  -1   4   6  252.21   18.27
   1  -4  -5  271.56   16.46
   1  -4  -5  279.29   19.79
  -1   4   5  335.32   16.65
  -1   4   5  343.19   20.29
  -1   4   4  700.43   30.41
  -1   4   4  789.93   38.16
  -1   4   4  788.57   35.93
  -1   4   3 2637.37  111.09
  -1   4   3 2619.26  128.93
  -1   4   3 2655.54  113.51
  -1   4   3 2669.48  129.34
  -1   4   2   55.50    6.95
  -1   4   2   59.02    5.01
  -1   4   2   64.35   10.07
  -1   4   2   59.38    3.33
  -1   4   1   28.26    1.66
  -1   4   1   29.02    7.43
  -1   4   1   29.17    1.75
  -1   4   1   28.89    4.76
   1  -4   0 2792.64  100.33
   1  -4   0 2657.57  118.60
  -1   4   0 2221.81  101.03
  -1   4   0 2435.83   86.29
   1  -4   1 3201.75  127.79
   1  -4   1 3242.23  154.17
  -1   4  -1 3187.26  143.64
  -1   4  -1 3163.58  123.43
   1  -4   2 2210.28   95.22
   1  -4   2 2069.87   84.76
  -1   4  -2 2392.99   99.38
  -1   4  -2 2243.14   90.08
   1  -4   3 4205.68  197.53
   1  -4   3 4490.33  215.72
  -1   4  -3 4759.53  223.56
  -1   4  -3 4565.25  212.96
   1  -4   4  561.06   23.22
   1  -4   4  571.40   23.37
  -1   4  -4  446.82   19.98
  -1   4  -4  435.03   20.32
   1  -4   5 1132.88   51.78
   1  -4   5 1074.53   47.65
  -1   4  -5 1253.03   51.43
  -1   4  -5 1222.37   55.56
   1  -4   6 1915.43   84.39
   1  -4   6 1947.56   91.55
  -1   4  -6 1673.91   85.22
  -1   4  -6 1666.34   74.82
   1  -4   7 1185.32   61.47
   1  -4   7 1201.02   62.42
  -1   4  -7 1184.00   52.74
  -1   4  -7 1165.27   62.95
   1  -4   8  813.43   46.20
   1  -4   8  770.37   37.02
  -1   4  -8  629.90   42.48
  -1   4  -8  717.66   35.35
   1  -4   9  100.40   10.60
   1  -4   9  106.91   15.35
  -1   4  -9   88.35   10.20
  -1   4  -9   83.99   16.55
   1  -4  10   63.55   14.44
   1  -4  10   66.60   13.53
  -1   4 -10   43.34    8.48
  -1   4 -10   44.63   15.10
   1  -4  11  919.37   66.89
   1  -4  11  835.55   49.19
  -1   4 -11 1003.16   73.84
  -1   4 -11 1035.79   66.41
   1  -4  12  186.62   26.25
   1  -4  12  145.13   44.13
  -1   4 -12  194.43   26.13
  -1   4 -12  179.21   30.93
   1  -4  13  383.17   45.88
   1  -4  13  384.39   40.79
  -1   4 -13  374.73   49.29
  -1   4 -13  406.82   42.31
   1  -4  14  131.80   28.57
   1  -4  14  103.77   16.50
  -1   4 -14  111.54   17.10
  -1   4 -14  124.45   31.32
   1  -4  15  158.78   20.54
   1  -4  15  138.99   35.58
  -1   4 -15  155.51   20.95
  -1   4 -15  158.08   37.98
   1  -4  16   60.75   13.86
   1  -4  16   63.71   26.18
  -1   4 -16   45.56   27.96
  -1   4 -16   33.87   13.91
   1  -3 -14   -0.62   14.91
   1  -3 -14   -2.20   18.28
  -1   3  14   30.92   10.49
  -1   3  14   24.02   14.04
   1  -3 -13   39.06   15.74
   1  -3 -13   35.09   13.60
  -1   3  13   17.82   11.65
  -1   3  13   54.27   15.31
   1  -3 -12  126.43   24.14
   1  -3 -12  153.70   21.57
  -1   3  12  155.61   24.25
  -1   3  12  137.43   28.42
   1  -3 -11   77.08   23.08
   1  -3 -11   61.29   16.78
  -1   3  11   98.75   17.22
  -1   3  11   78.72   13.72
   1  -3 -10   68.16   13.53
   1  -3 -10   61.83   12.23
  -1   3  10   40.08   11.09
  -1   3  10   39.70   20.23
   1  -3  -9  424.22   33.59
   1  -3  -9  432.49   31.01
  -1   3   9  452.49   32.66
  -1   3   9  424.09   29.19
   1  -3  -8   46.51    9.83
   1  -3  -8   44.91    9.18
  -1   3   8   44.69    8.76
  -1   3   8   42.74    9.19
   1  -3  -7   18.15    5.99
   1  -3  -7   13.44    5.91
  -1   3   7   19.12    5.73
  -1   3   7   13.69    5.79
   1  -3  -6 1834.39   90.33
   1  -3  -6 1823.07   89.33
  -1   3   6 1801.15   88.43
  -1   3   6 1771.71   84.31
   1  -3  -5   63.11    7.17
   1  -3  -5   60.17    8.30
  -1   3   5   99.75    7.10
  -1   3   5   91.48    8.59
   1  -3  -4  691.33   29.60
   1  -3  -4  668.28   32.31
  -1   3   4  779.56   34.31
  -1   3   4  775.71   34.52
   1  -3  -3 1838.25   75.77
   1  -3  -3 1878.05   82.48
  -1   3   3 1850.50   81.05
  -1   3   3 1821.07   73.26
   1  -3  -2 1785.30   75.55
  -1   3   2 1817.81   64.54
  -1   3   2 1862.30   84.40
  -1   3   1 7683.10  412.20
  -1   3   1 8314.25  388.91
  -1   3   1 8121.98  381.74
  -1   3   1 7851.70  423.61
   1  -3   012507.36  734.37
   1  -3   011724.35  613.49
  -1   3   012713.82  741.28
  -1   3   011791.71  614.94
   1  -3   1 1256.55   40.47
   1  -3   1 1376.12   52.40
  -1   3  -1 1421.14   52.91
  -1   3  -1 1325.93   42.36
   1  -3   2 2826.12  118.71
   1  -3   2 2884.89  126.95
  -1   3  -2 4067.87  165.47
  -1   3  -2 3928.25  157.13
   1  -3   3 1371.45   53.46
   1  -3   3 1362.38   53.97
  -1   3  -3 1595.73   59.12
  -1   3  -3 1590.09   61.90
   1  -3   4 1153.01   45.34
   1  -3   4 1149.77   42.51
  -1   3  -4  904.86   35.17
  -1   3  -4  934.96   40.86
   1  -3   5  165.25   17.74
   1  -3   5  179.69    9.91
  -1   3  -5  297.50   15.81
  -1   3  -5  299.90   11.77
   1  -3   6  766.29   32.89
   1  -3   6  808.18   40.58
  -1   3  -6  869.68   34.84
  -1   3  -6  847.90   42.91
   1  -3   7 1925.17   83.85
   1  -3   7 1997.93   97.75
  -1   3  -7 1676.01   92.36
  -1   3  -7 1636.64   74.14
   1  -3   8  118.66    9.30
   1  -3   8  134.20   14.85
  -1   3  -8   97.59    9.20
  -1   3  -8  106.46   15.62
   1  -3   9   79.83   15.07
   1  -3   9   75.68    9.33
  -1   3  -9   92.94   16.15
  -1   3  -9  111.03    9.84
   1  -3  10  271.81   28.68
   1  -3  10  285.43   19.72
  -1   3 -10  343.09   20.59
  -1   3 -10  295.25   32.05
   1  -3  11  128.76   24.09
   1  -3  11  123.45   14.24
  -1   3 -11  149.75   39.10
  -1   3 -11  181.12   15.14
   1  -3  12  262.02   21.86
   1  -3  12  268.39   34.84
  -1   3 -12  298.72   22.89
  -1   3 -12  289.66   38.04
   1  -3  13  310.59   34.44
   1  -3  13  333.59   41.69
  -1   3 -13  272.23   42.90
  -1   3 -13  294.23   25.08
   1  -3  14    3.74    6.38
   1  -3  14    1.21   12.29
  -1   3 -14    7.25    6.71
  -1   3 -14   27.20   12.84
   1  -3  15  170.99   35.93
   1  -3  15  170.60   20.11
  -1   3 -15  133.61   39.50
  -1   3 -15  162.23   21.10
   1  -3  16  118.99   27.98
   1  -3  16  133.54   36.95
  -1   3 -16  149.66   39.10
  -1   3 -16  121.62   28.79
   1  -2 -15  113.97   23.00
   1  -2 -15  115.85   30.35
  -1   2  15  124.71   20.58
  -1   2  15  154.71   29.82
   1  -2 -14   -0.93   12.70
   1  -2 -14   15.05    9.71
  -1   2  14   10.15   13.89
  -1   2  14   21.78   12.70
   1  -2 -13   21.27   13.89
   1  -2 -13   18.94   10.76
  -1   2  13   17.42    9.71
  -1   2  13   24.31   13.12
   1  -2 -12  253.25   31.64
   1  -2 -12  242.14   26.29
  -1   2  12  263.91   45.10
  -1   2  12  235.55   24.41
   1  -2 -11  292.49   45.07
   1  -2 -11  302.04   27.79
  -1   2  11  263.42   34.32
  -1   2  11  309.17   30.93
   1  -2 -10  376.23   29.60
   1  -2 -10  350.56   31.88
  -1   2  10  350.35   25.93
  -1   2  10  391.43   32.22
   1  -2  -9   38.13   12.74
   1  -2  -9   41.14   10.02
  -1   2   9   29.99    8.04
  -1   2   9   23.72    9.32
   1  -2  -8    1.63    3.55
   1  -2  -8    1.87    3.04
  -1   2   8    0.19    2.91
  -1   2   8    0.33    3.37
   1  -2  -7  459.22   28.60
   1  -2  -7  447.44   26.50
  -1   2   7  536.22   28.81
  -1   2   7  536.38   34.32
   1  -2  -6  141.97   10.76
   1  -2  -6  143.75   11.63
  -1   2   6  116.01   10.10
  -1   2   6  117.08   10.19
   1  -2  -5  674.71   30.13
   1  -2  -5  652.49   29.65
  -1   2   5  655.79   29.39
  -1   2   5  621.83   27.94
   1  -2  -4 1430.24   58.94
   1  -2  -4 1443.29   58.24
  -1   2   4 1355.29   63.13
  -1   2   4 1274.72   51.65
   1  -2  -3  184.17    7.86
   1  -2  -3  201.49    9.71
   1  -2  -2 5749.77  272.10
  -1   2   2 5320.49  233.21
  -1   2   2 5293.29  253.81
   1  -2  -1  342.44   12.24
  -1   2   1  277.67   11.04
   1  -2   0 3438.03  144.23
   1  -2   0 3475.28  119.06
  -1   2   0 3571.51  148.50
  -1   2   0 3893.20  133.69
   1  -2   1 1705.80   54.38
   1  -2   1 1662.87   57.02
  -1   2  -1 1484.05   49.02
  -1   2  -1 1528.96   52.96
   1  -2   2 1851.75   64.50
   1  -2   2 1911.51   72.55
  -1   2  -2 1642.09   58.28
  -1   2  -2 1667.99   63.12
   1  -2   3 2200.12   91.90
   1  -2   3 2204.01   84.66
  -1   2  -3 2655.15  110.42
  -1   2  -3 2525.13   94.06
   1  -2   4 4109.57  172.31
   1  -2   4 3943.65  180.53
  -1   2  -4 3396.42  145.03
  -1   2  -4 3471.78  169.12
   1  -2   5  368.34   13.76
   1  -2   5  368.75   18.36
  -1   2  -5  292.42   18.44
  -1   2  -5  296.71   12.09
   1  -2   6 2289.13   97.13
   1  -2   6 2317.82  111.44
  -1   2  -6 2240.29   94.94
   1  -2   7  123.70    8.63
   1  -2   7  133.07   13.43
  -1   2  -7  153.72    9.19
  -1   2  -7  144.08   14.91
   1  -2   8  774.95   40.87
   1  -2   8  743.48   44.49
  -1   2  -8  748.56   40.28
  -1   2  -8  717.71   46.19
   1  -2   9 1079.23   65.13
   1  -2   9 1094.33   59.23
  -1   2  -9 1068.60   59.00
  -1   2  -9 1031.91   67.81
   1  -2  10  123.76   18.76
   1  -2  10  115.84   10.96
  -1   2 -10  104.27   11.15
  -1   2 -10  110.48   20.73
   1  -2  11  242.23   29.99
   1  -2  11  227.18   18.18
  -1   2 -11  233.12   32.83
  -1   2 -11  259.99   18.66
   1  -2  12  219.05   18.22
   1  -2  12  217.87   45.91
  -1   2 -12  173.95   32.01
  -1   2 -12  202.70   18.72
   1  -2  13   55.70   19.14
   1  -2  13   73.54   22.81
  -1   2 -13  103.14   13.08
  -1   2 -13   75.30   25.23
   1  -2  14  101.15   15.02
   1  -2  14  111.07   28.53
  -1   2 -14  110.33   24.11
  -1   2 -14  113.75   47.00
   1  -2  15    1.94    4.33
   1  -2  15   12.83    8.95
  -1   2 -15   -2.51    9.49
  -1   2 -15   -2.35    4.62
   1  -2  16  106.82   34.91
   1  -2  16   94.81   17.23
  -1   2 -16  119.25   36.92
  -1   2 -16  127.88   17.74
   1  -1 -15    0.21   12.41
   1  -1 -15   -0.81    8.86
  -1   1  15   11.50    7.66
  -1   1  15   11.25   11.86
   1  -1 -14   27.22   13.31
   1  -1 -14   28.22   17.72
  -1   1  14   34.38   11.51
  -1   1  14   50.00   27.06
   1  -1 -13  101.70   22.38
   1  -1 -13  108.22   16.92
  -1   1  13   77.34   21.52
  -1   1  13   67.74   15.12
   1  -1 -12   67.14   18.34
   1  -1 -12   57.27   13.83
  -1   1  12   68.26   13.01
  -1   1  12   79.25   17.84
   1  -1 -11   13.56   14.34
   1  -1 -11   28.87   12.22
  -1   1  11   25.78   12.02
  -1   1  11   36.72   13.47
   1  -1 -10   73.02   12.87
   1  -1 -10   87.18   16.55
  -1   1  10   84.85   16.13
  -1   1  10  105.67   12.45
   1  -1  -9    8.55    5.51
   1  -1  -9    2.06    6.58
  -1   1   9    9.05    6.33
  -1   1   9    9.74    4.76
   1  -1  -8  507.19   29.61
   1  -1  -8  531.28   33.94
  -1   1   8  649.37   45.44
  -1   1   8  592.33   30.47
   1  -1  -7   69.35   15.46
   1  -1  -7   70.29    8.46
  -1   1   7   80.66    9.60
  -1   1   7   81.28    8.30
   1  -1  -6  407.48   23.23
   1  -1  -6  398.02   20.25
  -1   1   6  444.22   22.40
  -1   1   6  433.19   20.54
   1  -1  -5 2012.02   90.48
   1  -1  -5 1917.74   84.60
  -1   1   5 1751.08   77.50
  -1   1   5 1718.84   73.86
   1  -1  -4  806.78   35.29
   1  -1  -4  790.35   33.83
  -1   1   4  698.18   27.55
  -1   1   4  695.73   27.84
   1  -1  -3 5509.82  259.23
   1  -1  -3 5411.22  252.23
  -1   1   3 5018.54  236.75
  -1   1   3 5170.42  242.69
   1  -1  -2  885.08   28.42
   1  -1  -2  928.75   31.74
  -1   1   2  955.12   29.73
  -1   1   2 1038.37   34.43
   1  -1   2  215.39    6.48
   1  -1   2  224.77    9.16
   1  -1   3  870.04   26.55
   1  -1   3  914.35   36.16
  -1   1  -3  907.47   27.37
  -1   1  -3  942.15   37.71
   1  -1   4 2911.61  135.21
   1  -1   4 3101.14  122.95
  -1   1  -4 3247.30  128.49
  -1   1  -4 3216.90  150.73
   1  -1   5  205.96    8.24
   1  -1   5  223.20   13.40
  -1   1  -5  208.26   14.31
  -1   1  -5  196.58   10.92
   1  -1   6  256.08   11.49
   1  -1   6  262.28   17.95
  -1   1  -6  300.87   12.54
  -1   1  -6  304.48   20.45
   1  -1   7  813.29   43.40
   1  -1   7  775.41   31.85
  -1   1  -7  778.73   37.78
  -1   1  -7  774.62   45.72
   1  -1   8  273.44   19.13
   1  -1   8  279.90   22.61
  -1   1  -8  246.02   14.64
  -1   1  -8  276.81   24.33
   1  -1   9   48.90   12.66
   1  -1   9   40.27    6.93
  -1   1  -9   73.48    7.76
  -1   1  -9  111.47   21.32
   1  -1  10  562.12   44.92
   1  -1  10  575.35   30.74
  -1   1 -10  584.83   48.33
  -1   1 -10  619.74   32.92
   1  -1  11   34.15   14.18
   1  -1  11   44.02    7.83
  -1   1 -11   31.44   15.16
  -1   1 -11   33.18    8.10
   1  -1  12   50.79    9.90
   1  -1  12   36.55   19.00
  -1   1 -12   68.12   31.32
  -1   1 -12   80.18   11.14
   1  -1  13  264.06   29.36
   1  -1  13  248.93   36.65
  -1   1 -13  204.92   29.98
  -1   1 -13  207.74   37.37
   1  -1  14    1.57    9.69
   1  -1  14   -1.23    4.66
  -1   1 -14    0.71    4.91
  -1   1 -14   25.01    9.98
   1  -1  15   -7.56    6.92
   1  -1  15   -1.60   14.63
  -1   1 -15    1.18    4.90
  -1   1 -15    1.22    9.84
   1   0 -16  119.11   22.48
   1   0 -16    3.27   32.76
  -1   0  16  110.28   20.15
  -1   0  16  136.42   31.36
   1   0 -15   -1.62   13.31
   1   0 -15   -0.69    9.27
  -1   0  15   13.91    8.56
  -1   0  15   29.67   13.52
   1   0 -14  211.86   36.82
   1   0 -14  211.86   39.04
  -1   0  14  226.29   34.89
  -1   0  14  198.27   24.19
   1   0 -13    7.01   11.65
   1   0 -13    2.45    8.31
  -1   0  13   20.37   10.96
  -1   0  13   14.98   11.36
   1   0 -12   56.47   11.79
   1   0 -12   39.62   16.37
  -1   0  12   45.33   10.76
  -1   0  12   26.85   15.43
   1   0 -11   99.87   15.43
   1   0 -11  106.91   20.66
  -1   0  11  135.43   20.34
  -1   0  11  145.59   15.17
   1   0 -10  683.38   40.51
   1   0 -10  648.78   47.50
  -1   0  10  626.32   58.98
  -1   0  10  644.67   38.19
   1   0  -9  517.91   36.76
   1   0  -9  546.61   31.04
  -1   0   9  464.56   34.03
  -1   0   9  474.60   28.25
   1   0  -8  506.55   27.88
   1   0  -8  509.92   33.55
  -1   0   8  510.88   31.63
  -1   0   8  528.68   27.46
   1   0  -7 1105.85   57.21
   1   0  -7 1116.41   52.37
  -1   0   7 1202.15   58.68
  -1   0   7 1178.42   53.12
   1   0  -6 2281.48  112.12
   1   0  -6 2263.79  104.75
  -1   0   6 2518.17  117.75
  -1   0   6 2553.34  120.32
   1   0  -5  534.66   23.90
   1   0  -5  524.12   22.16
  -1   0   5  538.20   23.75
  -1   0   5  524.34   21.60
   1   0  -4 2985.43  125.49
   1   0  -4 2909.41  127.06
  -1   0   4 2768.16  120.52
  -1   0   4 2836.81  119.75
   1   0  -3  258.28    9.37
   1   0  -3  255.52   12.96
  -1   0   3  211.03    8.63
  -1   0   3  207.11    9.01
   1   0  -2 1789.97   59.78
   1   0  -2 1733.11   58.87
  -1   0   2 1474.66   51.99
  -1   0   2 1474.35   51.26
   1   0   2 1797.74   59.82
   1   0   2 1825.17   75.66
  -1   0  -2 2338.98   92.12
  -1   0  -2 2760.48   87.54
   1   0   3 1256.67   49.24
   1   0   3 1184.07   36.51
  -1   0  -3 1066.17   34.16
  -1   0  -3 1115.77   46.57
   1   0   4 1883.55   84.19
   1   0   4 1757.19   64.85
  -1   0  -4 2009.79   89.23
  -1   0  -4 1931.24   70.70
   1   0   5  686.78   24.11
   1   0   5  734.57   33.95
  -1   0  -5  616.50   23.24
  -1   0  -5  623.94   32.91
   1   0   6  638.06   28.44
   1   0   6  625.71   41.22
  -1   0  -6  603.57   24.55
  -1   0  -6  611.03   34.72
   1   0   7 1357.72   71.80
   1   0   7 1354.85   56.91
  -1   0  -7 1366.26   75.04
  -1   0  -7 1353.01   63.99
   1   0   8  348.87   18.32
   1   0   8  350.83   27.15
  -1   0  -8  398.57   20.32
  -1   0  -8  390.76   30.05
   1   0   9  170.75   20.16
   1   0   9  173.88   12.45
  -1   0  -9  176.26   13.23
  -1   0  -9  173.14   22.10
   1   0  10 1257.21   61.27
   1   0  10 1291.11   82.53
  -1   0 -10 1206.99   62.16
  -1   0 -10 1146.68   83.22
   1   0  11  436.75   41.48
   1   0  11  422.30   26.15
  -1   0 -11  467.34   29.05
  -1   0 -11  462.55   44.00
   1   0  12   10.72    4.57
   1   0  12    2.48    9.00
  -1   0 -12   -3.29    5.18
  -1   0 -12    7.70    9.28
   1   0  13    7.35    9.58
   1   0  13    6.99    7.34
  -1   0 -13    5.27    9.65
  -1   0 -13    0.36    5.26
   1   0  14   12.86   16.08
   1   0  14   18.57    7.75
  -1   0 -14   23.44    8.44
  -1   0 -14   -2.15   16.65
   1   0  15   26.56   15.34
   1   0  15    8.81    7.25
  -1   0 -15    1.17   15.99
  -1   0 -15   13.78   11.69
   1   1 -16    3.05   11.34
   1   1 -16   -1.63    7.46
  -1  -1  16    4.92    6.83
  -1  -1  16    9.81   17.25
   1   1 -15   52.13   16.89
   1   1 -15   38.23   38.61
  -1  -1  15   73.60   15.70
  -1  -1  15   65.24   24.83
   1   1 -14  143.41   21.17
   1   1 -14  148.53   30.49
  -1  -1  14  122.50   19.98
  -1  -1  14  150.73   29.48
   1   1 -13  155.90   32.63
   1   1 -13  161.80   30.29
  -1  -1  13  210.90   31.65
  -1  -1  13  217.49   30.52
   1   1 -12  298.37   32.93
   1   1 -12  269.11   24.78
  -1  -1  12  226.51   22.43
  -1  -1  12  225.96   30.62
   1   1 -11  230.53   21.88
   1   1 -11  241.69   29.00
  -1  -1  11  248.26   21.00
  -1  -1  11  281.21   27.92
   1   1 -10  721.75   52.51
   1   1 -10  716.28   49.76
  -1  -1  10  628.08   44.53
  -1  -1  10  598.36   46.34
   1   1  -9   40.53   10.39
   1   1  -9   28.20    8.08
  -1  -1   9   48.36    7.72
  -1  -1   9   46.89   10.19
   1   1  -8  145.29   23.19
   1   1  -8  173.74   13.31
  -1  -1   8  157.58   15.51
  -1  -1   8  149.72   12.32
   1   1  -7 1497.30   69.28
   1   1  -7 1512.58   76.85
  -1  -1   7 1585.31   77.81
  -1  -1   7 1577.26   71.15
   1   1  -6  198.50   15.74
   1   1  -6  183.48   13.33
  -1  -1   6  193.42   11.33
  -1  -1   6  194.31   13.10
   1   1  -5  237.09   13.26
   1   1  -5  242.05   11.78
   1   1  -4 4043.34  189.08
   1   1  -4 3830.07  181.98
  -1  -1   4 4630.32  205.62
  -1  -1   4 4271.65  197.96
   1   1  -3 6963.71  339.38
   1   1  -3 6453.76  324.04
  -1  -1   3 6533.35  328.66
  -1  -1   3 7145.13  347.13
   1   1  -2 1158.98   40.51
   1   1  -2 1166.48   39.29
  -1  -1   2 1190.95   44.49
  -1  -1   2 1155.38   39.42
   1   1  -1 2425.00   88.70
   1   1  -1 2553.47   95.71
  -1  -1   1 2580.83   96.61
  -1  -1   1 2491.08   90.97
   1   1   0 3686.49  138.57
   1   1   0 3540.98  143.18
  -1  -1   0 3036.63  125.29
  -1  -1   0 3325.68  126.84
   1   1   120854.12 1359.51
   1   1   121689.75 1478.59
  -1  -1  -122047.45 1498.12
   1   1   2 1587.29   64.92
   1   1   2 1569.97   54.66
   1   1   2 1631.47   57.81
   1   1   2 1567.73   63.38
   1   1   3 1065.54   43.24
   1   1   3 1008.98   33.66
  -1  -1  -3  906.17   39.64
  -1  -1  -3  923.67   34.97
   1   1   4 1472.32   67.39
   1   1   4 1439.67   55.21
  -1  -1  -4 1743.95   65.40
  -1  -1  -4 1695.09   75.73
   1   1   5 2414.04  104.53
   1   1   5 2497.82  126.16
  -1  -1  -5 3052.86  133.65
  -1  -1  -5 2885.31  141.61
   1   1   6 1011.94   41.31
   1   1   6 1026.62   52.67
  -1  -1  -6 1042.26   65.03
  -1  -1  -6 1045.50   44.12
   1   1   7  149.46   10.29
   1   1   7  166.84   16.29
  -1  -1  -7  191.58   11.59
  -1  -1  -7  215.23   26.29
   1   1   8  603.42   29.06
   1   1   8  629.89   41.08
  -1  -1  -8  638.82   32.06
  -1  -1  -8  636.91   55.40
   1   1   9  197.68   13.49
   1   1   9  212.09   21.33
  -1  -1  -9  115.98   21.23
  -1  -1  -9  130.12   19.74
   1   1  10  152.94   20.85
   1   1  10  193.22   36.82
  -1  -1 -10  241.10   17.41
  -1  -1 -10  217.77   27.11
   1   1  11  142.41   13.99
   1   1  11  126.14   24.24
  -1  -1 -11  154.79   15.63
  -1  -1 -11  177.54   25.50
   1   1  12   74.60   17.61
   1   1  12   43.66    9.24
  -1  -1 -12   46.81   18.00
  -1  -1 -12   29.87   15.41
   1   1  13   11.72    6.25
   1   1  13   10.89   12.36
  -1  -1 -13    4.89   13.26
  -1  -1 -13   11.79    7.06
   1   1  14   25.04    8.47
   1   1  14   45.94   17.94
  -1  -1 -14   25.13   14.36
  -1  -1 -14   -3.05   18.29
   1   2 -16   95.59   31.72
   1   2 -16   87.37   20.62
  -1  -2  16   65.36   29.92
  -1  -2  16  101.76   30.68
   1   2 -15   -3.22    7.49
   1   2 -15   -2.94   11.58
  -1  -2  15   -1.47   17.34
  -1  -2  15   -4.65    7.07
   1   2 -14   60.65   26.34
   1   2 -14   84.38   18.29
  -1  -2  14  120.01   17.59
  -1  -2  14   89.83   25.00
   1   2 -13  282.79   28.05
   1   2 -13  250.95   38.29
  -1  -2  13  345.86   39.59
  -1  -2  13  334.89   37.87
   1   2 -12  441.40   46.41
   1   2 -12  469.73   35.46
  -1  -2  12  475.46   34.32
  -1  -2  12  505.83   45.50
   1   2 -11  345.42   36.18
   1   2 -11  319.87   46.94
  -1  -2  11  291.22   31.52
  -1  -2  11  307.22   24.37
   1   2 -10  862.62   47.30
   1   2 -10  773.06   53.12
  -1  -2  10  721.36   50.64
  -1  -2  10  707.70   41.80
   1   2  -9 2039.76  115.94
   1   2  -9 2036.27  104.14
  -1  -2   9 2032.39  103.26
  -1  -2   9 2064.82  114.47
   1   2  -8  363.84   22.26
   1   2  -8  325.78   25.10
  -1  -2   8  427.81   27.35
  -1  -2   8  464.24   24.05
   1   2  -7 1449.60   82.52
   1   2  -7 1424.01   65.13
  -1  -2   7 1444.07   65.52
  -1  -2   7 1328.92   67.89
   1   2  -6  374.77   19.08
   1   2  -6  370.40   27.93
  -1  -2   6  444.40   20.96
  -1  -2   6  419.02   22.77
   1   2  -5  229.80   12.15
   1   2  -5  239.43   13.56
  -1  -2   5  256.77   16.49
  -1  -2   5  238.50   13.83
   1   2  -4  902.67   37.79
   1   2  -4  894.07   35.67
  -1  -2   4 1128.75   42.39
  -1  -2   4 1060.76   42.21
   1   2  -3 2580.19  105.25
   1   2  -3 2740.93  118.96
  -1  -2   3 2320.77   99.49
  -1  -2   3 2558.52  111.03
   1   2  -2 8556.58  458.60
   1   2  -2 8869.64  476.24
  -1  -2   2 9193.21  491.89
  -1  -2   2 8691.32  459.96
   1   2  -1   17.21    2.61
   1   2  -1   17.46    2.47
  -1  -2   0  308.32   11.38
  -1  -2   0  293.71   11.76
   1   2   1 1007.35   35.97
   1   2   1  979.36   39.12
  -1  -2  -1 1156.65   43.61
  -1  -2  -1 1151.96   40.94
   1   2   2  191.64   10.17
   1   2   2  184.97    7.89
   1   2   2  173.48    9.99
   1   2   2  182.75    9.98
   1   2   3  348.90   17.29
   1   2   3  355.31   18.25
   1   2   3  334.70   13.95
   1   2   3  339.58   13.66
   1   2   4 2347.64  112.33
   1   2   4 2250.71   95.93
   1   2   4 2339.73  101.81
   1   2   4 2332.57  113.14
   1   2   5  373.25   20.90
   1   2   5  375.41   22.24
  -1  -2  -5  356.05   16.92
  -1  -2  -5  344.36   22.50
   1   2   6  823.99   36.15
   1   2   6  814.57   45.50
  -1  -2  -6  836.42   47.27
  -1  -2  -6  871.36   38.86
   1   2   7  425.77   21.59
   1   2   7  419.23   29.63
  -1  -2  -7  428.23   31.39
  -1  -2  -7  453.04   29.57
   1   2   8 1360.13   63.86
   1   2   8 1367.94   79.38
  -1  -2  -8 1367.71   82.96
  -1  -2  -8 1313.47   65.82
   1   2   9  185.73   14.23
   1   2   9  194.39   21.86
  -1  -2  -9  152.49   23.08
  -1  -2  -9  157.01   21.76
   1   2  10  162.09   14.83
   1   2  10  179.99   23.56
  -1  -2 -10  184.75   23.39
  -1  -2 -10  190.81   25.90
   1   2  11   27.45    7.87
   1   2  11   31.36   14.14
  -1  -2 -11   46.88   14.95
  -1  -2 -11   28.55    8.71
   1   2  12  244.85   20.38
   1   2  12  225.34   49.36
  -1  -2 -12  203.29   34.22
  -1  -2 -12  215.43   21.17
   1   2  13   81.78   21.49
   1   2  13   72.59   11.45
   1   2  13    5.01   22.30
  -1  -2 -13   56.81   12.33
   1   2  14    0.66   10.87
   1   2  14    1.72    4.71
   1   2  14   19.38   10.14
   1   2  14    0.33    5.59
   1   3 -16   29.01   15.17
   1   3 -16   48.05   23.68
  -1  -3  16   37.76   22.31
  -1  -3  16   34.44   14.69
   1   3 -15  109.38   19.87
   1   3 -15   87.68   29.06
  -1  -3  15   74.76   18.48
  -1  -3  15   79.94   26.93
   1   3 -14  176.12   26.83
  -1  -3  14  262.56   36.71
  -1  -3  14  246.69   26.72
   1   3 -13  131.24   19.24
   1   3 -13  138.60   28.44
  -1  -3  13  116.34   39.69
  -1  -3  13  129.34   28.11
   1   3 -12  474.17   36.87
   1   3 -12  438.37   45.18
  -1  -3  12  506.28   36.63
  -1  -3  12  498.41   44.95
   1   3 -11   97.11   14.46
   1   3 -11   92.65   20.09
  -1  -3  11  116.00   19.42
  -1  -3  11  108.28   14.82
   1   3 -10  114.49   14.17
   1   3 -10  120.02   18.64
  -1  -3  10  115.08   14.07
  -1  -3  10  118.09   17.68
   1   3  -9  863.36   44.07
   1   3  -9  856.79   50.02
  -1  -3   9  684.44   39.70
  -1  -3   9  643.80   44.49
   1   3  -8  342.57   21.47
   1   3  -8  358.38   34.52
  -1  -3   8  332.72   33.88
  -1  -3   8  338.95   21.28
   1   3  -7 1466.93   66.67
   1   3  -7 1480.32   82.84
  -1  -3   7 1265.21   61.04
  -1  -3   7 1236.33   65.18
   1   3  -6  326.51   18.74
   1   3  -6  336.28   20.90
  -1  -3   6  481.50   22.51
  -1  -3   6  442.20   23.32
   1   3  -5 2017.68   89.34
   1   3  -5 1934.80   83.05
  -1  -3   5 1749.03   78.97
  -1  -3   5 1721.84   80.43
   1   3  -4 3735.36  186.99
   1   3  -4 3681.74  174.48
  -1  -3   4 4230.89  197.06
  -1  -3   4 4020.83  190.38
   1   3  -3  222.12   11.57
   1   3  -3  217.25   11.65
  -1  -3   3  324.13   13.60
  -1  -3   3  321.77   13.54
   1   3  -2 2939.11  136.86
   1   3  -2 3105.85  136.52
  -1  -3   2 3414.78  150.32
  -1  -3   2 3425.63  148.83
   1   3  -1 6229.60  313.25
   1   3  -1 6200.38  309.92
  -1  -3   1 6524.40  326.01
  -1  -3   1 6570.09  330.09
   1   3   0 4071.45  186.17
   1   3   0 4037.67  185.84
  -1  -3   0 4322.10  198.40
  -1  -3   0 4009.61  185.94
   1   3   1 1033.10   41.38
   1   3   1 1039.93   40.23
  -1  -3  -1  959.45   39.87
  -1  -3  -1  964.29   39.50
   1   3   2  182.74    9.47
   1   3   2  174.35   10.45
   1   3   2  166.51    9.23
   1   3   2  178.79   10.84
   1   3   3 2347.45  105.32
   1   3   3 2433.05  124.68
   1   3   3 2308.95  103.22
   1   3   3 2413.77  112.97
   1   3   4  548.27   28.84
   1   3   4  573.69   26.36
   1   3   4  572.04   37.55
   1   3   4  559.80   25.06
   1   3   5   88.00    7.60
   1   3   5   79.80    8.29
   1   3   5   89.80   10.35
   1   3   5   92.47   11.44
   1   3   6  481.82   30.39
   1   3   6  486.63   30.83
   1   3   6  454.44   31.30
   1   3   6  484.48   25.80
   1   3   7  294.97   17.88
   1   3   7  285.55   23.91
   1   3   7  292.14   19.63
   1   3   7  302.66   25.44
   1   3   8  987.40   53.87
   1   3   8  999.99   50.88
   1   3   8  987.98   62.30
   1   3   8  945.66   63.54
   1   3   9  369.28   23.52
   1   3   9  386.64   33.94
   1   3   9  385.10   27.06
   1   3   9  380.99   35.82
   1   3  10  148.27   21.99
   1   3  10  139.04   14.45
   1   3  10  125.12   23.60
   1   3  10  143.07   16.20
   1   3  11  234.57   22.54
   1   3  11  232.83   19.73
   1   3  11  230.02   30.84
   1   3  11  234.97   32.55
   1   3  12    8.72    6.05
   1   3  12   11.14    7.20
   1   3  12   16.06   10.77
   1   3  12   -1.12   11.78
   1   3  13   37.97   16.85
   1   3  13   -5.16   27.90
   1   3  13   28.81    8.87
   1   3  13   28.10   10.47
   1   4 -17   18.28   17.03
   1   4 -17   22.61   30.42
  -1  -4  17   -2.45   11.39
  -1  -4  17   32.76   18.52
   1   4 -16  115.78   23.26
   1   4 -16  117.38   36.09
  -1  -4  16  115.38   34.31
  -1  -4  16  101.45   22.88
   1   4 -15   12.51   24.52
   1   4 -15    6.94   10.43
  -1  -4  15    7.97   14.45
  -1  -4  15   16.18    9.93
   1   4 -14  500.77   60.15
   1   4 -14  522.79   46.03
  -1  -4  14  499.44   53.81
  -1  -4  14  510.78   43.52
   1   4 -13   83.61   25.25
   1   4 -13   87.46   18.00
  -1  -4  13  152.83   28.26
  -1  -4  13  128.55   24.68
   1   4 -12  176.54   27.49
   1   4 -12  183.13   31.11
  -1  -4  12  157.72   20.70
  -1  -4  12  161.96   26.19
   1   4 -11  120.21   24.99
   1   4 -11  150.42   19.34
  -1  -4  11  211.93   24.85
  -1  -4  11  213.87   20.24
   1   4 -10  867.54   60.10
   1   4 -10  899.84   53.30
  -1  -4  10 1017.68   65.17
  -1  -4  10 1050.25   57.87
   1   4  -9  242.42   19.76
   1   4  -9  236.03   33.49
  -1  -4   9  269.63   20.47
  -1  -4   9  266.55   24.24
   1   4  -8  743.04   44.22
   1   4  -8  716.20   39.18
  -1  -4   8  735.59   54.18
  -1  -4   8  735.07   39.98
   1   4  -7 1469.45   75.24
   1   4  -7 1382.67   67.08
  -1  -4   7 1409.51   69.19
  -1  -4   7 1405.37   73.37
   1   4  -6  822.03   40.00
   1   4  -6  834.09   38.04
  -1  -4   6  620.39   34.42
  -1  -4   6  652.66   34.18
   1   4  -5 1121.34   52.14
   1   4  -5 1143.53   54.00
  -1  -4   5 1289.34   58.01
  -1  -4   5 1230.67   56.48
   1   4  -4  690.85   31.07
   1   4  -4  682.63   31.67
  -1  -4   4  736.03   33.13
  -1  -4   4  686.93   31.74
   1   4  -3  610.90   26.02
   1   4  -3  641.04   25.93
  -1  -4   3  476.79   22.65
  -1  -4   3  495.12   24.07
   1   4  -2 3769.21  177.26
   1   4  -2 3913.21  185.04
  -1  -4   2 3562.54  173.71
  -1  -4   2 3514.13  169.90
  -1  -4   1  431.45   22.88
  -1  -4   1  431.10   20.61
   1   4   0 1427.79   60.16
   1   4   0 1440.22   61.90
  -1  -4   0 1480.66   62.99
  -1  -4   0 1503.44   65.31
   1   4   1 1093.05   46.39
   1   4   1 1103.17   52.94
  -1  -4  -1  969.85   44.69
  -1  -4  -1  991.63   44.20
   1   4   2 5124.33  262.53
   1   4   2 5034.08  261.98
  -1  -4  -2 4831.68  253.25
  -1  -4  -2 4962.79  258.78
   1   4   3   47.90    6.42
   1   4   3   48.55    6.39
   1   4   3   51.03    7.25
   1   4   3   50.80    6.78
   1   4   4   68.75    8.65
   1   4   4   56.27    7.34
   1   4   4   61.37    7.64
   1   4   4   53.96    8.98
   1   4   5  143.55   20.58
   1   4   5  135.77   12.31
   1   4   5  137.84   14.37
   1   4   5  144.25   11.75
   1   4   6  275.23   24.35
   1   4   6  274.32   30.49
   1   4   6  260.56   18.90
   1   4   6  256.07   22.40
   1   4   7   79.68   18.75
   1   4   7   58.91    9.57
   1   4   7   79.13   10.52
   1   4   7   72.30   20.64
   1   4   8  560.62   52.57
   1   4   8  530.20   34.13
   1   4   8  542.88   41.51
   1   4   8  513.62   31.55
   1   4   9    2.66    3.65
   1   4   9    0.70    6.48
   1   4   9    3.82    5.52
   1   4   9   -3.67    5.83
   1   4  10  623.35   55.83
   1   4  10  625.07   50.88
   1   4  10  699.32   44.69
   1   4  10  669.68   53.40
   1   4  11   15.04   11.02
   1   4  11   17.73   10.81
   1   4  11   10.50    8.01
   1   4  11   13.50   12.41
   1   4  12   99.16   23.98
   1   4  12   87.24   16.38
   1   4  12   93.94   21.40
   1   4  12  119.61   24.81
   1   4  13   12.34    8.22
   1   4  13   17.15   13.23
   1   4  13   11.99   10.98
   1   4  13   -4.43   22.38
   1   5 -17  146.65   40.97
   1   5 -17  111.39   24.49
  -1  -5  17  114.70   39.49
  -1  -5  17  110.62   25.54
   1   5 -16  118.28   59.76
   1   5 -16  137.32   37.87
  -1  -5  16  129.42   36.96
  -1  -5  16  123.30   24.29
   1   5 -15  154.81   27.32
   1   5 -15  167.37   38.69
  -1  -5  15  179.38   37.24
  -1  -5  15  166.21   26.20
   1   5 -14  283.62   32.36
   1   5 -14  279.22   43.42
  -1  -5  14  257.62   45.71
  -1  -5  14  279.94   63.69
   1   5 -13  135.89   28.60
   1   5 -13  123.17   21.78
  -1  -5  13  175.00   43.20
  -1  -5  13  168.52   32.41
   1   5 -12  286.36   27.58
   1   5 -12  299.79   35.66
  -1  -5  12  220.10   37.87
  -1  -5  12  238.90   47.46
   1   5 -11  428.06   40.89
   1   5 -11  464.89   35.07
  -1  -5  11  446.41   47.21
  -1  -5  11  422.76   40.44
   1   5 -10   49.29   14.03
   1   5 -10   55.24   11.98
  -1  -5  10   65.00   12.08
  -1  -5  10   58.52   15.08
   1   5  -9  198.54   22.79
   1   5  -9  189.81   19.15
  -1  -5   9  257.95   20.96
  -1  -5   9  294.08   24.62
   1   5  -8 1705.69   91.18
   1   5  -8 1670.57   84.44
  -1  -5   8 1466.19   79.79
  -1  -5   8 1455.61   83.40
   1   5  -7  383.97   24.14
   1   5  -7  430.38   26.34
  -1  -5   7  346.44   24.04
  -1  -5   7  320.96   24.02
   1   5  -6 2276.17  113.65
   1   5  -6 2285.01  112.97
  -1  -5   6 2307.37  126.82
  -1  -5   6 2118.36  109.13
   1   5  -5  291.62   16.74
   1   5  -5  292.72   17.21
  -1  -5   5  182.64   15.65
  -1  -5   5  171.54   14.81
   1   5  -4  965.92   56.24
   1   5  -4  944.80   46.13
  -1  -5   4 1291.90   67.20
  -1  -5   4 1177.70   52.52
   1   5  -3  362.31   19.02
   1   5  -3  369.67   21.21
  -1  -5   3  463.95   21.89
  -1  -5   3  463.97   24.05
   1   5  -2   33.07    4.75
   1   5  -2   31.41    5.55
  -1  -5   2   26.06    6.09
  -1  -5   2   25.14    5.11
   1   5  -1   27.75    4.27
   1   5  -1   18.52    5.24
  -1  -5   1   26.11    5.71
  -1  -5   1   23.27    6.69
   1   5   0 1333.52   63.57
   1   5   0 1306.35   58.62
  -1  -5   0 1634.37   70.91
  -1  -5   0 1660.55   76.26
   1   5   1 1098.45   51.19
   1   5   1 1126.19   54.99
  -1  -5  -1 1439.59   63.32
  -1  -5  -1 1489.43   76.08
   1   5   2  448.24   24.65
   1   5   2  446.32   24.22
  -1  -5  -2  468.61   25.83
  -1  -5  -2  509.06   25.46
   1   5   3  810.45   41.25
   1   5   3  782.84   40.58
   1   5   3  831.09   42.04
   1   5   3  809.80   40.99
   1   5   4 2173.72  113.28
   1   5   4 2148.53  110.32
   1   5   4 2088.33  108.31
   1   5   4 2185.23  126.26
   1   5   5  125.92   14.31
   1   5   5  148.81   15.19
   1   5   5  137.91   13.59
   1   5   5  129.46   12.65
   1   5   6  323.27   26.32
   1   5   6  313.50   23.74
   1   5   6  335.24   34.44
   1   5   6  302.50   21.50
   1   5   7  159.49   15.80
   1   5   7  169.21   17.53
   1   5   7  177.65   29.14
   1   5   7  168.16   20.69
   1   5   8  181.63   33.87
   1   5   8  179.87   19.32
   1   5   8  191.44   21.84
   1   5   8  163.94   24.88
   1   5   9    5.04    4.40
   1   5   9    0.09    5.83
   1   5   9   -2.52    4.92
   1   5   9    5.40    6.32
   1   5  10   47.70   16.01
   1   5  10   55.02   17.29
   1   5  10   67.85   13.00
   1   5  10   53.14   11.20
   1   5  11   19.41    8.17
   1   5  11   19.24   11.90
   1   5  11   15.29   13.02
   1   5  11   11.60    9.17
   1   5  12    3.87   26.34
   1   5  12   30.69   11.28
   1   5  12   31.90   24.57
   1   5  12   32.22    9.64
   1   6 -17  245.14   33.88
   1   6 -17  266.79   84.20
  -1  -6  17  205.45   35.92
  -1  -6  17  236.85   53.38
   1   6 -16   -1.63   13.77
   1   6 -16   19.35   14.54
  -1  -6  16    6.56   13.77
  -1  -6  16   -0.27    9.17
   1   6 -15    1.99   14.39
   1   6 -15   37.66   33.98
  -1  -6  15   51.65   23.03
  -1  -6  15   62.60   20.87
   1   6 -14   80.52   22.67
   1   6 -14   54.21   17.13
  -1  -6  14   38.09   15.97
  -1  -6  14   30.38   21.74
   1   6 -13   41.97   21.13
   1   6 -13   47.84   15.66
  -1  -6  13   77.99   20.93
  -1  -6  13   63.59   15.85
   1   6 -12  228.69   32.80
   1   6 -12  219.84   25.22
  -1  -6  12  158.78   29.52
  -1  -6  12  176.59   36.47
   1   6 -11   88.41   18.88
   1   6 -11   93.16   16.46
  -1  -6  11   92.06   19.28
  -1  -6  11   66.95   16.06
   1   6 -10  110.11   18.10
   1   6 -10  135.63   16.28
  -1  -6  10   60.13   15.29
  -1  -6  10   52.72   26.83
   1   6  -9  848.79   54.88
   1   6  -9  876.01   52.13
  -1  -6   9  814.35   51.45
  -1  -6   9  802.08   53.29
   1   6  -8 1283.96   71.33
   1   6  -8 1260.16   87.75
  -1  -6   8 1319.76   74.51
  -1  -6   8 1279.27   73.12
   1   6  -7  189.65   17.83
   1   6  -7  162.64   17.50
  -1  -6   7  224.33   19.15
  -1  -6   7  238.09   18.79
   1   6  -6 1231.85   63.97
   1   6  -6 1183.40   71.89
  -1  -6   6 1156.57   62.36
  -1  -6   6 1221.14   66.04
   1   6  -5 2412.73  121.73
   1   6  -5 2365.67  122.68
  -1  -6   5 2483.69  126.24
  -1  -6   5 2572.61  132.42
   1   6  -4  377.35   23.23
   1   6  -4  404.47   21.97
  -1  -6   4  344.37   21.08
  -1  -6   4  331.76   23.02
   1   6  -3   70.66    7.59
   1   6  -3   72.77    8.88
  -1  -6   3   51.47    9.65
  -1  -6   3   60.22    7.76
   1   6  -2 2073.18  110.30
   1   6  -2 2179.24  103.89
  -1  -6   2 1751.93   92.13
  -1  -6   2 1731.57   84.87
   1   6  -1  974.60   44.04
   1   6  -1  979.94   49.07
  -1  -6   1  981.23   46.06
  -1  -6   1  986.99   51.11
   1   6   0   61.56    7.58
   1   6   0   44.75    5.79
  -1  -6   0   24.81    5.97
  -1  -6   0   22.05    7.58
   1   6   1  202.68   16.77
   1   6   1  199.38   13.86
  -1  -6  -1  260.03   15.76
  -1  -6  -1  259.89   18.52
   1   6   2   99.19   10.06
   1   6   2  103.56   17.94
  -1  -6  -2  121.89   10.89
   1   6   3  786.55   42.12
   1   6   3  788.72   42.54
   1   6   3  799.52   45.00
   1   6   3  800.69   45.33
   1   6   4  631.72   37.02
   1   6   4  600.88   36.81
   1   6   4  632.77   38.63
   1   6   4  642.96   47.87
   1   6   5  432.89   29.46
   1   6   5  457.17   31.12
   1   6   5  429.83   31.23
   1   6   5  479.23   31.70
   1   6   6  236.64   30.46
   1   6   6  227.93   30.80
   1   6   6  219.25   31.44
   1   6   6  231.89   20.70
   1   6   7  119.97   24.96
   1   6   7  113.44   15.08
   1   6   7   94.24   14.38
   1   6   7  104.42   16.90
   1   6   8  110.41   17.43
   1   6   8  140.06   20.17
   1   6   8  123.50   15.84
   1   6   8  135.81   27.77
   1   6   9   33.80   11.66
   1   6   9   32.56   12.94
   1   6   9   34.90   13.81
   1   6   9   45.45   10.52
   1   6  10    1.41    7.97
   1   6  10    3.69    6.27
   1   6  10    1.51   13.78
   1   6  10   11.41    6.89
   1   6  11    2.11   14.57
   1   6  11    3.92    6.02
   1   6  11    1.68    6.84
   1   6  11   11.81    8.47
   1   7 -17   34.39   18.51
   1   7 -17   -3.17   10.61
  -1  -7  17   -3.08   18.42
  -1  -7  17   21.10   17.58
   1   7 -16   36.27   23.67
   1   7 -16    0.97   22.77
  -1  -7  16   61.86   21.03
  -1  -7  16    1.03   15.63
   1   7 -15   -0.12   21.08
   1   7 -15    3.03   15.21
  -1  -7  15   41.46   14.91
  -1  -7  15   52.42   19.51
   1   7 -14  197.49   40.80
   1   7 -14  260.74   31.85
  -1  -7  14  223.62   38.62
  -1  -7  14  196.39   31.59
   1   7 -13  105.72   26.59
   1   7 -13  106.27   21.28
  -1  -7  13   97.73   25.20
  -1  -7  13   94.37   21.08
   1   7 -12   40.93   14.99
   1   7 -12   28.17   13.11
  -1  -7  12   17.95   14.89
  -1  -7  12   22.86   19.87
   1   7 -11 1540.87  127.54
   1   7 -11 1552.57   98.29
  -1  -7  11 1487.98   97.09
  -1  -7  11 1445.44  101.66
   1   7 -10   44.35   14.67
   1   7 -10   23.97   13.41
  -1  -7  10   70.32   14.45
  -1  -7  10   76.51   15.32
   1   7  -9    8.87    9.04
   1   7  -9   18.17    9.45
  -1  -7   9   21.70    9.57
  -1  -7   9   23.85    9.41
   1   7  -8  321.99   40.73
   1   7  -8  308.71   28.63
  -1  -7   8  400.57   30.28
  -1  -7   8  420.74   31.97
   1   7  -7  848.91   64.61
   1   7  -7  843.44   49.51
  -1  -7   7  826.41   52.41
  -1  -7   7  821.41   50.28
   1   7  -6  128.48   17.65
   1   7  -6  148.62   15.76
  -1  -7   6  218.85   17.99
  -1  -7   6  226.13   19.78
   1   7  -5  974.51   54.21
   1   7  -5  996.49   51.62
  -1  -7   5  970.68   52.49
  -1  -7   5  989.53   57.26
   1   7  -4  673.35   39.91
   1   7  -4  764.09   38.35
  -1  -7   4  642.81   41.13
  -1  -7   4  653.47   36.94
   1   7  -3  795.88   44.23
   1   7  -3  807.86   39.55
  -1  -7   3  748.02   45.04
  -1  -7   3  754.73   39.88
   1   7  -2   20.97    6.81
   1   7  -2   27.21    4.89
  -1  -7   2    7.41    5.22
  -1  -7   2   13.43    7.13
   1   7  -1  397.14   34.66
   1   7  -1  378.55   20.94
  -1  -7   1  363.76   21.60
  -1  -7   1  368.52   35.79
   1   7   0   48.10    9.47
   1   7   0   46.39    8.54
  -1  -7   0   26.50   10.40
  -1  -7   0   18.44    9.19
   1   7   1  572.27   29.39
   1   7   1  547.76   35.10
  -1  -7  -1  581.61   32.06
  -1  -7  -1  551.39   36.75
   1   7   2  815.92   49.09
   1   7   2  826.50   49.57
   1   7   2  837.93   52.35
   1   7   2  844.92   44.96
   1   7   3  312.62   34.69
   1   7   3  288.34   24.46
   1   7   3  300.48   21.06
   1   7   3  288.95   29.04
   1   7   4  360.68   28.49
   1   7   4  385.11   27.24
   1   7   4  400.27   30.15
   1   7   4  384.70   26.80
   1   7   5  618.38   42.70
   1   7   5  627.36   40.62
   1   7   5  614.66   51.92
   1   7   5  594.67   40.64
   1   7   6   -0.66    9.36
   1   7   6    6.70    6.05
   1   7   6    2.13    6.31
   1   7   6    9.46    6.11
   1   7   7  255.43   26.37
   1   7   7  271.11   38.87
   1   7   7  263.92   25.40
   1   7   7  261.56   24.58
   1   7   8  186.74   33.45
   1   7   8  173.94   31.07
   1   7   8  190.11   23.03
   1   7   8  185.16   24.49
   1   7   9   99.47   19.36
   1   7   9   92.49   15.87
   1   7   9   78.06   27.33
   1   7   9   86.26   17.04
   1   7  10   12.98    8.11
   1   7  10    0.11    9.82
   1   7  10    9.27   10.29
   1   7  10   17.88    9.03
   1   8 -16  251.99   38.34
   1   8 -16  268.27   52.92
  -1  -8  16  228.36   40.22
  -1  -8  16  299.64   51.76
   1   8 -15    2.88    8.51
   1   8 -15    3.74   11.21
  -1  -8  15   -3.81    8.66
  -1  -8  15    9.33   11.23
   1   8 -14  270.22   48.06
   1   8 -14  319.33   39.85
  -1  -8  14  303.95   45.89
  -1  -8  14  299.76   39.50
   1   8 -13  161.85   46.82
   1   8 -13  166.07   27.49
  -1  -8  13  122.37   30.75
  -1  -8  13  133.57   26.83
   1   8 -12  293.33   35.84
   1   8 -12  276.80   31.97
  -1  -8  12  203.94   31.75
  -1  -8  12  204.64   34.32
   1   8 -11  302.47   46.39
   1   8 -11  330.09   35.24
  -1  -8  11  245.31   34.08
  -1  -8  11  245.27   32.41
   1   8 -10  412.81   53.77
   1   8 -10  400.49   35.80
  -1  -8  10  394.03   38.11
  -1  -8  10  379.68   38.48
   1   8  -9   96.41   15.26
   1   8  -9   81.02   15.32
  -1  -8   9   30.06   15.32
  -1  -8   9   40.27   15.13
   1   8  -8  799.58   56.05
   1   8  -8  833.24   55.63
  -1  -8   8  928.33   61.61
  -1  -8   8  891.34   59.04
   1   8  -7  305.63   27.86
   1   8  -7  304.20   25.51
  -1  -8   7  311.07   41.72
  -1  -8   7  330.85   27.28
   1   8  -6  351.46   26.03
   1   8  -6  313.20   28.64
  -1  -8   6  369.30   27.55
  -1  -8   6  409.55   31.78
   1   8  -5  399.03   26.22
   1   8  -5  375.63   30.12
  -1  -8   5  388.18   32.49
  -1  -8   5  375.61   36.15
   1   8  -4  935.09   57.89
   1   8  -4 1013.65   53.30
  -1  -8   4  982.61   62.06
  -1  -8   4 1004.18   54.19
   1   8  -3  408.25   31.12
   1   8  -3  374.55   28.68
  -1  -8   3  337.24   29.22
  -1  -8   3  367.12   24.42
   1   8  -2  536.38   36.11
   1   8  -2  555.64   29.45
  -1  -8   2  473.69   29.20
  -1  -8   2  465.58   35.42
   1   8  -1  825.51   50.83
   1   8  -1  880.61   43.59
  -1  -8   1  804.53   52.47
  -1  -8   1  794.15   44.07
   1   8   0  309.40   20.17
   1   8   0  290.36   25.05
  -1  -8   0  368.11   23.26
  -1  -8   0  345.84   29.24
   1   8   1  255.55   22.53
   1   8   1  251.73   17.34
  -1  -8  -1  200.31   23.39
  -1  -8  -1  217.19   17.92
   1   8   2  111.22   12.47
   1   8   2  111.73   11.76
   1   8   2   91.52   15.59
   1   8   2  105.50   16.15
   1   8   3  153.15   14.88
   1   8   3  159.11   15.41
   1   8   3  155.42   19.31
   1   8   3  128.45   19.12
   1   8   4  186.39   34.21
   1   8   4  229.68   24.19
   1   8   4  239.84   20.15
   1   8   4  225.82   19.87
   1   8   5   94.45   16.24
   1   8   5  101.29   21.32
   1   8   5   89.85   25.78
   1   8   5  102.53   14.45
   1   8   6   36.27   12.24
   1   8   6   39.39   12.63
   1   8   6   39.44   10.99
   1   8   6   38.18   11.11
   1   8   7   37.76   10.67
   1   8   7   35.48   11.13
   1   8   7   35.50   11.97
   1   8   7   13.11   11.04
   1   8   8   30.01   12.35
   1   8   8   27.88   18.06
   1   8   8   29.24   11.53
   1   8   8   27.14   11.23
   1   8   9   18.46   14.18
   1   8   9   10.01    9.58
   1   8   9   16.68    9.69
   1   8   9   11.16    9.90
   1   9 -16   -2.53   16.13
   1   9 -16    2.76   11.65
  -1  -9  16   32.25   16.08
  -1  -9  16   -1.00   12.51
   1   9 -15    5.83   14.81
   1   9 -15   -1.24   18.71
  -1  -9  15   68.50   18.83
  -1  -9  15    1.16   15.28
   1   9 -14   56.31   20.21
   1   9 -14   -3.87   23.87
  -1  -9  14   63.69   23.28
  -1  -9  14   64.50   20.95
   1   9 -13  207.78   51.19
   1   9 -13  187.81   35.63
  -1  -9  13  214.72   37.64
  -1  -9  13  226.61   34.29
   1   9 -12   76.87   21.51
   1   9 -12   69.15   22.29
  -1  -9  12   83.29   21.92
  -1  -9  12  100.12   23.89
   1   9 -11   24.30   13.04
   1   9 -11   23.50   13.40
  -1  -9  11   17.77   13.99
  -1  -9  11   20.48   21.63
   1   9 -10  439.48   45.28
   1   9 -10  449.63   43.18
  -1  -9  10  535.81   47.42
  -1  -9  10  545.90   47.42
   1   9  -9  112.86   22.00
   1   9  -9  123.68   30.35
  -1  -9   9  126.64   22.57
  -1  -9   9  119.98   20.81
   1   9  -8  460.92   39.87
   1   9  -8  472.60   36.57
  -1  -9   8  378.68   39.00
  -1  -9   8  368.64   49.18
   1   9  -7  154.41   19.42
   1   9  -7  161.60   35.14
  -1  -9   7  196.73   24.67
  -1  -9   7  186.26   21.24
   1   9  -6  187.53   23.35
   1   9  -6  202.85   19.72
  -1  -9   6  195.70   20.47
  -1  -9   6  211.27   25.98
   1   9  -5  484.15   38.44
   1   9  -5  482.41   32.36
  -1  -9   5  500.41   41.87
  -1  -9   5  505.48   34.61
   1   9  -4   43.08    8.08
   1   9  -4   35.64   11.04
  -1  -9   4   20.66   11.59
  -1  -9   4   16.90    8.54
   1   9  -3   22.20    6.17
   1   9  -3   18.70    9.22
  -1  -9   3   11.47    9.90
  -1  -9   3   15.72    7.07
   1   9  -2  479.64   29.84
   1   9  -2  470.55   53.69
  -1  -9   2  660.66   37.17
  -1  -9   2  651.74   45.89
   1   9  -1   58.24    8.31
   1   9  -1   41.75   12.99
  -1  -9   1   45.82   13.71
  -1  -9   1   42.05    9.42
   1   9   0  286.61   27.10
   1   9   0  283.38   19.90
  -1  -9   0  255.48   28.93
  -1  -9   0  266.42   21.21
   1   9   1  255.76   25.77
   1   9   1  251.59   18.90
  -1  -9  -1  236.65   19.73
  -1  -9  -1  216.72   27.50
   1   9   2   71.34   15.98
   1   9   2   96.46   17.47
   1   9   2   77.89   11.20
   1   9   2   77.57   16.30
   1   9   3  288.20   29.31
   1   9   3  296.10   23.58
   1   9   3  284.51   22.22
   1   9   3  285.36   29.97
   1   9   4  454.56   32.74
   1   9   4  467.39   33.38
   1   9   4  491.41   56.87
   1   9   4  468.63   56.24
   1   9   5    9.55    5.78
   1   9   5    4.74    7.62
   1   9   5    3.88    7.74
   1   9   5    2.99    5.87
   1   9   6   23.05   12.79
   1   9   6   25.31   13.16
   1   9   6   36.99   10.79
   1   9   6   38.12   10.59
   1   9   7   73.23   18.09
   1   9   7   68.96   15.46
   1   9   7   69.24   17.12
   1   9   7   91.35   14.89
   1   9   8   87.63   19.22
   1   9   8   91.41   16.98
   1   9   8   98.34   18.15
   1   9   8  117.54   20.51
   1  10 -16    0.81   13.15
   1  10 -16    0.10   16.87
  -1 -10  16   -0.32   13.28
  -1 -10  16   33.10   17.08
   1  10 -15   -1.78   17.17
   1  10 -15   -2.59   22.73
  -1 -10  15   26.76   27.67
  -1 -10  15   21.68   14.75
   1  10 -14   90.50   26.42
   1  10 -14    0.40   29.46
  -1 -10  14   98.64   30.00
  -1 -10  14  109.55   25.98
   1  10 -13  127.84   30.06
   1  10 -13  129.65   29.69
  -1 -10  13  125.70   32.01
  -1 -10  13  113.57   29.42
   1  10 -12   -2.62    9.88
   1  10 -12   -4.55    9.85
  -1 -10  12    2.44   10.23
  -1 -10  12  -11.03    9.82
   1  10 -11    3.34   13.70
   1  10 -11    8.18   13.00
  -1 -10  11   34.89   13.99
  -1 -10  11   36.44   21.43
   1  10 -10   65.35   18.35
   1  10 -10   65.47   17.07
  -1 -10  10   37.77   17.05
  -1 -10  10   49.77   19.56
   1  10  -9   22.95   14.48
   1  10  -9   23.11   17.06
  -1 -10   9   82.88   15.97
  -1 -10   9   75.64   18.37
   1  10  -8  230.34   29.65
   1  10  -8  206.63   24.60
  -1 -10   8  199.63   31.86
  -1 -10   8  220.25   38.48
   1  10  -7  295.10   26.01
   1  10  -7  260.82   31.24
  -1 -10   7  215.82   26.23
  -1 -10   7  230.25   32.80
   1  10  -6  701.63   45.30
   1  10  -6  689.22   71.93
  -1 -10   6  601.83   59.14
  -1 -10   6  640.25   55.87
   1  10  -5  182.40   18.57
   1  10  -5  174.41   24.83
  -1 -10   5  168.74   19.30
  -1 -10   5  173.18   26.24
   1  10  -4   95.14   17.14
   1  10  -4   73.76   12.46
  -1 -10   4  114.21   29.33
  -1 -10   4   72.79   13.55
   1  10  -3  713.32   54.06
   1  10  -3  737.37   42.52
  -1 -10   3  633.44   54.25
  -1 -10   3  694.98   44.49
   1  10  -2  501.79   43.93
   1  10  -2  546.20   33.23
  -1 -10   2  561.70   36.48
  -1 -10   2  541.04   47.63
   1  10  -1  582.48   48.24
   1  10  -1  583.00   35.83
  -1 -10   1  655.78   40.84
  -1 -10   1  608.85   51.81
   1  10   0  449.12   28.60
   1  10   0  406.92   55.54
  -1 -10   0  416.32   42.63
  -1 -10   0  464.51   40.34
   1  10   1   53.34   10.25
   1  10   1   50.14   16.19
  -1 -10  -1   76.66   11.12
  -1 -10  -1   77.69   17.08
   1  10   2  860.73   87.62
   1  10   2  877.73   52.13
   1  10   2  895.68   52.07
   1  10   2  871.74   65.07
   1  10   3   11.00   10.80
   1  10   3   13.73    7.10
   1  10   3   19.75    7.29
   1  10   3   21.90   10.63
   1  10   4   19.10   11.01
   1  10   4   19.55    7.90
   1  10   4   10.52   11.42
   1  10   4   14.35    7.33
   1  10   5   25.57   13.73
   1  10   5   24.04   13.01
   1  10   5   22.68   12.84
   1  10   5   31.26    9.59
   1  10   6   32.51   15.27
   1  10   6   44.47   11.56
   1  10   6   53.44   15.72
   1  10   6   42.63   16.90
   1  10   7   44.55   12.40
   1  10   7   37.67   19.33
   1  10   7   71.06   17.29
   1  10   7   63.54   16.66
   1  11 -15    4.58   24.37
   1  11 -15   48.21   22.08
  -1 -11  15   39.09   22.43
  -1 -11  15   44.11   25.20
   1  11 -14    3.68   36.20
   1  11 -14   45.20   22.62
  -1 -11  14   16.60   35.51
  -1 -11  14   62.46   23.77
   1  11 -13    2.07   15.17
   1  11 -13    8.72   24.17
  -1 -11  13   21.05   15.56
  -1 -11  13   20.43   15.79
   1  11 -12  169.64   35.70
   1  11 -12  209.82   33.94
  -1 -11  12  192.78   36.05
  -1 -11  12  195.62   36.94
   1  11 -11   93.50   27.15
   1  11 -11  101.37   24.21
  -1 -11  11  119.51   26.19
  -1 -11  11  119.67   27.95
   1  11 -10  192.81   29.94
   1  11 -10  187.61   35.06
  -1 -11  10  221.86   31.71
  -1 -11  10  218.73   36.74
   1  11  -9  335.66   63.19
   1  11  -9  348.92   36.04
  -1 -11   9  336.26   37.70
  -1 -11   9  340.63   44.46
   1  11  -8  205.78   26.02
   1  11  -8  204.47   33.13
  -1 -11   8  266.11   41.83
  -1 -11   8  246.39   54.82
   1  11  -7  757.88   65.09
   1  11  -7  746.97   53.95
  -1 -11   7  860.18   76.53
  -1 -11   7  923.82   74.31
   1  11  -6  158.22   19.25
   1  11  -6  144.56   25.98
  -1 -11   6  151.03   21.09
  -1 -11   6  150.47   28.27
   1  11  -5   57.59   12.08
   1  11  -5   48.16   18.03
  -1 -11   5   53.35   29.57
  -1 -11   5   72.39   13.28
   1  11  -4  281.94   32.52
   1  11  -4  265.24   31.31
  -1 -11   4  215.90   33.09
  -1 -11   4  209.38   33.83
   1  11  -3   91.32   14.07
   1  11  -3   64.52   33.51
  -1 -11   3  131.02   15.78
  -1 -11   3  110.54   24.01
   1  11  -2    4.72    9.45
   1  11  -2    3.16    5.37
  -1 -11   2    8.57    6.44
  -1 -11   2   25.75   10.40
   1  11  -1   56.86    9.76
   1  11  -1   50.06   16.78
  -1 -11   1   39.65   16.55
  -1 -11   1   39.19   17.48
   1  11   0    0.16    9.70
   1  11   0    2.73    5.52
  -1 -11   0   14.90   10.28
  -1 -11   0   15.85    6.20
   1  11   1  153.14   17.49
   1  11   1  160.24   40.35
   1  11   1  162.72   27.41
   1  11   1  163.90   16.30
   1  11   2  109.42   22.01
   1  11   2  104.87   22.87
   1  11   2  103.03   13.64
   1  11   2  102.67   14.38
   1  11   3   69.97   19.87
   1  11   3   84.28   12.70
   1  11   3   83.68   12.36
   1  11   3   60.72   20.76
   1  11   4  144.24   18.07
   1  11   4  165.23   27.25
   1  11   4  167.23   28.23
   1  11   4  158.17   24.82
   1  11   5   -2.11    6.33
   1  11   5    2.21    9.91
   1  12 -14   -0.68   21.47
   1  12 -14   36.35   22.54
  -1 -12  14   49.54   22.68
  -1 -12  14   43.51   22.46
   1  12 -13    0.01   26.58
   1  12 -13  104.09   29.25
  -1 -12  13  139.73   46.11
  -1 -12  13  102.81   27.10
   1  12 -12    0.00   21.38
   1  12 -12  121.34   23.76
  -1 -12  12   94.83   25.17
  -1 -12  12   -0.30   22.07
   1  12 -11  159.09   35.50
   1  12 -11  188.24   30.88
  -1 -12  11  165.85   37.54
  -1 -12  11  153.38   31.79
   1  12 -10  206.97   31.71
   1  12 -10  211.19   37.65
  -1 -12  10  216.14   33.08
  -1 -12  10  240.81   41.10
   1  12  -9   56.32   18.44
   1  12  -9   38.98   21.36
  -1 -12   9   23.76   14.45
  -1 -12   9   11.08   18.97
   1  12  -8  218.01   35.21
   1  12  -8  234.70   26.43
  -1 -12   8  144.66   35.89
  -1 -12   8  148.88   39.58
   1  12  -7    4.08   10.78
   1  12  -7    3.49    7.30
  -1 -12   7   15.75   11.79
  -1 -12   7    7.60   12.75
   1  12  -6   96.66   23.97
   1  12  -6   87.75   24.72
  -1 -12   6  100.75   17.44
  -1 -12   6  103.50   40.75
   1  12  -5  143.96   18.27
   1  12  -5  142.67   27.42
  -1 -12   5  125.40   19.82
  -1 -12   5  116.90   29.36
   1  12  -4  174.43   30.23
   1  12  -4  160.39   19.27
  -1 -12   4  180.94   30.78
  -1 -12   4  177.52   32.84
   1  12  -3   91.89   24.38
   1  12  -3  112.47   14.92
  -1 -12   3  108.87   26.83
  -1 -12   3  105.35   15.97
   1  12  -2   74.68   11.38
   1  12  -2   75.87   20.66
  -1 -12   2   44.01   12.85
  -1 -12   2   42.52   33.63
   1  12  -1   40.83   16.25
   1  12  -1   38.50   19.56
  -1 -12   1  101.07   21.77
  -1 -12   1   68.29   18.69
   1  12   0  355.32   26.95
   1  12   0  402.11   44.21
  -1 -12   0  352.18   44.96
  -1 -12   0  358.46   28.88
   1  12   1   54.98    9.73
   1  12   1   54.82   18.53
   1  12   1   41.12   10.03
   1  12   1   -1.19   18.64
   1  12   2   12.60    6.03
   1  12   2   -1.09   12.35
   1  12   2   12.23   10.21
   1  12   2   19.85   12.46
   1  12   3   72.65   23.29
   1  12   3   -1.39   15.49
   1  12   4  110.91   26.60
   1  13 -13   -0.01   16.18
   1  13 -13   50.26   19.36
  -1 -13  13   22.75   19.78
  -1 -13  13    0.26   16.86
   1  13 -12   -0.04   13.92
   1  13 -12   41.59   17.28
  -1 -13  12    0.73   14.12
  -1 -13  12   19.40   28.23
   1  13 -11    0.02   16.99
   1  13 -11  103.07   34.46
  -1 -13  11    0.80   17.60
  -1 -13  11   90.89   23.02
   1  13 -10   76.85   24.13
   1  13 -10   57.23   17.79
  -1 -13  10   71.50   24.94
  -1 -13  10   -0.11   18.27
   1  13  -9   34.41   12.65
   1  13  -9   43.57   17.49
  -1 -13   9    0.38   13.13
  -1 -13   9   -1.31   19.13
   1  13  -8    6.15    8.02
   1  13  -8    3.36   11.74
  -1 -13   8    2.91   12.45
  -1 -13   8    5.71   13.38
   1  13  -7   96.76   23.31
   1  13  -7   66.68   22.62
  -1 -13   7   48.62   16.04
  -1 -13   7   -1.56   24.20
   1  13  -6   69.06   14.11
   1  13  -6   71.69   23.16
  -1 -13   6    0.25   24.37
  -1 -13   6   58.13   15.51
   1  13  -5   28.75   17.51
   1  13  -5   28.02   10.45
  -1 -13   5    0.48   19.31
  -1 -13   5   33.26   11.60
   1  13  -4   14.76   11.33
   1  13  -4   13.37   12.95
  -1 -13   4    7.62   12.17
  -1 -13   4   -0.97   13.79
   1  13  -3  322.59   45.36
   1  13  -3  333.67   27.73
  -1 -13   3  297.26   47.22
  -1 -13   3  300.75   30.00
   1  13  -2   64.67   35.00
   1  13  -2   63.84   11.97
  -1 -13   2   -2.79   24.60
  -1 -13   2   69.71   13.24
   1  13  -1   28.04   12.16
   1  13  -1   37.06   16.26
  -1 -13   1   13.53   13.59
  -1 -13   1    4.09   17.55
   1  13   0   27.78    7.75
   1  13   0   -3.19   17.49
   1  13   0   21.27    8.71
   1  13   0   47.98   16.49
   1  13   1  149.02   48.56
   1  13   1  148.35   32.83
   1  13   2   -1.37    8.37
   1  14 -11    7.96   13.09
   1  14 -11   -0.01    9.12
  -1 -14  11    0.83    9.29
  -1 -14  11   12.49   20.96
   1  14 -10  290.23   38.84
   1  14 -10  297.26   53.78
  -1 -14  10  303.18   54.00
  -1 -14  10  250.89   38.00
   1  14  -9   37.38   15.82
   1  14  -9    6.74    9.98
  -1 -14   9   -0.21   10.62
  -1 -14   9    0.78   16.17
   1  14  -8   -2.11    7.41
   1  14  -8   -2.69   12.07
  -1 -14   8   -0.74   12.27
  -1 -14   8   12.70    7.79
   1  14  -7  266.01   29.94
   1  14  -7  275.35   46.16
  -1 -14   7  203.68   30.41
  -1 -14   7  215.64   47.48
   1  14  -6   -8.66   16.83
   1  14  -6    4.80    6.02
  -1 -14   6    0.97   11.44
  -1 -14   6    2.50    6.80
   1  14  -5   -1.80    5.52
   1  14  -5  -12.86   10.61
  -1 -14   5    0.25    6.09
  -1 -14   5    0.04   18.08
   1  14  -4   23.65    9.97
   1  14  -4   22.48   19.09
  -1 -14   4   -0.04   21.01
  -1 -14   4   34.50   11.26
   1  14  -3   -6.87    5.68
   1  14  -3    6.16    7.89
  -1 -14   3    2.76    4.19
  -1 -14   3    1.06    8.41
   1  14  -2  120.10   28.21
   1  14  -2   61.11   13.09
  -1 -14   2  159.40   30.44
   1  14  -1    0.59   18.06
   1  14  -1   78.29   28.83
   1  15  -7   51.58   21.41
   1  15  -7   26.10   11.74
  -1 -15   7   -3.02   23.03
  -1 -15   7   14.43   12.61
   1  15  -6   43.00   22.28
   1  15  -6   27.82   11.72
  -1 -15   6    5.29   24.22
  -1 -15   6   27.51   12.57
   2 -16   4   -3.35   17.92
  -2  16  -4   19.36   16.59
   2 -16   5   -0.50   17.81
  -2  16  -5   15.34   16.30
   2 -16   6   -2.75   31.20
  -2  16  -6   98.62   28.50
   2 -16   7  109.47   38.35
  -2  16  -7   82.84   34.58
   2 -16   8   31.99   20.90
   2 -16   8   13.13    8.73
  -2  16  -8   12.73    8.81
  -2  16  -8   20.37   19.32
  -2  15   0   -1.08   10.95
  -2  15   0    5.64   11.58
  -2  15  -1   -0.99   12.31
  -2  15  -1    0.04    8.13
  -2  15  -2   -0.75   10.36
  -2  15  -2   -2.33   10.01
   2 -15   3   -1.47    7.74
  -2  15  -3    0.87    7.01
   2 -15   4    0.69   15.17
  -2  15  -4   12.56   14.20
   2 -15   5  213.46   43.77
  -2  15  -5  241.07   39.81
  -2  15  -5  155.23   16.06
   2 -15   6   68.19   12.11
   2 -15   6   -2.35   29.60
  -2  15  -6   84.22   12.25
  -2  15  -6   89.09   28.03
   2 -15   7   10.18    8.37
   2 -15   7   32.38   19.27
  -2  15  -7   24.15   28.07
  -2  15  -7   16.32    8.09
   2 -15   8  214.73   44.49
   2 -15   8  193.96   33.26
  -2  15  -8  218.87   39.49
  -2  15  -8  150.07   22.82
   2 -15   9  396.10   62.20
   2 -15   9  376.57   53.82
  -2  15  -9  417.51   59.44
  -2  15  -9  402.58   53.01
   2 -15  10    1.15   11.97
   2 -15  10   31.05   19.84
  -2  15 -10   24.97   12.22
  -2  15 -10   34.83   19.26
   2 -15  11   42.83   15.67
   2 -15  11   58.24   23.64
  -2  15 -11   47.95   23.00
  -2  15 -11    0.03   15.77
  -2  14   3   14.23   13.16
  -2  14   3   -3.11   13.84
  -2  14   2    0.40    7.19
  -2  14   2    0.05    7.55
  -2  14   1    2.04    9.30
  -2  14   1   -0.75   15.57
  -2  14   0  278.74   43.98
  -2  14   0  216.22   40.47
  -2  14  -1   -1.41    7.74
  -2  14  -1    0.48    7.23
   2 -14   2   -0.77    8.40
  -2  14  -2   -0.72   12.23
   2 -14   3   -0.93   11.77
  -2  14  -3   -0.13    7.07
   2 -14   4   -1.97   13.50
  -2  14  -4   21.35   19.11
   2 -14   5    7.57   10.81
   2 -14   5   -1.36   18.37
  -2  14  -5   25.88    6.56
  -2  14  -5   23.87   16.37
   2 -14   6   56.94   20.75
   2 -14   6   20.99    9.01
  -2  14  -6   37.82   18.37
  -2  14  -6   30.32   12.94
   2 -14   7  181.85   39.06
   2 -14   7  179.68   21.04
  -2  14  -7  191.22   36.46
  -2  14  -7  182.55   21.05
   2 -14   8  142.54   20.86
   2 -14   8  132.29   36.21
  -2  14  -8  142.34   32.96
  -2  14  -8  162.86   21.11
   2 -14   9  119.10   21.14
   2 -14   9  125.02   33.33
  -2  14  -9  114.40   21.06
  -2  14  -9  123.36   31.47
   2 -14  10  106.14   29.36
   2 -14  10   87.96   31.88
  -2  14 -10   95.57   20.99
  -2  14 -10   81.29   45.39
   2 -14  11  122.72   25.13
   2 -14  11  135.54   32.12
  -2  14 -11  107.68   24.47
  -2  14 -11   92.43   32.31
   2 -14  12    4.52   13.80
   2 -14  12   25.36   16.67
  -2  14 -12   -0.06   14.12
  -2  14 -12   45.32   17.52
   2 -14  13    0.17   10.43
   2 -14  13   -6.06    9.34
  -2  14 -13   16.60   10.78
  -2  14 -13    0.01    9.63
  -2  13   4   75.01   20.70
  -2  13   4   -5.61   20.95
  -2  13   3    1.41    7.72
  -2  13   3   -0.32    7.60
  -2  13   2    2.22    9.27
  -2  13   2    1.10   14.25
  -2  13   1    0.72    5.87
  -2  13   1   -1.14    6.20
  -2  13   0    1.52    7.91
  -2  13   0    0.24    7.30
  -2  13  -1  110.41    6.68
  -2  13  -1  124.00   27.54
  -2  13  -1  106.87    6.98
  -2  13  -1  116.22   26.52
   2 -13   2  266.09   19.08
   2 -13   2  298.38   39.97
  -2  13  -2  222.99   13.25
  -2  13  -2  243.92   35.79
   2 -13   3   57.01   21.21
   2 -13   3   52.96   10.60
  -2  13  -3   -0.64   19.43
  -2  13  -3   48.35    6.59
   2 -13   4   28.77   19.04
   2 -13   4   46.94    7.48
  -2  13  -4   19.81   10.18
  -2  13  -4    0.24   16.48
   2 -13   5  116.20   13.77
   2 -13   5  138.71   28.87
  -2  13  -5   99.10   26.92
  -2  13  -5  113.59   12.66
   2 -13   6  389.69   30.25
   2 -13   6  390.51   51.89
  -2  13  -6  479.52   31.28
  -2  13  -6  502.72   50.12
   2 -13   7  149.23   49.50
   2 -13   7  129.32   18.08
  -2  13  -7  168.12   29.99
  -2  13  -7  180.61   27.16
   2 -13   8  159.18   21.33
   2 -13   8  156.94   32.08
  -2  13  -8  176.55   30.33
  -2  13  -8  157.11   20.89
   2 -13   9   43.74   29.46
   2 -13   9   38.85   13.22
  -2  13  -9   37.94   18.66
  -2  13  -9   36.45   13.32
   2 -13  10  186.39   28.51
   2 -13  10  190.75   36.09
  -2  13 -10  233.77   28.91
  -2  13 -10  225.10   36.58
   2 -13  11   10.89   10.82
   2 -13  11   -2.57    8.93
  -2  13 -11   -4.34   17.49
  -2  13 -11    8.56    8.86
   2 -13  12   70.12   38.18
   2 -13  12  106.72   22.94
  -2  13 -12  103.65   25.13
  -2  13 -12    0.00   21.93
   2 -13  13    0.77   23.10
   2 -13  13   84.34   22.89
  -2  13 -13  118.04   23.03
  -2  13 -13   -0.01   23.52
   2 -13  14    1.15   12.60
   2 -13  14    1.48   11.74
  -2  13 -14   -0.01   12.76
  -2  13 -14   12.85   11.53
  -2  12   6   35.31   18.89
  -2  12   6   28.53   18.92
  -2  12   5   -3.66   12.48
  -2  12   5   22.64   13.17
  -2  12   4   -0.88   34.81
  -2  12   4   79.49   22.07
  -2  12   3   -5.97   10.51
  -2  12   3   -1.00   16.20
  -2  12   2    0.40    8.29
  -2  12   2    4.58    8.64
  -2  12   1    0.40   10.98
  -2  12   1   17.41   11.57
  -2  12   0  281.38   35.53
  -2  12   0  276.32   37.18
  -2  12   0  263.58   11.08
  -2  12   0  273.43   12.99
   2 -12   1  164.72   31.42
   2 -12   1  157.94    9.68
  -2  12  -1  255.37   30.36
  -2  12  -1  228.82   10.39
   2 -12   2   -5.92    7.64
   2 -12   2    2.26    2.20
  -2  12  -2    4.94    6.70
  -2  12  -2    0.03    3.12
   2 -12   3  100.85   23.82
   2 -12   3   86.70    9.23
  -2  12  -3  100.05   21.70
  -2  12  -3  100.29    8.75
   2 -12   4  402.65   48.69
   2 -12   4  405.71   25.23
  -2  12  -4  452.27   44.14
  -2  12  -4  430.24   24.62
   2 -12   5   11.63    6.23
   2 -12   5   18.02   12.74
  -2  12  -5   14.83    6.05
  -2  12  -5   22.71   11.49
   2 -12   6  264.30   53.85
   2 -12   6  236.32   21.40
  -2  12  -6  318.61   51.42
  -2  12  -6  289.49   21.84
   2 -12   7   17.87   13.56
   2 -12   7   14.41   12.69
  -2  12  -7   34.12   12.52
  -2  12  -7    9.62   13.22
   2 -12   8  601.22   56.25
   2 -12   8  649.98   60.26
  -2  12  -8  588.30   44.67
  -2  12  -8  639.59   57.01
   2 -12   9  217.56   31.78
   2 -12   9  186.04   25.73
  -2  12  -9  197.67   30.99
  -2  12  -9  202.17   25.00
   2 -12  10   36.03   23.69
   2 -12  10   30.33   12.58
  -2  12 -10   11.76   12.18
  -2  12 -10   29.99   14.78
   2 -12  11   26.92   15.30
   2 -12  11   22.51   14.36
  -2  12 -11   11.67   14.09
  -2  12 -11   46.08   15.97
   2 -12  12    0.24   22.67
   2 -12  12   82.97   34.31
  -2  12 -12   87.38   33.92
  -2  12 -12  116.46   22.77
   2 -12  13    0.67   15.53
   2 -12  13   37.36   16.94
  -2  12 -13   67.44   24.62
  -2  12 -13    0.00   17.69
   2 -12  14   -1.19   33.56
   2 -12  14   98.20   24.78
  -2  12 -14   84.27   32.21
  -2  12 -14    0.20   25.36
   2 -12  15   54.11   24.31
   2 -12  15    1.10   20.09
  -2  12 -15    0.59   24.22
  -2  12 -15   67.72   18.70
  -2  11   7    1.54   11.63
  -2  11   7   14.30   11.98
  -2  11   6  119.09   27.57
  -2  11   6  121.39   27.21
  -2  11   5  114.07   25.21
  -2  11   5  101.07   25.61
  -2  11   4   13.66   10.57
  -2  11   4    0.55   16.28
  -2  11   4    8.01    1.57
  -2  11   4    5.51    1.56
  -2  11   3   40.44   25.75
  -2  11   3   -0.46   16.06
  -2  11   3   36.29    2.48
  -2  11   3   36.19    2.49
  -2  11   2  308.28   52.32
  -2  11   2  271.17    9.62
  -2  11   2  299.61   35.15
  -2  11   2  280.59   11.12
  -2  11   1  209.08    9.53
  -2  11   1  212.96   10.14
  -2  11   1  236.67   30.90
  -2  11   1  209.60   30.19
  -2  11   0  259.90   13.61
  -2  11   0  253.85   33.46
  -2  11   0  261.98   12.79
  -2  11   0  286.42   32.42
   2 -11   1  235.99   32.50
   2 -11   1  241.43   15.60
  -2  11  -1  257.24   14.71
  -2  11  -1  244.00   29.95
   2 -11   2  115.94   22.80
   2 -11   2  116.85    8.21
  -2  11  -2   78.39   19.43
  -2  11  -2   84.39    7.18
   2 -11   3  308.97   36.34
   2 -11   3  261.40   17.21
  -2  11  -3  417.46   24.17
  -2  11  -3  410.49   34.80
   2 -11   4  212.58   20.24
   2 -11   4  200.44   27.47
  -2  11  -4  184.82   25.67
  -2  11  -4  168.70   13.40
   2 -11   5  161.19   24.50
   2 -11   5  169.31   19.77
  -2  11  -5  105.27   21.23
  -2  11  -5  103.53   18.17
   2 -11   6   40.97   14.41
   2 -11   6   47.33    8.90
  -2  11  -6   27.70    8.44
  -2  11  -6   27.77   21.89
   2 -11   7  130.30   23.17
   2 -11   7  118.00   16.49
  -2  11  -7  147.91   23.84
  -2  11  -7  157.91   23.02
   2 -11   8  492.91   44.57
   2 -11   8  509.75   37.47
  -2  11  -8  394.63   34.59
  -2  11  -8  432.61   41.64
   2 -11   9  107.70   28.07
   2 -11   9   90.15   21.38
  -2  11  -9  108.80   21.19
  -2  11  -9  105.15   18.37
   2 -11  10   34.72   13.43
   2 -11  10   25.38   14.46
  -2  11 -10   31.00   13.10
  -2  11 -10   24.84   14.30
   2 -11  11  563.87   53.19
   2 -11  11  558.40   72.88
  -2  11 -11  640.46   54.40
  -2  11 -11  504.96   51.11
   2 -11  12    1.83    9.73
   2 -11  12   17.30   17.01
  -2  11 -12    7.59    9.57
  -2  11 -12    4.17   11.02
   2 -11  13  217.47   40.75
   2 -11  13  208.50   34.53
  -2  11 -13  257.50   34.29
  -2  11 -13  254.54   40.71
   2 -11  14  122.68   31.32
   2 -11  14  102.71   25.04
  -2  11 -14  122.41   23.91
  -2  11 -14   -4.07   31.06
   2 -11  15    1.26   15.40
   2 -11  15   49.12   21.20
  -2  11 -15   33.02   14.78
  -2  11 -15    1.63   20.96
  -2  10   9   38.27   18.01
  -2  10   9   35.46   18.95
  -2  10   8    4.53   10.00
  -2  10   8    6.97   10.86
  -2  10   7   18.68   12.74
  -2  10   7   13.98   13.28
  -2  10   6   37.11    4.60
  -2  10   6   22.89    4.65
  -2  10   6   35.27   15.50
  -2  10   6   24.83   15.48
  -2  10   5   18.88   10.31
  -2  10   5   11.55    4.08
  -2  10   5   -4.15   16.13
  -2  10   5    7.68    2.66
  -2  10   4   27.55    3.19
  -2  10   4   32.52    4.91
  -2  10   4   30.55   13.78
  -2  10   4   41.34   14.20
  -2  10   3   64.94    3.81
  -2  10   3   62.30    3.80
  -2  10   3   56.60   16.88
  -2  10   3   62.89   17.26
  -2  10   2  484.46   18.55
  -2  10   2  478.27   16.29
  -2  10   2  479.74   59.28
  -2  10   2  519.13   46.14
  -2  10   1  559.03   21.70
  -2  10   1  556.33   47.05
  -2  10   1  560.51   21.25
  -2  10   1  563.53   46.32
  -2  10   0   43.11   11.51
  -2  10   0    3.27   11.30
   2 -10   1  526.93   21.44
   2 -10   1  514.31   59.75
  -2  10  -1  469.40   18.89
  -2  10  -1  460.86   39.63
   2 -10   2 1502.29   95.49
   2 -10   2 1340.71   59.74
  -2  10  -2 1387.86   58.46
  -2  10  -2 1311.09   83.65
   2 -10   3  482.56   42.29
   2 -10   3  469.02   23.03
  -2  10  -3  434.97   36.04
  -2  10  -3  470.63   27.71
   2 -10   4  178.67   19.21
   2 -10   4  158.62   24.15
  -2  10  -4  219.64   23.04
  -2  10  -4  203.19   13.56
   2 -10   5  879.19   45.55
   2 -10   5  877.51   59.79
  -2  10  -5  795.52   54.86
  -2  10  -5  821.12   43.49
   2 -10   6  412.40   35.11
   2 -10   6  433.41   37.19
  -2  10  -6  378.65   26.06
  -2  10  -6  386.98   47.55
   2 -10   7  495.69   41.71
   2 -10   7  502.71   35.18
  -2  10  -7  515.68   55.97
  -2  10  -7  507.24   34.44
   2 -10   8   92.44   14.78
   2 -10   8   76.87   17.82
  -2  10  -8   66.96   16.76
  -2  10  -8   80.11   14.43
   2 -10   9   80.78   19.63
   2 -10   9  113.59   18.66
  -2  10  -9  115.29   27.60
  -2  10  -9  105.97   19.47
   2 -10  10  162.46   25.50
   2 -10  10  162.26   26.30
  -2  10 -10  199.48   26.26
  -2  10 -10  221.35   25.90
   2 -10  11   96.90   23.11
   2 -10  11  112.35   20.46
  -2  10 -11   92.34   19.40
  -2  10 -11   89.18   22.25
   2 -10  12  104.25   32.60
   2 -10  12   96.04   25.20
  -2  10 -12   65.71   25.60
  -2  10 -12  104.07   19.96
   2 -10  13   60.73   17.97
   2 -10  13   80.36   38.64
  -2  10 -13   -1.04   23.87
  -2  10 -13   86.49   17.79
   2 -10  14   13.75   12.09
   2 -10  14   23.21   26.51
  -2  10 -14   -1.19   16.51
  -2  10 -14   23.36   12.06
   2 -10  15  159.50   29.55
   2 -10  15  167.63   42.19
  -2  10 -15  183.72   28.35
  -2  10 -15  166.88   42.28
   2 -10  16   23.70   15.22
   2 -10  16   -0.68    9.33
  -2  10 -16    2.47    8.70
  -2  10 -16    0.26   23.72
  -2   9  10   11.43   12.69
  -2   9  10    8.35   11.65
  -2   9   9   42.60   17.74
  -2   9   9   32.47   16.79
  -2   9   8   21.36   13.85
  -2   9   8   27.36   13.11
  -2   9   8   13.62    9.27
  -2   9   8   19.47    6.23
  -2   9   7  179.54   13.67
  -2   9   7  173.95   14.05
  -2   9   7  206.28   30.21
  -2   9   7  183.31   28.24
  -2   9   6   19.60    4.66
  -2   9   6   34.91   19.63
  -2   9   6   16.44    4.46
  -2   9   6   20.43   12.04
  -2   9   5   81.63    6.81
  -2   9   5   95.50    9.56
  -2   9   5   75.60   18.59
  -2   9   5   70.65   18.88
  -2   9   4   33.55    3.68
  -2   9   4   36.23   13.51
  -2   9   4   40.58    5.54
  -2   9   4   26.20   13.31
  -2   9   3  188.72    9.98
  -2   9   3  181.12    7.71
  -2   9   3  186.02   23.59
  -2   9   3  177.14   24.35
  -2   9   2   44.87   13.04
  -2   9   2   46.35   13.53
  -2   9   2   47.68    2.96
  -2   9   2   44.81    4.05
  -2   9   1  608.30   45.21
  -2   9   1  592.13   42.57
  -2   9   1  564.96   18.93
  -2   9   1  600.11   21.44
   2  -9   0   90.01    4.81
   2  -9   0   73.06   16.69
  -2   9   0  109.06    6.12
  -2   9   0  113.75   15.92
   2  -9   1  448.44   39.57
   2  -9   1  453.02   19.11
  -2   9  -1  635.60   40.59
  -2   9  -1  639.28   22.21
   2  -9   2   36.58   12.42
   2  -9   2   40.18    4.79
  -2   9  -2   55.92    4.58
  -2   9  -2   62.28   11.61
   2  -9   3  250.49   24.80
   2  -9   3  244.02   13.55
  -2   9  -3  253.59   23.12
  -2   9  -3  257.45   13.30
   2  -9   4  201.20   13.04
   2  -9   4  188.43   20.76
  -2   9  -4  156.20   19.30
  -2   9  -4  177.35   12.20
   2  -9   5  279.86   18.30
   2  -9   5  271.52   34.56
  -2   9  -5  240.60   22.86
  -2   9  -5  248.48   16.85
   2  -9   6  251.30   18.74
   2  -9   6  237.71   23.16
  -2   9  -6  213.21   21.13
  -2   9  -6  206.42   17.56
   2  -9   7  198.23   23.79
   2  -9   7  213.31   21.15
  -2   9  -7  266.29   23.77
  -2   9  -7  257.83   21.17
   2  -9   8   37.37   10.87
   2  -9   8   22.04   10.65
  -2   9  -8   28.28   10.13
  -2   9  -8   29.90   10.12
   2  -9   9  930.80   62.27
   2  -9   9  861.99   59.38
  -2   9  -9  827.74   59.38
  -2   9  -9  887.36   59.37
   2  -9  10   31.48   14.03
   2  -9  10   25.23   12.30
  -2   9 -10   34.70   14.01
  -2   9 -10   52.61   12.22
   2  -9  11  233.57   31.62
   2  -9  11  207.89   26.42
  -2   9 -11  250.69   26.32
  -2   9 -11  225.80   32.78
   2  -9  12   98.57   23.21
   2  -9  12   73.38   17.81
  -2   9 -12  105.79   27.31
  -2   9 -12   88.82   24.44
   2  -9  13   13.61   14.77
   2  -9  13   15.73   10.70
  -2   9 -13   18.52   16.78
   2  -9  14  142.56   32.29
   2  -9  14  140.20   31.15
  -2   9 -14  125.28   20.98
  -2   9 -14    2.93   32.47
   2  -9  15   34.00   16.83
   2  -9  15   35.08   16.66
  -2   9 -15   -0.28   17.59
  -2   9 -15   -1.23   10.33
   2  -9  16   26.60   17.00
   2  -9  16   19.74   18.12
  -2   9 -16    0.49   19.11
  -2   9 -16    5.27   10.26
  -2   8  11    1.66   13.91
  -2   8  11   17.91    8.71
  -2   8  11   23.31    9.33
  -2   8  11   44.99   15.51
  -2   8  10   15.38   14.27
  -2   8  10   20.55    9.30
  -2   8  10   26.35    8.78
  -2   8  10   52.69   15.67
  -2   8   9   28.60    8.39
  -2   8   9   43.27   15.90
  -2   8   9   30.01    9.19
  -2   8   9   38.10   14.44
  -2   8   8   38.63   15.64
  -2   8   8   48.84    8.45
  -2   8   8   45.13    8.87
  -2   8   8   43.83   17.11
  -2   8   7   65.37   17.38
  -2   8   7   56.43    8.36
  -2   8   7   54.47   15.73
  -2   8   7   57.50   11.85
  -2   8   6   -3.67    3.82
  -2   8   6   -0.50    9.51
  -2   8   6    3.20    2.31
  -2   8   6    0.15    8.97
  -2   8   5  380.71   18.75
  -2   8   5  396.16   36.48
  -2   8   5  385.15   18.22
  -2   8   5  392.85   48.48
  -2   8   4  170.83   21.94
  -2   8   4  173.03   11.53
  -2   8   4  169.42   11.05
  -2   8   4  172.89   22.65
  -2   8   3  249.28   11.92
  -2   8   3  261.44    9.96
  -2   8   3  246.74   25.46
  -2   8   3  267.77   36.32
  -2   8   2   19.96    1.84
  -2   8   2   16.31    1.68
  -2   8   2   28.44    8.46
  -2   8   2   19.58    8.84
  -2   8   1  524.52   15.83
  -2   8   1  531.03   37.12
  -2   8   1  505.93   35.88
  -2   8   1  513.40   17.53
   2  -8   0 1232.85   74.53
   2  -8   0 1297.90   46.31
  -2   8   0 1395.73   89.80
  -2   8   0 1372.00   48.57
   2  -8   1  446.62   32.86
   2  -8   1  436.43   15.99
  -2   8  -1  429.37   29.78
  -2   8  -1  417.83   15.02
   2  -8   2   80.70   12.21
   2  -8   2   68.93    5.15
  -2   8  -2   63.35    4.78
  -2   8  -2   76.30   11.35
   2  -8   3 2345.79  125.78
   2  -8   3 2251.04   99.46
  -2   8  -3 2056.60   92.46
  -2   8  -3 2131.47  113.23
   2  -8   4  179.19   11.84
   2  -8   4  175.95   17.48
  -2   8  -4  200.62   17.41
  -2   8  -4  188.44   12.02
   2  -8   5  637.44   31.72
   2  -8   5  600.56   36.92
  -2   8  -5  493.18   27.94
  -2   8  -5  516.26   33.12
   2  -8   6  312.27   20.01
   2  -8   6  318.23   23.71
  -2   8  -6  242.27   19.16
  -2   8  -6  242.98   20.98
   2  -8   7  724.49   45.87
   2  -8   7  745.17   44.84
  -2   8  -7  727.09   44.02
  -2   8  -7  791.98   45.21
   2  -8   8 1178.28   70.41
   2  -8   8 1223.97   72.69
  -2   8  -8 1318.40   72.79
  -2   8  -8 1237.80   74.31
   2  -8   9  373.12   32.44
   2  -8   9  324.92   28.13
  -2   8  -9  357.89   28.55
  -2   8  -9  323.23   31.28
   2  -8  10  108.23   17.78
   2  -8  10  124.56   21.92
  -2   8 -10  153.86   23.47
  -2   8 -10  168.47   18.26
   2  -8  11  724.79   48.75
   2  -8  11  726.25   57.54
  -2   8 -11  575.28   56.50
  -2   8 -11  601.25   43.81
   2  -8  12   63.99   14.78
   2  -8  12   72.08   21.31
  -2   8 -12   81.83   22.85
  -2   8 -12   74.76   35.04
   2  -8  13  321.48   30.96
   2  -8  13  310.60   43.37
  -2   8 -13  351.58   44.93
  -2   8 -13  287.72   45.53
   2  -8  14   22.58   11.39
   2  -8  14   29.39   17.83
  -2   8 -14   27.52   10.90
  -2   8 -14   -0.11   18.81
   2  -8  15   96.43   19.08
   2  -8  15   72.10   30.86
  -2   8 -15   -0.56   33.33
  -2   8 -15  108.18   18.65
   2  -8  16   37.96   12.70
   2  -8  16   31.05   36.11
  -2   8 -16    1.91   22.71
  -2   8 -16   14.26   11.38
  -2   7  12   11.07    7.90
  -2   7  12   10.07   18.74
  -2   7  12    0.38   10.12
  -2   7  12   12.54    8.67
  -2   7  11   16.46    8.76
  -2   7  11   14.06   12.14
  -2   7  11   27.01   13.66
  -2   7  11   14.17    9.28
  -2   7  10   57.50   28.59
  -2   7  10   99.93   20.89
  -2   7  10   74.08   13.57
  -2   7  10   77.91   14.09
  -2   7   9   14.09   10.07
  -2   7   9   12.71    9.74
  -2   7   9   15.23   11.07
  -2   7   9    9.60    6.85
  -2   7   8  167.15   22.39
  -2   7   8  147.66   15.27
  -2   7   8  162.58   14.89
  -2   7   8  154.23   25.08
  -2   7   7    0.71    5.90
  -2   7   7    6.96    5.54
  -2   7   7   -1.85    6.48
  -2   7   7    9.05    7.25
  -2   7   6  306.01   18.82
  -2   7   6  315.02   29.70
  -2   7   6  327.34   17.71
  -2   7   6  352.14   46.43
  -2   7   5   45.18    5.56
  -2   7   5   53.73   12.75
  -2   7   5   41.25    5.08
  -2   7   5   43.96   11.72
  -2   7   4  162.50    8.51
  -2   7   4  167.95   10.65
  -2   7   4  164.98   20.21
  -2   7   4  160.79   18.65
  -2   7   3  813.52   49.77
  -2   7   3  787.20   29.84
  -2   7   3  877.93   64.87
  -2   7   3  786.34   27.75
  -2   7   2  617.25   38.93
  -2   7   2  619.53   18.89
  -2   7   2  614.15   18.78
  -2   7   2  638.92   39.82
  -2   7   1  496.54   13.90
  -2   7   1  491.69   31.50
  -2   7   1  509.19   32.37
  -2   7   1  500.08   14.67
   2  -7   0  238.14   20.36
   2  -7   0  258.97    9.26
  -2   7   0  248.52    7.26
  -2   7   0  259.15   19.62
   2  -7   1  479.66   18.20
   2  -7   1  498.60   30.10
  -2   7  -1  422.83   14.43
  -2   7  -1  436.41   27.36
   2  -7   2 3177.96  170.38
   2  -7   2 3148.02  138.26
  -2   7  -2 3436.08  177.15
  -2   7  -2 3306.65  143.57
   2  -7   3  358.49   22.37
   2  -7   3  352.39   15.40
  -2   7  -3  299.92   14.22
  -2   7  -3  318.76   20.92
   2  -7   4  470.41   28.60
   2  -7   4  469.82   22.53
  -2   7  -4  521.40   28.70
  -2   7  -4  496.33   23.39
   2  -7   5  588.87   33.99
   2  -7   5  562.79   35.39
  -2   7  -5  625.18   33.85
  -2   7  -5  603.22   30.90
   2  -7   6  170.49   15.27
   2  -7   6  176.37   16.69
  -2   7  -6  226.02   16.49
  -2   7  -6  233.58   16.52
   2  -7   7 1321.63   68.02
   2  -7   7 1394.87   82.80
  -2   7  -7 1141.12   65.01
  -2   7  -7 1141.41   60.70
   2  -7   8  244.51   22.75
   2  -7   8  246.59   20.13
  -2   7  -8  232.85   23.10
  -2   7  -8  286.30   28.59
   2  -7   9  570.86   42.30
   2  -7   9  525.71   35.46
  -2   7  -9  600.30   45.17
  -2   7  -9  608.54   36.79
   2  -7  10   74.31   14.14
   2  -7  10  103.91   19.44
  -2   7 -10  128.40   20.69
  -2   7 -10  114.50   14.09
   2  -7  11  224.38   22.14
   2  -7  11  243.88   30.97
  -2   7 -11  208.38   46.74
  -2   7 -11  210.22   20.90
   2  -7  12   50.60   17.77
   2  -7  12   70.75   12.24
  -2   7 -12   17.47   18.04
  -2   7 -12   17.34   18.17
   2  -7  13   40.82   13.03
   2  -7  13   47.73   20.37
  -2   7 -13   61.55   12.60
  -2   7 -13   42.01   21.30
   2  -7  14  276.09   41.96
   2  -7  14  263.45   27.69
  -2   7 -14  241.80   25.79
  -2   7 -14  180.42   43.30
   2  -7  15   85.18   17.39
   2  -7  15   82.88   28.61
  -2   7 -15   -0.47   31.08
  -2   7 -15   91.93   15.98
   2  -7  16   19.77   12.08
   2  -7  16   40.31   22.07
  -2   7 -16   23.91   11.18
  -2   7 -16   25.21   37.95
  -2   6  12  130.73   21.97
  -2   6  12  148.16   21.06
  -2   6  12  123.60   40.88
  -2   6  12  132.77   24.01
  -2   6  11   11.71    8.32
  -2   6  11    1.59    6.96
  -2   6  11    9.46   11.38
  -2   6  11    4.39    9.54
  -2   6  10  109.41   14.96
  -2   6  10   93.62   20.96
  -2   6  10  106.69   19.31
  -2   6  10   83.20   15.59
  -2   6   9   84.25   12.89
  -2   6   9   74.45   16.93
  -2   6   9   86.11   13.09
  -2   6   9  103.01   19.12
  -2   6   8   57.53   13.58
  -2   6   8   53.41    9.23
  -2   6   8   55.25   15.24
  -2   6   8   51.88    9.45
  -2   6   7  592.58   45.53
  -2   6   7  586.79   42.43
  -2   6   7  590.05   38.67
  -2   6   7  590.30   40.77
  -2   6   6  112.46    8.95
  -2   6   6  107.82   15.27
  -2   6   6   90.37   17.15
  -2   6   6  103.57    9.55
  -2   6   5   31.81    4.87
  -2   6   5   33.89   15.95
  -2   6   5   31.39    9.78
  -2   6   5   38.34    6.69
  -2   6   4  975.34   38.74
  -2   6   4  934.10   35.77
  -2   6   4  873.36   51.80
  -2   6   4  964.89   56.60
  -2   6   3  127.96   13.55
  -2   6   3  101.19    4.44
  -2   6   3  111.31    6.51
  -2   6   3   98.62   20.65
  -2   6   2  757.45   22.28
  -2   6   2  775.08   43.35
  -2   6   2  737.07   41.16
  -2   6   2  773.20   24.10
  -2   6   1  309.83   20.51
  -2   6   1  291.80    6.72
  -2   6   1  289.61    6.55
  -2   6   1  321.52   20.23
   2  -6   0  689.53   18.62
   2  -6   0  688.93   35.74
  -2   6   0  573.84   31.62
  -2   6   0  557.36   15.27
   2  -6   1  697.54   21.92
   2  -6   1  731.10   45.50
  -2   6  -1  610.65   21.54
  -2   6  -1  628.79   32.42
   2  -6   2    9.07    3.65
   2  -6   2    4.04    1.51
  -2   6  -2    2.56    1.51
  -2   6  -2    0.08    3.32
   2  -6   3  293.34   13.15
   2  -6   3  303.48   18.49
  -2   6  -3  299.21   13.78
  -2   6  -3  294.69   17.21
   2  -6   4 1162.68   55.38
   2  -6   4 1138.60   54.89
  -2   6  -4 1177.04   54.51
  -2   6  -4 1107.11   49.76
   2  -6   5  734.03   33.49
   2  -6   5  764.64   36.09
  -2   6  -5  540.10   29.11
  -2   6  -5  542.51   37.07
   2  -6   6 3003.92  154.03
   2  -6   6 3176.98  161.54
  -2   6  -6 3024.52  159.52
  -2   6  -6 3087.17  163.03
   2  -6   7  818.52   44.56
   2  -6   7  761.46   39.74
  -2   6  -7  735.04   44.29
  -2   6  -7  778.59   39.29
   2  -6   8  292.40   23.94
   2  -6   8  292.73   19.56
  -2   6  -8  260.03   24.53
  -2   6  -8  244.30   17.83
   2  -6   9  693.67   39.20
   2  -6   9  692.40   46.96
  -2   6  -9  597.40   34.94
  -2   6  -9  617.47   47.46
   2  -6  10  118.98   20.77
   2  -6  10  124.77   14.28
  -2   6 -10  134.12   33.41
  -2   6 -10  131.66   20.88
   2  -6  11  147.00   24.26
   2  -6  11  185.49   23.45
  -2   6 -11  113.58   14.62
  -2   6 -11   87.79   23.98
   2  -6  12  359.19   41.40
   2  -6  12  329.06   27.27
  -2   6 -12  347.93   43.63
  -2   6 -12  366.57   27.28
   2  -6  13   36.14   14.22
   2  -6  13   20.36    8.26
  -2   6 -13   12.28   15.59
  -2   6 -13    8.41    8.17
   2  -6  14  198.12   38.62
   2  -6  14  181.55   22.44
  -2   6 -14  230.20   22.80
  -2   6 -14  242.21   41.49
   2  -6  15   22.38   20.88
   2  -6  15   30.62   10.80
  -2   6 -15   16.80   35.95
  -2   6 -15   29.15   10.52
   2  -6  16   54.43   22.38
   2  -6  16   56.90   29.37
  -2   6 -16   68.30   29.86
  -2   6 -16   46.73   13.21
   2  -5 -13   -4.50   10.16
  -2   5  13    6.62    9.24
  -2   5  13   13.09    9.23
  -2   5  13   13.84    9.74
   2  -5 -12   29.65   13.87
   2  -5 -12   32.72   12.73
  -2   5  12   26.96   12.58
  -2   5  12   21.75   18.82
   2  -5 -11   71.73   14.39
   2  -5 -11   40.33   16.17
  -2   5  11   57.56   13.53
  -2   5  11   40.85   14.68
   2  -5 -10   14.50   10.03
   2  -5 -10   21.26    8.39
  -2   5  10    7.20   14.83
  -2   5  10   12.32    7.94
   2  -5  -9  412.49   31.12
   2  -5  -9  420.46   35.87
  -2   5   9  452.71   30.88
  -2   5   9  441.24   35.75
   2  -5  -8  161.53   17.66
   2  -5  -8  154.47   19.17
  -2   5   8   85.07   11.65
  -2   5   8   77.93   15.47
   2  -5  -7  457.27   34.15
   2  -5  -7  470.52   34.33
  -2   5   7  478.28   33.87
  -2   5   7  489.98   33.80
   2  -5  -6   15.23    4.24
   2  -5  -6   13.85    7.04
  -2   5   6    9.16    6.80
  -2   5   6   14.83    4.07
   2  -5  -5 1149.49   62.55
   2  -5  -5 1054.96   47.45
  -2   5   5 1168.63   62.25
  -2   5   5 1202.47   49.21
  -2   5   4  159.12   15.15
  -2   5   4  153.12    7.27
  -2   5   4  152.55    7.86
  -2   5   4  149.09   14.43
  -2   5   3 2698.73  137.74
  -2   5   3 2697.19  111.06
  -2   5   3 2534.99  102.13
  -2   5   3 2601.34  135.23
  -2   5   2 3161.45  162.58
  -2   5   2 3277.82  122.96
  -2   5   2 3389.51  128.81
  -2   5   2 3199.35  166.61
  -2   5   1  759.68   37.48
  -2   5   1  811.61   39.78
   2  -5   0 5439.68  216.94
   2  -5   0 4635.01  248.65
  -2   5   0 5434.49  217.05
  -2   5   0 4739.35  250.73
   2  -5   1  224.93   13.81
   2  -5   1  198.09    6.44
  -2   5  -1  263.01   13.60
  -2   5  -1  236.00    8.58
   2  -5   2    1.37    2.36
   2  -5   2    4.23    3.07
  -2   5  -2    6.66    2.60
  -2   5  -2    9.23    2.90
   2  -5   3  632.29   30.35
   2  -5   3  616.19   25.79
  -2   5  -3  879.76   33.09
  -2   5  -3  868.57   35.07
   2  -5   4 2502.09  126.92
   2  -5   4 2459.32  114.05
  -2   5  -4 2807.03  129.21
  -2   5  -4 2886.98  128.81
   2  -5   5  832.35   39.59
   2  -5   5  878.12   42.43
  -2   5  -5 1119.76   46.48
  -2   5  -5 1103.69   50.12
   2  -5   6 2221.82  111.01
   2  -5   6 2168.61  102.45
  -2   5  -6 2296.20  118.53
  -2   5  -6 2243.99  102.43
   2  -5   7  791.94   38.91
   2  -5   7  834.65   45.68
  -2   5  -7  883.60   50.48
  -2   5  -7  830.45   38.37
   2  -5   8  532.98   34.20
   2  -5   8  492.14   33.80
  -2   5  -8  474.00   25.10
  -2   5  -8  483.90   48.19
   2  -5   9  295.30   28.13
   2  -5   9  270.42   19.34
  -2   5  -9  345.55   20.37
  -2   5  -9  318.88   29.93
   2  -5  10  608.61   35.45
   2  -5  10  687.98   66.60
  -2   5 -10  624.46   34.36
  -2   5 -10  605.26   49.68
   2  -5  11   61.32   17.33
   2  -5  11   58.29   19.80
  -2   5 -11  101.11   11.46
  -2   5 -11  121.68   33.56
   2  -5  12   38.39    8.12
   2  -5  12   32.68   15.31
  -2   5 -12    7.45   12.10
  -2   5 -12   -0.50   15.83
   2  -5  13   11.54    6.27
   2  -5  13    3.78   11.77
  -2   5 -13    7.22    6.36
  -2   5 -13    5.21   13.30
   2  -5  14   36.03   15.84
   2  -5  14   11.33   12.35
  -2   5 -14   13.49    7.87
  -2   5 -14    4.16   16.64
   2  -5  15   12.23   17.51
   2  -5  15   10.35    8.74
  -2   5 -15   23.06    8.70
  -2   5 -15   23.15   19.05
   2  -5  16  134.01   18.35
   2  -5  16  120.42   36.88
  -2   5 -16  112.95   17.30
  -2   5 -16   94.78   61.34
   2  -4 -14    8.73   14.18
   2  -4 -14   46.46   15.03
  -2   4  14    2.00   13.58
  -2   4  14   47.31   14.41
   2  -4 -13  105.12   21.91
   2  -4 -13   99.51   22.27
  -2   4  13  122.44   30.96
  -2   4  13  114.12   21.51
   2  -4 -12    8.84    9.33
   2  -4 -12    9.92    8.87
  -2   4  12    7.39    8.30
  -2   4  12   11.29   13.89
   2  -4 -11   99.79   18.80
   2  -4 -11  112.09   17.66
  -2   4  11   89.00   16.72
  -2   4  11   77.00   17.32
   2  -4 -10  179.25   20.51
   2  -4 -10  172.36   22.91
  -2   4  10  202.06   20.55
  -2   4  10  166.29   20.74
   2  -4  -9  281.75   37.32
   2  -4  -9  268.17   23.83
  -2   4   9  300.55   32.62
  -2   4   9  285.97   25.33
   2  -4  -8  380.43   25.42
   2  -4  -8  380.59   28.53
  -2   4   8  348.53   38.27
  -2   4   8  343.63   23.91
   2  -4  -7  377.86   27.28
   2  -4  -7  386.28   29.66
  -2   4   7  385.55   26.77
  -2   4   7  399.89   23.00
   2  -4  -6  142.16    9.47
   2  -4  -6  140.37   18.19
  -2   4   6   65.33    7.88
  -2   4   6   64.11   11.21
   2  -4  -5  471.05   20.67
   2  -4  -5  460.39   26.80
  -2   4   5  397.98   24.93
  -2   4   5  387.59   21.99
   2  -4  -4   84.13    7.69
   2  -4  -4   68.49    9.52
  -2   4   4  102.25   14.79
  -2   4   4   92.69    7.38
   2  -4  -3 2017.17   97.60
  -2   4   3 2253.96  105.45
  -2   4   3 2102.89   78.03
   2  -4  -2    9.05    4.37
  -2   4   2   25.44    4.40
  -2   4   2   15.81    1.05
  -2   4   1 1582.82   69.96
  -2   4   1 1525.78   67.56
   2  -4   0 4611.10  235.44
   2  -4   0 5051.10  197.39
  -2   4   0 4746.86  240.25
  -2   4   0 5700.86  223.51
   2  -4   1 8816.23  441.08
   2  -4   1 8377.39  469.71
  -2   4  -1 9258.92  466.67
  -2   4  -1 8579.66  474.18
   2  -4   2 2632.39  103.47
   2  -4   2 2589.78  110.28
  -2   4  -2 2344.07  101.02
  -2   4  -2 2371.89   97.70
   2  -4   3 1948.04   81.16
   2  -4   3 1948.07   78.09
  -2   4  -3 1624.83   70.09
  -2   4  -3 1553.77   64.62
   2  -4   4 1582.93   70.17
   2  -4   4 1591.32   68.57
  -2   4  -4 1627.32   73.32
  -2   4  -4 1583.11   64.30
   2  -4   5  446.55   30.40
   2  -4   5  438.61   20.34
  -2   4  -5  623.42   28.01
  -2   4  -5  617.98   30.26
   2  -4   6   49.46    4.87
   2  -4   6   49.15    7.01
  -2   4  -6   16.17    4.11
  -2   4  -6   18.66    7.42
   2  -4   7 2685.28  123.87
   2  -4   7 2705.55  140.34
  -2   4  -7 2458.86  112.75
  -2   4  -7 2541.19  139.52
   2  -4   8  214.24   13.80
   2  -4   8  212.73   20.24
  -2   4  -8  227.92   22.49
  -2   4  -8  232.03   13.60
   2  -4   9  582.65   29.97
   2  -4   9  628.95   56.53
  -2   4  -9  563.89   59.45
  -2   4  -9  548.07   28.03
   2  -4  10  282.50   29.42
   2  -4  10  280.55   24.08
  -2   4 -10  249.61   30.10
  -2   4 -10  236.21   16.86
   2  -4  11 1660.96  108.21
   2  -4  11 1553.41   80.31
  -2   4 -11 1451.93   75.58
  -2   4 -11 1458.11  106.84
   2  -4  12   27.57   23.55
   2  -4  12   27.18    7.71
  -2   4 -12   27.33    7.59
  -2   4 -12   37.16   26.05
   2  -4  13   28.88   13.37
   2  -4  13   49.60   17.93
  -2   4 -13   32.73    8.66
  -2   4 -13   28.40   19.46
   2  -4  14  116.63   25.97
   2  -4  14   73.82   12.42
  -2   4 -14   59.21   11.94
  -2   4 -14   57.77   26.45
   2  -4  15  164.40   60.61
   2  -4  15  164.93   19.75
  -2   4 -15  190.82   43.19
  -2   4 -15  182.43   20.01
   2  -4  16    0.42   13.91
   2  -4  16    6.03    5.62
  -2   4 -16    1.43    5.45
  -2   4 -16   13.35   14.67
   2  -3 -14   84.69   32.49
   2  -3 -14   99.77   23.69
  -2   3  14   96.67   22.63
  -2   3  14   92.59   19.89
   2  -3 -13   16.84   12.27
   2  -3 -13   21.62   11.31
  -2   3  13   12.46   11.56
  -2   3  13   16.48   10.37
   2  -3 -12   27.27   14.44
   2  -3 -12   22.74   13.77
  -2   3  12   50.27   12.46
  -2   3  12   55.59   14.24
   2  -3 -11  137.70   29.93
   2  -3 -11  111.44   19.50
  -2   3  11  123.27   18.21
  -2   3  11  142.08   19.47
   2  -3 -10  834.73   54.72
   2  -3 -10  797.50   52.51
  -2   3  10  703.57   47.58
  -2   3  10  713.47   49.26
   2  -3  -9   85.37   14.85
   2  -3  -9   86.21   14.15
  -2   3   9  124.66   14.22
  -2   3   9  109.70   14.33
   2  -3  -8   83.89   11.20
   2  -3  -8   65.18   12.18
  -2   3   8   79.12   15.79
  -2   3   8   82.78   17.99
   2  -3  -7  849.22   53.59
   2  -3  -7  844.20   47.57
  -2   3   7  877.76   43.70
  -2   3   7  869.41   46.62
   2  -3  -6  591.82   29.29
   2  -3  -6  603.43   33.45
  -2   3   6  615.33   33.27
  -2   3   6  590.39   27.88
   2  -3  -5  304.48   16.02
   2  -3  -5  315.52   20.03
  -2   3   5  421.87   21.65
  -2   3   5  397.18   17.03
   2  -3  -4 1229.16   57.17
   2  -3  -4 1271.79   50.30
  -2   3   4 1267.32   48.59
  -2   3   4 1340.35   60.53
   2  -3  -3 1775.49   76.21
  -2   3   3 1545.42   56.06
  -2   3   3 1713.09   80.86
   2  -3  -2 3129.89  143.53
  -2   3   2 3208.70  118.91
  -2   3   2 3150.55  144.17
   2  -3  -1 2822.21   94.32
   2  -3  -1 2799.55  124.52
  -2   3   1 3396.07  113.16
  -2   3   1 2875.95  127.34
  -2   3   0  202.11   10.06
  -2   3   0  199.51    9.36
   2  -3   1 2389.72  101.28
   2  -3   1 2445.60   94.52
  -2   3  -1 2855.70  107.91
  -2   3  -1 2780.96  115.99
   2  -3   2 8153.39  433.03
   2  -3   2 8326.01  433.19
  -2   3  -2 8455.75  447.85
  -2   3  -2 8518.00  441.05
   2  -3   3 2792.30  112.43
   2  -3   3 2734.46  117.73
  -2   3  -3 2522.06  101.77
  -2   3  -3 2616.51  117.23
   2  -3   4  955.42   42.36
   2  -3   4  934.89   35.12
  -2   3  -4 1208.68   51.91
  -2   3  -4 1119.74   39.06
   2  -3   5 2184.02   87.96
   2  -3   5 2239.38  103.56
  -2   3  -5 2066.77  102.28
  -2   3  -5 1989.32   79.99
   2  -3   6   61.34   16.53
  -2   3  -6  135.04    9.89
  -2   3  -6  141.90   13.32
   2  -3   7  355.53   25.23
   2  -3   7  346.17   16.56
  -2   3  -7  419.31   29.63
  -2   3  -7  448.44   18.47
   2  -3   8  282.17   20.19
   2  -3   8  261.68   24.28
  -2   3  -8  350.45   16.58
  -2   3  -8  355.23   28.35
   2  -3   9  547.16   26.22
   2  -3   9  553.01   39.18
  -2   3  -9  534.89   41.99
  -2   3  -9  478.07   24.56
   2  -3  10  187.44   14.48
   2  -3  10  188.69   26.13
  -2   3 -10  240.00   28.70
  -2   3 -10  243.44   15.28
   2  -3  11  242.24   17.55
   2  -3  11  247.49   31.39
  -2   3 -11  250.16   32.66
  -2   3 -11  238.81   17.33
   2  -3  12  109.10   12.36
   2  -3  12  109.77   24.30
  -2   3 -12  114.31   12.33
  -2   3 -12  109.30   25.47
   2  -3  13  215.11   34.60
   2  -3  13  204.77   25.29
  -2   3 -13  191.02   55.36
  -2   3 -13  200.92   18.03
   2  -3  14   28.21   17.35
   2  -3  14   30.66    7.83
  -2   3 -14   10.94    7.50
  -2   3 -14   17.29   18.57
   2  -3  15  129.57   32.93
   2  -3  15  110.40   15.01
  -2   3 -15   98.50   14.82
  -2   3 -15   96.04   34.22
   2  -3  16   79.33   33.05
   2  -3  16   94.61   19.86
  -2   3 -16   53.68   34.00
   2  -2 -15  117.17   29.02
   2  -2 -15  101.56   24.63
  -2   2  15  137.02   22.44
  -2   2  15  123.61   28.13
   2  -2 -14   23.74   23.11
   2  -2 -14   19.73   12.79
  -2   2  14   17.72   14.02
  -2   2  14   23.27   11.59
   2  -2 -13   55.88   18.20
   2  -2 -13   58.88   16.80
  -2   2  13   56.92   15.04
  -2   2  13   56.16   17.79
   2  -2 -12  164.00   22.64
   2  -2 -12  166.60   38.02
  -2   2  12  186.30   21.63
  -2   2  12  161.42   24.97
   2  -2 -11  160.73   24.03
   2  -2 -11  163.80   21.76
  -2   2  11  249.80   31.18
  -2   2  11  239.43   35.69
   2  -2 -10  437.23   33.20
   2  -2 -10  420.59   47.48
  -2   2  10  454.39   33.69
  -2   2  10  415.03   30.89
   2  -2  -9  143.30   17.41
   2  -2  -9  137.96   17.18
  -2   2   9  163.60   16.49
  -2   2   9  168.49   17.23
   2  -2  -8  866.12   49.02
   2  -2  -8  883.02   50.18
  -2   2   8  882.30   47.52
  -2   2   8  902.42   48.24
   2  -2  -7  102.03   11.14
   2  -2  -7   98.70   11.30
  -2   2   7  116.87   10.64
  -2   2   7  113.89   11.20
   2  -2  -6 1510.17   71.03
   2  -2  -6 1473.25   67.04
  -2   2   6 1290.44   60.05
  -2   2   6 1353.58   65.17
   2  -2  -5 2548.01  114.64
   2  -2  -5 2554.79  120.33
  -2   2   5 2414.09  108.11
  -2   2   5 2544.25  118.47
   2  -2  -4 1494.07   64.81
   2  -2  -4 1418.99   56.91
  -2   2   4 1674.54   76.35
  -2   2   4 1515.51   59.40
   2  -2  -3   60.78    3.48
   2  -2  -3   62.44    5.58
   2  -2  -2 2269.23   93.11
  -2   2   2 2277.56   93.97
  -2   2   2 2290.94   82.36
   2  -2  -1  403.38   15.94
  -2   2   1  479.42   13.15
  -2   2   1  517.97   18.43
   2  -2   018619.92 1205.72
  -2   2   019553.47 1269.25
  -2   2   019240.15 1219.17
   2  -2   1 1302.98   43.15
   2  -2   1 1322.10   46.19
  -2   2  -1 1025.70   35.51
   2  -2   2 5236.96  255.79
   2  -2   2 5415.50  238.03
  -2   2  -2 5839.53  252.89
  -2   2  -2 5409.32  263.25
   2  -2   3 3597.11  166.21
   2  -2   3 3865.64  154.11
  -2   2  -3 3332.43  158.53
  -2   2  -3 3491.40  137.49
   2  -2   4 4284.63  182.65
   2  -2   4 4354.42  217.55
  -2   2  -4 4414.46  184.85
  -2   2  -4 4192.65  213.77
   2  -2   5 1153.41   43.99
   2  -2   5 1145.54   54.49
  -2   2  -5 1197.27   44.58
  -2   2  -5 1226.99   60.08
   2  -2   6 1191.36   67.25
   2  -2   6 1097.44   40.67
  -2   2  -6 1027.65   38.61
  -2   2  -6  988.31   54.69
   2  -2   7  192.48    9.35
   2  -2   7  217.74   17.51
  -2   2  -7   93.01   16.82
   2  -2   8  395.51   29.16
   2  -2   8  409.52   22.90
  -2   2  -8  385.50   31.36
  -2   2  -8  396.46   18.35
   2  -2   9   46.55    7.36
   2  -2   9   42.01    9.65
  -2   2  -9   10.65    4.47
  -2   2  -9    8.21   10.36
   2  -2  10  103.25   19.03
   2  -2  10   98.34    9.50
  -2   2 -10  115.44   21.59
  -2   2 -10  123.73   10.23
   2  -2  11   52.56    7.80
   2  -2  11   49.66   16.48
  -2   2 -11   56.18   18.15
  -2   2 -11   49.84    7.91
   2  -2  12  187.56   41.70
   2  -2  12  136.05   13.55
  -2   2 -12  142.62   19.58
  -2   2 -12  143.91   28.30
   2  -2  13    7.84    7.75
   2  -2  13   -0.96    5.24
  -2   2 -13   -9.44    8.20
  -2   2 -13    2.56    3.46
   2  -2  14  203.56   53.71
   2  -2  14  155.04   16.18
  -2   2 -14  139.72   35.71
  -2   2 -14  147.30   16.22
   2  -2  15   90.52   29.27
   2  -2  15   86.32   11.83
  -2   2 -15   51.61   11.80
  -2   2 -15   49.47   29.58
   2  -1 -15  135.18   35.93
   2  -1 -15  110.00   28.88
  -2   1  15  110.33   21.31
  -2   1  15  114.87   28.29
   2  -1 -14   81.29   41.26
   2  -1 -14   98.03   21.86
  -2   1  14  150.68   39.60
  -2   1  14  135.99   20.58
   2  -1 -13   40.89   20.05
   2  -1 -13   35.75   15.29
  -2   1  13   26.60   14.97
  -2   1  13   27.59   18.51
   2  -1 -12  212.37   40.79
   2  -1 -12  231.52   24.80
  -2   1  12  187.22   22.28
  -2   1  12  186.75   27.08
   2  -1 -11   40.75   12.58
   2  -1 -11   47.53   17.13
  -2   1  11   22.87   15.82
  -2   1  11   26.69   12.15
   2  -1 -10   33.72   10.21
   2  -1 -10   41.96    8.99
  -2   1  10   17.52    8.34
  -2   1  10   15.57    9.73
   2  -1  -9 1327.40   73.19
   2  -1  -9 1319.61   77.06
  -2   1   9 1331.15   71.03
  -2   1   9 1424.05   90.89
   2  -1  -8   80.76   10.26
   2  -1  -8   67.71   10.59
  -2   1   8   77.38   16.42
  -2   1   8   89.03   10.13
   2  -1  -7 1565.55   78.84
   2  -1  -7 1529.72   76.30
  -2   1   7 1711.44   80.51
  -2   1   7 1675.55   80.83
   2  -1  -6  752.02   35.22
   2  -1  -6  746.29   34.55
  -2   1   6  664.86   32.49
  -2   1   6  702.55   33.35
   2  -1  -5  794.98   35.41
   2  -1  -5  812.88   36.78
  -2   1   5  964.74   39.42
  -2   1   5  995.49   41.08
   2  -1  -4 1864.52   77.80
   2  -1  -4 1897.39   80.95
  -2   1   4 2044.30   83.11
  -2   1   4 2154.19   88.64
   2  -1  -3 3042.09  127.18
   2  -1  -3 2913.64  118.95
  -2   1   3 2815.10  119.92
  -2   1   3 2670.33  110.76
   2  -1  -2 6183.60  285.32
   2  -1  -2 6221.63  280.57
  -2   1   2 5189.94  238.86
  -2   1   2 5056.06  240.11
   2  -1  -1 5446.97  252.89
   2  -1  -1 5509.83  253.23
  -2   1   1 6249.68  282.67
  -2   1   1 6331.32  286.14
   2  -1   0  773.84   24.98
   2  -1   0  752.87   22.16
  -2   1   0  627.12   21.73
  -2   1   0  576.36   16.77
   2  -1   1 4657.77  219.97
   2  -1   1 5298.84  209.59
  -2   1  -1 4694.08  220.51
   2  -1   2 1978.46   84.24
   2  -1   2 2317.84   68.46
  -2   1  -2 2016.33   59.05
  -2   1  -2 1814.52   79.98
   2  -1   3 1626.68   69.71
   2  -1   3 1642.49   48.76
  -2   1  -3 1534.53   66.93
  -2   1  -3 1445.89   44.10
   2  -1   4 1610.37   54.02
   2  -1   4 1653.58   73.73
  -2   1  -4 1487.25   49.02
  -2   1  -4 1464.81   69.75
   2  -1   5 2573.62  101.23
   2  -1   5 2670.69  131.52
  -2   1  -5 2465.33   95.71
  -2   1  -5 2489.17  127.39
   2  -1   6 1908.03   95.36
   2  -1   6 1884.02   71.70
  -2   1  -6 1807.42   70.90
  -2   1  -6 1797.31   96.96
   2  -1   7  358.89   24.72
   2  -1   7  336.07   13.65
  -2   1  -7  292.68   25.45
  -2   1  -7  291.81   16.76
   2  -1   8  105.13    9.99
   2  -1   8  110.88   14.93
  -2   1  -8   56.60   14.98
   2  -1   9   45.98    5.09
   2  -1   9   43.24   11.24
  -2   1  -9   18.41   12.03
  -2   1  -9   14.97    5.12
   2  -1  10  313.20   17.62
   2  -1  10  287.43   32.64
  -2   1 -10  339.26   35.81
  -2   1 -10  352.67   19.81
   2  -1  11  205.24   21.00
   2  -1  11  213.20   30.71
  -2   1 -11  239.51   16.62
  -2   1 -11  225.84   47.57
   2  -1  12  152.95   13.44
   2  -1  12  154.91   28.07
  -2   1 -12  119.71   28.85
  -2   1 -12  138.29   19.95
   2  -1  13   20.01   13.28
   2  -1  13    3.89    8.45
  -2   1 -13   18.25   14.01
  -2   1 -13   11.84    5.81
   2  -1  14  231.64   20.15
   2  -1  14  247.94   42.75
  -2   1 -14  221.51   19.91
  -2   1 -14  265.26   42.98
   2  -1  15    1.74   15.50
  -2   1 -15   17.57   16.60
   2   0 -16   -4.35   12.27
   2   0 -16   15.12    9.19
  -2   0  16    7.39    8.40
  -2   0  16  -10.17   11.82
   2   0 -15    3.30   11.48
   2   0 -15    6.04    8.80
  -2   0  15    5.07    7.80
  -2   0  15    3.47   10.94
   2   0 -14  108.41   20.16
   2   0 -14   69.53   25.31
  -2   0  14   82.75   17.85
  -2   0  14  114.51   24.25
   2   0 -13  113.40   19.72
   2   0 -13  133.65   24.99
  -2   0  13   97.84   36.38
  -2   0  13  113.79   18.53
   2   0 -12   57.66   24.36
   2   0 -12   62.91   12.81
  -2   0  12   34.64   11.54
  -2   0  12   26.47   14.53
   2   0 -11  385.17   30.91
   2   0 -11  384.50   36.40
  -2   0  11  395.49   40.84
  -2   0  11  365.98   34.36
   2   0 -10  145.97   18.95
   2   0 -10  183.41   25.04
  -2   0  10  114.81   15.52
  -2   0  10  142.73   18.17
   2   0  -9   36.05   14.14
   2   0  -9   27.37    8.04
  -2   0   9   29.81    8.71
  -2   0   9   27.75    7.74
   2   0  -8   66.49   13.40
   2   0  -8   71.48    9.70
  -2   0   8   40.61    8.29
  -2   0   8   51.61    9.37
   2   0  -7 4058.55  210.38
   2   0  -7 3834.52  205.03
  -2   0   7 4069.79  214.18
  -2   0   7 4237.07  215.08
   2   0  -6 1712.98   78.99
   2   0  -6 1642.80   77.87
  -2   0   6 1875.71   83.14
  -2   0   6 1787.36   82.67
   2   0  -5 1211.66   54.00
   2   0  -5 1280.49   55.00
  -2   0   5 1407.57   58.36
  -2   0   5 1385.44   64.96
   2   0  -4 2208.84   90.89
   2   0  -4 2201.50   91.92
  -2   0   4 1944.06   83.41
  -2   0   4 2109.21   93.36
   2   0  -3 4950.68  225.68
   2   0  -3 5132.92  235.89
  -2   0   3 4523.36  209.31
  -2   0   3 4441.95  208.32
   2   0  -2 2219.07   82.81
   2   0  -2 2181.43   79.56
  -2   0   2 1703.94   65.55
  -2   0   2 1697.14   67.34
   2   0  -1 3061.61  123.80
   2   0  -1 3186.98  120.29
  -2   0   1 2903.21  111.73
  -2   0   1 2716.78  112.97
   2   0   0  586.97   21.98
   2   0   0  558.00   15.22
   2   0   1 3183.13  145.23
   2   0   1 3304.83  114.88
  -2   0  -1 3487.79  154.47
   2   0   2 2308.80  106.87
   2   0   2 2386.78  114.37
   2   0   2 2686.23   86.52
   2   0   2 2629.29   84.84
   2   0   3 1213.78   37.20
   2   0   3 1381.04   42.17
   2   0   3 1378.56   60.44
   2   0   3 1347.88   60.95
   2   0   4  826.93   25.31
   2   0   4  880.34   41.79
  -2   0  -4  832.39   26.44
  -2   0  -4  843.43   42.00
   2   0   5 1262.86   44.70
   2   0   5 1295.37   65.56
  -2   0  -5 1366.40   68.99
  -2   0  -5 1451.69   51.88
   2   0   6  125.62    5.99
   2   0   6  122.81   13.55
  -2   0  -6  113.20    6.22
  -2   0  -6   90.19   13.19
   2   0   7  706.79   42.59
   2   0   7  754.57   28.83
  -2   0  -7  682.74   28.49
  -2   0  -7  610.08   42.54
   2   0   8  336.55   36.52
   2   0   8  337.96   14.73
  -2   0  -8  235.83   13.85
  -2   0  -8  214.69   25.47
   2   0   9  139.14    9.93
   2   0   9  119.33   20.78
  -2   0  -9  178.08   11.69
  -2   0  -9  196.50   22.83
   2   0  10   54.24   13.53
   2   0  10   62.11    8.93
  -2   0 -10   21.75    6.21
  -2   0 -10   13.45   13.79
   2   0  11  239.04   30.84
   2   0  11  221.36   15.17
  -2   0 -11  218.89   31.93
  -2   0 -11  242.23   17.01
   2   0  12  178.58   14.45
   2   0  12  186.63   30.78
  -2   0 -12  166.80   31.61
  -2   0 -12  158.94   21.89
   2   0  13   88.82   16.99
   2   0  13   64.28   41.52
  -2   0 -13  125.64   27.73
  -2   0 -13  104.60   13.01
   2   0  14  150.24   32.38
   2   0  14  147.13   14.14
  -2   0 -14    0.81   34.24
  -2   0 -14  119.78   21.03
   2   1 -16    0.03   25.00
   2   1 -16   55.84   18.69
  -2  -1  16   64.37   26.59
  -2  -1  16   90.58   37.33
   2   1 -15   15.66   10.63
   2   1 -15    2.62   14.01
  -2  -1  15   15.03    9.80
  -2  -1  15    1.59   13.53
   2   1 -14  268.02   30.54
   2   1 -14  268.00   38.91
  -2  -1  14  236.55   28.08
  -2  -1  14  221.29   36.92
   2   1 -13  132.99   27.60
   2   1 -13  149.34   21.79
  -2  -1  13  150.90   26.23
  -2  -1  13  144.27   20.68
   2   1 -12   94.86   22.54
   2   1 -12  122.77   17.84
  -2  -1  12  129.89   21.20
  -2  -1  12   92.48   16.26
   2   1 -11   68.47   24.78
   2   1 -11   69.70   19.01
  -2  -1  11  156.69   19.87
  -2  -1  11  151.92   16.15
   2   1 -10  223.32   21.46
   2   1 -10  225.93   24.75
  -2  -1  10  254.49   20.94
  -2  -1  10  275.51   24.84
   2   1  -9  579.78   38.33
   2   1  -9  600.59   36.27
  -2  -1   9  631.02   35.95
  -2  -1   9  643.00   39.69
   2   1  -8  697.95   36.16
   2   1  -8  696.30   48.52
  -2  -1   8  575.97   32.20
  -2  -1   8  582.72   35.45
   2   1  -7  385.52   31.54
   2   1  -7  406.42   22.07
  -2  -1   7  397.37   22.10
  -2  -1   7  372.52   23.27
   2   1  -6  616.47   31.37
   2   1  -6  646.03   30.35
  -2  -1   6  613.63   31.35
  -2  -1   6  645.92   30.21
   2   1  -5  457.58   21.62
   2   1  -5  459.24   20.79
  -2  -1   5  457.15   20.79
  -2  -1   5  422.61   20.98
   2   1  -4 4478.49  219.47
   2   1  -4 4686.63  223.07
  -2  -1   4 4637.13  226.46
  -2  -1   4 5012.44  236.01
   2   1  -3 6856.62  349.55
   2   1  -3 6930.71  360.26
  -2  -1   3 7164.04  371.39
  -2  -1   3 7591.53  382.53
   2   1  -2 1110.83   43.91
   2   1  -2 1064.31   39.42
  -2  -1   2 1325.94   49.70
  -2  -1   2 1283.35   45.61
   2   1  -1 2707.39  111.99
   2   1  -1 2900.94  109.46
  -2  -1   1 2391.40   98.15
  -2  -1   1 2430.37  103.35
   2   1   0 1520.67   61.39
   2   1   0 1458.26   51.62
  -2  -1   0 1483.10   50.62
  -2  -1   0 1479.88   59.83
   2   1   1 3338.41  160.85
   2   1   1 3291.66  126.80
  -2  -1  -1 3194.47  147.46
   2   1   2  300.11    9.16
   2   1   2  307.73    9.38
   2   1   2  315.73   21.45
   2   1   2  326.09   16.49
   2   1   3   42.31    3.71
   2   1   3   53.82    7.01
   2   1   3   49.87   10.29
   2   1   3   47.42    3.93
   2   1   4 3821.64  167.13
   2   1   4 3852.40  200.39
   2   1   4 3866.50  169.01
   2   1   4 3770.83  200.62
   2   1   5  141.83    8.52
   2   1   5  137.90   13.73
   2   1   5  135.04    7.12
   2   1   5  131.31   14.09
   2   1   6   42.05   10.56
  -2  -1  -6   89.08   12.09
  -2  -1  -6   81.43    5.78
   2   1   7  592.88   39.32
   2   1   7  578.39   24.28
  -2  -1  -7  570.21   40.46
  -2  -1  -7  601.50   26.48
   2   1   8   20.47   11.01
   2   1   8   32.36    4.88
  -2  -1  -8   42.16   11.97
  -2  -1  -8   50.03    8.27
   2   1   9  569.12   27.48
   2   1   9  543.78   44.74
  -2  -1  -9  582.61   47.42
  -2  -1  -9  594.62   29.52
   2   1  10    6.60   15.53
   2   1  10    5.62    4.32
  -2  -1 -10   22.41   11.00
  -2  -1 -10   18.66    4.84
   2   1  11    0.55    8.71
   2   1  11    4.82    3.65
  -2  -1 -11    9.49    9.35
  -2  -1 -11    4.07    4.12
   2   1  12   93.08   10.32
   2   1  12  106.14   23.47
  -2  -1 -12   74.45   11.15
   2   1  13   40.38   18.02
   2   1  13   -5.13   18.89
   2   1  13   33.41   10.95
   2   1  13   27.42    8.16
   2   1  14   13.80   10.99
   2   1  14   -8.71   11.54
   2   2 -16   11.50   14.12
   2   2 -16   23.54   18.95
  -2  -2  16   25.33   13.06
  -2  -2  16   18.92   18.67
   2   2 -15   37.40   15.60
   2   2 -15   14.30   21.62
  -2  -2  15   79.66   33.20
  -2  -2  15   50.63   15.08
   2   2 -14  116.40   21.80
   2   2 -14  127.78   29.18
  -2  -2  14  119.14   32.10
  -2  -2  14  122.53   28.22
   2   2 -13  117.95   29.35
   2   2 -13  132.30   24.81
  -2  -2  13   92.55   18.02
  -2  -2  13  121.45   24.14
   2   2 -12  140.13   17.73
   2   2 -12  102.86   21.66
  -2  -2  12   96.94   16.42
  -2  -2  12   82.03   21.27
   2   2 -11  389.06   30.24
   2   2 -11  364.64   34.16
  -2  -2  11  326.65   27.69
  -2  -2  11  325.05   33.82
   2   2 -10   15.57    8.67
   2   2 -10   13.88   10.37
  -2  -2  10   44.42    8.95
  -2  -2  10   47.03   10.59
   2   2  -9 1355.79   77.11
   2   2  -9 1382.80   72.73
  -2  -2   9 1338.98   82.49
  -2  -2   9 1338.16   76.61
   2   2  -8  216.18   17.26
   2   2  -8  205.34   27.81
  -2  -2   8  254.24   25.09
  -2  -2   8  271.62   20.39
   2   2  -7  251.17   19.04
   2   2  -7  237.46   16.56
  -2  -2   7  299.61   19.76
  -2  -2   7  298.63   17.71
   2   2  -6 3878.86  198.62
   2   2  -6 3866.10  192.52
  -2  -2   6 3787.48  195.24
  -2  -2   6 4016.27  198.98
   2   2  -5 2195.13  103.77
   2   2  -5 2177.50   99.74
  -2  -2   5 2613.84  114.58
  -2  -2   5 2460.82  112.71
   2   2  -4    7.06    3.04
   2   2  -4    8.16    2.72
  -2  -2   4    4.47    2.99
  -2  -2   4    4.74    2.74
   2   2  -3  182.00   13.37
   2   2  -3  188.62   14.94
  -2  -2   3  250.91   11.35
  -2  -2   3  245.96   12.05
   2   2  -2 3424.86  153.39
   2   2  -2 3352.76  145.06
  -2  -2   2 3168.14  139.83
  -2  -2   2 3298.10  149.01
   2   2  -1 1423.60   52.45
   2   2  -1 1487.93   59.01
  -2  -2   1 1269.96   49.02
  -2  -2   1 1327.87   54.87
   2   2   0 4150.34  196.43
   2   2   0 4222.22  182.33
  -2  -2   0 3919.77  173.12
  -2  -2   0 3721.13  179.74
   2   2   1  536.35   18.43
   2   2   1  563.29   25.19
  -2  -2  -1  508.46   23.98
  -2  -2  -1  497.01   18.12
   2   2   2  912.62   44.30
   2   2   2  899.53   33.44
  -2  -2  -2 1039.71   37.81
  -2  -2  -2 1062.91   47.81
   2   2   3  430.46   16.71
   2   2   3  433.99   16.62
   2   2   3  430.17   24.04
   2   2   3  442.57   33.46
   2   2   4  120.83   17.23
   2   2   4  126.37   12.84
   2   2   4  114.78    6.94
   2   2   4  124.02    6.76
   2   2   5  146.83    8.62
   2   2   5  139.35   14.90
   2   2   5  140.97    8.03
   2   2   5  146.45   15.42
   2   2   6  101.66   22.54
   2   2   6  109.57   13.81
   2   2   6  101.03    7.21
   2   2   6  110.52    8.17
   2   2   7  465.29   34.32
   2   2   7  455.85   23.23
   2   2   7  430.50   35.10
   2   2   7  453.80   21.24
   2   2   8  901.65   44.13
   2   2   8  877.69   57.88
   2   2   8  852.61   61.60
   2   2   8  865.82   39.82
   2   2   9  153.09   11.41
   2   2   9  141.81   23.71
   2   2   9  157.21   18.96
   2   2   9  137.32   21.91
   2   2  10  218.64   28.11
   2   2  10  204.68   14.78
   2   2  10  197.96   23.80
   2   2  10  196.38   30.05
   2   2  11   29.23   18.53
   2   2  11   50.33    7.81
   2   2  11   46.33    9.24
   2   2  11   46.56   17.43
   2   2  12   -5.62    9.38
   2   2  12   -7.49    3.54
   2   2  12    3.54    8.52
   2   2  12    3.75    4.25
   2   2  13   47.96    7.96
   2   2  13   53.01   20.11
   2   2  13   -4.85   33.49
   2   2  13   10.95   13.91
   2   3 -17   37.40   21.78
   2   3 -17   23.76   14.33
  -2  -3  17    1.27   14.09
  -2  -3  17   39.72   21.03
   2   3 -16  117.73   36.04
   2   3 -16  124.95   27.30
  -2  -3  16  145.61   36.68
  -2  -3  16  146.66   26.07
   2   3 -15   51.38   26.01
   2   3 -15   65.02   19.17
  -2  -3  15   67.15   24.63
  -2  -3  15   58.71   18.04
   2   3 -14   37.45   18.83
   2   3 -14   31.65   14.60
  -2  -3  14   42.64   18.64
  -2  -3  14   39.94   13.90
   2   3 -13  146.94   27.44
   2   3 -13  143.71   21.56
  -2  -3  13  131.12   20.78
  -2  -3  13  129.05   27.05
   2   3 -12  115.61   23.42
   2   3 -12  129.38   28.57
  -2  -3  12  133.05   23.90
  -2  -3  12  133.46   19.57
   2   3 -11  442.03   34.20
   2   3 -11  423.81   38.36
  -2  -3  11  446.95   33.74
  -2  -3  11  438.95   39.39
   2   3 -10  186.51   20.54
   2   3 -10  186.30   34.44
  -2  -3  10  246.87   24.61
  -2  -3  10  250.35   21.81
   2   3  -9  118.37   17.23
   2   3  -9  132.92   14.67
  -2  -3   9  150.55   15.31
  -2  -3   9  135.59   17.45
   2   3  -8 1270.07   70.18
   2   3  -8 1223.36   64.51
  -2  -3   8 1417.07   87.79
  -2  -3   8 1401.39   70.59
   2   3  -7  559.77   37.91
   2   3  -7  514.44   26.48
  -2  -3   7  394.24   24.51
  -2  -3   7  354.15   25.30
   2   3  -6 1004.94   48.30
   2   3  -6 1067.77   52.57
  -2  -3   6 1166.87   54.14
  -2  -3   6 1064.77   52.63
   2   3  -5 1843.55   82.72
   2   3  -5 1932.27   88.94
  -2  -3   5 1781.12   91.39
  -2  -3   5 1672.65   80.91
   2   3  -4   57.63    6.17
   2   3  -4   51.84    5.75
  -2  -3   4   25.59    8.73
  -2  -3   4   29.10    5.89
   2   3  -3  696.40   36.15
   2   3  -3  712.16   32.63
  -2  -3   3  900.32   36.75
  -2  -3   3  893.65   37.73
   2   3  -2  358.44   16.16
   2   3  -2  350.80   15.07
  -2  -3   2  277.23   13.92
  -2  -3   2  280.29   15.15
   2   3  -1 1038.85   43.78
   2   3  -1 1073.75   42.09
  -2  -3   1 1002.34   43.16
  -2  -3   1  974.58   45.11
   2   3   0  239.68   13.25
   2   3   0  224.63   11.99
  -2  -3   0  149.24   10.89
  -2  -3   0  163.23    9.35
   2   3   1  667.60   30.51
   2   3   1  663.16   25.12
  -2  -3  -1  513.84   22.83
  -2  -3  -1  505.78   26.50
   2   3   2 1147.92   53.84
   2   3   2 1167.30   45.73
  -2  -3  -2  955.00   46.30
  -2  -3  -2  905.52   46.66
   2   3   3  122.43    8.06
   2   3   3  117.27   11.50
   2   3   3  124.85   12.23
   2   3   3  116.36    7.86
   2   3   4   18.13    5.92
   2   3   4   21.02    6.32
   2   3   4   30.21    6.91
   2   3   4   20.90    7.35
   2   3   5  663.36   49.77
   2   3   5  611.92   28.13
   2   3   5  624.57   39.97
   2   3   5  591.12   32.15
   2   3   6  438.47   21.77
   2   3   6  456.68   23.59
   2   3   6  451.21   32.52
   2   3   6  451.29   34.22
   2   3   7  198.08   33.85
   2   3   7  181.99   19.73
   2   3   7  190.18   12.67
   2   3   7  197.23   22.16
   2   3   8  137.27   12.70
   2   3   8  130.17   11.57
   2   3   8  145.44   19.49
   2   3   8  137.40   21.94
   2   3   9  126.15   12.96
   2   3   9  136.03   23.63
   2   3   9  125.22   17.06
   2   3   9  118.19   20.97
   2   3  10   77.93   10.40
   2   3  10  107.44   20.26
   2   3  10   92.98   12.05
   2   3  10   92.62   22.22
   2   3  11   21.46   16.15
   2   3  11   28.44    6.94
   2   3  11   36.87   14.59
   2   3  11   26.06    8.13
   2   3  12   44.10   16.30
   2   3  12   28.83    7.26
   2   3  12   27.77   12.45
   2   3  12   -2.55   17.87
   2   3  13   45.89   19.48
   2   3  13   -1.00   32.87
   2   4 -17   -1.24    8.62
   2   4 -17   16.84   13.74
  -2  -4  17    2.77    9.05
  -2  -4  17   -0.73   20.96
   2   4 -16  105.81   28.37
   2   4 -16   73.64   19.61
  -2  -4  16    1.09   18.95
  -2  -4  16   76.82   26.70
   2   4 -15    0.44   11.24
   2   4 -15    5.54    9.33
  -2  -4  15    6.74   10.44
  -2  -4  15   -6.17    9.07
   2   4 -14  433.90   43.00
   2   4 -14  412.82   51.90
  -2  -4  14  415.63   40.84
  -2  -4  14  416.23   50.73
   2   4 -13   19.21   10.49
   2   4 -13   20.57   13.61
  -2  -4  13   13.81   10.22
  -2  -4  13    9.22   13.00
   2   4 -12  244.62   31.03
   2   4 -12  275.97   26.34
  -2  -4  12  187.71   25.03
  -2  -4  12  173.85   30.03
   2   4 -11  688.43   47.22
   2   4 -11  732.24   54.22
  -2  -4  11  641.15   46.60
  -2  -4  11  649.31   51.75
   2   4 -10   35.85   10.03
   2   4 -10   40.85   11.90
  -2  -4  10   28.97   10.08
  -2  -4  10   18.02   17.97
   2   4  -9  441.99   34.71
   2   4  -9  454.17   30.99
  -2  -4   9  542.79   33.99
  -2  -4   9  509.31   35.67
   2   4  -8  221.66   18.91
   2   4  -8  230.09   20.88
  -2  -4   8  256.95   19.89
  -2  -4   8  263.27   21.71
   2   4  -7  888.48   46.91
   2   4  -7  898.83   49.29
  -2  -4   7  960.32   49.46
  -2  -4   7  898.06   49.43
   2   4  -6  173.04   14.97
   2   4  -6  156.06   13.66
  -2  -4   6  207.23   15.54
  -2  -4   6  204.21   15.22
   2   4  -5   34.92    6.93
   2   4  -5   33.68    7.27
  -2  -4   5   56.96    7.60
  -2  -4   5   52.09    7.52
   2   4  -4 4551.56  238.79
   2   4  -4 4766.12  249.33
  -2  -4   4 4066.62  223.17
  -2  -4   4 4008.33  208.97
   2   4  -3 1073.21   49.49
   2   4  -3 1021.08   47.08
  -2  -4   3 1124.46   51.82
  -2  -4   3 1191.79   53.55
   2   4  -2 1647.12   75.56
   2   4  -2 1731.38   79.68
  -2  -4   2 1921.35   85.87
  -2  -4   2 1951.77   95.08
   2   4  -1 1381.72   63.66
   2   4  -1 1373.28   68.54
  -2  -4   1 1564.80   71.21
  -2  -4   1 1621.21   71.30
   2   4   0 1067.26   47.82
   2   4   0 1084.03   50.86
  -2  -4   0 1167.93   54.02
  -2  -4   0 1214.04   52.99
   2   4   1 2846.55  132.42
   2   4   1 2870.08  144.10
  -2  -4  -1 2871.69  144.63
  -2  -4  -1 2819.35  134.76
   2   4   2  353.34   21.83
   2   4   2  358.68   24.16
  -2  -4  -2  354.56   21.99
  -2  -4  -2  358.11   18.83
   2   4   3  221.27   17.75
   2   4   3  215.60   13.51
   2   4   3  221.94   13.42
   2   4   3  248.69   25.21
   2   4   4  273.88   22.23
   2   4   4  281.57   21.87
   2   4   4  280.38   22.42
   2   4   4  277.35   16.42
   2   4   5  157.74   12.17
   2   4   5  175.21   17.59
   2   4   5  162.64   12.78
   2   4   5  173.18   26.81
   2   4   6   51.50    8.06
   2   4   6   66.65   12.80
   2   4   6   58.56   17.95
   2   4   6   46.33    7.20
   2   4   7  407.42   23.81
   2   4   7  394.31   25.03
   2   4   7  432.05   37.07
   2   4   7  418.90   47.67
   2   4   8   31.84    7.81
   2   4   8   35.34   19.97
   2   4   8   46.38   13.49
   2   4   8   36.02    7.09
   2   4   9  103.36   11.29
   2   4   9  100.25   22.08
   2   4   9   90.08   19.85
   2   4   9  121.30   18.89
   2   4  10   68.63   16.98
   2   4  10   63.84   20.50
   2   4  10   67.60   10.13
   2   4  10   69.44   18.79
   2   4  11    6.40    5.51
   2   4  11    9.78    9.75
   2   4  11    7.09    4.85
   2   4  11   -1.72   10.96
   2   4  12    5.05    9.51
   2   4  12    1.41   10.52
   2   5 -17   40.78   23.25
   2   5 -17   28.48   14.84
  -2  -5  17   -6.11   15.78
  -2  -5  17   38.50   21.84
   2   5 -16  113.96   23.15
   2   5 -16   57.91   55.94
  -2  -5  16   -4.13   36.03
  -2  -5  16  103.27   30.40
   2   5 -15    2.68   24.82
   2   5 -15   24.85   20.67
  -2  -5  15   41.47   19.77
  -2  -5  15   40.51   15.31
   2   5 -14  284.70   34.76
   2   5 -14  264.73   42.90
  -2  -5  14  268.95   33.33
  -2  -5  14  294.31   40.15
   2   5 -13  178.78   37.06
   2   5 -13  255.55   30.35
  -2  -5  13  287.02   31.42
  -2  -5  13  273.58   36.58
   2   5 -12  196.31   23.54
   2   5 -12  161.53   27.59
  -2  -5  12  151.30   26.52
  -2  -5  12  155.19   23.40
   2   5 -11  299.98   29.08
   2   5 -11  280.52   33.46
  -2  -5  11  297.03   29.25
  -2  -5  11  288.03   31.92
   2   5 -10 1307.91   94.69
   2   5 -10 1311.88   83.62
  -2  -5  10 1270.50   76.99
  -2  -5  10 1245.25   80.75
   2   5  -9  208.31   21.89
   2   5  -9  217.05   24.59
  -2  -5   9  320.75   24.76
  -2  -5   9  317.07   26.36
   2   5  -8  657.12   51.44
   2   5  -8  605.74   37.10
  -2  -5   8  580.13   37.34
  -2  -5   8  517.54   37.13
   2   5  -7  674.63   39.16
   2   5  -7  676.75   37.39
  -2  -5   7  576.09   47.97
  -2  -5   7  549.82   36.56
   2   5  -6 1121.97   58.03
   2   5  -6 1188.56   61.73
  -2  -5   6 1106.51   59.91
  -2  -5   6 1166.47   61.19
   2   5  -5  514.32   30.43
   2   5  -5  534.57   31.53
  -2  -5   5  660.84   34.51
  -2  -5   5  664.54   35.46
   2   5  -4  308.83   25.00
   2   5  -4  282.73   18.13
  -2  -5   4  269.74   25.02
  -2  -5   4  250.75   18.63
   2   5  -3   53.68    8.07
   2   5  -3   48.61    7.68
  -2  -5   3   66.65    8.09
  -2  -5   3   67.94    8.35
   2   5  -2 3574.52  178.25
   2   5  -2 3415.29  173.78
  -2  -5   2 3541.63  181.79
  -2  -5   2 3330.61  171.89
   2   5  -1   99.64   10.16
   2   5  -1  108.50   10.58
  -2  -5   1  149.55   11.57
  -2  -5   1  155.78   11.85
   2   5   0  441.77   22.11
   2   5   0  429.90   22.32
  -2  -5   0  303.53   20.85
  -2  -5   0  294.35   19.84
   2   5   1  689.04   36.25
   2   5   1  673.63   33.60
  -2  -5  -1  720.97   37.64
  -2  -5  -1  691.94   36.15
   2   5   2  158.00   12.32
   2   5   2  171.09   20.67
  -2  -5  -2  151.93   14.28
  -2  -5  -2  145.74   12.94
   2   5   3 1163.83   58.71
   2   5   3 1268.73   79.54
   2   5   3 1174.42   65.18
   2   5   3 1196.62   59.72
   2   5   4  268.03   18.71
   2   5   4  254.99   24.24
   2   5   4  272.39   23.23
   2   5   4  279.22   22.71
   2   5   5  111.29   12.19
   2   5   5  105.44   11.47
   2   5   5  124.84   16.21
   2   5   5  122.13   15.38
   2   5   6  101.15   11.92
   2   5   6   90.66   16.79
   2   5   6  107.22   24.67
   2   5   6   96.41   10.96
   2   5   7   44.44   18.28
   2   5   7   30.82    7.77
   2   5   7   38.54   12.49
   2   5   7   28.26    8.19
   2   5   8  109.70   18.70
   2   5   8   91.02   31.40
   2   5   8  103.37   30.94
   2   5   8  117.38   13.76
   2   5   9   17.81   11.65
   2   5   9   25.38   12.99
   2   5   9   23.68    7.93
   2   5   9   16.10    7.08
   2   5  10   48.91   19.96
   2   5  10   58.34   11.49
   2   5  10   66.86   17.65
   2   5  10   52.95   10.14
   2   5  11   91.92   13.05
   2   5  11  104.49   24.25
   2   5  11  137.46   27.07
   2   5  11  102.35   14.39
   2   6 -17    3.52   13.97
   2   6 -17   29.19   21.77
  -2  -6  17   35.12   20.36
  -2  -6  17   -0.96   22.71
   2   6 -16   89.62   24.85
   2   6 -16    4.65   17.31
  -2  -6  16   94.79   24.27
  -2  -6  16   -0.93   18.04
   2   6 -15   -1.43   23.60
   2   6 -15   62.51   29.86
  -2  -6  15   49.59   17.85
  -2  -6  15   -0.95   14.08
   2   6 -14  233.47   33.99
   2   6 -14  212.29   40.62
  -2  -6  14  223.75   31.54
  -2  -6  14  223.23   37.18
   2   6 -13  165.68   26.37
   2   6 -13  161.86   31.47
  -2  -6  13  172.17   30.07
  -2  -6  13  163.98   26.04
   2   6 -12   37.55   16.07
   2   6 -12   42.47   13.89
  -2  -6  12   39.86   16.10
  -2  -6  12   30.74   13.84
   2   6 -11  488.97   40.35
   2   6 -11  463.67   44.28
  -2  -6  11  431.35   39.97
  -2  -6  11  446.23   42.34
   2   6 -10  500.90   52.58
   2   6 -10  505.62   41.27
  -2  -6  10  443.75   39.22
  -2  -6  10  427.31   37.31
   2   6  -9  420.09   31.60
   2   6  -9  426.15   34.85
  -2  -6   9  375.29   46.99
  -2  -6   9  363.60   32.52
   2   6  -8  219.51   22.60
   2   6  -8  212.36   21.52
  -2  -6   8  229.72   23.43
  -2  -6   8  261.97   23.35
   2   6  -7   31.74    8.56
   2   6  -7   16.62    8.56
  -2  -6   7   30.89    8.95
  -2  -6   7   27.08    8.87
   2   6  -6 1168.91   61.94
   2   6  -6 1215.19   63.09
  -2  -6   6 1011.03   59.31
  -2  -6   6  971.59   57.22
   2   6  -5  122.01   14.11
   2   6  -5  127.33   13.45
  -2  -6   5  135.50   13.96
  -2  -6   5  131.73   15.07
   2   6  -4  273.96   19.34
   2   6  -4  289.67   20.57
  -2  -6   4  278.28   20.25
  -2  -6   4  294.45   21.44
   2   6  -3  367.52   23.18
   2   6  -3  334.50   23.58
  -2  -6   3  516.03   38.15
  -2  -6   3  490.17   26.85
   2   6  -2  245.24   16.84
   2   6  -2  260.74   16.16
  -2  -6   2  150.07   15.04
  -2  -6   2  161.99   16.49
   2   6  -1 1181.55   57.71
   2   6  -1 1147.34   58.41
  -2  -6   1 1111.93   59.71
  -2  -6   1 1129.51   58.20
   2   6   0  238.32   16.75
   2   6   0  231.71   15.90
  -2  -6   0  164.44   15.83
  -2  -6   0  166.45   16.23
   2   6   1  111.60   12.42
   2   6   1  115.72   12.71
  -2  -6  -1  132.32   13.96
  -2  -6  -1  160.50   14.16
   2   6   2  729.79   39.44
   2   6   2  756.87   51.63
  -2  -6  -2  639.51   39.28
  -2  -6  -2  668.51   40.44
   2   6   3  930.02   53.47
   2   6   3  943.95   67.05
   2   6   3  887.19   50.15
   2   6   3  902.62   59.53
   2   6   4  282.12   21.16
   2   6   4  260.78   24.17
   2   6   4  273.86   24.04
   2   6   4  256.38   19.95
   2   6   5  324.36   33.14
   2   6   5  324.49   28.51
   2   6   5  301.65   22.53
   2   6   5  355.33   28.21
   2   6   6   10.10    9.89
   2   6   6    0.53    6.76
   2   6   6    2.79    5.03
   2   6   6    6.78    4.81
   2   6   7   22.71   11.26
   2   6   7   30.04   11.52
   2   6   7   23.02    8.51
   2   6   7   23.15    8.02
   2   6   8   43.89   10.58
   2   6   8   33.81   14.72
   2   6   8   33.21   13.66
   2   6   8   43.93    9.67
   2   6   9   15.42   22.36
   2   6   9   31.30    9.67
   2   6   9   30.38    8.62
   2   6   9   17.97   21.02
   2   6  10   37.61    9.27
   2   6  10   35.59   10.52
   2   6  10   27.21   15.64
   2   6  10   32.25   16.80
   2   7 -17   25.52   17.64
   2   7 -17   -1.76   11.54
  -2  -7  17   -3.45   12.62
  -2  -7  17   26.77   17.70
   2   7 -16   -0.44    8.53
   2   7 -16   -2.74    6.49
  -2  -7  16   -3.64    6.57
  -2  -7  16   13.60    8.73
   2   7 -15  128.56   25.54
   2   7 -15   -3.38   31.13
  -2  -7  15  100.63   23.71
  -2  -7  15   80.38   29.86
   2   7 -14    0.16   20.11
   2   7 -14   29.21   16.93
  -2  -7  14   42.41   16.86
  -2  -7  14   56.39   19.08
   2   7 -13   34.10   17.32
   2   7 -13   37.62   15.67
  -2  -7  13   23.68   17.96
  -2  -7  13   26.54   15.33
   2   7 -12  268.67   40.47
   2   7 -12  292.78   36.55
  -2  -7  12  419.54   40.12
  -2  -7  12  427.03   43.35
   2   7 -11    6.34    5.57
   2   7 -11   -4.69    8.25
  -2  -7  11   -2.95    5.26
  -2  -7  11    1.13    5.77
   2   7 -10  713.20   53.11
   2   7 -10  780.30   77.03
  -2  -7  10  777.79   59.44
  -2  -7  10  779.24   58.24
   2   7  -9 1239.20   78.92
   2   7  -9 1238.32   75.80
  -2  -7   9 1095.87   74.98
  -2  -7   9 1127.96   75.68
   2   7  -8  442.37   33.39
   2   7  -8  411.54   33.18
  -2  -7   8  390.23   47.97
  -2  -7   8  357.27   33.02
   2   7  -7 1581.93   90.15
   2   7  -7 1557.66   91.23
  -2  -7   7 1506.52   90.46
  -2  -7   7 1628.81   95.58
   2   7  -6   90.23   14.10
   2   7  -6  104.65   13.51
  -2  -7   6   92.73   13.97
  -2  -7   6   74.87   14.93
   2   7  -5  800.28   47.60
   2   7  -5  856.03   58.36
  -2  -7   5  743.35   46.40
  -2  -7   5  771.42   48.19
   2   7  -4  577.98   38.32
   2   7  -4  621.75   36.99
  -2  -7   4  715.46   54.93
  -2  -7   4  735.32   52.50
   2   7  -3  457.54   27.91
   2   7  -3  458.88   30.26
  -2  -7   3  433.38   31.26
  -2  -7   3  436.97   29.33
   2   7  -2  243.67   21.03
   2   7  -2  246.37   18.58
  -2  -7   2  300.81   23.08
  -2  -7   2  268.47   20.45
   2   7  -1 1410.06   73.70
   2   7  -1 1354.84   75.42
  -2  -7   1 1496.22   82.82
  -2  -7   1 1536.58   81.25
   2   7   0   80.53   10.74
   2   7   0   71.58   12.20
  -2  -7   0   92.32   12.18
  -2  -7   0   97.14   19.78
   2   7   1  195.28   17.30
   2   7   1  187.74   16.25
  -2  -7  -1  141.69   16.65
  -2  -7  -1  150.23   18.05
   2   7   2  216.16   28.86
   2   7   2  231.67   20.66
  -2  -7  -2  247.40   21.88
  -2  -7  -2  276.17   21.82
   2   7   3  124.95   15.18
   2   7   3  115.37   15.37
   2   7   3   91.09   22.39
   2   7   3  131.20   15.35
   2   7   4  225.75   22.32
   2   7   4  210.43   19.82
   2   7   4  202.13   19.65
   2   7   4  190.20   20.98
   2   7   5  425.02   31.39
   2   7   5  428.73   32.62
   2   7   5  431.29   36.34
   2   7   5  470.06   48.71
   2   7   6  106.12   15.07
   2   7   6   82.01   26.48
   2   7   6   89.78   16.74
   2   7   6   90.45   14.18
   2   7   7   10.68    7.81
   2   7   7    1.49    6.60
   2   7   7   11.73    7.98
   2   7   7    1.68    9.50
   2   7   8    7.95    6.17
   2   7   8    2.81    8.30
   2   7   8    6.90    6.64
   2   7   8    6.15    8.81
   2   7   9   28.37   10.34
   2   7   9   24.18   14.28
   2   7   9   24.57    9.49
   2   7   9   34.39   13.25
   2   8 -16    0.63   16.96
   2   8 -16    1.45   21.59
  -2  -8  16   89.06   22.26
  -2  -8  16    3.99   17.15
   2   8 -15    1.99   23.00
   2   8 -15   75.42   18.51
  -2  -8  15   33.19   22.07
  -2  -8  15    0.13   18.06
   2   8 -14  250.10   41.03
   2   8 -14  234.81   37.42
  -2  -8  14  205.45   41.58
  -2  -8  14  207.99   36.41
   2   8 -13  248.21   63.07
   2   8 -13  286.65   39.29
  -2  -8  13  274.20   63.96
  -2  -8  13  291.12   37.86
   2   8 -12  103.16   26.12
   2   8 -12   87.94   38.34
  -2  -8  12  141.86   24.92
  -2  -8  12  135.31   27.42
   2   8 -11   10.83    9.99
   2   8 -11    4.00   10.38
  -2  -8  11    9.22   10.29
  -2  -8  11   11.88   10.68
   2   8 -10 1305.16   89.62
   2   8 -10 1203.85   84.90
  -2  -8  10 1332.13   92.63
  -2  -8  10 1376.86   94.58
   2   8  -9  255.44   39.27
   2   8  -9  261.10   27.75
  -2  -8   9  183.54   27.11
  -2  -8   9  199.25   28.32
   2   8  -8  426.83   34.41
   2   8  -8  442.94   36.19
  -2  -8   8  390.25   36.28
  -2  -8   8  354.40   36.61
   2   8  -7  232.61   37.38
   2   8  -7  234.39   23.68
  -2  -8   7  234.27   25.15
  -2  -8   7  229.30   26.13
   2   8  -6  154.28   21.55
   2   8  -6  160.60   18.83
  -2  -8   6  196.89   21.13
  -2  -8   6  210.13   23.33
   2   8  -5  990.52   60.10
   2   8  -5 1016.70   57.37
  -2  -8   5  873.97   55.59
  -2  -8   5  908.51   61.46
   2   8  -4  132.15   18.46
   2   8  -4  160.89   23.57
  -2  -8   4  143.23   20.28
  -2  -8   4  174.50   25.32
   2   8  -3  310.88   27.77
   2   8  -3  334.81   24.56
  -2  -8   3  371.61   27.26
  -2  -8   3  359.79   29.90
   2   8  -2  600.37   49.34
   2   8  -2  600.94   33.48
  -2  -8   2  394.04   35.10
  -2  -8   2  404.42   31.59
   2   8  -1  215.40   17.95
   2   8  -1  230.55   21.89
  -2  -8   1  191.02   22.26
  -2  -8   1  184.67   19.61
   2   8   0  973.75   60.93
   2   8   0  994.47   56.05
  -2  -8   0 1014.63   65.91
  -2  -8   0 1059.43   61.62
   2   8   1   27.67    9.17
   2   8   1   36.68   16.24
  -2  -8  -1   40.39    9.59
  -2  -8  -1   40.02   11.02
   2   8   2  255.31   21.52
   2   8   2  251.30   24.31
   2   8   2  254.01   24.80
   2   8   2  271.67   23.98
   2   8   3  508.24   37.59
   2   8   3  513.69   36.18
   2   8   3  523.53   37.66
   2   8   3  500.21   38.25
   2   8   4    5.08    9.30
   2   8   4   13.88    5.98
   2   8   4    2.14    5.91
   2   8   4   -3.67    5.85
   2   8   5   21.52   10.44
   2   8   5   27.73   10.17
   2   8   5   27.24    9.74
   2   8   5   27.06   10.68
   2   8   6   22.16   11.01
   2   8   6   36.44   11.61
   2   8   6   42.13   12.25
   2   8   6   25.27   11.03
   2   8   7   78.50   18.51
   2   8   7   88.54   18.63
   2   8   7   74.33   23.55
   2   8   7   89.68   15.12
   2   8   8    4.85    8.02
   2   8   8    4.16    6.81
   2   8   8    0.47    8.24
   2   8   8   -0.95    6.27
   2   9 -16  235.98   39.77
   2   9 -16  239.58   51.05
  -2  -9  16  178.19   41.98
  -2  -9  16  187.64   50.82
   2   9 -15    2.13   10.96
   2   9 -15    0.37   18.71
  -2  -9  15    7.78   13.01
  -2  -9  15    1.79   10.84
   2   9 -14  547.73   87.25
   2   9 -14  532.64   63.59
  -2  -9  14  510.74   66.66
  -2  -9  14  489.71   59.52
   2   9 -13    1.17   19.15
   2   9 -13   52.07   17.74
  -2  -9  13   33.57   19.89
  -2  -9  13   33.25   18.03
   2   9 -12   37.89   15.79
   2   9 -12   15.13   25.43
  -2  -9  12   14.59   16.27
  -2  -9  12   36.32   26.52
   2   9 -11   90.39   20.77
   2   9 -11   63.87   20.60
  -2  -9  11   65.47   21.85
  -2  -9  11   73.01   21.78
   2   9 -10  264.97   33.46
   2   9 -10  275.99   33.11
  -2  -9  10  229.62   48.78
  -2  -9  10  247.42   34.26
   2   9  -9  410.74   43.20
   2   9  -9  411.72   40.31
  -2  -9   9  566.46   47.41
  -2  -9   9  560.35   48.16
   2   9  -8  668.90   64.82
   2   9  -8  651.32   54.02
  -2  -9   8  656.51   52.28
  -2  -9   8  648.49   54.83
   2   9  -7   82.16   17.47
   2   9  -7   78.52   15.45
  -2  -9   7   82.91   18.46
  -2  -9   7   75.98   16.45
   2   9  -6 1785.42  110.16
   2   9  -6 1821.59  106.74
  -2  -9   6 1683.50  106.46
  -2  -9   6 1771.51  117.59
   2   9  -5  389.84   35.43
   2   9  -5  418.21   31.63
  -2  -9   5  400.07   37.59
  -2  -9   5  389.87   32.63
   2   9  -4  153.04   21.89
   2   9  -4  172.96   17.90
  -2  -9   4  139.88   34.33
  -2  -9   4  159.92   28.49
   2   9  -3   53.78   10.68
   2   9  -3   48.11   13.69
  -2  -9   3   45.87   14.57
  -2  -9   3   58.91   12.01
   2   9  -2  599.92   37.26
   2   9  -2  585.37   42.92
  -2  -9   2  531.12   38.07
  -2  -9   2  513.93   42.89
   2   9  -1  102.49   18.79
   2   9  -1  105.97   21.75
  -2  -9   1  149.64   31.02
  -2  -9   1  153.36   17.39
   2   9   0  107.80   18.64
   2   9   0  100.05   22.25
  -2  -9   0  125.41   20.32
  -2  -9   0  141.79   16.77
   2   9   1  174.45   24.16
   2   9   1  152.14   20.46
  -2  -9  -1  119.44   20.51
  -2  -9  -1  124.39   17.44
   2   9   2  152.43   18.75
   2   9   2  149.46   17.91
   2   9   2  135.18   30.98
   2   9   2  138.42   21.40
   2   9   3   25.60   11.82
   2   9   3   30.08   11.34
   2   9   3   31.19    9.88
   2   9   3   30.10   10.26
   2   9   4   97.53   16.92
   2   9   4   95.46   16.47
   2   9   4   94.21   17.36
   2   9   4  104.93   27.05
   2   9   5   92.57   15.85
   2   9   5   52.53   24.37
   2   9   5   63.74   22.96
   2   9   5   53.13   15.20
   2   9   6   88.18   18.07
   2   9   6   92.73   18.01
   2   9   6  112.60   18.45
   2   9   6   92.50   18.13
   2   9   7    2.63    5.93
   2   9   7    8.59   10.10
   2   9   7   -2.59    9.76
   2   9   7    1.10    5.64
   2  10 -15    0.70   37.92
   2  10 -15  130.51   34.12
  -2 -10  15  220.70   36.04
  -2 -10  15  155.93   62.42
   2  10 -14  138.27   33.89
   2  10 -14  152.91   33.44
  -2 -10  14   21.84   51.09
  -2 -10  14  122.37   35.46
   2  10 -13  167.67   36.38
   2  10 -13  152.67   35.75
  -2 -10  13  194.64   37.61
  -2 -10  13  215.90   36.89
   2  10 -12  467.29   75.40
   2  10 -12  463.47   74.05
  -2 -10  12  424.13   54.03
  -2 -10  12  440.22   54.79
   2  10 -11  250.49   36.23
   2  10 -11  237.35   37.46
  -2 -10  11  279.63   39.06
  -2 -10  11  268.67   39.93
   2  10 -10  223.63   32.10
   2  10 -10  212.62   29.38
  -2 -10  10  154.08   29.81
  -2 -10  10  152.88   32.18
   2  10  -9    9.69    8.15
   2  10  -9    5.11    9.39
  -2 -10   9    3.25    8.64
  -2 -10   9   -0.05    9.72
   2  10  -8  294.16   41.02
   2  10  -8  303.08   49.18
  -2 -10   8  193.93   29.28
  -2 -10   8  184.72   51.62
   2  10  -7  392.04   40.88
   2  10  -7  404.72   35.54
  -2 -10   7  385.96   43.75
  -2 -10   7  363.87   36.51
   2  10  -6   36.25   15.13
   2  10  -6   43.14   11.77
  -2 -10   6   31.41   16.00
  -2 -10   6   39.28   12.78
   2  10  -5  100.50   15.72
   2  10  -5   74.37   30.57
  -2 -10   5   71.50   31.79
  -2 -10   5   97.99   17.31
   2  10  -4  596.30   50.05
   2  10  -4  639.13   42.74
  -2 -10   4  586.84   57.74
  -2 -10   4  563.80   51.39
   2  10  -3   86.90   19.02
   2  10  -3   70.54   14.22
  -2 -10   3   99.26   15.68
  -2 -10   3  113.79   20.72
   2  10  -2  158.23   17.20
   2  10  -2  142.00   22.56
  -2 -10   2  113.96   27.63
  -2 -10   2  120.10   23.45
   2  10  -1   54.13   17.63
   2  10  -1   68.03   12.86
  -2 -10   1   81.72   18.72
  -2 -10   1   98.21   14.78
   2  10   0  150.19   16.05
   2  10   0  121.23   20.82
  -2 -10   0   96.46   17.38
  -2 -10   0   91.26   21.75
   2  10   1   74.62   18.83
   2  10   1   69.83   21.86
  -2 -10  -1  107.56   15.89
  -2 -10  -1  112.94   20.08
   2  10   2    9.30    6.96
   2  10   2    6.99    9.23
   2  10   2   11.08    7.09
   2  10   2    7.30    9.26
   2  10   3  120.53   17.61
   2  10   3   99.91   17.24
   2  10   3   89.11   30.59
   2  10   3  124.68   20.81
   2  10   4  279.31   27.38
   2  10   4  266.55   40.17
   2  10   4  275.85   31.83
   2  10   4  270.17   32.53
   2  10   5   37.49   12.71
   2  10   5   26.31   11.13
   2  10   5   21.95   10.68
   2  10   5   25.48   12.44
   2  10   6   32.54   11.93
   2  10   6   20.28   10.93
   2  10   6   22.42   12.19
   2  10   6   18.63   11.22
   2  11 -15   78.08   27.40
   2  11 -15    0.10   28.24
  -2 -11  15   60.16   26.56
  -2 -11  15   65.88   29.31
   2  11 -14  -15.20   16.76
   2  11 -14    2.46   10.76
  -2 -11  14   -7.96   11.00
  -2 -11  14    5.55   10.88
   2  11 -13  473.26   59.44
   2  11 -13  544.54   61.10
  -2 -11  13  379.50   59.42
  -2 -11  13  374.26   86.22
   2  11 -12   22.61   16.35
   2  11 -12   23.77   14.80
  -2 -11  12    4.76   15.96
  -2 -11  12   16.63   17.31
   2  11 -11   68.69   20.92
   2  11 -11   70.92   23.00
  -2 -11  11   -0.37   22.06
  -2 -11  11   89.17   23.99
   2  11 -10   65.29   20.76
   2  11 -10   59.90   18.04
  -2 -11  10   -0.06   19.19
  -2 -11  10   67.07   21.83
   2  11  -9  110.84   26.65
   2  11  -9   90.21   21.74
  -2 -11   9  111.92   23.42
  -2 -11   9  101.35   28.36
   2  11  -8  166.39   25.94
   2  11  -8  156.29   32.41
  -2 -11   8  244.22   28.99
  -2 -11   8  269.15   36.34
   2  11  -7   50.33   18.90
   2  11  -7   50.74   14.68
  -2 -11   7   59.33   20.70
  -2 -11   7   54.63   15.90
   2  11  -6  176.27   28.52
   2  11  -6  187.05   22.48
  -2 -11   6  130.49   22.78
  -2 -11   6  130.37   29.40
   2  11  -5  417.81   66.86
   2  11  -5  476.01   38.06
  -2 -11   5  501.30   51.27
  -2 -11   5  480.23   42.53
   2  11  -4  190.03   29.81
   2  11  -4  210.38   32.15
  -2 -11   4  190.30   24.36
  -2 -11   4  184.37   30.76
   2  11  -3  120.48   16.69
   2  11  -3  126.11   24.06
  -2 -11   3  127.36   18.99
  -2 -11   3  108.79   25.96
   2  11  -2   48.48   11.93
   2  11  -2   55.03   17.46
  -2 -11   2   49.82   13.77
  -2 -11   2   48.25   18.86
   2  11  -1  499.31   37.19
   2  11  -1  510.64   48.36
  -2 -11   1  470.46   51.05
  -2 -11   1  523.87   41.60
   2  11   0   34.18   12.46
   2  11   0   18.20    8.60
  -2 -11   0   11.60    9.58
  -2 -11   0   16.97   12.83
   2  11   1   27.51    9.60
   2  11   1   23.66   13.91
   2  11   1   22.95   14.52
   2  11   1   32.69   10.52
   2  11   2   35.18   10.65
   2  11   2   33.24   15.52
   2  11   2   33.47   11.43
   2  11   2   36.78   15.89
   2  11   3   33.39   12.07
   2  11   3   41.58   11.50
   2  11   3   54.13   16.35
   2  11   3   34.70   15.85
   2  11   4   11.38    8.55
   2  11   4   28.12   12.41
   2  11   4    7.74   10.86
   2  11   4   -1.43   11.17
   2  12 -14  190.35   43.61
   2  12 -14   -1.56   60.76
  -2 -12  14  190.06   41.70
  -2 -12  14  188.17   43.96
   2  12 -13    2.65   12.41
   2  12 -13    0.01   10.89
  -2 -12  13    7.41   12.21
  -2 -12  13    0.37   17.59
   2  12 -12   -3.14   19.29
   2  12 -12  110.36   22.45
  -2 -12  12    0.34   20.40
  -2 -12  12   47.79   37.37
   2  12 -11   -1.68   18.56
   2  12 -11   56.70   22.69
  -2 -12  11   -0.60   30.88
  -2 -12  11  102.62   24.16
   2  12 -10  130.49   27.23
   2  12 -10  131.63   52.86
  -2 -12  10  147.01   29.64
  -2 -12  10  152.96   35.91
   2  12  -9   30.28   23.20
   2  12  -9   67.67   19.12
  -2 -12   9   -0.14   15.40
  -2 -12   9   28.94   20.07
   2  12  -8   14.55   11.73
   2  12  -8   19.33   16.07
  -2 -12   8   25.46   16.77
  -2 -12   8   18.95   13.14
   2  12  -7   67.67   23.85
   2  12  -7   79.72   17.41
  -2 -12   7   99.39   19.19
  -2 -12   7   -0.54   25.27
   2  12  -6   32.38   19.82
   2  12  -6   32.72   21.48
  -2 -12   6   79.48   15.23
  -2 -12   6    2.84   21.41
   2  12  -5   -3.97   25.05
   2  12  -5   42.37   11.30
  -2 -12   5    0.82   16.81
  -2 -12   5   23.90   12.24
   2  12  -4   48.87   19.01
   2  12  -4   45.18   13.40
  -2 -12   4   71.25   14.43
  -2 -12   4   -0.35   20.65
   2  12  -3   74.79   42.64
   2  12  -3  141.87   19.47
  -2 -12   3  145.09   30.71
  -2 -12   3  156.24   22.01
   2  12  -2   14.12   16.36
   2  12  -2   16.67   16.15
  -2 -12   2    1.95   27.51
  -2 -12   2   50.21   11.97
   2  12  -1   70.01   12.72
   2  12  -1   81.99   19.64
  -2 -12   1    0.27   20.42
  -2 -12   1   41.64   14.15
   2  12   0  131.30   27.07
   2  12   0  125.44   17.98
  -2 -12   0  117.17   19.28
  -2 -12   0  131.43   27.66
   2  12   1   39.88   10.64
   2  12   1   34.17   16.94
   2  12   1   53.22   17.23
   2  12   1   -0.95   17.09
   2  12   2    1.27    5.25
   2  12   2    0.89    4.92
   2  12   2    2.97    8.20
   2  12   2    5.19    7.81
   2  13 -12    3.33   28.45
   2  13 -12   66.57   35.78
  -2 -13  12   58.36   23.77
  -2 -13  12    0.39   18.81
   2  13 -11    2.94    7.00
   2  13 -11    2.18    9.25
  -2 -13  11   -4.27    9.40
  -2 -13  11   -0.18    7.12
   2  13 -10  201.41   41.65
   2  13 -10  208.74   31.96
  -2 -13  10  137.90   31.76
  -2 -13  10  165.73   44.45
   2  13  -9   55.08   16.12
   2  13  -9   51.06   22.21
  -2 -13   9   39.38   36.54
  -2 -13   9    0.27   16.80
   2  13  -8  191.59   29.23
   2  13  -8  229.25   40.39
  -2 -13   8  220.81   43.15
  -2 -13   8  170.39   29.78
   2  13  -7   21.90   13.29
   2  13  -7    6.28   13.85
  -2 -13   7    0.69    9.70
  -2 -13   7   -3.83   21.23
   2  13  -6  224.98   27.26
   2  13  -6  244.98   39.12
  -2 -13   6  174.13   40.17
  -2 -13   6  190.70   29.82
   2  13  -5   94.54   25.58
   2  13  -5   97.39   16.61
  -2 -13   5   -1.27   26.86
  -2 -13   5   60.90   18.13
   2  13  -4   92.84   26.30
   2  13  -4   66.88   25.36
  -2 -13   4  108.11   19.26
  -2 -13   4    1.15   42.67
   2  13  -3  104.33   16.81
   2  13  -3   83.07   26.24
  -2 -13   3   -5.50   28.25
  -2 -13   3   98.29   18.51
   2  13  -2  104.81   25.45
   2  13  -2   73.54   14.98
  -2 -13   2   -0.42   27.26
  -2 -13   2   92.18   16.73
   2  13  -1   41.80   17.80
   2  13  -1   28.19   15.51
  -2 -13   1    1.18   18.43
  -2 -13   1   36.50   17.43
   2  13   0   75.55   22.32
   2  13   0   76.36   12.77
   2  13   0   -3.08   23.40
   2  13   0   44.15   13.99
   2  14 -10    1.98   22.12
   2  14 -10   71.94   21.25
  -2 -14  10    0.09   21.78
  -2 -14  10   -0.14   14.98
   2  14  -9   20.67   12.15
   2  14  -9   -0.85    8.06
  -2 -14   9   -3.19    8.28
  -2 -14   9    0.95   12.49
   2  14  -8   60.80   27.78
   2  14  -8   51.01   27.97
  -2 -14   8   69.90   18.63
  -2 -14   8    1.18   27.96
   2  14  -7   63.21   26.45
   2  14  -7   50.54   16.25
  -2 -14   7   57.74   17.94
  -2 -14   7    0.65   27.19
   2  14  -6  101.08   29.01
   2  14  -6   93.58   18.64
  -2 -14   6   71.78   19.98
  -2 -14   6    0.50   31.40
   2  14  -5    1.43   17.34
   2  14  -5    8.53   10.11
  -2 -14   5   27.13   10.98
  -2 -14   5    4.04   27.88
   2  14  -4  199.90   38.04
   2  14  -4  198.87   23.32
  -2 -14   4  145.18   24.98
  -2 -14   4   -3.03   39.77
   2  14  -3   14.29   12.80
   2  14  -3    1.01   10.70
  -2 -14   3    5.29    7.84
  -2 -14   3   -0.03   13.61
  -3  16  -2   -0.35    9.13
  -3  16  -2   -0.65    9.24
  -3  16  -3    0.50    8.73
  -3  16  -3    0.34    8.60
   3 -16   4  177.94   47.04
  -3  16  -4  227.73   44.53
   3 -16   5   -1.85   31.14
  -3  16  -5  113.07   29.71
   3 -16   6   71.39   31.75
  -3  16  -6   59.74   29.36
   3 -16   7   34.60   44.20
  -3  16  -7   49.60   25.84
   3 -16   8   35.29   10.96
   3 -16   8   66.90   27.57
  -3  16  -8   53.74   25.27
  -3  16  -8   40.68   11.74
   3 -16   9  235.97   28.68
   3 -16   9  309.04   54.00
  -3  16  -9  250.63   29.41
  -3  16  -9  269.41   50.75
  -3  15   1  139.85   30.31
  -3  15   1    2.89   28.39
  -3  15   0   -0.23   15.94
  -3  15   0    2.47   11.06
  -3  15  -1   -0.41   11.04
  -3  15  -1   -4.72   11.70
  -3  15  -2    0.79    7.68
  -3  15  -2   -1.74    8.19
   3 -15   3  190.82   42.65
  -3  15  -3  176.05   40.41
   3 -15   4    0.18    6.93
  -3  15  -4   -0.02    6.18
   3 -15   5  167.67   38.08
  -3  15  -5  120.88   34.31
   3 -15   6   35.33   27.43
   3 -15   6   14.28    6.21
  -3  15  -6    8.77    6.07
  -3  15  -6   15.38   15.79
   3 -15   7  118.69   24.49
   3 -15   7  152.05   37.82
  -3  15  -7  152.51   34.71
  -3  15  -7  148.70   17.89
   3 -15   8   52.92   13.20
   3 -15   8   82.86   26.72
  -3  15  -8   44.64   23.52
  -3  15  -8   35.88   12.54
   3 -15   9    9.89   18.69
   3 -15   9   14.58   10.30
  -3  15  -9   27.32   17.46
  -3  15  -9   19.15   10.72
   3 -15  10   -2.52   17.58
  -3  15 -10    3.92   16.43
  -3  15 -10   22.65   10.71
   3 -15  11  199.96   64.85
   3 -15  11  194.72   30.62
  -3  15 -11  191.96   32.03
  -3  15 -11  215.88   43.24
   3 -15  12   16.62   18.48
   3 -15  12    9.98   14.16
  -3  15 -12    1.05   22.05
  -3  15 -12   36.63   18.55
  -3  14   3    2.79    9.75
  -3  14   3   -0.79    9.47
  -3  14   2    0.49    6.52
  -3  14   2   -1.49   10.32
  -3  14   1    0.41    6.08
  -3  14   1   -0.40    5.69
  -3  14   0   -4.68   11.18
  -3  14   0   -0.56   10.42
  -3  14  -1   -0.85    7.81
  -3  14  -1    2.19    8.00
  -3  14  -2  200.10   35.72
  -3  14  -2  180.57   37.24
   3 -14   3    1.31    7.56
  -3  14  -3   -0.49    7.18
   3 -14   4  106.85   10.19
   3 -14   4  123.21   30.98
  -3  14  -4   99.79   14.08
  -3  14  -4  134.03   29.63
   3 -14   5  546.01   61.87
   3 -14   5  502.47   30.31
  -3  14  -5  455.64   28.52
  -3  14  -5  553.34   79.87
   3 -14   6  125.24   32.45
   3 -14   6   81.12   20.38
  -3  14  -6  130.79   14.07
  -3  14  -6  139.74   29.93
   3 -14   7  138.97   45.95
   3 -14   7  105.38   14.63
  -3  14  -7   90.74   26.34
  -3  14  -7   71.52   13.58
   3 -14   8   73.53   27.32
   3 -14   8   85.36   15.22
  -3  14  -8   72.22   25.15
  -3  14  -8   69.85   23.70
   3 -14   9   36.10   22.14
   3 -14   9   38.51   13.60
  -3  14  -9   62.99   21.03
  -3  14  -9   40.54   14.14
   3 -14  10  245.90   44.03
   3 -14  10  232.38   31.99
  -3  14 -10  282.84   44.06
  -3  14 -10  306.89   33.71
   3 -14  11    4.90    8.18
   3 -14  11    7.78   10.83
  -3  14 -11   12.11   10.74
  -3  14 -11   -7.53    8.50
   3 -14  12   29.83   18.17
   3 -14  12   25.43   15.78
  -3  14 -12   31.08   19.16
  -3  14 -12   -0.00   25.46
   3 -14  13  135.80   35.97
   3 -14  13  155.99   33.75
  -3  14 -13  165.33   33.78
  -3  14 -13  179.09   35.51
  -3  13   5    4.03   14.45
  -3  13   5   14.12   14.28
  -3  13   4  112.30   30.47
  -3  13   4  114.53   30.90
  -3  13   3   -0.35    6.86
  -3  13   3   -0.30    7.24
  -3  13   2    0.10    8.40
  -3  13   2    1.96    8.75
  -3  13   1   -3.17   12.70
  -3  13   1    0.03    7.78
  -3  13   0  218.68   35.89
  -3  13   0  222.14   36.53
  -3  13  -1   -0.52   15.73
  -3  13  -1   47.79   16.30
   3 -13   2   28.28   17.56
   3 -13   2   28.67    2.77
  -3  13  -2    0.06   15.55
  -3  13  -2   22.58    3.86
   3 -13   3    7.96    3.29
   3 -13   3   17.77   20.73
  -3  13  -3   14.65    4.82
  -3  13  -3   23.93   11.84
   3 -13   4  231.04   36.98
   3 -13   4  207.71   15.09
  -3  13  -4  267.86   35.51
  -3  13  -4  252.41   15.29
   3 -13   5   26.81   10.23
   3 -13   5   50.48   16.66
  -3  13  -5   26.24   15.28
  -3  13  -5   17.26    6.17
   3 -13   6  328.48   43.10
   3 -13   6  312.28   24.05
  -3  13  -6  286.19   22.78
  -3  13  -6  304.92   39.81
   3 -13   7  337.17   27.28
   3 -13   7  381.14   45.20
  -3  13  -7  330.78   27.28
  -3  13  -7  365.95   41.74
   3 -13   8  184.10   52.86
   3 -13   8  195.26   22.82
  -3  13  -8  238.19   33.26
  -3  13  -8  213.52   33.59
   3 -13   9   47.27   19.96
   3 -13   9   40.72   14.44
  -3  13  -9   64.42   30.36
  -3  13  -9   52.23   14.39
   3 -13  10   65.28   24.37
   3 -13  10   91.72   19.38
  -3  13 -10   77.23   24.20
  -3  13 -10   84.51   19.77
   3 -13  11   11.18    9.77
   3 -13  11    5.89   11.13
  -3  13 -11    2.33   11.40
  -3  13 -11    5.59   10.01
   3 -13  12   59.87   25.20
   3 -13  12   98.03   24.50
  -3  13 -12  113.00   26.27
   3 -13  13   25.44   15.27
   3 -13  13   27.64   16.82
  -3  13 -13   -1.45   16.51
  -3  13 -13   20.92   15.56
   3 -13  14  138.29   39.24
   3 -13  14  164.19   33.91
  -3  13 -14  195.91   38.24
  -3  13 -14  200.59   34.45
  -3  12   7   77.86   27.68
  -3  12   7   80.22   26.78
  -3  12   6   21.26   16.32
  -3  12   6   14.14   16.49
  -3  12   5   17.71   12.78
  -3  12   5   -2.70   12.80
  -3  12   4    2.74   10.18
  -3  12   4    6.02   15.88
  -3  12   3    1.49    6.39
  -3  12   3   -2.23    6.60
  -3  12   2  191.14   33.03
  -3  12   2  169.21   31.74
  -3  12   1   -0.59   10.34
  -3  12   1   13.19   10.59
  -3  12   0  108.08   25.98
  -3  12   0  154.96   26.65
  -3  12  -1   58.32   19.18
  -3  12  -1   65.41   20.01
   3 -12   2   35.14    5.50
   3 -12   2   34.54   17.61
  -3  12  -2   46.52   15.96
  -3  12  -2   47.33    5.56
   3 -12   3  154.28   28.86
   3 -12   3  163.47   13.59
  -3  12  -3  156.41   24.86
  -3  12  -3  133.28    9.33
   3 -12   4   76.97   12.23
   3 -12   4   73.76   21.31
  -3  12  -4   71.22    7.83
  -3  12  -4   56.26   18.41
   3 -12   5   45.74   18.71
   3 -12   5   41.88   12.67
  -3  12  -5   59.17    8.29
  -3  12  -5   52.46   17.39
   3 -12   6  354.84   39.59
   3 -12   6  336.10   23.57
  -3  12  -6  293.33   22.67
  -3  12  -6  288.93   35.90
   3 -12   7   27.78    9.50
   3 -12   7   38.80   24.46
  -3  12  -7   36.12    9.29
  -3  12  -7   32.27   14.63
   3 -12   8  803.93   67.33
   3 -12   8  838.25   56.22
  -3  12  -8  791.04   68.74
  -3  12  -8  862.33   66.75
   3 -12   9   27.30   20.10
   3 -12   9   30.49   10.03
  -3  12  -9    7.37   10.49
  -3  12  -9    8.53   12.44
   3 -12  10   48.81   18.80
   3 -12  10   54.34   17.06
  -3  12 -10   71.79   17.06
  -3  12 -10   61.11   19.18
   3 -12  11  108.96   25.03
   3 -12  11  141.90   39.07
  -3  12 -11  155.79   40.35
  -3  12 -11  134.65   26.39
   3 -12  12  208.93   33.88
   3 -12  12  178.04   44.71
  -3  12 -12  166.68   44.88
  -3  12 -12  142.00   31.16
   3 -12  13    0.31    7.92
   3 -12  13   14.77    9.49
  -3  12 -13   -4.77    9.12
  -3  12 -13   -4.09   12.56
   3 -12  14    0.86   19.97
   3 -12  14  134.99   25.69
  -3  12 -14  122.04   30.61
  -3  12 -14   -5.19   24.60
   3 -12  15    0.11    8.36
   3 -12  15    6.99   11.95
  -3  12 -15   -0.33   11.59
  -3  12 -15    3.17   12.93
  -3  11   8   46.50   21.25
  -3  11   8   40.16   20.71
  -3  11   7   43.24   23.69
  -3  11   7   86.06   23.12
  -3  11   6   59.38   17.95
  -3  11   6    0.75   17.92
  -3  11   5  170.54   48.54
  -3  11   5  192.71   49.01
  -3  11   4   34.80   16.69
  -3  11   4   36.85   17.04
  -3  11   3  149.67   29.58
  -3  11   3  181.75   29.05
  -3  11   2   -4.73    9.32
  -3  11   2   -6.93    9.46
  -3  11   1  334.21   38.10
  -3  11   1  375.51   39.78
  -3  11   0   61.64   18.78
  -3  11   0   83.21   19.48
   3 -11   1  497.29   15.77
   3 -11   1  511.82   47.19
  -3  11  -1  563.89   45.70
  -3  11  -1  528.16   17.30
   3 -11   2  252.68   42.95
   3 -11   2  240.71   10.29
  -3  11  -2  163.79    8.30
  -3  11  -2  162.68   24.88
   3 -11   3  218.20   12.48
   3 -11   3  249.54   30.72
  -3  11  -3  263.24   27.67
  -3  11  -3  234.43   12.62
   3 -11   4    4.18    5.96
   3 -11   4   -2.56    9.69
  -3  11  -4   11.27    3.78
  -3  11  -4   12.88    8.52
   3 -11   5 1017.38   74.73
   3 -11   5  985.84   51.73
  -3  11  -5 1066.48   54.27
  -3  11  -5 1125.15   73.40
   3 -11   6   16.20    7.42
   3 -11   6    6.53   13.23
  -3  11  -6   44.96   12.28
  -3  11  -6   41.30    7.76
   3 -11   7  775.34   60.07
   3 -11   7  810.99   49.99
  -3  11  -7  835.16   60.47
  -3  11  -7  784.83   49.16
   3 -11   8  208.87   27.19
   3 -11   8  203.64   22.80
  -3  11  -8  212.99   33.84
  -3  11  -8  197.82   26.79
   3 -11   9  139.30   22.68
   3 -11   9  139.57   23.54
  -3  11  -9  166.68   23.82
  -3  11  -9  172.21   22.30
   3 -11  10  252.79   43.28
   3 -11  10  264.92   30.60
  -3  11 -10  179.36   27.79
  -3  11 -10  196.44   28.40
   3 -11  11   34.26   14.87
   3 -11  11   34.83   26.23
  -3  11 -11   30.64   24.97
  -3  11 -11   45.40   15.04
   3 -11  12   13.00    8.48
   3 -11  12   -2.25   10.21
  -3  11 -12   -0.98    8.56
  -3  11 -12    6.79   10.12
   3 -11  13   47.92   18.88
   3 -11  13   60.56   23.28
  -3  11 -13  114.76   19.17
  -3  11 -13   -0.19   23.73
   3 -11  14   43.90   23.53
   3 -11  14   38.60   20.82
  -3  11 -14   -0.20   31.03
  -3  11 -14   26.42   14.46
   3 -11  15    0.57   24.66
   3 -11  15   40.48   23.70
  -3  11 -15   50.86   15.27
  -3  11 -15   -1.86   24.03
  -3  10   9   54.24   21.73
  -3  10   9   66.35   23.72
  -3  10   8    3.86    8.83
  -3  10   8    0.61    9.26
  -3  10   7   31.01   17.71
  -3  10   7   54.36   19.28
  -3  10   6   19.74   10.61
  -3  10   6    5.55    2.19
  -3  10   6    6.97    1.45
  -3  10   6    7.91   16.49
  -3  10   5  167.72   42.43
  -3  10   5  167.93   28.03
  -3  10   4  136.15   25.99
  -3  10   4  180.10   26.39
  -3  10   3  105.74   23.77
  -3  10   3  142.29   22.86
  -3  10   2  226.98   29.57
  -3  10   2  251.16   28.92
  -3  10   1  125.33   21.17
  -3  10   1  115.38   20.36
  -3  10   0   51.53   15.34
  -3  10   0   57.83   14.73
   3 -10   1 1668.18  106.38
   3 -10   1 1711.83   60.44
  -3  10  -1 1486.68   55.36
  -3  10  -1 1470.54   94.10
   3 -10   2  179.44   23.14
   3 -10   2  169.12    8.11
  -3  10  -2  142.14   21.09
  -3  10  -2  142.26    7.53
   3 -10   3  112.94   18.49
   3 -10   3  103.86    7.57
  -3  10  -3   77.77   15.66
  -3  10  -3   85.25    6.97
   3 -10   4   32.32   17.04
   3 -10   4   27.32    5.08
  -3  10  -4   21.47    9.46
  -3  10  -4   16.77    4.91
   3 -10   5  456.91   25.22
   3 -10   5  468.32   36.36
  -3  10  -5  355.64   23.18
  -3  10  -5  366.54   32.51
   3 -10   6  103.26   17.58
   3 -10   6   98.98   12.69
  -3  10  -6  112.82   12.39
  -3  10  -6   97.61   16.93
   3 -10   7    1.45    5.53
   3 -10   7    8.12    6.62
  -3  10  -7    6.54    6.47
  -3  10  -7    3.80    8.13
   3 -10   8   30.96   12.63
   3 -10   8   50.38   11.87
  -3  10  -8   38.52   12.84
  -3  10  -8   57.21   12.08
   3 -10   9  856.57   60.04
   3 -10   9  923.37   64.18
  -3  10  -9  876.13   63.09
  -3  10  -9  946.48   62.65
   3 -10  10  332.61   32.93
   3 -10  10  347.30   36.27
  -3  10 -10  348.74   46.68
  -3  10 -10  330.80   36.57
   3 -10  11  117.07   30.16
   3 -10  11  117.08   23.97
  -3  10 -11  112.62   19.54
  -3  10 -11  101.63   23.09
   3 -10  12  331.90   34.79
   3 -10  12  382.06   63.00
  -3  10 -12  319.33   33.34
  -3  10 -12  292.04   41.33
   3 -10  13  271.75   31.65
   3 -10  13  275.66   61.94
  -3  10 -13  227.19   40.00
  -3  10 -13  256.26   30.58
   3 -10  14   -2.59    5.29
   3 -10  14    2.03    7.84
  -3  10 -14    0.24    7.93
  -3  10 -14    0.16    5.24
   3 -10  15   20.51   12.90
   3 -10  15   40.42   21.29
  -3  10 -15   23.27   12.03
  -3  10 -15    2.35   21.46
  -3   9  10    4.20   11.20
  -3   9  10    5.16   10.22
  -3   9   9   12.32   13.45
  -3   9   9   19.13   14.55
  -3   9   8  304.33   24.76
  -3   9   8  353.39   43.46
  -3   9   8  338.09   40.11
  -3   9   8  305.61   18.47
  -3   9   7   19.01    6.78
  -3   9   7   30.71   14.81
  -3   9   7   25.11    4.24
  -3   9   7    8.16   21.34
  -3   9   6   19.48    2.99
  -3   9   6   10.15   19.51
  -3   9   6   12.94    2.86
  -3   9   6    7.92   11.25
  -3   9   5   83.23   18.87
  -3   9   5   69.19    3.61
  -3   9   5   80.95   18.18
  -3   9   5   70.64    5.20
  -3   9   4   37.29   15.31
  -3   9   4   56.99   14.82
  -3   9   3   14.68   11.45
  -3   9   3   29.68   11.48
  -3   9   2   41.50   13.35
  -3   9   2   51.04   13.49
  -3   9   1  230.97   25.71
  -3   9   1  230.44   36.47
  -3   9   0  734.70   50.68
  -3   9   0  761.54   50.22
   3  -9   1  247.74    8.42
   3  -9   1  275.38   25.76
  -3   9  -1  274.98   24.77
  -3   9  -1  280.55   10.12
   3  -9   2   49.75   12.59
   3  -9   2   52.84    3.97
  -3   9  -2   35.12   11.34
  -3   9  -2   38.04    5.85
   3  -9   3 1607.04   68.67
   3  -9   3 1639.18   95.44
  -3   9  -3 1478.78   64.42
  -3   9  -3 1511.90   85.99
   3  -9   4 1648.01   76.70
   3  -9   4 1643.77   96.86
  -3   9  -4 1676.39   78.21
  -3   9  -4 1708.55   94.23
   3  -9   5  104.26   14.92
   3  -9   5  120.56   10.69
  -3   9  -5   80.60    9.83
  -3   9  -5   88.44   14.01
   3  -9   6  136.41   26.84
   3  -9   6  157.63   15.51
  -3   9  -6  190.37   18.24
  -3   9  -6  178.93   23.17
   3  -9   7  676.97   44.78
   3  -9   7  776.09   44.16
  -3   9  -7  599.65   40.94
  -3   9  -7  611.48   54.21
   3  -9   8  411.90   34.85
   3  -9   8  431.46   36.12
  -3   9  -8  597.96   38.08
  -3   9  -8  565.66   40.01
   3  -9   9  383.49   33.05
   3  -9   9  407.55   37.05
  -3   9  -9  443.52   38.61
  -3   9  -9  506.64   35.57
   3  -9  10  191.66   21.95
   3  -9  10  208.04   27.30
  -3   9 -10  155.39   26.35
  -3   9 -10  216.97   22.52
   3  -9  11  306.90   38.04
   3  -9  11  283.96   29.66
  -3   9 -11  400.20   43.54
  -3   9 -11  374.48   39.51
   3  -9  12   19.35   11.02
   3  -9  12    8.75   15.78
  -3   9 -12   43.01   10.91
  -3   9 -12   28.38   15.88
   3  -9  13  216.26   34.16
   3  -9  13  214.31   35.06
  -3   9 -13  118.54   34.12
  -3   9 -13  164.51   22.73
   3  -9  14   44.87   14.44
   3  -9  14   53.98   23.97
  -3   9 -14   72.29   14.16
  -3   9 -14   -0.17   25.03
   3  -9  15  141.11   20.22
   3  -9  15  144.34   35.30
  -3   9 -15   -0.10   35.75
  -3   9 -15  106.50   19.08
   3  -9  16   28.11   20.66
   3  -9  16   10.15   10.74
  -3   9 -16   20.74   10.11
  -3   9 -16   -0.61   21.47
  -3   8  11   -2.30   11.23
  -3   8  11   35.06   19.58
  -3   8  10   98.56   13.61
  -3   8  10  132.47   27.09
  -3   8  10   99.63   13.00
  -3   8  10  117.07   24.42
  -3   8   9   98.32   34.37
  -3   8   9   99.28   11.83
  -3   8   9   95.57   24.06
  -3   8   9   82.87   16.24
  -3   8   8   90.83   20.76
  -3   8   8   96.29   10.33
  -3   8   8   91.00   23.88
  -3   8   8   90.54   14.12
  -3   8   7  146.25   24.06
  -3   8   7  165.09   26.71
  -3   8   7  149.63   11.19
  -3   8   7  143.09   10.63
  -3   8   6  253.34   42.91
  -3   8   6  223.82   11.91
  -3   8   6  208.03   11.26
  -3   8   6  201.04   26.98
  -3   8   5   58.62    6.25
  -3   8   5   71.16   16.26
  -3   8   5   65.99    6.01
  -3   8   5   74.33   16.47
  -3   8   4   42.57   12.94
  -3   8   4   45.43   12.01
  -3   8   4   37.22    1.94
  -3   8   4   37.53    1.98
  -3   8   3  466.48   51.47
  -3   8   3  465.60   37.80
  -3   8   2  443.04   33.90
  -3   8   2  425.12   33.83
  -3   8   1  561.57   38.41
  -3   8   1  589.29   39.88
  -3   8   0  168.04   25.90
  -3   8   0  155.82   17.90
   3  -8   1  211.51    8.23
   3  -8   1  211.60   20.68
  -3   8  -1  214.98   18.92
  -3   8  -1  206.80    8.09
   3  -8   2  261.14   11.19
   3  -8   2  275.06   23.93
  -3   8  -2  346.30   23.76
  -3   8  -2  358.30   13.57
   3  -8   3   69.37   12.94
   3  -8   3   73.21    9.25
  -3   8  -3  101.76   11.91
  -3   8  -3  102.07    7.18
   3  -8   4  821.05   47.26
   3  -8   4  781.46   36.15
  -3   8  -4  866.80   39.83
  -3   8  -4  829.55   45.80
   3  -8   5  604.05   36.90
   3  -8   5  644.79   31.89
  -3   8  -5  586.34   35.44
  -3   8  -5  572.74   31.63
   3  -8   6  571.76   33.54
   3  -8   6  566.30   36.32
  -3   8  -6  656.14   36.82
  -3   8  -6  664.26   37.38
   3  -8   7  184.08   17.80
   3  -8   7  180.77   17.53
  -3   8  -7  179.71   18.24
  -3   8  -7  159.06   16.33
   3  -8   8  379.25   29.49
   3  -8   8  396.09   37.21
  -3   8  -8  321.36   24.87
  -3   8  -8  327.40   41.21
   3  -8   9  186.24   21.47
   3  -8   9  176.40   17.68
  -3   8  -9  125.88   16.70
  -3   8  -9  111.36   20.96
   3  -8  10 1071.18   73.50
   3  -8  10  995.87   74.13
  -3   8 -10 1024.45   59.66
  -3   8 -10  893.19   70.44
   3  -8  11  120.52   15.55
   3  -8  11  144.11   22.96
  -3   8 -11   89.02   22.28
  -3   8 -11   65.02   22.87
   3  -8  12  352.42   43.20
   3  -8  12  298.55   28.81
  -3   8 -12  397.66   30.95
  -3   8 -12  379.81   45.43
   3  -8  13  282.07   39.41
   3  -8  13  245.94   25.34
  -3   8 -13  233.85   24.50
  -3   8 -13  202.64   39.05
   3  -8  14  184.64   37.81
   3  -8  14  181.88   22.58
  -3   8 -14  163.32   39.13
  -3   8 -14  187.62   21.60
   3  -8  15   55.03   13.42
   3  -8  15   80.86   38.97
  -3   8 -15   37.43   12.50
  -3   8 -15    0.63   26.23
   3  -8  16   44.44   12.79
   3  -8  16   47.49   25.77
  -3   8 -16   -1.77   26.87
  -3   8 -16   31.34   11.66
  -3   7  12   -3.68    8.14
  -3   7  12    2.23    6.94
  -3   7  12   -2.10    4.95
  -3   7  12   -1.29    4.58
  -3   7  11   22.94    9.77
  -3   7  11   -0.00   22.88
  -3   7  11   32.01   15.99
  -3   7  11   28.52    9.03
  -3   7  10   11.34   10.89
  -3   7  10   12.57   11.95
  -3   7  10   10.65    6.65
  -3   7  10    8.48    9.92
  -3   7   9  126.04   22.73
  -3   7   9  115.51   14.31
  -3   7   9  142.75   25.11
  -3   7   9  129.08   13.50
  -3   7   8   11.49    9.45
  -3   7   8    5.35   10.19
  -3   7   8    4.75    4.86
  -3   7   8   14.15    4.68
  -3   7   7  666.99   33.61
  -3   7   7  711.38   56.19
  -3   7   7  656.53   32.15
  -3   7   7  682.43   51.26
  -3   7   6   14.81   13.19
  -3   7   6    6.38    2.98
  -3   7   6   10.84    7.52
  -3   7   6    6.04    2.81
  -3   7   5  205.28    9.80
  -3   7   5  215.48   23.04
  -3   7   5  228.80   24.85
  -3   7   5  200.47   11.89
  -3   7   4  416.09   15.87
  -3   7   4  451.67   35.10
  -3   7   4  407.88   14.98
  -3   7   4  433.83   32.65
  -3   7   3  468.19   34.29
  -3   7   3  489.27   47.74
  -3   7   2  395.74   29.71
  -3   7   2  395.98   28.00
  -3   7   1  244.90   20.74
  -3   7   1  236.89   19.87
  -3   7   0  898.28   50.12
  -3   7   0  965.99   51.78
   3  -7   1 4513.49  256.30
   3  -7   1 4855.69  213.26
  -3   7  -1 4799.46  212.30
  -3   7  -1 4828.98  264.88
   3  -7   2  557.26   42.33
   3  -7   2  522.10   21.86
  -3   7  -2  555.23   20.79
  -3   7  -2  572.52   31.46
   3  -7   3  181.56   15.37
   3  -7   3  177.76    9.60
  -3   7  -3  202.14   21.50
  -3   7  -3  203.92   14.36
   3  -7   4  851.87   37.90
   3  -7   4  831.01   43.98
  -3   7  -4  859.82   40.08
  -3   7  -4  864.69   43.43
   3  -7   5 1707.37   86.15
   3  -7   5 1747.73   83.59
  -3   7  -5 1787.17   97.64
  -3   7  -5 1717.47   86.35
   3  -7   6  102.78   10.48
   3  -7   6   94.49   10.50
  -3   7  -6   67.20    9.76
  -3   7  -6   59.73   16.50
   3  -7   7  226.99   18.96
   3  -7   7  206.42   24.18
  -3   7  -7  227.90   20.23
  -3   7  -7  218.42   16.52
   3  -7   8 1091.88   63.43
   3  -7   8 1057.19   55.89
  -3   7  -8  905.46   60.04
  -3   7  -8  962.93   51.37
   3  -7   9 1068.21   68.99
   3  -7   9  991.95   56.08
  -3   7  -9 1044.38   70.83
  -3   7  -9 1139.17   59.70
   3  -7  10  619.27   38.37
   3  -7  10  711.25   53.04
  -3   7 -10  605.58   36.40
  -3   7 -10  534.10   68.11
   3  -7  11  186.91   28.63
   3  -7  11  162.41   26.45
  -3   7 -11  204.63   30.92
  -3   7 -11  217.56   18.63
   3  -7  12  243.83   21.78
   3  -7  12  262.88   35.28
  -3   7 -12  204.44   20.25
  -3   7 -12  179.63   34.68
   3  -7  13  176.55   54.22
   3  -7  13  153.46   20.10
  -3   7 -13  229.13   57.08
  -3   7 -13  244.96   20.93
   3  -7  14  121.80   29.39
   3  -7  14  102.72   15.03
  -3   7 -14   71.03   21.61
  -3   7 -14   -1.08   30.10
   3  -7  15   30.78   22.52
   3  -7  15   45.26   11.14
  -3   7 -15   25.10   16.14
  -3   7 -15    1.30   24.87
   3  -7  16  117.20   36.65
   3  -7  16  106.90   16.91
  -3   7 -16   -0.35   59.15
  -3   7 -16   93.52   15.67
  -3   6  13   19.41    9.99
  -3   6  13   19.95   13.96
  -3   6  13    0.92   12.31
  -3   6  13    9.91    9.30
   3  -6 -12   33.41   14.13
  -3   6  12    2.97   13.60
  -3   6  12    5.30   10.22
  -3   6  12   36.78    9.99
   3  -6 -11  333.11   31.54
   3  -6 -11  344.67   41.14
  -3   6  11  386.75   31.18
  -3   6  11  397.12   38.93
   3  -6 -10  154.06   25.98
   3  -6 -10  156.80   18.02
  -3   6  10  145.17   24.26
  -3   6  10  140.79   24.56
   3  -6  -9  132.06   20.45
   3  -6  -9  111.62   13.85
  -3   6   9  110.87   19.99
  -3   6   9   91.49   12.50
   3  -6  -8  174.49   14.65
   3  -6  -8  181.51   23.16
  -3   6   8  142.20   21.67
  -3   6   8  143.32   13.49
   3  -6  -7  230.15   15.28
   3  -6  -7  222.21   25.04
  -3   6   7  247.28   36.02
  -3   6   7  217.46   14.36
   3  -6  -6  161.49   10.01
   3  -6  -6  166.63   19.04
  -3   6   6  133.97   17.92
  -3   6   6  117.09    8.73
   3  -6  -5  409.56   36.90
  -3   6   5  774.58   31.76
  -3   6   5  773.08   45.53
  -3   6   4   98.33   14.03
  -3   6   4   80.61   12.93
  -3   6   4   84.73    5.69
  -3   6   4   88.65    4.48
  -3   6   3  357.86   10.18
  -3   6   3  362.79    9.18
  -3   6   3  406.26   27.48
  -3   6   3  369.65   25.38
  -3   6   2 1096.80   59.91
  -3   6   2 1091.83   69.09
  -3   6   1  774.37   41.83
  -3   6   1  775.31   42.40
  -3   6   0  157.94   13.59
  -3   6   0  154.27   13.39
   3  -6   1 3539.70  180.34
   3  -6   1 3463.61  137.71
  -3   6  -1 3281.96  166.44
  -3   6  -1 3314.03  135.70
   3  -6   2  321.91   24.29
   3  -6   2  313.50   11.38
  -3   6  -2  217.83   10.30
  -3   6  -2  219.47   15.43
   3  -6   3 2509.65  106.99
   3  -6   3 2538.89  120.34
  -3   6  -3 2161.25  104.11
  -3   6  -3 2137.51  102.90
   3  -6   4 2735.68  128.97
   3  -6   4 2859.56  136.26
  -3   6  -4 2382.09  114.46
  -3   6  -4 2298.32  112.11
   3  -6   5 1227.48   56.36
   3  -6   5 1185.92   54.55
  -3   6  -5 1060.66   49.92
  -3   6  -5 1028.51   52.79
   3  -6   6  587.04   32.41
   3  -6   6  562.18   28.99
  -3   6  -6  536.25   32.80
  -3   6  -6  566.07   27.78
   3  -6   7  569.16   31.07
   3  -6   7  564.95   46.83
  -3   6  -7  693.32   33.02
  -3   6  -7  692.11   40.59
   3  -6   8  196.48   19.93
   3  -6   8  173.98   13.91
  -3   6  -8  180.32   31.34
  -3   6  -8  176.61   13.42
   3  -6   9  263.40   17.49
   3  -6   9  273.83   25.95
  -3   6  -9  185.40   25.42
  -3   6  -9  189.37   15.39
   3  -6  10  162.42   23.79
   3  -6  10  137.20   14.09
  -3   6 -10  168.35   25.27
  -3   6 -10  176.37   14.28
   3  -6  11  199.26   29.95
   3  -6  11  198.92   17.77
  -3   6 -11  223.97   17.68
  -3   6 -11  207.57   32.16
   3  -6  12  108.75   23.01
   3  -6  12  102.26   18.40
  -3   6 -12   52.79   23.44
  -3   6 -12   72.32   11.57
   3  -6  13   31.85    9.32
   3  -6  13   45.79   19.15
  -3   6 -13   36.71    9.01
  -3   6 -13   44.06   20.47
   3  -6  14    5.92    6.80
   3  -6  14    4.09    4.86
  -3   6 -14   -0.90    7.48
  -3   6 -14   -2.13    2.94
   3  -6  15  123.86   49.92
   3  -6  15   95.13   22.94
  -3   6 -15   96.88   35.33
  -3   6 -15   96.33   14.13
   3  -6  16   50.52   23.79
   3  -6  16   19.50    9.52
  -3   6 -16   27.13    8.65
  -3   6 -16   47.73   25.44
   3  -5 -13   11.08   12.91
   3  -5 -13    4.63   10.16
  -3   5  13    0.66    9.07
  -3   5  13    7.87    8.03
   3  -5 -12   47.79   13.56
   3  -5 -12   67.50   17.57
  -3   5  12   36.03   16.31
  -3   5  12   37.18   12.99
   3  -5 -11  172.98   26.76
   3  -5 -11  126.82   20.09
  -3   5  11  189.84   24.84
  -3   5  11  197.14   20.86
   3  -5 -10   35.45   11.27
   3  -5 -10   36.21   15.75
  -3   5  10   65.15   14.54
  -3   5  10   73.49   11.45
   3  -5  -9  348.60   31.83
   3  -5  -9  326.44   24.25
  -3   5   9  301.31   29.51
  -3   5   9  270.78   22.02
   3  -5  -8  147.41   14.27
   3  -5  -8  170.28   21.03
  -3   5   8  165.54   20.02
  -3   5   8  163.12   14.03
   3  -5  -7  196.58   21.70
   3  -5  -7  189.37   14.22
  -3   5   7  250.62   22.59
  -3   5   7  235.79   14.65
   3  -5  -6  243.80   21.38
   3  -5  -6  238.52   12.97
  -3   5   6  197.20   20.18
  -3   5   6  189.87   11.68
   3  -5  -5  154.78    8.16
   3  -5  -5  142.62   16.18
  -3   5   5  176.08    8.65
  -3   5   5  179.05   16.78
   3  -5  -4   84.87   20.63
  -3   5   4  155.85   14.84
  -3   5   4  152.55    6.46
   3  -5  -3   70.32    9.37
   3  -5  -3   65.50    2.68
  -3   5   3   36.92    9.13
  -3   5   2  160.89   13.81
  -3   5   2  169.45   13.83
  -3   5   1 1568.03   74.38
  -3   5   1 1657.73   79.13
   3  -5   0  706.94   19.72
   3  -5   0  666.44   18.14
  -3   5   0  522.24   28.28
  -3   5   0  521.76   35.14
   3  -5   1 1585.00   71.27
   3  -5   1 1568.66   54.46
  -3   5  -1 1518.71   74.75
  -3   5  -1 1396.02   53.86
   3  -5   2 1055.33   45.75
   3  -5   2 1080.85   57.31
  -3   5  -2 1462.33   59.60
  -3   5  -2 1439.07   57.41
   3  -5   3 1429.51   64.92
   3  -5   3 1401.25   61.11
  -3   5  -3 1831.49   80.99
  -3   5  -3 1851.83   81.22
   3  -5   4   97.98    9.20
   3  -5   4  102.03    8.47
  -3   5  -4  164.10   11.03
  -3   5  -4  167.95    9.06
   3  -5   5  812.43   35.92
   3  -5   5  799.40   39.85
  -3   5  -5  847.16   35.79
  -3   5  -5  863.73   43.89
   3  -5   6 1871.94   92.27
   3  -5   6 1868.22   83.05
  -3   5  -6 1678.31   90.83
  -3   5  -6 1651.07   79.96
   3  -5   7  656.50   38.72
   3  -5   7  627.90   29.40
  -3   5  -7  657.01   41.50
  -3   5  -7  628.36   28.16
   3  -5   8  343.29   28.47
   3  -5   8  330.03   19.05
  -3   5  -8  408.03   19.70
  -3   5  -8  390.75   31.56
   3  -5   9  456.90   34.58
   3  -5   9  450.19   23.45
  -3   5  -9  345.68   20.18
  -3   5  -9  304.88   34.04
   3  -5  10   60.12    9.59
   3  -5  10   77.02   17.79
  -3   5 -10   93.61   19.41
  -3   5 -10   94.11    8.95
   3  -5  11  337.91   22.82
   3  -5  11  352.71   38.19
  -3   5 -11  339.17   21.83
  -3   5 -11  326.71   40.53
   3  -5  12   15.91    9.39
   3  -5  12   25.09   13.13
  -3   5 -12   10.12   13.46
  -3   5 -12    7.56    8.67
   3  -5  13   17.01   12.86
   3  -5  13    8.14    8.77
  -3   5 -13   11.98   21.44
  -3   5 -13    7.20    5.34
   3  -5  14   49.10   21.94
   3  -5  14   46.40    9.59
  -3   5 -14   29.56    8.93
  -3   5 -14   40.83   23.24
   3  -5  15   42.04   23.03
   3  -5  15   41.35    9.19
  -3   5 -15   22.26    8.54
  -3   5 -15   42.54   24.44
   3  -5  16    0.14   26.03
  -3   5 -16   14.80   27.40
   3  -4 -14    1.44    6.84
   3  -4 -14   -7.01    7.45
  -3   4  14   -0.69    6.87
  -3   4  14    2.09   10.14
   3  -4 -13   20.62   13.62
   3  -4 -13   41.06   23.28
  -3   4  13   30.26   13.67
  -3   4  13   28.54   12.87
   3  -4 -12   21.50   12.68
   3  -4 -12   41.21   14.67
  -3   4  12   46.52   13.41
  -3   4  12   31.71   12.43
   3  -4 -11   82.83   18.72
   3  -4 -11   95.31   15.60
  -3   4  11   85.14   17.58
  -3   4  11   70.65   15.22
   3  -4 -10  478.47   36.62
   3  -4 -10  497.01   42.50
  -3   4  10  597.81   42.80
  -3   4  10  629.95   51.04
   3  -4  -9   54.14   10.80
   3  -4  -9   41.63   21.20
  -3   4   9   63.18   12.98
  -3   4   9   61.56   10.50
   3  -4  -8   61.40   12.31
   3  -4  -8   63.75    8.93
  -3   4   8   47.65   11.76
  -3   4   8   39.34    8.33
   3  -4  -7 1155.57   56.29
   3  -4  -7 1197.83   68.20
  -3   4   7 1172.68   66.38
  -3   4   7 1135.03   62.75
   3  -4  -6  544.56   42.97
   3  -4  -6  531.08   30.17
  -3   4   6  503.79   31.77
  -3   4   6  473.53   23.04
   3  -4  -5  375.73   17.08
   3  -4  -5  348.96   23.45
  -3   4   5  410.43   24.90
  -3   4   5  394.60   20.58
   3  -4  -4   94.40    9.85
  -3   4   4   82.86    4.69
  -3   4   4   81.93   10.07
   3  -4  -3 1808.00   83.04
  -3   4   3 1588.13   58.97
  -3   4   3 1671.42   79.51
   3  -4  -2  336.71   20.65
  -3   4   2  490.99   13.16
  -3   4   2  504.99   23.94
   3  -4  -1  551.20   15.06
   3  -4  -1  577.06   26.47
  -3   4   1  565.44   15.35
  -3   4   1  558.30   26.09
   3  -4   0 7493.95  356.03
  -3   4   0 6758.72  363.79
  -3   4   0 6755.87  365.90
   3  -4   1 3785.08  165.76
   3  -4   1 3807.60  168.91
  -3   4  -1 3789.71  176.85
  -3   4  -1 3858.43  178.73
   3  -4   2 2225.20   99.74
   3  -4   2 2282.13   99.51
  -3   4  -2 2491.25  103.70
  -3   4  -2 2420.80  102.63
   3  -4   3 2090.28   91.08
   3  -4   3 2009.78   83.02
  -3   4  -3 1963.89   88.17
  -3   4  -3 1902.95   77.62
   3  -4   4  314.50   16.23
   3  -4   4  317.08   12.53
  -3   4  -4  204.63   10.04
  -3   4  -4  196.99   14.51
   3  -4   5  399.17   17.51
   3  -4   5  403.75   24.05
  -3   4  -5  528.88   28.17
  -3   4  -5  530.48   19.45
   3  -4   6  546.40   23.01
   3  -4   6  555.75   32.49
  -3   4  -6  593.03   22.96
  -3   4  -6  591.30   34.71
   3  -4   7  152.39   12.97
   3  -4   7  152.32   16.78
  -3   4  -7  180.38    9.38
  -3   4  -7  172.91   18.38
   3  -4   8  251.59   24.45
   3  -4   8  237.21   13.98
  -3   4  -8  333.05   27.98
  -3   4  -8  339.10   15.25
   3  -4   9  236.26   24.30
   3  -4   9  216.64   12.77
  -3   4  -9  190.52   12.31
  -3   4  -9  184.95   25.40
   3  -4  10  337.98   35.77
   3  -4  10  385.20   21.62
  -3   4 -10  434.87   21.61
  -3   4 -10  413.30   42.17
   3  -4  11  260.03   34.22
   3  -4  11  260.47   17.51
  -3   4 -11  292.92   24.04
  -3   4 -11  302.52   54.23
   3  -4  12   25.55    6.29
   3  -4  12   25.59   24.29
  -3   4 -12   21.07    6.36
  -3   4 -12   26.32   16.24
   3  -4  13  170.03   30.20
   3  -4  13  147.01   13.11
  -3   4 -13   86.21   12.06
  -3   4 -13  118.00   31.05
   3  -4  14   66.64   26.41
   3  -4  14   65.90   10.36
  -3   4 -14   57.48   10.07
  -3   4 -14   73.78   27.38
   3  -4  15    7.03   10.84
   3  -4  15   -1.07    3.78
  -3   4 -15   22.66   11.48
   3  -3 -15    0.86   10.19
   3  -3 -15   -1.89   10.45
  -3   3  15    4.63    9.18
  -3   3  15   15.68    9.80
   3  -3 -14   78.80   37.66
   3  -3 -14  116.20   25.77
  -3   3  14  137.12   24.10
  -3   3  14  167.00   37.09
   3  -3 -13  102.59   21.20
   3  -3 -13   94.01   20.11
  -3   3  13   70.23   18.78
  -3   3  13   79.17   19.18
   3  -3 -12  107.66   21.74
   3  -3 -12  121.46   19.49
  -3   3  12  112.75   19.26
  -3   3  12   88.85   19.31
   3  -3 -11  194.18   23.14
   3  -3 -11  239.51   25.58
  -3   3  11  148.14   21.39
  -3   3  11  166.18   22.03
   3  -3 -10   85.05   15.60
   3  -3 -10   80.00   13.65
  -3   3  10   64.02   14.88
  -3   3  10   79.70   13.38
   3  -3  -9  563.74   36.43
   3  -3  -9  580.47   40.75
  -3   3   9  571.95   51.03
  -3   3   9  561.46   36.27
   3  -3  -8  352.86   24.85
   3  -3  -8  368.11   28.39
  -3   3   8  422.48   28.49
  -3   3   8  431.06   25.89
   3  -3  -7   97.45    9.27
   3  -3  -7  103.34   11.90
  -3   3   7   63.38   11.46
  -3   3   7   65.83    8.81
   3  -3  -6  137.67   10.64
   3  -3  -6  145.64   14.38
  -3   3   6  217.99   15.45
  -3   3   6  193.79   11.55
   3  -3  -5  299.47   13.00
   3  -3  -5  313.83   17.78
  -3   3   5  178.43   15.27
  -3   3   5  195.12   11.33
  -3   3   4  185.34   12.84
  -3   3   4  174.37   11.03
   3  -3  -3 1128.88   37.82
   3  -3  -3 1184.90   55.84
  -3   3   3 1017.52   46.31
  -3   3   3  968.81   34.81
   3  -3  -2 1490.83   60.18
  -3   3   2 1196.41   40.85
  -3   3   2 1241.86   52.97
   3  -3  -1 4184.35  198.84
  -3   3   1 4412.60  187.62
  -3   3   1 4337.93  211.76
   3  -3   0 3880.65  162.91
   3  -3   0 3979.73  175.29
  -3   3   0 3442.27  156.60
  -3   3   0 3365.77  148.91
   3  -3   111464.15  652.17
   3  -3   111158.02  632.04
  -3   3  -110308.17  586.11
  -3   3  -110545.44  596.59
   3  -3   2   29.62    4.06
   3  -3   2   32.25    2.88
   3  -3   3 1510.03   66.12
   3  -3   3 1444.79   52.48
  -3   3  -3 1476.64   52.06
  -3   3  -3 1486.12   66.23
   3  -3   4 2187.76   89.45
   3  -3   4 2202.28  107.57
  -3   3  -4 2581.35   96.99
  -3   3  -4 2664.80  126.07
   3  -3   5  380.39   22.09
   3  -3   5  370.82   12.43
  -3   3  -5  269.12    9.93
  -3   3  -5  293.74   20.96
   3  -3   6  301.15   21.38
   3  -3   6  294.23   11.91
  -3   3  -6  340.78   14.88
  -3   3  -6  347.92   24.79
   3  -3   7 2729.11  165.33
   3  -3   7 2699.44  118.18
  -3   3  -7 2781.71  159.55
  -3   3  -7 2950.76  124.84
   3  -3   8  224.87   11.35
   3  -3   8  213.67   22.45
  -3   3  -8  227.57   14.26
  -3   3  -8  229.14   24.33
   3  -3   9  398.71   34.77
   3  -3   9  423.28   19.71
  -3   3  -9  380.63   18.43
  -3   3  -9  377.07   37.05
   3  -3  10   45.95    7.94
   3  -3  10   47.89   13.31
  -3   3 -10   20.69    5.15
  -3   3 -10   27.55   14.58
   3  -3  11  140.63   15.68
   3  -3  11  129.22   25.26
  -3   3 -11  120.68   27.36
  -3   3 -11  139.35   11.03
   3  -3  12  187.56   33.34
   3  -3  12  184.59   14.54
  -3   3 -12  206.58   53.68
  -3   3 -12  202.29   14.80
   3  -3  13   21.43   29.84
   3  -3  13   24.50    7.11
  -3   3 -13   41.63    6.94
  -3   3 -13   37.70   20.20
   3  -3  14   -2.78    3.60
   3  -3  14    1.84   11.02
  -3   3 -14   -1.09   11.14
  -3   3 -14   -2.85    3.49
   3  -3  15   73.30   47.03
  -3   3 -15   72.68   31.46
   3  -2 -15   10.10   13.83
   3  -2 -15    1.25   14.38
  -3   2  15   24.24   12.48
  -3   2  15   30.93   14.21
   3  -2 -14  148.10   26.94
   3  -2 -14  145.44   37.91
  -3   2  14  110.52   23.30
  -3   2  14  107.22   39.41
   3  -2 -13   18.41    8.75
   3  -2 -13    4.88    8.42
  -3   2  13   -9.63    7.74
  -3   2  13   10.02    8.39
   3  -2 -12  295.67   32.95
   3  -2 -12  298.84   33.02
  -3   2  12  332.58   31.97
  -3   2  12  341.30   33.67
   3  -2 -11  177.55   22.33
   3  -2 -11  181.34   32.28
  -3   2  11  144.42   20.43
  -3   2  11  158.61   21.26
   3  -2 -10  449.05   33.52
   3  -2 -10  463.46   34.99
  -3   2  10  343.82   29.48
  -3   2  10  352.12   30.23
   3  -2  -9  429.44   30.79
   3  -2  -9  398.76   27.75
  -3   2   9  356.65   39.38
  -3   2   9  368.56   27.38
   3  -2  -8  256.67   18.55
   3  -2  -8  246.10   20.13
  -3   2   8  229.33   19.43
  -3   2   8  214.44   17.84
   3  -2  -7  283.87   18.10
   3  -2  -7  306.74   20.99
  -3   2   7  318.63   20.86
  -3   2   7  319.74   25.25
   3  -2  -6  555.92   27.20
   3  -2  -6  575.77   30.71
  -3   2   6  587.93   30.59
  -3   2   6  593.71   28.33
   3  -2  -5 2868.08  129.48
   3  -2  -5 2920.19  139.58
  -3   2   5 2782.14  134.34
  -3   2   5 2673.07  122.59
   3  -2  -4  771.44   30.30
   3  -2  -4  809.01   35.47
  -3   2   4  829.11   42.51
  -3   2   4  791.11   30.90
   3  -2  -3  204.30    9.08
   3  -2  -3  200.09   11.38
  -3   2   3  278.00   13.12
  -3   2   3  273.25   10.37
   3  -2  -2 7942.70  405.01
   3  -2  -2 7692.39  419.55
  -3   2   2 8039.96  410.03
  -3   2   2 8137.29  431.26
   3  -2  -1 1042.74   39.06
   3  -2  -1 1042.65   37.34
  -3   2   1 1053.82   37.95
  -3   2   1 1088.86   40.32
   3  -2   0  743.72   32.45
   3  -2   0  774.04   27.37
  -3   2   0  890.89   32.58
  -3   2   0  847.28   28.55
   3  -2   1 1778.45   63.22
   3  -2   1 1734.51   73.76
  -3   2  -1 1903.67   77.67
   3  -2   2  567.44   25.40
   3  -2   2  540.34   24.19
  -3   2  -2  548.42   15.49
   3  -2   3 2844.69  100.25
   3  -2   3 2525.54  120.44
  -3   2  -3 2631.76   91.54
  -3   2  -3 2518.16  122.78
   3  -2   4  245.33   16.05
   3  -2   4  238.42    7.41
  -3   2  -4  209.78    6.63
  -3   2  -4  208.50   15.54
   3  -2   5  312.66    9.85
   3  -2   5  325.63   21.50
  -3   2  -5  342.21    9.93
  -3   2  -5  366.81   23.38
   3  -2   6  600.74   36.07
   3  -2   6  543.10   18.41
  -3   2  -6  586.39   36.51
  -3   2  -6  592.01   19.31
   3  -2   7   46.13    3.57
   3  -2   7   53.25   10.54
  -3   2  -7   48.51    3.65
  -3   2  -7   59.41   11.22
   3  -2   8  400.21   32.65
   3  -2   8  393.91   16.32
  -3   2  -8  409.27   16.68
  -3   2  -8  409.62   34.48
   3  -2   9  363.98   34.57
   3  -2   9  349.90   16.78
  -3   2  -9  455.02   38.73
  -3   2  -9  459.78   19.24
   3  -2  10   70.24    6.45
   3  -2  10   61.87   17.07
  -3   2 -10   51.02    6.41
  -3   2 -10   59.70   18.03
   3  -2  11  136.61   22.45
   3  -2  11  120.00    8.83
  -3   2 -11   65.55   22.89
  -3   2 -11   63.59    8.25
   3  -2  12   50.08   17.92
   3  -2  12   41.57    9.67
  -3   2 -12   35.99   18.93
  -3   2 -12   29.05    9.70
   3  -2  13   68.54   24.41
   3  -2  13   67.40    8.54
  -3   2 -13   58.89   24.81
  -3   2 -13   62.39    8.56
   3  -2  14   56.98   27.69
  -3   2 -14   98.75   29.79
   3  -2  15   28.46   21.24
  -3   2 -15   17.67   22.34
   3  -1 -16   -1.03   24.35
   3  -1 -16   13.83   12.98
  -3   1  16   11.51   12.34
  -3   1  16   21.27   14.89
   3  -1 -15  146.84   34.17
   3  -1 -15  159.36   29.75
  -3   1  15  211.49   42.78
  -3   1  15  212.36   33.90
   3  -1 -14   16.27   13.21
   3  -1 -14   11.15   11.84
  -3   1  14   13.08   11.29
  -3   1  14   22.88   12.79
   3  -1 -13    7.68   12.34
   3  -1 -13   20.21   12.11
  -3   1  13   41.42   17.12
  -3   1  13   20.46   19.62
   3  -1 -12  329.44   35.23
   3  -1 -12  305.46   32.38
  -3   1  12  333.14   31.41
  -3   1  12  343.12   34.15
   3  -1 -11  410.90   51.18
   3  -1 -11  458.70   38.33
  -3   1  11  587.52   41.88
   3  -1 -10  133.27   16.92
   3  -1 -10  143.73   25.61
  -3   1  10  111.07   15.80
  -3   1  10  108.48   16.92
   3  -1  -9  175.43   18.01
   3  -1  -9  201.87   18.63
  -3   1   9  166.31   17.37
  -3   1   9  156.34   17.49
   3  -1  -8  815.78   44.08
   3  -1  -8  762.07   41.96
  -3   1   8  723.69   41.35
  -3   1   8  719.48   40.25
   3  -1  -7  190.37   16.78
   3  -1  -7  182.68   15.51
  -3   1   7  319.86   18.49
  -3   1   7  303.20   17.84
   3  -1  -6  711.63   37.37
   3  -1  -6  716.66   33.20
  -3   1   6  516.62   28.01
  -3   1   6  476.54   26.05
   3  -1  -5   81.76    8.23
   3  -1  -5   74.23    7.12
  -3   1   5   97.72    8.43
  -3   1   5   93.74    7.51
   3  -1  -4  753.11   37.75
   3  -1  -4  722.39   30.17
  -3   1   4  826.28   33.19
  -3   1   4  852.70   35.47
   3  -1  -3 4016.82  186.48
   3  -1  -3 3933.28  185.04
  -3   1   3 4292.46  197.31
  -3   1   3 4566.03  208.48
   3  -1  -2 1573.56   58.17
   3  -1  -2 1669.21   65.85
  -3   1   2 1265.12   49.56
  -3   1   2 1284.26   50.71
   3  -1  -1 3620.29  150.04
   3  -1  -1 3383.78  149.74
  -3   1   1 3473.04  144.07
  -3   1   1 3402.56  150.83
   3  -1   0 6042.68  273.31
   3  -1   0 5672.10  283.32
  -3   1   0 5808.66  261.72
  -3   1   0 5328.23  269.00
   3  -1   1  385.90   10.43
   3  -1   1  398.51   23.98
  -3   1  -1  539.39   21.85
   3  -1   2 2126.38   96.90
   3  -1   2 2003.33   93.10
   3  -1   3  143.17   11.71
   3  -1   3  134.90   11.34
   3  -1   4  277.38   19.41
   3  -1   4  258.81    5.14
   3  -1   4  276.68   18.72
   3  -1   4  273.50    5.53
   3  -1   5 1079.92   34.07
   3  -1   5 1130.13   62.44
  -3   1  -5 1499.45   74.89
  -3   1  -5 1490.70   46.31
   3  -1   6 1308.73   70.56
   3  -1   6 1274.70   44.99
  -3   1  -6 1244.20   43.24
  -3   1  -6 1222.26   70.83
   3  -1   7  575.92   40.61
   3  -1   7  570.50   20.44
  -3   1  -7  621.90   43.40
  -3   1  -7  656.51   23.17
   3  -1   8  454.08   37.31
   3  -1   8  471.63   18.62
  -3   1  -8  497.69   56.71
  -3   1  -8  510.65   20.24
   3  -1   9  413.24   35.59
   3  -1   9  396.21   17.36
  -3   1  -9  370.05   53.67
  -3   1  -9  368.60   17.34
   3  -1  10  427.52   42.94
  -3   1 -10  485.08   47.15
  -3   1 -10  472.41   22.23
   3  -1  11  187.99   12.28
   3  -1  11  200.57   29.92
  -3   1 -11  173.74   12.08
  -3   1 -11  189.02   32.13
   3  -1  12   28.37    9.16
   3  -1  12   39.86   17.68
  -3   1 -12   33.19   19.67
  -3   1 -12   39.99    6.26
   3  -1  13   82.15   22.30
   3  -1  13   59.47    7.36
  -3   1 -13   21.08   10.89
  -3   1 -13   49.70   23.17
   3  -1  14    6.27   16.62
  -3   1 -14    0.28   11.17
   3   0 -16   -0.83   16.17
   3   0 -16   20.65   13.38
  -3   0  16   22.82   15.61
  -3   0  16   10.52   12.42
   3   0 -15   -1.73   20.81
   3   0 -15   85.23   28.51
  -3   0  15   49.53   16.19
  -3   0  15   60.83   20.32
   3   0 -14   30.03   25.92
   3   0 -14   23.94   14.47
  -3   0  14   25.62   16.25
  -3   0  14   42.34   13.50
   3   0 -13   92.97   23.29
   3   0 -13   85.26   31.98
  -3   0  13  129.66   20.21
  -3   0  13  125.01   23.66
   3   0 -12  118.88   20.14
   3   0 -12   98.07   21.90
  -3   0  12  150.91   19.37
  -3   0  12  139.26   22.58
   3   0 -11  531.76   54.98
   3   0 -11  558.19   43.58
  -3   0  11  540.09   53.13
  -3   0  11  534.01   43.64
   3   0 -10  307.91   28.00
   3   0 -10  325.40   27.04
  -3   0  10  324.96   29.04
  -3   0  10  342.36   26.90
   3   0  -9  937.72   64.89
   3   0  -9  908.73   53.36
  -3   0   9  897.51   51.28
  -3   0   9  875.95   52.99
   3   0  -8  201.63   16.91
   3   0  -8  232.84   17.21
  -3   0   8  171.75   15.96
  -3   0   8  160.41   16.54
   3   0  -7 1118.90   66.56
   3   0  -7 1128.25   66.24
  -3   0   7 1187.39   57.62
  -3   0   7 1126.79   56.56
   3   0  -6  327.83   18.99
   3   0  -6  293.47   18.37
  -3   0   6  353.98   19.67
  -3   0   6  362.36   25.53
   3   0  -5  103.44    9.44
   3   0  -5  117.95    9.59
  -3   0   5  171.24   10.79
  -3   0   5  169.37   10.71
   3   0  -4  929.94   38.60
   3   0  -4 1001.19   41.22
  -3   0   4  916.48   38.36
  -3   0   4  895.03   38.60
   3   0  -310904.09  634.21
   3   0  -310558.45  605.52
  -3   0   310882.54  623.28
  -3   0   310799.22  629.89
   3   0  -2 3080.40  131.12
   3   0  -2 3129.66  139.57
  -3   0   2 3257.88  137.64
  -3   0   2 3161.99  141.37
   3   0  -1 2226.60   80.62
   3   0  -1 2289.74   92.78
  -3   0   1 1775.34   67.59
  -3   0   1 1751.64   76.41
   3   0   0  767.37   23.98
   3   0   0  803.14   32.01
  -3   0   0  578.08   17.94
  -3   0   0  629.38   27.80
   3   0   1 4541.22  182.18
   3   0   1 4431.78  234.44
  -3   0  -1 4600.50  230.25
   3   0   2 2550.29   80.35
   3   0   2 2328.44  113.37
  -3   0  -2 2139.12  105.01
  -3   0  -2 2417.16   79.32
   3   0   3 1253.39   33.57
   3   0   3 1261.63   33.42
   3   0   3 1265.92   73.39
   3   0   3 1236.38   61.01
   3   0   4 2874.43  104.65
   3   0   4 2792.99  159.10
   3   0   4 3023.04  106.87
   3   0   4 2833.01  152.80
   3   0   5  103.34   13.16
   3   0   5   97.42    3.78
   3   0   5   95.57    4.34
   3   0   5  103.69   12.84
   3   0   6  370.79   30.37
   3   0   6  394.04   12.78
   3   0   6  389.46   28.13
   3   0   6  393.55   16.17
   3   0   7  173.97   20.08
   3   0   7  170.67    7.19
   3   0   7  160.98   20.69
   3   0   8   76.04    6.96
   3   0   8   67.73   23.84
  -3   0  -8   57.32    5.12
   3   0   9  197.89    9.61
   3   0   9  200.67   24.44
  -3   0  -9  110.15   25.15
  -3   0  -9  136.87    9.28
   3   0  10   16.94    3.66
   3   0  10   14.98   11.66
  -3   0 -10   13.09    3.98
   3   0  11  108.74   12.72
   3   0  11   87.13   25.12
   3   0  11  129.45   23.83
   3   0  12   -0.21   25.38
   3   0  12   83.39    8.92
   3   0  12  101.05   23.41
   3   0  12   67.10    7.87
   3   0  13   -0.03   13.42
   3   0  13   12.61   12.65
   3   0  14   44.51   20.11
   3   0  14   -0.36   21.24
   3   1 -16    0.48   16.55
   3   1 -16   19.05   13.72
  -3  -1  16   16.48   12.96
  -3  -1  16   36.66   25.47
   3   1 -15    4.80   24.73
   3   1 -15   82.65   19.63
  -3  -1  15   74.40   23.70
  -3  -1  15   72.58   18.61
   3   1 -14   18.77   13.02
   3   1 -14    9.42   16.12
  -3  -1  14   25.34   19.56
  -3  -1  14   38.99   15.40
   3   1 -13  120.87   20.06
   3   1 -13   88.56   22.05
  -3  -1  13   95.69   18.76
  -3  -1  13   79.49   22.21
   3   1 -12  230.90   28.29
   3   1 -12  239.76   31.53
  -3  -1  12  280.28   27.91
  -3  -1  12  335.66   33.40
   3   1 -11  198.27   33.91
   3   1 -11  172.21   21.43
  -3  -1  11  162.77   20.22
  -3  -1  11  167.14   23.33
   3   1 -10  387.19   40.89
   3   1 -10  367.06   30.63
  -3  -1  10  400.74   32.07
  -3  -1  10  374.29   28.36
   3   1  -9  455.72   31.09
   3   1  -9  439.27   31.95
  -3  -1   9  464.04   30.00
  -3  -1   9  452.90   43.06
   3   1  -8 1014.99   53.45
   3   1  -8 1021.08   55.89
  -3  -1   8 1058.86   54.99
  -3  -1   8 1005.72   55.83
   3   1  -7 1518.53   75.78
   3   1  -7 1513.32   71.98
  -3  -1   7 1395.08   69.30
  -3  -1   7 1386.47   80.62
   3   1  -6 1139.85   53.91
   3   1  -6 1118.23   54.60
  -3  -1   6 1115.90   54.55
  -3  -1   6 1201.80   55.24
   3   1  -5 4859.99  243.86
   3   1  -5 5162.26  263.73
  -3  -1   5 4704.73  238.56
  -3  -1   5 4424.38  231.67
   3   1  -4 2906.26  138.51
   3   1  -4 3095.03  142.68
  -3  -1   4 2767.30  131.49
  -3  -1   4 2876.68  130.72
   3   1  -3  145.69    8.11
   3   1  -3  154.09    9.84
  -3  -1   3  131.92    9.44
  -3  -1   3  124.85   11.21
   3   1  -2 3282.82  158.96
   3   1  -2 3158.90  137.69
  -3  -1   2 3388.64  147.37
  -3  -1   2 3352.56  155.07
   3   1  -1 2248.10   89.53
   3   1  -1 2316.80  104.43
  -3  -1   1 2485.13  110.07
  -3  -1   1 2495.73  102.50
   3   1   0  496.19   30.12
   3   1   0  456.56   15.65
  -3  -1   0  603.77   31.38
  -3  -1   0  595.12   19.05
   3   1   1 3108.14  160.48
   3   1   1 2932.10  115.52
  -3  -1  -1 3304.45  158.52
   3   1   2 1563.53   53.22
   3   1   2 1701.76   81.32
  -3  -1  -2 1515.15   75.01
   3   1   3 3325.38  132.83
   3   1   3 3341.29  187.87
   3   1   3 3379.57  181.79
   3   1   3 3517.91  140.45
   3   1   4   58.13    3.00
   3   1   4   58.40    4.44
   3   1   4   62.73   10.27
   3   1   4   65.96   10.63
   3   1   5  263.56   11.84
   3   1   5  272.40   23.52
   3   1   5  269.55   21.25
   3   1   5  267.12    9.39
   3   1   6  119.99   15.50
   3   1   6  100.68   16.66
   3   1   6  102.87    7.32
   3   1   6  103.95    5.84
   3   1   7  514.95   57.67
   3   1   7  518.11   19.97
   3   1   7  532.88   22.00
   3   1   7  549.61   40.02
   3   1   8    9.04    8.11
   3   1   8   16.00    8.58
   3   1   8    7.17    2.49
   3   1   8    6.60    2.90
   3   1   9  252.15   12.88
   3   1   9  238.82   30.03
   3   1   9  258.91   32.68
   3   1   9  250.35   19.27
   3   1  10  210.39   33.58
   3   1  10  234.88   31.73
   3   1  10  229.64   13.12
   3   1  10  232.55   19.61
   3   1  11  156.76   32.17
   3   1  11  176.32   29.64
   3   1  11  163.50   11.41
   3   1  11  166.05   17.73
   3   1  12   58.16    7.03
   3   1  12   65.33   21.55
   3   1  12    0.54   36.49
   3   1  12   52.92    7.84
   3   1  13    7.53   13.39
   3   1  13    9.64   15.02
   3   2 -16  464.60   51.12
   3   2 -16  429.33   60.70
  -3  -2  16  395.15   47.02
  -3  -2  16  384.47   55.18
   3   2 -15   -0.27   10.85
   3   2 -15   14.94   14.01
  -3  -2  15    7.70   10.56
  -3  -2  15   18.06   13.13
   3   2 -14  147.44   25.38
   3   2 -14  155.03   29.48
  -3  -2  14  138.78   24.39
  -3  -2  14  118.88   46.05
   3   2 -13   17.72    9.48
   3   2 -13    9.58   11.19
  -3  -2  13    6.13    9.00
  -3  -2  13   -2.52   17.48
   3   2 -12  119.63   20.36
   3   2 -12  121.58   33.99
  -3  -2  12  111.63   34.54
  -3  -2  12  136.99   19.67
   3   2 -11  139.76   23.84
   3   2 -11  176.32   22.42
  -3  -2  11  212.06   21.99
  -3  -2  11  196.44   24.23
   3   2 -10  466.10   34.22
   3   2 -10  474.85   38.36
  -3  -2  10  527.76   35.49
  -3  -2  10  503.91   37.69
   3   2  -9   52.77   11.12
   3   2  -9   49.76   12.08
  -3  -2   9   71.30   10.97
  -3  -2   9   62.58   12.07
   3   2  -8  882.69   50.19
   3   2  -8  934.42   49.00
  -3  -2   8  861.16   47.17
  -3  -2   8  801.66   47.84
   3   2  -7  101.47   10.36
   3   2  -7  103.37   16.74
  -3  -2   7   80.52   10.51
  -3  -2   7   72.07   10.86
   3   2  -6 1125.33   52.02
   3   2  -6 1131.24   54.59
  -3  -2   6  945.23   47.41
  -3  -2   6  924.12   48.77
   3   2  -5    9.87    3.56
   3   2  -5    1.79    6.25
  -3  -2   5    3.37    5.64
  -3  -2   5    5.44    4.00
   3   2  -4   28.74    4.92
   3   2  -4   30.77    5.71
  -3  -2   4   29.45    5.87
  -3  -2   4   36.44    5.29
   3   2  -3 1315.96   55.43
   3   2  -3 1363.60   60.95
  -3  -2   3 1418.70   63.48
  -3  -2   3 1438.33   60.34
   3   2  -2  483.60   22.93
   3   2  -2  510.77   20.04
  -3  -2   2  409.70   18.29
  -3  -2   2  412.92   21.55
   3   2  -1  305.75   12.62
   3   2  -1  309.89   16.32
  -3  -2   1  260.51   15.53
  -3  -2   1  258.65   11.90
   3   2   0 1172.23   45.26
   3   2   0 1221.99   57.95
  -3  -2   0 1378.68   69.00
  -3  -2   0 1350.55   50.99
   3   2   1 1055.00   41.16
   3   2   1 1121.09   53.15
  -3  -2  -1  942.05   35.76
  -3  -2  -1  927.60   47.08
   3   2   2 2288.67  117.98
   3   2   2 2227.69   94.30
  -3  -2  -2 2400.85  101.09
  -3  -2  -2 2360.76  119.38
   3   2   3  178.58   16.23
   3   2   3  168.20   10.03
   3   2   3  174.07   16.62
   3   2   3  176.84    7.86
   3   2   4  123.22   15.02
   3   2   4  119.36   15.54
   3   2   4  125.85    6.39
   3   2   4  129.20    6.67
   3   2   5 3099.72  143.73
   3   2   5 3001.90  132.49
   3   2   5 3215.95  182.58
   3   2   5 3194.14  185.89
   3   2   6  787.60   51.82
   3   2   6  774.92   30.75
   3   2   6  785.81   36.81
   3   2   6  813.81   55.38
   3   2   7   10.54    2.93
   3   2   7   12.58    8.24
   3   2   7   10.81    3.36
   3   2   7   14.59   14.48
   3   2   8   74.44    6.37
   3   2   8   51.97   17.17
   3   2   8   60.21   18.32
   3   2   8   74.98   10.41
   3   2   9  323.74   40.42
   3   2   9  339.38   35.59
   3   2   9  336.41   22.47
   3   2   9  354.58   19.22
   3   2  10  134.10   38.12
   3   2  10  128.42   10.21
   3   2  10  141.68   27.78
   3   2  10  135.48   11.18
   3   2  11   19.81    5.23
   3   2  11   14.80   15.80
   3   2  11   17.83    4.69
   3   2  11   16.78   14.23
   3   2  12  145.22   30.86
   3   2  12  135.40   33.88
   3   2  13   13.01   14.78
   3   2  13    2.45   25.52
   3   3 -17    9.28   19.52
   3   3 -17    5.08   17.98
  -3  -3  17    1.56   13.07
  -3  -3  17   29.87   16.89
   3   3 -16  201.23   35.50
   3   3 -16  202.62   43.87
  -3  -3  16  219.43   32.96
  -3  -3  16  161.11   39.39
   3   3 -15  168.63   30.01
   3   3 -15  153.69   36.61
  -3  -3  15  200.36   44.80
  -3  -3  15  211.45   36.58
   3   3 -14  159.44   31.46
   3   3 -14  153.11   39.82
  -3  -3  14  145.56   24.84
  -3  -3  14  152.19   29.90
   3   3 -13   17.98   10.63
   3   3 -13   11.75   12.25
  -3  -3  13    5.83   10.42
  -3  -3  13   19.17   12.20
   3   3 -12  684.13   51.68
   3   3 -12  711.30   57.68
  -3  -3  12  663.95   51.34
  -3  -3  12  643.80   54.75
   3   3 -11   75.07   17.60
   3   3 -11   60.85   23.77
  -3  -3  11   89.71   16.12
  -3  -3  11   81.96   17.81
   3   3 -10   79.24   13.58
   3   3 -10   79.74   14.76
  -3  -3  10   58.37   13.31
  -3  -3  10   49.76   14.32
   3   3  -9   94.57   17.27
   3   3  -9   91.90   15.10
  -3  -3   9  217.68   17.93
  -3  -3   9  201.58   18.81
   3   3  -8  612.52   37.64
   3   3  -8  592.91   34.84
  -3  -3   8  559.82   34.88
  -3  -3   8  502.30   34.44
   3   3  -7  907.74   58.44
   3   3  -7  943.53   51.89
  -3  -3   7  876.10   50.51
  -3  -3   7 1009.63   51.83
   3   3  -6 1137.17   56.35
   3   3  -6 1221.26   73.10
  -3  -3   6 1257.17   61.77
  -3  -3   6 1162.56   60.99
   3   3  -5  485.95   25.14
   3   3  -5  493.13   27.36
  -3  -3   5  461.62   33.14
  -3  -3   5  460.73   26.99
   3   3  -4 2562.13  120.12
   3   3  -4 2866.00  137.45
  -3  -3   4 2525.87  126.06
  -3  -3   4 2463.93  118.91
   3   3  -3 1859.51   84.32
   3   3  -3 2018.74  104.57
  -3  -3   3 2032.72   99.69
  -3  -3   3 1956.33   93.30
   3   3  -2  199.59   16.99
   3   3  -2  186.99    9.94
  -3  -3   2  108.46    9.12
  -3  -3   2  102.95   11.01
   3   3  -1 1118.95   51.71
   3   3  -1 1092.21   45.00
  -3  -3   1 1050.73   58.99
  -3  -3   1  990.66   43.16
   3   3   0 1505.00   62.80
   3   3   0 1540.87   75.16
  -3  -3   0 1539.09   65.70
  -3  -3   0 1507.26   74.61
   3   3   1 2399.93  125.99
   3   3   1 2304.77  102.73
  -3  -3  -1 2708.13  118.11
  -3  -3  -1 2733.91  136.86
   3   3   2  963.36   39.50
   3   3   2  952.69   52.26
  -3  -3  -2 1012.90   63.06
  -3  -3  -2  968.23   41.19
   3   3   3    2.65    4.40
   3   3   3    0.09    3.13
   3   3   3    2.77    3.20
   3   3   3    5.90    4.32
   3   3   4 1176.92   50.46
   3   3   4 1196.18   56.91
   3   3   4 1228.91   83.75
   3   3   4 1200.49   72.16
   3   3   5  247.02   17.53
   3   3   5  260.44   25.30
   3   3   5  229.10   22.99
   3   3   5  238.21   17.17
   3   3   6  391.79   23.73
   3   3   6  405.43   33.98
   3   3   6  411.16   36.56
   3   3   6  399.98   20.31
   3   3   7  190.85   11.91
   3   3   7  200.62   24.53
   3   3   7  206.28   27.10
   3   3   7  187.79   13.00
   3   3   8  215.17   13.27
   3   3   8  224.43   28.16
   3   3   8  222.74   30.31
   3   3   8  213.15   14.25
   3   3   9  260.98   15.83
   3   3   9  265.29   35.29
   3   3   9  264.94   32.12
   3   3   9  251.32   17.09
   3   3  10  108.92   13.91
   3   3  10  106.15   26.19
   3   3  10  103.32   10.59
   3   3  10  106.01   36.70
   3   3  11   13.31   11.37
   3   3  11    0.47   12.73
   3   3  12   30.97   15.75
   3   3  12    2.07   17.20
   3   4 -17   64.65   27.64
   3   4 -17   53.89   25.57
  -3  -4  17    4.10   18.07
  -3  -4  17   26.69   37.90
   3   4 -16   40.97   17.74
   3   4 -16   42.92   22.74
  -3  -4  16    1.15   27.05
  -3  -4  16   37.10   22.23
   3   4 -15  237.94   37.90
   3   4 -15  208.14   42.69
  -3  -4  15  268.68   35.41
  -3  -4  15  250.13   41.90
   3   4 -14    2.53   22.64
   3   4 -14   23.65   16.79
  -3  -4  14   14.16   13.92
  -3  -4  14   50.94   16.34
   3   4 -13  206.47   29.59
   3   4 -13  230.05   33.97
  -3  -4  13  244.09   29.97
  -3  -4  13  213.89   33.25
   3   4 -12   82.77   20.85
   3   4 -12   66.38   19.01
  -3  -4  12  115.06   18.88
  -3  -4  12  104.30   32.28
   3   4 -11  170.46   26.28
   3   4 -11  193.56   23.05
  -3  -4  11  194.21   23.45
  -3  -4  11  174.39   25.04
   3   4 -10  587.47   58.29
   3   4 -10  524.84   38.02
  -3  -4  10  521.24   39.33
  -3  -4  10  476.40   40.68
   3   4  -9  336.65   39.82
   3   4  -9  322.59   25.93
  -3  -4   9  272.65   25.91
  -3  -4   9  270.44   38.10
   3   4  -8   55.47    8.27
   3   4  -8   52.82   13.99
  -3  -4   8   -0.49    8.79
  -3  -4   8    1.11    8.11
   3   4  -7  175.67   18.04
   3   4  -7  191.03   19.63
  -3  -4   7  280.63   21.64
  -3  -4   7  300.75   20.32
   3   4  -6   99.37   12.14
   3   4  -6  130.78   13.97
  -3  -4   6  138.61   14.34
  -3  -4   6  148.63   19.92
   3   4  -5  779.03   43.03
   3   4  -5  733.98   39.85
  -3  -4   5  999.60   50.20
  -3  -4   5 1001.43   48.51
   3   4  -4   99.54   10.43
   3   4  -4  110.93   11.65
  -3  -4   4  130.01   11.15
  -3  -4   4  113.21   17.53
   3   4  -3 1103.40   62.78
   3   4  -3 1078.80   50.73
  -3  -4   3 1035.32   50.66
  -3  -4   3 1076.70   54.34
   3   4  -2 2101.91   99.65
   3   4  -2 2027.26   91.71
  -3  -4   2 1775.05   91.07
  -3  -4   2 1692.61   82.00
   3   4  -1 1113.81   53.71
   3   4  -1 1127.72   49.08
  -3  -4   1  954.26   45.94
  -3  -4   1  932.14   49.85
   3   4   0  619.82   28.26
   3   4   0  668.43   43.25
  -3  -4   0  554.81   27.67
  -3  -4   0  554.01   33.41
   3   4   1  314.02   16.49
   3   4   1  332.02   22.35
  -3  -4  -1  282.50   16.35
  -3  -4  -1  270.11   21.03
   3   4   2   19.25    6.65
   3   4   2   23.17    4.11
  -3  -4  -2    8.81   10.36
  -3  -4  -2    5.05    4.25
   3   4   3 1383.89   63.56
   3   4   3 1474.96   84.06
   3   4   3 1437.74   65.91
   3   4   3 1419.53   82.23
   3   4   4   36.05   11.05
   3   4   4   44.46   10.58
   3   4   4   41.40    6.11
   3   4   4   34.24    8.99
   3   4   5   10.19    4.29
   3   4   5    8.43    7.70
   3   4   5   21.22   13.45
   3   4   5   14.60    6.25
   3   4   6  661.41   49.18
   3   4   6  661.38   33.61
   3   4   6  659.38   52.73
   3   4   6  643.15   38.79
   3   4   7  218.51   14.60
   3   4   7  220.08   15.89
   3   4   7  224.76   29.14
   3   4   7  224.19   26.94
   3   4   8   49.96    7.67
   3   4   8   38.26   15.42
   3   4   8   31.71   16.16
   3   4   8   43.09    6.99
   3   4   9    7.97    4.50
   3   4   9    7.70   10.74
   3   4   9   16.50    5.21
   3   4   9    5.04   12.19
   3   4  10  108.21   15.32
   3   4  10  127.16   28.05
   3   4  10  109.96   12.08
   3   4  10  105.18   38.16
   3   4  11    2.61   12.42
   3   4  11    8.77   11.14
   3   5 -17   80.49   23.03
   3   5 -17   63.14   31.27
  -3  -5  17   62.50   31.18
  -3  -5  17   -1.14   35.81
   3   5 -16    0.76   18.49
   3   5 -16  110.03   24.96
  -3  -5  16   -1.94   18.32
  -3  -5  16   77.63   23.76
   3   5 -15    0.25    7.01
   3   5 -15    3.57    8.52
  -3  -5  15    0.11    6.58
  -3  -5  15   -0.53    8.18
   3   5 -14  173.29   40.36
   3   5 -14  129.37   30.92
  -3  -5  14  120.56   29.86
  -3  -5  14  123.30   25.91
   3   5 -13  344.21   38.38
   3   5 -13  335.31   63.94
  -3  -5  13  330.54   41.97
  -3  -5  13  333.48   37.68
   3   5 -12  103.50   21.50
   3   5 -12  119.68   23.37
  -3  -5  12  114.69   21.30
  -3  -5  12  105.38   22.50
   3   5 -11  463.01   43.21
   3   5 -11  483.72   39.74
  -3  -5  11  435.00   39.50
  -3  -5  11  396.28   41.34
   3   5 -10  286.11   29.54
   3   5 -10  285.62   26.80
  -3  -5  10  257.63   27.67
  -3  -5  10  243.45   29.12
   3   5  -9  146.73   19.75
   3   5  -9  127.22   18.02
  -3  -5   9  153.34   28.03
  -3  -5   9  146.66   20.78
   3   5  -8  209.28   19.51
   3   5  -8  214.11   21.69
  -3  -5   8  169.57   20.44
  -3  -5   8  175.08   20.21
   3   5  -7 1275.20   70.44
   3   5  -7 1207.50   65.58
  -3  -5   7 1115.04   67.11
  -3  -5   7 1196.20   68.34
   3   5  -6 1277.76   69.04
   3   5  -6 1319.95   74.17
  -3  -5   6 1434.26   76.10
  -3  -5   6 1398.84   76.79
   3   5  -5   66.02    9.89
   3   5  -5   63.15   10.53
  -3  -5   5   69.23   10.93
  -3  -5   5   61.15   10.30
   3   5  -4   83.16   11.02
   3   5  -4   85.39   11.58
  -3  -5   4  108.28   11.85
  -3  -5   4  100.75   12.03
   3   5  -3 3022.71  168.02
   3   5  -3 3032.81  158.97
  -3  -5   3 3197.44  166.83
  -3  -5   3 3290.90  175.80
   3   5  -2  817.71   44.16
   3   5  -2  741.09   48.51
  -3  -5   2  927.08   49.21
  -3  -5   2  906.42   45.66
   3   5  -1 1202.48   66.65
   3   5  -1 1177.54   61.22
  -3  -5   1 1232.14   61.24
  -3  -5   1 1185.27   63.53
   3   5   0  937.53   53.84
   3   5   0  931.39   51.22
  -3  -5   0  927.55   47.15
  -3  -5   0  980.35   54.07
   3   5   1  893.96   43.91
   3   5   1  917.63   51.62
  -3  -5  -1  880.89   53.09
  -3  -5  -1  854.24   51.09
   3   5   2   66.60    8.72
   3   5   2   59.86   11.97
  -3  -5  -2   87.51   12.57
  -3  -5  -2   75.55    9.50
   3   5   3   28.54   10.60
   3   5   3   37.22    6.97
   3   5   3   43.21    6.77
   3   5   3   43.01   10.91
   3   5   4   30.58    6.70
   3   5   4   52.24   16.37
   3   5   4   27.63    6.42
   3   5   4   30.25   10.69
   3   5   5  350.83   22.29
   3   5   5  367.79   32.19
   3   5   5  385.67   46.12
   3   5   5  340.48   21.61
   3   5   6   31.62   13.07
   3   5   6   45.23   13.76
   3   5   6   34.91   12.29
   3   5   6   43.46    7.31
   3   5   7  242.46   24.81
   3   5   7  272.55   31.50
   3   5   7  247.30   19.18
   3   5   7  245.45   29.89
   3   5   8   41.62   15.11
   3   5   8   22.63   25.28
   3   5   8   33.28    8.12
   3   5   8   36.88    7.54
   3   5   9   88.67   18.73
   3   5   9   62.74   13.56
   3   5   9   56.42   10.13
   3   5   9   43.18   21.34
   3   5  10    1.84   16.20
   3   5  10   58.43   22.98
   3   6 -17   -0.07   18.20
   3   6 -17   66.04   24.95
  -3  -6  17    1.64   19.44
  -3  -6  17   76.44   25.69
   3   6 -16   93.85   25.22
   3   6 -16   -1.76   17.96
  -3  -6  16    0.75   18.86
  -3  -6  16  101.25   24.88
   3   6 -15  163.26   33.64
   3   6 -15   66.77   59.11
  -3  -6  15  161.70   30.93
  -3  -6  15  177.19   37.43
   3   6 -14    8.16    9.91
   3   6 -14   -1.34   11.26
  -3  -6  14   11.02   11.16
  -3  -6  14   -0.03    9.87
   3   6 -13  -11.13    8.24
   3   6 -13   12.47    9.95
  -3  -6  13   13.27    8.58
  -3  -6  13   -0.27   14.91
   3   6 -12  286.05   40.42
   3   6 -12  311.14   36.92
  -3  -6  12  347.74   37.57
  -3  -6  12  376.63   39.95
   3   6 -11   86.15   30.40
   3   6 -11   77.10   28.16
  -3  -6  11   83.71   18.18
  -3  -6  11   66.24   19.38
   3   6 -10  301.21   31.02
   3   6 -10  287.86   28.31
  -3  -6  10  213.48   28.24
  -3  -6  10  213.20   43.77
   3   6  -9  164.60   21.26
   3   6  -9  162.87   20.27
  -3  -6   9  138.62   21.42
  -3  -6   9  118.86   20.38
   3   6  -8   30.49    9.87
   3   6  -8   32.59   10.50
  -3  -6   8   24.08   10.42
  -3  -6   8   24.14   10.79
   3   6  -7  837.02   49.43
   3   6  -7  895.04   52.64
  -3  -6   7  650.22   62.33
  -3  -6   7  652.69   47.05
   3   6  -6   14.66   12.21
   3   6  -6   15.58    7.92
  -3  -6   6   19.04   12.62
  -3  -6   6   18.32    8.05
   3   6  -5  171.32   17.99
   3   6  -5  180.63   17.96
  -3  -6   5  196.31   19.35
  -3  -6   5  198.38   18.96
   3   6  -4  415.41   27.56
   3   6  -4  415.77   28.09
  -3  -6   4  404.68   29.35
  -3  -6   4  382.99   27.79
   3   6  -3   82.47   11.10
   3   6  -3   72.34   11.31
  -3  -6   3   68.96   12.01
  -3  -6   3   87.05   11.62
   3   6  -2  107.33   18.06
   3   6  -2  104.81   11.66
  -3  -6   2   57.31   12.25
  -3  -6   2   78.15   17.67
   3   6  -1  847.59   48.79
   3   6  -1  863.56   46.71
  -3  -6   1  882.79   52.01
  -3  -6   1  878.21   48.96
   3   6   0  101.48   13.96
   3   6   0   91.76   12.61
  -3  -6   0  161.29   15.89
  -3  -6   0  154.06   19.38
   3   6   1  970.97   49.83
   3   6   1  969.83   55.58
  -3  -6  -1  790.05   47.60
  -3  -6  -1  823.34   52.99
   3   6   2   50.60    8.71
   3   6   2   47.32   11.16
  -3  -6  -2   43.71   11.24
  -3  -6  -2   46.13    8.99
   3   6   3  473.75   38.47
   3   6   3  484.13   29.92
   3   6   3  499.48   37.85
   3   6   3  464.93   36.93
   3   6   4  181.20   16.46
   3   6   4  184.93   23.04
   3   6   4  176.22   15.84
   3   6   4  195.32   22.82
   3   6   5   15.14   10.78
   3   6   5   23.17   10.73
   3   6   5   22.43   10.26
   3   6   5   19.26    6.63
   3   6   6   63.80   14.91
   3   6   6   55.42   15.83
   3   6   6   54.13   10.02
   3   6   6   43.05   15.94
   3   6   7   61.61   10.46
   3   6   7   67.52   11.27
   3   6   7   86.50   17.91
   3   6   7   79.84   18.84
   3   6   8   14.18    6.36
   3   6   8   10.41    9.32
   3   6   8   11.11   11.49
   3   6   8    8.02   17.91
   3   6   9   86.96   12.63
   3   6   9   91.63   22.75
   3   6   9   88.87   12.20
   3   6   9  119.96   24.50
   3   7 -16   51.97   26.23
   3   7 -16   49.91   20.45
  -3  -7  16   58.37   25.90
  -3  -7  16    0.07   21.08
   3   7 -15  220.70   40.43
   3   7 -15  208.39   44.30
  -3  -7  15  239.55   39.73
  -3  -7  15  259.95   46.72
   3   7 -14   -4.76   15.61
   3   7 -14   -0.35    8.74
  -3  -7  14    0.00    8.39
  -3  -7  14   10.01    9.75
   3   7 -13  321.70   39.59
   3   7 -13  293.06   43.50
  -3  -7  13  281.48   39.38
  -3  -7  13  273.13   41.77
   3   7 -12  235.79   34.16
   3   7 -12  213.13   47.82
  -3  -7  12  202.90   33.84
  -3  -7  12  225.97   32.78
   3   7 -11   52.43   18.83
   3   7 -11   42.62   17.59
  -3  -7  11   76.95   19.23
  -3  -7  11   82.55   18.47
   3   7 -10  418.16   38.20
   3   7 -10  396.35   36.20
  -3  -7  10  326.82   52.90
  -3  -7  10  300.67   36.28
   3   7  -9   75.45   26.70
   3   7  -9   61.56   16.74
  -3  -7   9  102.74   18.73
  -3  -7   9   92.72   18.86
   3   7  -8  306.12   30.16
   3   7  -8  349.08   30.83
  -3  -7   8  292.48   44.04
  -3  -7   8  288.61   31.14
   3   7  -7   40.54   11.69
   3   7  -7   50.14   11.77
  -3  -7   7   37.05   12.75
  -3  -7   7   35.29   12.48
   3   7  -6  340.07   29.86
   3   7  -6  358.93   40.91
  -3  -7   6  362.85   30.92
  -3  -7   6  377.75   31.38
   3   7  -5  629.05   41.90
   3   7  -5  676.65   54.12
  -3  -7   5  589.56   42.19
  -3  -7   5  602.14   43.12
   3   7  -4  137.56   17.21
   3   7  -4  165.61   16.75
  -3  -7   4  119.00   17.46
  -3  -7   4  138.53   17.33
   3   7  -3  128.83   23.43
   3   7  -3  115.22   14.96
  -3  -7   3  132.01   16.94
  -3  -7   3  140.20   16.76
   3   7  -2  424.85   30.40
   3   7  -2  423.35   29.38
  -3  -7   2  446.57   32.35
  -3  -7   2  414.31   31.31
   3   7  -1  452.54   32.32
   3   7  -1  446.15   32.17
  -3  -7   1  546.38   35.46
  -3  -7   1  547.62   48.98
   3   7   0  209.10   20.86
   3   7   0  212.70   20.14
  -3  -7   0  246.19   23.51
  -3  -7   0  233.54   21.37
   3   7   1  318.14   27.23
   3   7   1  338.69   26.48
  -3  -7  -1  370.40   27.93
  -3  -7  -1  363.43   30.50
   3   7   2  353.88   25.90
   3   7   2  342.09   28.05
  -3  -7  -2  276.01   27.34
  -3  -7  -2  260.50   24.26
   3   7   3  128.40   15.96
   3   7   3  128.90   15.70
   3   7   3  131.25   18.96
   3   7   3  129.44   28.14
   3   7   4  395.46   36.11
   3   7   4  383.54   28.62
   3   7   4  383.26   28.43
   3   7   4  384.05   35.47
   3   7   5  179.49   17.97
   3   7   5  166.55   24.28
   3   7   5  184.23   24.37
   3   7   5  156.03   17.36
   3   7   6   55.47   11.35
   3   7   6   49.04   16.36
   3   7   6   59.82   11.05
   3   7   6   49.45   16.80
   3   7   7   72.77   11.98
   3   7   7   48.97   20.16
   3   7   7   83.66   18.57
   3   7   7   70.95   18.89
   3   7   8   10.03    6.22
   3   7   8    6.59   10.06
   3   7   8   13.96   10.91
   3   7   8    9.19   17.76
   3   8 -16    8.73   14.83
   3   8 -16   -1.86   28.65
  -3  -8  16   -0.05   15.21
  -3  -8  16   31.09   18.77
   3   8 -15    1.16   18.48
   3   8 -15   34.51   16.65
  -3  -8  15   -0.17   16.45
  -3  -8  15   30.01   20.11
   3   8 -14    1.80   33.51
   3   8 -14  171.59   31.74
  -3  -8  14  165.23   31.34
  -3  -8  14  199.80   53.88
   3   8 -13   -1.95   25.32
  -3  -8  13    0.27   14.61
  -3  -8  13   45.21   16.18
   3   8 -12   91.50   24.42
   3   8 -12  119.30   24.04
  -3  -8  12   47.83   23.43
  -3  -8  12   79.22   24.62
   3   8 -11  195.72   32.28
   3   8 -11  185.56   30.92
  -3  -8  11  245.85   34.48
  -3  -8  11  281.36   33.80
   3   8 -10  296.53   34.67
   3   8 -10  248.77   33.96
  -3  -8  10  299.55   37.01
  -3  -8  10  298.30   35.64
   3   8  -9  105.21   20.19
   3   8  -9  130.98   20.62
  -3  -8   9   93.63   22.04
  -3  -8   9  104.51   22.93
   3   8  -8   83.34   16.78
   3   8  -8   71.83   26.17
  -3  -8   8   61.73   17.88
  -3  -8   8   81.88   28.54
   3   8  -7  428.75   37.63
   3   8  -7  452.29   36.18
  -3  -8   7  392.03   38.59
  -3  -8   7  390.41   37.85
   3   8  -6  204.03   27.04
   3   8  -6  221.73   26.14
  -3  -8   6  330.87   30.86
  -3  -8   6  328.58   29.26
   3   8  -5   54.01   14.68
   3   8  -5   59.88   13.33
  -3  -8   5   82.00   24.60
  -3  -8   5   87.45   14.94
   3   8  -4  492.68   46.42
   3   8  -4  467.33   37.27
  -3  -8   4  469.43   38.68
  -3  -8   4  464.14   37.75
   3   8  -3  271.58   34.79
   3   8  -3  263.85   27.02
  -3  -8   3  324.06   28.60
  -3  -8   3  321.30   28.94
   3   8  -2  234.20   30.94
   3   8  -2  231.97   22.79
  -3  -8   2  194.04   22.97
  -3  -8   2  196.68   33.65
   3   8  -1  312.53   25.94
   3   8  -1  300.95   27.20
  -3  -8   1  262.17   27.42
  -3  -8   1  279.87   27.41
   3   8   0  210.22   31.58
   3   8   0  206.15   20.71
  -3  -8   0  175.39   22.76
  -3  -8   0  200.25   23.16
   3   8   1   67.80   22.89
   3   8   1   76.12   14.82
  -3  -8  -1  123.55   17.25
  -3  -8  -1  108.33   16.58
   3   8   2  169.39   20.34
   3   8   2  152.53   29.00
   3   8   2  164.80   19.66
   3   8   3   76.10   14.06
   3   8   3   71.19   13.77
   3   8   3   79.37   16.00
   3   8   3   69.33   15.30
   3   8   4   41.21   13.14
   3   8   4   33.56   11.13
   3   8   4   43.12   12.90
   3   8   4   31.30   10.71
   3   8   5    5.95   12.17
   3   8   5   10.12    9.80
   3   8   5    8.03    9.64
   3   8   5   16.45    7.25
   3   8   6  132.32   18.23
   3   8   6  137.31   24.34
   3   8   6  124.29   18.22
   3   8   6  130.29   35.63
   3   8   7   21.70    9.45
   3   8   7   29.80   13.64
   3   8   7   23.29   13.85
   3   9 -16   89.06   23.86
   3   9 -16    1.73   28.62
  -3  -9  16    0.06   25.25
  -3  -9  16   72.06   29.96
   3   9 -15   20.66   16.85
   3   9 -15   -1.06   18.45
  -3  -9  15   27.81   19.24
  -3  -9  15    0.00   26.43
   3   9 -14  181.44   38.48
   3   9 -14  153.56   36.37
  -3  -9  14  174.20   40.82
  -3  -9  14  159.50   57.56
   3   9 -13  166.11   34.72
   3   9 -13  166.82   34.38
  -3  -9  13  142.89   35.01
  -3  -9  13  154.55   36.54
   3   9 -12  355.12   46.18
   3   9 -12  371.06   45.31
  -3  -9  12  339.73   48.84
  -3  -9  12  337.92   48.35
   3   9 -11   12.62   13.06
   3   9 -11    5.82   20.65
  -3  -9  11   29.88   14.08
  -3  -9  11    6.98   13.60
   3   9 -10  263.05   33.99
   3   9 -10  242.75   34.39
  -3  -9  10  242.72   36.01
  -3  -9  10  287.03   54.38
   3   9  -9   51.33   16.04
   3   9  -9   52.43   14.91
  -3  -9   9   19.73   16.34
  -3  -9   9   30.65   16.63
   3   9  -8   32.95   20.01
   3   9  -8   31.48   17.77
  -3  -9   8    9.57   12.25
  -3  -9   8   20.37   20.84
   3   9  -7  320.68   34.09
   3   9  -7  324.31   31.31
  -3  -9   7  270.37   32.95
  -3  -9   7  293.83   35.76
   3   9  -6   33.84   13.58
   3   9  -6   50.89   12.24
  -3  -9   6   29.08   14.49
  -3  -9   6   20.31   13.25
   3   9  -5   77.81   25.57
   3   9  -5   81.48   14.40
  -3  -9   5   46.04   26.94
  -3  -9   5   47.40   15.31
   3   9  -4 1400.80   90.94
   3   9  -4 1397.32   86.28
  -3  -9   4 1423.35  110.54
  -3  -9   4 1353.05   93.31
   3   9  -3  814.43   53.66
   3   9  -3  746.14   56.50
  -3  -9   3  842.65   61.05
  -3  -9   3  843.92   58.85
   3   9  -2  213.71   22.65
   3   9  -2  192.25   25.21
  -3  -9   2  252.31   25.54
  -3  -9   2  233.93   27.21
   3   9  -1  484.49   36.14
   3   9  -1  490.28   39.27
  -3  -9   1  430.40   38.71
  -3  -9   1  391.37   38.69
   3   9   0   36.14   11.05
   3   9   0   39.64   11.81
  -3  -9   0   26.06   20.26
  -3  -9   0   28.56   12.08
   3   9   1  254.50   26.38
   3   9   1  233.75   26.97
  -3  -9  -1  260.00   28.49
  -3  -9  -1  276.49   28.08
   3   9   2    1.12   10.19
   3   9   2    8.47    6.49
   3   9   2   -0.68    6.67
   3   9   2    6.03    6.97
   3   9   3   30.06   12.58
   3   9   3   43.40   19.88
   3   9   3   47.54   12.83
   3   9   3   36.88   13.18
   3   9   4   85.10   16.69
   3   9   4   74.95   24.70
   3   9   4   78.51   26.89
   3   9   4   76.00   17.91
   3   9   5   82.85   18.07
   3   9   5   90.19   15.68
   3   9   5   44.19   14.91
   3   9   5   80.34   17.77
   3   9   6   11.58    5.63
   3   9   6  -14.23    6.64
   3   9   6    7.98    6.95
   3   9   6    0.06    5.51
   3  10 -15    1.67   31.08
   3  10 -15   14.39   19.03
  -3 -10  15   19.40   31.59
  -3 -10  15   22.43   19.22
   3  10 -14   -0.27   22.81
   3  10 -14   63.78   21.92
  -3 -10  14   30.35   23.67
  -3 -10  14   30.52   22.06
   3  10 -13   98.44   48.28
   3  10 -13   95.82   30.23
  -3 -10  13  109.39   32.16
  -3 -10  13  105.48   48.66
   3  10 -12   14.46   16.37
   3  10 -12   23.90   16.84
  -3 -10  12   23.71   27.87
  -3 -10  12   23.33   17.25
   3  10 -11   44.07   22.34
   3  10 -11   60.44   23.77
  -3 -10  11   94.81   25.18
  -3 -10  11   89.84   25.41
   3  10 -10  319.93   38.63
   3  10 -10  288.73   60.07
  -3 -10  10  269.72   59.49
  -3 -10  10  314.07   63.88
   3  10  -9  276.48   39.01
   3  10  -9  291.70   35.65
  -3 -10   9  284.92   37.29
  -3 -10   9  325.73   41.55
   3  10  -8  134.46   25.27
   3  10  -8  121.97   21.87
  -3 -10   8  110.11   22.69
  -3 -10   8   74.20   25.75
   3  10  -7   32.49   32.66
   3  10  -7   87.95   18.53
  -3 -10   7   92.87   22.63
  -3 -10   7   87.51   19.50
   3  10  -6  340.96   40.16
   3  10  -6  358.84   35.47
  -3 -10   6  367.80   42.20
  -3 -10   6  349.17   37.29
   3  10  -5  204.48   28.12
   3  10  -5  209.93   23.89
  -3 -10   5  172.56   28.88
  -3 -10   5  174.92   25.74
   3  10  -4   60.33   18.67
   3  10  -4   71.51   15.22
  -3 -10   4   71.54   16.52
  -3 -10   4   63.46   19.09
   3  10  -3  222.78   23.50
   3  10  -3  187.60   27.81
  -3 -10   3  193.15   25.98
  -3 -10   3  182.11   28.72
   3  10  -2  219.17   36.23
   3  10  -2  223.85   29.12
  -3 -10   2  250.64   27.66
  -3 -10   2  235.43   30.87
   3  10  -1  155.10   24.85
   3  10  -1  149.92   20.89
  -3 -10   1  187.68   34.83
  -3 -10   1  181.89   26.37
   3  10   0   46.73   13.00
   3  10   0   40.64   15.00
  -3 -10   0   49.83   14.81
  -3 -10   0   59.86   16.20
   3  10   1   71.60   14.38
   3  10   1   51.54   25.21
  -3 -10  -1   39.06   15.48
  -3 -10  -1   60.87   16.84
   3  10   2    6.39   13.62
   3  10   2    9.60    9.44
   3  10   2   11.27   13.68
   3  10   2   16.05   15.14
   3  10   3   23.45   12.20
   3  10   3   25.04   11.89
   3  10   3   32.19   12.34
   3  10   3   23.94   12.42
   3  10   4   19.00   10.66
   3  10   4   10.29   10.46
   3  10   4   14.13   10.60
   3  10   4   16.11   10.57
   3  10   5    5.85    9.17
   3  10   5   19.67    9.63
   3  10   5   13.07    8.93
   3  10   5    0.75    8.52
   3  11 -14    0.25   19.95
   3  11 -14   15.87   20.84
  -3 -11  14   38.29   20.77
  -3 -11  14   26.43   20.92
   3  11 -13   86.59   29.74
   3  11 -13  113.30   33.40
  -3 -11  13  103.45   32.03
  -3 -11  13   92.25   32.87
   3  11 -12   13.59   21.57
   3  11 -12    3.78   14.74
  -3 -11  12   10.78   15.04
  -3 -11  12   11.88   14.87
   3  11 -11  219.26   37.37
   3  11 -11  240.60   41.73
  -3 -11  11  230.40   41.08
  -3 -11  11  263.66   44.15
   3  11 -10  117.84   32.41
   3  11 -10  151.68   28.22
  -3 -11  10  159.85   30.20
  -3 -11  10  129.57   34.44
   3  11  -9   28.68   25.38
   3  11  -9   26.82   20.98
  -3 -11   9    0.19   14.54
  -3 -11   9   38.59   17.04
   3  11  -8   47.87   17.60
   3  11  -8   33.95   14.29
  -3 -11   8   43.99   18.55
  -3 -11   8   -0.23   15.94
   3  11  -7  132.66   27.31
   3  11  -7  124.00   22.74
  -3 -11   7   97.35   29.41
  -3 -11   7  113.93   24.43
   3  11  -6  180.35   29.73
   3  11  -6  176.90   24.92
  -3 -11   6  136.42   25.93
   3  11  -5  174.29   30.55
   3  11  -5  206.90   37.87
  -3 -11   5  182.62   27.85
  -3 -11   5  169.34   32.06
   3  11  -4   49.60   16.68
   3  11  -4   42.35   12.74
  -3 -11   4   19.27   17.20
  -3 -11   4   32.46   14.39
   3  11  -3   88.95   21.73
   3  11  -3   91.81   16.71
  -3 -11   3   69.47   27.98
  -3 -11   3   60.75   21.77
   3  11  -2   68.41   18.42
   3  11  -2   43.25   14.40
  -3 -11   2   72.21   19.98
  -3 -11   2   54.72   16.83
   3  11  -1   44.56   20.84
   3  11  -1   46.08   27.20
  -3 -11   1   60.61   18.88
  -3 -11   1   45.75   15.66
   3  11   0   16.82   14.89
   3  11   0   37.36   11.83
  -3 -11   0   26.42   20.26
  -3 -11   0   43.08   15.81
   3  11   1   61.39   20.82
   3  11   1   70.98   20.13
   3  11   1   89.36   17.63
   3  11   1   81.63   16.76
   3  11   2  116.93   29.74
   3  11   2   87.94   34.48
   3  11   2  109.28   20.37
   3  11   2  124.22   23.81
   3  11   3   96.29   17.96
   3  11   3   72.74   20.50
   3  11   3   72.67   28.61
   3  11   3   88.43   20.63
   3  12 -13    7.62   22.49
   3  12 -13   80.12   26.73
  -3 -12  13    0.18   36.74
  -3 -12  13   51.70   26.25
   3  12 -12    0.94   13.92
   3  12 -12   16.55   16.40
  -3 -12  12   -0.07   14.21
  -3 -12  12   22.42   16.45
   3  12 -11    0.34    9.97
   3  12 -11    3.51   18.88
  -3 -12  11    0.03   16.33
  -3 -12  11    8.87   12.31
   3  12 -10    0.61   16.75
   3  12 -10   57.30   20.71
  -3 -12  10   -0.50   17.25
  -3 -12  10   76.70   21.88
   3  12  -9   79.19   26.36
   3  12  -9   92.22   20.78
  -3 -12   9   92.95   28.17
  -3 -12   9   -0.10   22.46
   3  12  -8  244.35   43.88
   3  12  -8  222.79   34.04
  -3 -12   8  297.84   46.90
  -3 -12   8  276.85   38.46
   3  12  -7  223.91   39.73
   3  12  -7  215.34   31.00
  -3 -12   7  245.18   40.36
  -3 -12   7  196.58   33.87
   3  12  -6  129.04   32.20
   3  12  -6  131.99   23.89
  -3 -12   6  146.44   26.56
  -3 -12   6  189.81   33.19
   3  12  -5   53.19   20.61
   3  12  -5   67.21   15.76
  -3 -12   5   52.75   16.88
  -3 -12   5   -1.99   21.59
   3  12  -4   64.49   19.71
   3  12  -4   39.18   14.48
  -3 -12   4   59.47   16.19
  -3 -12   4    2.72   21.10
   3  12  -3  249.41   53.58
   3  12  -3  232.39   39.36
  -3 -12   3  207.29   29.91
  -3 -12   3  200.27   37.09
   3  12  -2   52.90   18.47
   3  12  -2   53.85   13.82
  -3 -12   2    2.45   31.01
  -3 -12   2   34.96   15.54
   3  12  -1   26.74   15.33
   3  12  -1   28.19   11.56
  -3 -12   1   38.37   13.23
  -3 -12   1   -1.06   16.55
   3  12   0   -1.29    4.43
   3  12   0   -1.83    5.24
  -3 -12   0    2.06    4.87
  -3 -12   0    0.63    3.58
   3  12   1  117.46   22.76
   3  12   1  104.88   17.14
   3  12   1   67.54   26.12
   3  12   1   -4.60   23.73
   3  13 -11   -0.13    9.04
   3  13 -11    7.73   11.83
  -3 -13  11   -0.24    8.77
  -3 -13  11    0.85   19.45
   3  13 -10   14.37   16.09
   3  13 -10   -0.73   18.76
  -3 -13  10   18.88   16.10
  -3 -13  10    0.00   12.39
   3  13  -9   20.40   14.30
   3  13  -9    2.20   10.37
  -3 -13   9   -0.27   14.41
  -3 -13   9    3.51   10.75
   3  13  -8  101.40   26.47
   3  13  -8    4.54   19.21
  -3 -13   8    0.02   26.83
  -3 -13   8  106.31   20.84
   3  13  -7    9.64    9.21
   3  13  -7   -3.79    6.44
  -3 -13   7    2.12    7.15
  -3 -13   7   -1.74   14.60
   3  13  -6  283.76   43.31
   3  13  -6  220.37   32.14
  -3 -13   6  243.65   45.88
  -3 -13   6  237.36   35.76
   3  13  -5   85.33   26.01
   3  13  -5   89.01   28.30
  -3 -13   5   74.14   19.96
  -3 -13   5    1.08   26.49
   3  13  -4   68.93   23.56
   3  13  -4   60.01   17.06
  -3 -13   4   57.95   18.83
  -3 -13   4    4.04   38.24
   3  13  -3   16.40   13.63
   3  13  -3   13.16    9.13
  -3 -13   3    6.86   10.48
  -3 -13   3   -2.66   14.72
   3  13  -2    6.28   11.38
   3  13  -2   12.61    7.62
  -3 -13   2   -1.55   12.16
  -3 -13   2  -12.44   13.50
  -4  16  -1   -0.16    6.96
  -4  16  -1    0.30    7.45
  -4  16  -2    1.03    8.22
  -4  16  -2   -1.83    8.71
  -4  16  -3    1.31   21.23
  -4  16  -3    4.57   13.43
  -4  16  -4   67.69   25.08
  -4  16  -4    9.11   23.77
   4 -16   5    1.00   12.94
  -4  16  -5    4.53   11.84
   4 -16   6  126.06   51.85
  -4  16  -6   65.56   31.82
   4 -16   7  119.28   36.60
  -4  16  -7   95.87   33.91
   4 -16   8  222.10   23.48
   4 -16   8  223.05   76.50
  -4  16  -8  271.03   47.74
  -4  16  -8  232.53   33.05
   4 -16   9    5.03   10.22
   4 -16   9    7.85   14.12
  -4  16  -9   -1.25   10.61
  -4  16  -9    8.16   12.96
   4 -16  10    8.32    7.85
   4 -16  10    1.93   14.64
  -4  16 -10   -1.08   12.32
  -4  15   2   -1.04    8.52
  -4  15   2    1.92    8.97
  -4  15   1    0.79   15.90
  -4  15   1    1.42   10.59
  -4  15   0    7.45   12.43
  -4  15   0   -0.36   11.76
  -4  15  -1    0.94    9.31
  -4  15  -1   -3.21    9.81
  -4  15  -2  255.93   44.73
  -4  15  -2  251.92   46.24
  -4  15  -3   13.72   18.35
  -4  15  -3   25.54   17.17
   4 -15   4   38.97   22.66
  -4  15  -4   39.71   22.30
   4 -15   5  340.67   78.36
  -4  15  -5  333.97   50.95
   4 -15   6  112.73   13.57
   4 -15   6  175.14   36.99
  -4  15  -6  158.00   14.53
  -4  15  -6  191.39   34.93
   4 -15   7    3.48    5.10
   4 -15   7    3.54   20.33
  -4  15  -7    0.67    7.76
  -4  15  -7   16.96   12.09
   4 -15   8   25.16   14.45
   4 -15   8   14.08    6.90
  -4  15  -8   -1.29   13.29
  -4  15  -8   -0.84    6.86
   4 -15   9  156.04   37.25
   4 -15   9  151.54   21.72
  -4  15  -9  131.42   21.00
  -4  15  -9  160.41   34.71
   4 -15  10  148.83   37.35
   4 -15  10  131.84   24.74
  -4  15 -10  165.33   24.73
  -4  15 -10  196.92   36.75
   4 -15  11   -1.85   15.44
   4 -15  11   34.02   21.05
  -4  15 -11  104.13   21.12
  -4  15 -11   -1.17   23.28
   4 -15  12   65.42   20.83
  -4  15 -12   -2.05   17.08
  -4  14   4    1.38    6.85
  -4  14   4   -1.27    7.01
  -4  14   3    0.35    8.51
  -4  14   3    1.17   13.29
  -4  14   2    0.27    9.48
  -4  14   2    2.25    9.84
  -4  14   1  140.34   27.27
  -4  14   1    4.92   27.89
  -4  14   0   -0.70   26.02
  -4  14   0  114.95   25.09
  -4  14  -1    0.46    8.41
  -4  14  -1    1.71    9.00
  -4  14  -2    1.72   10.42
  -4  14  -2   -7.34   10.01
   4 -14   3   36.76   20.87
  -4  14  -3   38.94   18.88
   4 -14   4  185.11   15.38
   4 -14   4  186.91   36.33
  -4  14  -4  200.97   33.60
  -4  14  -4  164.26   14.78
   4 -14   5   48.86    7.09
   4 -14   5   81.44   21.16
  -4  14  -5   26.20    6.94
  -4  14  -5   39.67   19.18
   4 -14   6  161.33   30.26
   4 -14   6  107.14   13.49
  -4  14  -6  124.84   28.80
  -4  14  -6  122.89   13.30
   4 -14   7   19.50   10.82
   4 -14   7   38.54   14.91
  -4  14  -7   50.97   22.05
  -4  14  -7   -0.19    7.09
   4 -14   8  106.08   29.48
   4 -14   8  101.98   24.90
  -4  14  -8  101.55   16.57
  -4  14  -8  122.42   27.66
   4 -14   9  273.81   43.18
   4 -14   9  315.92   30.17
  -4  14  -9  216.04   27.47
  -4  14  -9  248.08   40.66
   4 -14  10   96.04   28.00
   4 -14  10  128.52   21.00
  -4  14 -10   82.71   25.83
  -4  14 -10   79.43   19.78
   4 -14  11  -10.57   17.74
   4 -14  11    7.31    9.35
  -4  14 -11   12.43   11.14
  -4  14 -11   -1.50   14.21
   4 -14  12   64.31   27.63
   4 -14  12   84.99   25.71
  -4  14 -12  139.73   28.69
  -4  14 -12  102.55   25.67
   4 -14  13  141.40   32.83
   4 -14  13  133.58   32.29
  -4  14 -13  153.54   33.15
  -4  14 -13  144.74   32.78
  -4  13   6    6.85   14.31
  -4  13   5   75.95   22.95
  -4  13   5   -2.41   22.81
  -4  13   4   33.00   17.10
  -4  13   4    1.45   17.26
  -4  13   3    1.76    9.17
  -4  13   3    0.23    8.79
  -4  13   2    0.61    7.26
  -4  13   2   -1.51    7.66
  -4  13   1    2.80    6.89
  -4  13   1   -2.03    6.63
  -4  13   0  217.34   37.31
  -4  13   0  202.45   35.76
  -4  13  -1   -0.17   15.64
  -4  13  -1   48.40   16.74
  -4  13  -2   70.40   20.00
  -4  13  -2   48.13   21.53
   4 -13   3  245.15   36.66
   4 -13   3  228.90   14.05
  -4  13  -3  257.23   35.56
  -4  13  -3  238.48   11.03
   4 -13   4  337.14   18.72
   4 -13   4  382.51   45.62
  -4  13  -4  343.11   18.82
  -4  13  -4  373.68   41.43
   4 -13   5   12.22    5.81
   4 -13   5    7.90   15.11
  -4  13  -5   38.34   13.90
  -4  13  -5   26.46    5.73
   4 -13   6  171.06   15.66
   4 -13   6  195.63   30.79
  -4  13  -6  116.26   14.11
  -4  13  -6  138.85   27.16
   4 -13   7  393.92   46.30
   4 -13   7  369.38   28.80
  -4  13  -7  411.00   43.33
  -4  13  -7  359.18   28.34
   4 -13   8  120.81   17.26
   4 -13   8  114.39   26.98
  -4  13  -8  119.71   25.70
  -4  13  -8  107.19   16.95
   4 -13   9  100.69   17.98
   4 -13   9   72.51   24.96
  -4  13  -9  114.50   24.43
  -4  13  -9   98.63   17.94
   4 -13  10  204.48   33.01
   4 -13  10  223.41   27.91
  -4  13 -10  198.00   32.21
  -4  13 -10  171.78   26.75
   4 -13  11  147.56   28.26
   4 -13  11  174.49   42.21
  -4  13 -11  148.54   29.12
  -4  13 -11  103.52   38.09
   4 -13  12   44.71   19.56
   4 -13  12   46.84   20.96
  -4  13 -12    6.30   20.36
  -4  13 -12  102.48   20.20
   4 -13  13   -5.41   12.89
   4 -13  13   -0.10    9.60
  -4  13 -13   -0.57    9.17
  -4  13 -13    8.38    8.35
   4 -13  14  125.80   28.11
   4 -13  14   50.64   22.20
  -4  13 -14    4.93   27.50
  -4  13 -14   74.91   21.48
  -4  12   7   33.17   20.69
  -4  12   7   26.85   32.23
  -4  12   6   86.40   30.35
  -4  12   6  123.93   30.38
  -4  12   5  119.87   30.02
  -4  12   5  104.40   46.52
  -4  12   4    7.05   10.81
  -4  12   4    2.36   10.98
  -4  12   3   36.95   21.18
  -4  12   3   55.17   19.94
  -4  12   2   77.66   22.46
  -4  12   2   75.21   36.36
  -4  12   1  246.70   35.00
  -4  12   1  226.77   35.22
  -4  12   0   72.25   17.40
  -4  12   0    0.76   16.32
  -4  12  -1   35.64   15.81
  -4  12  -1   27.94   15.97
   4 -12   2  496.79   16.51
   4 -12   2  536.03   51.85
  -4  12  -2  601.51   50.62
  -4  12  -2  537.68   17.67
   4 -12   3  211.92   31.97
   4 -12   3  212.84   14.38
  -4  12  -3  240.52   30.34
  -4  12  -3  213.13   14.14
   4 -12   4  169.57   28.74
   4 -12   4  181.41   16.77
  -4  12  -4  168.89   11.83
  -4  12  -4  170.44   25.73
   4 -12   5  128.31   16.72
   4 -12   5  136.85   24.14
  -4  12  -5  122.77   22.15
  -4  12  -5  107.84   10.99
   4 -12   6  145.25   25.47
   4 -12   6  141.50   14.05
  -4  12  -6  115.75   35.35
  -4  12  -6  112.93   13.43
   4 -12   7  109.60   22.30
   4 -12   7  104.05   13.82
  -4  12  -7   84.11   20.44
  -4  12  -7   85.86   13.58
   4 -12   8   31.61   13.02
   4 -12   8   29.68   14.66
  -4  12  -8   12.88   12.01
  -4  12  -8   12.76    9.00
   4 -12   9   64.98   18.81
   4 -12   9   54.74   15.91
  -4  12  -9   76.83   18.93
  -4  12  -9   79.93   15.85
   4 -12  10   83.54   20.42
   4 -12  10   96.44   21.03
  -4  12 -10   95.73   21.27
  -4  12 -10   79.59   19.37
   4 -12  11  204.75   46.33
   4 -12  11  238.86   33.14
  -4  12 -11  194.15   46.70
  -4  12 -11  208.09   47.88
   4 -12  12   39.75   15.24
   4 -12  12   29.78   17.89
  -4  12 -12   27.37   23.66
  -4  12 -12   36.30   18.17
   4 -12  13   83.50   20.54
   4 -12  13  100.04   25.74
  -4  12 -13    3.24   24.84
  -4  12 -13   75.51   29.69
   4 -12  14   45.19   18.24
   4 -12  14  100.43   25.51
  -4  12 -14   50.33   17.71
  -4  12 -14    4.31   24.98
  -4  11   8   13.01   17.38
  -4  11   8   22.61   16.53
  -4  11   7    4.02   44.12
  -4  11   7  142.67   29.45
  -4  11   6   11.31   13.32
  -4  11   6   -2.51    8.04
  -4  11   5   52.15   19.97
  -4  11   5   35.96   19.48
  -4  11   4   78.36   22.73
  -4  11   4   72.21   21.99
  -4  11   3  102.61   25.11
  -4  11   3  123.85   25.11
  -4  11   2  171.47   27.22
  -4  11   2  130.91   25.94
  -4  11   1   59.24   18.56
  -4  11   1   62.33   18.04
  -4  11   0   29.00   14.21
  -4  11   0   29.89   13.02
  -4  11  -1  166.76   24.91
  -4  11  -1  154.64   25.65
   4 -11   2   90.88   21.43
   4 -11   2  109.13    5.18
  -4  11  -2  138.45    7.23
  -4  11  -2  150.89   21.43
   4 -11   3   39.44    4.76
   4 -11   3   43.59   15.17
  -4  11  -3   59.87   14.33
  -4  11  -3   54.22    7.47
   4 -11   4  162.27   26.25
   4 -11   4  190.18   12.80
  -4  11  -4  207.51   36.24
  -4  11  -4  209.90   18.00
   4 -11   5 1003.13   70.05
   4 -11   5 1000.76   58.23
  -4  11  -5  835.62   45.12
  -4  11  -5  925.76   81.07
   4 -11   6   96.66   12.93
   4 -11   6   83.86   19.06
  -4  11  -6  112.31   28.61
  -4  11  -6  111.97   12.35
   4 -11   7   62.88   16.99
   4 -11   7   75.29   12.78
  -4  11  -7   70.93   24.09
  -4  11  -7   63.32   11.72
   4 -11   8  163.66   24.06
   4 -11   8  188.52   21.85
  -4  11  -8  179.00   24.05
  -4  11  -8  167.75   20.46
   4 -11   9  147.58   22.44
   4 -11   9  152.50   22.47
  -4  11  -9  159.78   22.41
  -4  11  -9  134.33   20.80
   4 -11  10   33.70   12.40
   4 -11  10   39.52   21.60
  -4  11 -10   24.25   12.76
  -4  11 -10   30.19   20.17
   4 -11  11  105.81   20.06
   4 -11  11  101.49   23.32
  -4  11 -11   97.23   23.04
  -4  11 -11  102.40   20.29
   4 -11  12  215.62   28.70
   4 -11  12  232.80   36.63
  -4  11 -12  249.61   29.55
  -4  11 -12  241.47   37.23
   4 -11  13  337.00   47.67
   4 -11  13  311.58   48.92
  -4  11 -13  322.57   47.34
  -4  11 -13  318.73   35.01
   4 -11  14    6.56    7.11
   4 -11  14   -1.86   18.12
  -4  11 -14   -0.13    6.99
  -4  11 -14    0.20   17.89
   4 -11  15   17.21   10.49
   4 -11  15    6.71   29.17
  -4  11 -15   -2.25   18.23
  -4  10   9  157.81   34.38
  -4  10   9  173.35   37.41
  -4  10   8    8.37   11.92
  -4  10   8    2.28   11.12
  -4  10   7    6.86    9.27
  -4  10   7   -2.55    5.52
  -4  10   6   56.30   19.36
  -4  10   6   36.42   18.85
  -4  10   5  593.31   56.29
  -4  10   5  558.71   56.12
  -4  10   4  346.19   40.58
  -4  10   4  350.25   39.93
  -4  10   3   52.09   18.51
  -4  10   3   76.44   19.20
  -4  10   2  119.68   22.37
  -4  10   2  136.97   22.48
  -4  10   1  483.48   41.69
  -4  10   1  441.51   58.39
  -4  10   0  555.39   45.05
  -4  10   0  567.89   47.37
  -4  10  -1  125.03   19.39
  -4  10  -1  123.42   19.95
   4 -10   2   71.04   16.37
   4 -10   2   76.24    4.35
  -4  10  -2   79.48    4.57
  -4  10  -2   83.82   24.29
   4 -10   3  478.11   21.62
   4 -10   3  524.95   41.99
  -4  10  -3  520.08   26.75
  -4  10  -3  526.68   39.61
   4 -10   4  647.51   48.80
   4 -10   4  621.73   31.38
  -4  10  -4  747.77   35.01
  -4  10  -4  734.73   47.86
   4 -10   5  386.85   29.05
   4 -10   5  374.47   32.07
  -4  10  -5  306.81   28.12
  -4  10  -5  298.70   27.14
   4 -10   6  384.50   33.03
   4 -10   6  398.08   26.35
  -4  10  -6  349.23   29.50
  -4  10  -6  314.08   23.63
   4 -10   7  820.35   54.75
   4 -10   7  900.84   52.79
  -4  10  -7  783.09   51.42
  -4  10  -7  699.50   46.18
   4 -10   8  366.88   32.01
   4 -10   8  343.46   30.98
  -4  10  -8  381.68   31.38
  -4  10  -8  322.93   29.48
   4 -10   9  174.92   33.08
   4 -10   9  164.04   19.65
  -4  10  -9  114.21   32.29
  -4  10  -9  125.82   19.47
   4 -10  10   74.79   29.52
   4 -10  10   70.92   15.22
  -4  10 -10   85.12   18.98
  -4  10 -10   88.32   23.72
   4 -10  11   14.53   19.33
   4 -10  11   14.53   13.72
  -4  10 -11   16.77   12.13
  -4  10 -11   11.10    8.78
   4 -10  12   46.08   38.73
   4 -10  12   58.15   16.31
  -4  10 -12  122.62   17.52
  -4  10 -12  115.63   25.50
   4 -10  13   70.25   16.20
   4 -10  13   87.37   25.24
  -4  10 -13   84.66   16.34
  -4  10 -13    1.48   40.23
   4 -10  14   65.38   25.16
   4 -10  14   42.63   14.95
  -4  10 -14   77.63   14.56
  -4  10 -14   -0.53   25.96
   4 -10  15   85.45   32.24
   4 -10  15  104.37   17.59
  -4  10 -15   59.73   25.18
  -4  10 -15    2.84   33.17
  -4   9  10   52.50   20.21
  -4   9  10   14.42   34.10
  -4   9   9   20.99   15.62
  -4   9   9   31.46   27.62
  -4   9   8   55.54    5.75
  -4   9   8   67.03   34.50
  -4   9   8   63.14    5.57
  -4   9   8   59.47   20.42
  -4   9   7  173.51   29.18
  -4   9   7  156.55    8.18
  -4   9   7  168.69   10.13
  -4   9   7  209.61   46.31
  -4   9   6   62.52   18.98
  -4   9   6   50.67    3.03
  -4   9   6   53.67    2.38
  -4   9   6   58.26   17.67
  -4   9   5   89.99   22.09
  -4   9   5  101.52   20.93
  -4   9   4  207.23   28.33
  -4   9   4  189.64   26.44
  -4   9   3  372.60   35.98
  -4   9   3  369.44   37.36
  -4   9   2  634.04   49.02
  -4   9   2  662.42   66.07
  -4   9   1  336.20   31.94
  -4   9   1  395.14   33.43
  -4   9   0  564.43   40.97
  -4   9   0  589.38   43.62
  -4   9  -1   10.63    7.50
  -4   9  -1   10.31    7.46
   4  -9   2 1885.44   77.83
   4  -9   2 1901.65  110.39
  -4   9  -2 1757.83  101.01
  -4   9  -2 1781.28   72.01
   4  -9   3  304.90   27.03
   4  -9   3  299.08   14.53
  -4   9  -3  309.46   15.21
  -4   9  -3  314.20   25.43
   4  -9   4   14.25    7.82
   4  -9   4    9.69    4.05
  -4   9  -4   21.41    7.19
  -4   9  -4   19.21    4.52
   4  -9   5  599.89   38.58
   4  -9   5  609.35   40.62
  -4   9  -5  578.40   32.74
  -4   9  -5  607.92   49.46
   4  -9   6  660.61   44.68
   4  -9   6  687.74   39.48
  -4   9  -6  808.31   45.88
  -4   9  -6  747.29   42.67
   4  -9   7  453.81   32.09
   4  -9   7  468.36   31.56
  -4   9  -7  411.26   29.92
  -4   9  -7  388.65   30.30
   4  -9   8  540.53   51.31
   4  -9   8  513.53   34.63
  -4   9  -8  425.48   43.00
  -4   9  -8  405.29   35.55
   4  -9   9  539.98   58.07
   4  -9   9  470.36   33.90
  -4   9  -9  434.02   41.09
  -4   9  -9  504.39   35.48
   4  -9  10   -2.88   15.20
   4  -9  10    1.30    6.72
  -4   9 -10   17.12    6.94
  -4   9 -10   13.83    9.62
   4  -9  11  351.38   28.96
   4  -9  11  408.94   59.38
  -4   9 -11  334.67   40.76
  -4   9 -11  316.30   27.53
   4  -9  12   24.04   13.69
   4  -9  12   16.68    8.35
  -4   9 -12   11.12    7.98
  -4   9 -12   -0.17   22.09
   4  -9  13   66.38   22.21
   4  -9  13   94.17   24.94
  -4   9 -13   -0.06   26.01
  -4   9 -13   86.10   14.81
   4  -9  14  126.54   31.79
   4  -9  14  114.94   26.83
  -4   9 -14    0.28   32.96
  -4   9 -14  145.01   25.61
   4  -9  15   11.17   14.38
   4  -9  15   43.74   19.05
  -4   9 -15   13.36    8.86
  -4   9 -15    1.34   19.88
  -4   8  11   25.08   15.23
  -4   8  11    1.70   13.87
  -4   8  10  208.13   50.54
  -4   8  10  191.65   54.96
  -4   8  10  190.43   15.91
  -4   8  10  190.11   23.13
  -4   8   9  152.68   44.71
  -4   8   9  115.50   26.07
  -4   8   9  133.30   11.37
  -4   8   9  120.28   17.13
  -4   8   8  107.64   22.26
  -4   8   8   93.12    9.14
  -4   8   8  104.76   38.31
  -4   8   8  104.87    8.77
  -4   8   7  127.78   22.96
  -4   8   7  104.35   37.89
  -4   8   7  111.96   10.61
  -4   8   7  106.45   11.13
  -4   8   6   83.96   20.74
  -4   8   6   86.69    6.95
  -4   8   6   89.71   19.13
  -4   8   6   87.28    5.24
  -4   8   5  210.28   27.80
  -4   8   5  202.17    6.66
  -4   8   5  213.73   26.64
  -4   8   5  193.14    5.70
  -4   8   4  842.90   76.58
  -4   8   4  840.39   61.41
  -4   8   3  481.57   38.41
  -4   8   3  444.78   36.35
  -4   8   2  460.95   35.72
  -4   8   2  464.01   36.71
  -4   8   1  195.87   21.10
  -4   8   1  197.83   20.93
  -4   8   0 1510.28   84.20
  -4   8   0 1544.60   87.29
  -4   8  -1  376.83   27.87
  -4   8  -1  370.04   35.89
   4  -8   2 1251.83   69.33
   4  -8   2 1204.70   48.63
  -4   8  -2 1156.57   49.50
  -4   8  -2 1180.27   63.66
   4  -8   3  118.36    7.30
   4  -8   3  121.46   13.94
  -4   8  -3   97.44   12.85
  -4   8  -3   82.54    7.42
   4  -8   4  247.77   15.05
   4  -8   4  262.45   21.77
  -4   8  -4  294.71   20.48
  -4   8  -4  297.40   22.14
   4  -8   5  263.15   15.78
   4  -8   5  251.52   19.01
  -4   8  -5  159.69   16.13
  -4   8  -5  150.62   14.65
   4  -8   6  417.65   25.51
   4  -8   6  409.59   26.46
  -4   8  -6  365.15   24.52
  -4   8  -6  332.67   25.42
   4  -8   7   28.98    8.82
   4  -8   7   37.63   12.11
  -4   8  -7   23.70    9.18
  -4   8  -7   28.23    7.26
   4  -8   8  784.11   51.63
   4  -8   8  678.03   42.28
  -4   8  -8  849.52   56.06
  -4   8  -8  907.99   47.98
   4  -8   9   88.70   15.55
   4  -8   9   62.74   10.55
  -4   8  -9   54.84   15.81
  -4   8  -9   55.58   10.87
   4  -8  10  205.56   39.30
   4  -8  10  189.09   17.57
  -4   8 -10  152.23   39.43
  -4   8 -10  142.36   16.33
   4  -8  11  178.79   30.15
   4  -8  11  194.89   26.81
  -4   8 -11  161.63   30.04
  -4   8 -11  184.12   17.82
   4  -8  12  106.42   29.44
   4  -8  12  126.30   16.28
  -4   8 -12  127.36   29.31
  -4   8 -12  147.19   16.35
   4  -8  13  101.14   25.88
   4  -8  13  101.64   13.50
  -4   8 -13    0.06   25.55
  -4   8 -13   29.34   18.62
   4  -8  14   69.66   40.96
   4  -8  14   54.42   12.51
  -4   8 -14   66.52   12.26
  -4   8 -14   -0.73   42.49
   4  -8  15    0.70    5.44
   4  -8  15    7.15   12.51
  -4   8 -15    4.52    4.87
  -4   8 -15    1.73   13.42
  -4   7  12   -3.03    8.94
  -4   7  12    5.03   10.24
  -4   7  12    3.47    4.79
  -4   7  12    3.28    5.25
  -4   7  11   53.84   19.15
  -4   7  11   35.02    9.94
  -4   7  11    0.27   26.31
  -4   7  11   36.41   14.20
   4  -7 -10   13.88    8.98
  -4   7  10   -1.18    4.53
  -4   7  10    5.21    8.61
  -4   7  10    6.42    6.73
   4  -7  -9  486.46   46.48
   4  -7  -9  458.86   28.87
  -4   7   9  462.39   35.87
  -4   7   9  494.33   47.12
   4  -7  -8    0.97    4.06
   4  -7  -8   -1.03    9.43
  -4   7   8   21.67    9.10
  -4   7   8   12.78    3.90
   4  -7  -7   27.43   15.52
  -4   7   7   51.73   24.39
  -4   7   7   55.72    5.94
  -4   7   6  701.78   54.40
  -4   7   6  692.64   27.58
  -4   7   6  654.53   27.49
  -4   7   6  681.60   50.57
  -4   7   5  226.53    8.83
  -4   7   5  226.58    8.45
  -4   7   5  233.60   26.69
  -4   7   5  231.37   24.01
  -4   7   4   62.18    2.17
  -4   7   4   68.07   13.35
  -4   7   4   79.64   14.05
  -4   7   4   59.99    2.11
  -4   7   3  473.87   34.26
  -4   7   3  489.69   36.29
  -4   7   2   87.20   14.13
  -4   7   2   94.21   13.90
  -4   7   1 1550.24   84.37
  -4   7   1 1499.19   81.37
  -4   7   0 2515.02  135.13
  -4   7   0 2561.91  135.63
  -4   7  -1    9.72    4.97
  -4   7  -1    5.17    4.86
   4  -7   2  408.29   16.60
   4  -7   2  401.46   26.42
  -4   7  -2  485.02   26.67
  -4   7  -2  486.93   19.25
   4  -7   3   63.52    7.14
  -4   7  -3   15.36    6.25
  -4   7  -3   17.18    4.37
   4  -7   4  641.05   33.33
   4  -7   4  632.06   29.23
  -4   7  -4  491.71   26.60
  -4   7  -4  504.64   28.37
   4  -7   5  588.79   33.38
   4  -7   5  597.89   32.49
  -4   7  -5  722.69   35.71
  -4   7  -5  675.01   36.29
   4  -7   6   95.63   11.78
   4  -7   6   86.31   10.31
  -4   7  -6  113.66   10.27
  -4   7  -6   96.01   12.75
   4  -7   7  946.77   47.45
   4  -7   7 1005.26   56.33
  -4   7  -7  856.67   43.16
  -4   7  -7  846.98   53.18
   4  -7   8  623.65   43.08
   4  -7   8  612.42   34.16
  -4   7  -8  664.23   35.05
  -4   7  -8  648.25   46.60
   4  -7   9  853.30   47.12
   4  -7   9  918.45   81.25
  -4   7  -9 1016.00   51.04
  -4   7  -9  946.27   66.56
   4  -7  10  169.87   23.58
   4  -7  10  146.99   13.83
  -4   7 -10  103.52   12.19
  -4   7 -10  108.87   22.84
   4  -7  11  164.19   26.83
   4  -7  11  133.18   14.30
  -4   7 -11  125.95   27.15
  -4   7 -11  136.53   13.78
   4  -7  12  460.86   49.95
   4  -7  12  417.15   38.40
  -4   7 -12  405.81   49.14
  -4   7 -12  409.61   27.36
   4  -7  13   60.87   20.21
   4  -7  13   31.40   13.81
  -4   7 -13   43.42    9.11
  -4   7 -13   -1.06   21.72
   4  -7  14   41.88   19.63
   4  -7  14   28.12   12.41
  -4   7 -14   19.69   11.67
  -4   7 -14   -0.44   20.42
   4  -7  15   30.02   12.19
   4  -7  15   27.22   21.63
  -4   7 -15   19.91    7.41
  -4   7 -15   -0.48   22.38
   4  -6 -13   43.48   17.90
   4  -6 -13   32.13   11.89
  -4   6  13    2.23   16.40
  -4   6  13   30.26   11.08
   4  -6 -12   84.23   14.30
   4  -6 -12  102.69   22.22
  -4   6  12    4.10   21.07
  -4   6  12   53.73   20.52
   4  -6 -11   37.47   32.04
   4  -6 -11   65.85   12.46
  -4   6  11   68.84   18.98
  -4   6  11   57.24   12.23
   4  -6 -10  119.69   25.89
   4  -6 -10  124.55   22.82
  -4   6  10  146.12   25.91
  -4   6  10  164.97   15.94
   4  -6  -9  645.52   37.73
   4  -6  -9  660.82   54.37
  -4   6   9  614.78   70.54
  -4   6   9  610.27   36.15
   4  -6  -8  145.41   12.56
   4  -6  -8  117.24   22.12
  -4   6   8  148.16   22.56
  -4   6   8  152.12   17.24
   4  -6  -7   96.61   12.03
   4  -6  -7   96.31   17.28
  -4   6   7   97.38   17.16
  -4   6   7   81.50    7.74
   4  -6  -6  374.05   29.08
  -4   6   6  274.90   27.02
  -4   6   6  284.71   13.92
   4  -6  -5  968.85   58.92
  -4   6   5  929.63   35.01
  -4   6   5  952.14   58.39
   4  -6  -4   57.05   12.95
  -4   6   4   90.79    3.81
  -4   6   4   97.48   21.29
   4  -6  -3  305.23   22.93
   4  -6  -3  285.65    6.64
  -4   6   3  317.62   23.43
  -4   6   3  309.79    7.74
  -4   6   2 1487.88   79.33
  -4   6   2 1410.20   74.40
  -4   6   1 1973.26  102.09
  -4   6   1 1932.68  110.35
   4  -6   0 2484.08   91.68
   4  -6   0 2456.87   92.25
  -4   6   0 2805.57  139.62
  -4   6   0 2737.62  146.16
   4  -6   1 2706.31  114.53
  -4   6  -1 2761.62  137.65
  -4   6  -1 2843.49  140.54
   4  -6   2  597.73   23.86
   4  -6   2  597.24   30.86
  -4   6  -2  585.65   24.99
  -4   6  -2  589.15   29.54
   4  -6   3 3716.07  177.88
   4  -6   3 3697.10  187.50
  -4   6  -3 3739.62  194.24
  -4   6  -3 3398.12  168.82
   4  -6   4  368.70   19.84
   4  -6   4  374.38   20.10
  -4   6  -4  328.08   22.70
  -4   6  -4  293.35   19.33
   4  -6   5  691.64   36.74
   4  -6   5  669.50   39.68
  -4   6  -5  727.09   32.93
  -4   6  -5  717.26   47.88
   4  -6   6  635.69   38.20
   4  -6   6  626.29   37.57
  -4   6  -6  756.80   43.34
  -4   6  -6  767.70   33.93
   4  -6   7  224.04   20.79
   4  -6   7  240.33   19.35
  -4   6  -7  239.27   22.28
  -4   6  -7  242.09   14.09
   4  -6   8    9.11    8.10
   4  -6   8    3.68    4.54
  -4   6  -8   17.97    8.80
  -4   6  -8   24.71    4.37
   4  -6   9  604.27   46.28
   4  -6   9  589.27   31.55
  -4   6  -9  638.23   31.06
  -4   6  -9  609.19   48.81
   4  -6  10   22.95    8.71
   4  -6  10   20.48   11.42
  -4   6 -10    9.60    7.86
  -4   6 -10   29.61   19.40
   4  -6  11 1580.70  111.45
   4  -6  11 1514.26   77.41
  -4   6 -11 1416.01   72.09
  -4   6 -11 1417.00  109.42
   4  -6  12   67.46   18.92
   4  -6  12   45.66    8.06
  -4   6 -12   31.88   20.54
  -4   6 -12   33.23    7.34
   4  -6  13  -12.04    6.17
   4  -6  13   -3.78    2.31
  -4   6 -13    5.81    2.31
  -4   6 -13   -0.59    6.49
   4  -6  14   34.60   31.84
   4  -6  14   31.25    7.39
  -4   6 -14   20.77    6.78
  -4   6 -14    0.82   21.45
   4  -6  15   23.72   22.49
  -4   6 -15   25.34   23.02
   4  -5 -14   58.84   18.65
   4  -5 -14   90.81   24.91
  -4   5  14    3.04   35.57
  -4   5  14   92.56   18.02
   4  -5 -13   17.67    8.81
   4  -5 -13   11.54   11.71
  -4   5  13   -3.66   10.58
  -4   5  13   -1.32   12.37
   4  -5 -12   37.30   11.73
   4  -5 -12   45.85   16.37
  -4   5  12   28.82   15.29
  -4   5  12   25.21   11.30
   4  -5 -11   73.95   12.69
   4  -5 -11   61.17   17.96
  -4   5  11   40.46   27.10
  -4   5  11   38.25   12.50
   4  -5 -10   23.39    8.23
   4  -5 -10   17.09   12.53
  -4   5  10   22.68   11.88
  -4   5  10   26.30    8.12
   4  -5  -9   85.73   12.09
   4  -5  -9   96.56   18.03
  -4   5   9   74.36   18.46
  -4   5   9   91.40   11.53
   4  -5  -8  642.29   44.27
   4  -5  -8  639.70   47.37
  -4   5   8  713.26   49.18
  -4   5   8  695.36   44.40
   4  -5  -7    9.54    7.55
   4  -5  -7   14.16    4.14
  -4   5   7    9.01    7.70
  -4   5   7    8.09    4.01
   4  -5  -6  510.98   24.48
   4  -5  -6  496.76   35.63
  -4   5   6  602.49   25.85
  -4   5   6  598.87   38.99
   4  -5  -5 1114.67   60.92
  -4   5   5 1074.48   60.19
  -4   5   5 1021.90   40.94
   4  -5  -4    4.39    6.29
  -4   5   4   16.60    2.17
  -4   5   4   18.01    6.62
   4  -5  -3 2414.20  126.04
  -4   5   3 2533.05  130.61
  -4   5   3 2497.59   95.19
   4  -5  -2   91.01    3.03
   4  -5  -2  109.68   10.71
  -4   5   2   66.00    9.66
   4  -5  -1 1161.90   39.17
  -4   5   1 1314.63   62.31
  -4   5   1 1284.14   62.10
   4  -5   0 1134.44   41.12
  -4   5   0  931.43   45.96
  -4   5   0  905.49   44.08
   4  -5   1 1984.13   83.13
   4  -5   1 1964.69   81.05
  -4   5  -1 2080.38   95.13
  -4   5  -1 2071.95   94.35
   4  -5   2 2315.31  102.54
   4  -5   2 2347.45  101.63
  -4   5  -2 2138.09   96.91
  -4   5  -2 2145.72   97.05
   4  -5   3  264.74   13.48
   4  -5   3  272.03   14.69
  -4   5  -3  193.47   15.62
  -4   5  -3  195.07   13.32
   4  -5   4  907.32   38.41
   4  -5   4  921.43   43.87
  -4   5  -4  790.77   33.52
  -4   5  -4  788.21   41.18
   4  -5   5 3149.02  141.31
   4  -5   5 3180.59  161.30
  -4   5  -5 2760.57  125.89
  -4   5  -5 2730.25  148.76
   4  -5   6  610.91   46.96
   4  -5   6  596.03   26.02
  -4   5  -6  657.24   30.40
  -4   5  -6  666.92   40.53
   4  -5   7  106.40   13.33
   4  -5   7  104.06    7.10
  -4   5  -7   61.65   14.17
  -4   5  -7   62.48    6.09
   4  -5   8  494.67   37.33
   4  -5   8  491.10   23.13
  -4   5  -8  474.91   21.59
  -4   5  -8  481.07   39.43
   4  -5   9  492.61   39.25
   4  -5   9  482.55   23.19
  -4   5  -9  443.51   41.91
  -4   5  -9  438.97   21.37
   4  -5  10   94.37   21.85
   4  -5  10   81.69    9.05
  -4   5 -10  140.44    9.70
  -4   5 -10  129.21   23.44
   4  -5  11   61.44   21.08
   4  -5  11   67.26   12.10
  -4   5 -11   82.58   12.36
  -4   5 -11   70.61   22.86
   4  -5  12  119.86   11.59
   4  -5  12  145.93   28.57
  -4   5 -12  135.17   11.12
  -4   5 -12  141.86   31.21
   4  -5  13  461.46   55.54
   4  -5  13  448.87   26.50
  -4   5 -13  419.28   24.96
  -4   5 -13  430.51   57.75
   4  -5  14   47.71   22.38
   4  -5  14   30.68   10.35
  -4   5 -14   34.40    9.82
  -4   5 -14   39.22   23.70
   4  -5  15   80.13   44.24
  -4   5 -15   40.05   29.59
   4  -4 -14   88.69   24.57
   4  -4 -14   62.09   31.26
  -4   4  14  107.09   23.52
  -4   4  14   88.13   19.62
   4  -4 -13    8.41    8.87
   4  -4 -13   12.18   11.26
  -4   4  13   -4.01   10.21
  -4   4  13   24.31   13.88
   4  -4 -12   64.99   15.84
   4  -4 -12   83.34   31.05
  -4   4  12   71.96   18.40
  -4   4  12   61.56   15.32
   4  -4 -11   28.95    9.51
   4  -4 -11   27.65   12.39
  -4   4  11    4.86   11.75
  -4   4  11   16.41    9.17
   4  -4 -10  191.50   19.86
   4  -4 -10  183.96   26.27
  -4   4  10  219.96   38.05
  -4   4  10  217.08   20.54
   4  -4  -9  181.81   22.50
   4  -4  -9  171.23   16.22
  -4   4   9  124.26   19.78
  -4   4   9  151.34   23.27
   4  -4  -8  254.15   24.97
   4  -4  -8  260.40   24.69
  -4   4   8  212.42   23.08
  -4   4   8  213.62   16.78
   4  -4  -7  279.43   18.09
   4  -4  -7  315.68   26.05
  -4   4   7  352.96   26.61
  -4   4   7  345.82   19.27
   4  -4  -6  414.53   25.39
   4  -4  -6  441.89   29.38
  -4   4   6  386.86   27.75
  -4   4   6  401.16   20.04
   4  -4  -5  235.96   11.11
   4  -4  -5  229.46   18.40
  -4   4   5  198.92   17.60
  -4   4   5  192.08   10.67
   4  -4  -4 1785.92   72.30
   4  -4  -4 1846.30   93.44
  -4   4   4 1882.78   75.63
  -4   4   4 1894.97   93.94
   4  -4  -3  948.30   47.01
  -4   4   3 1047.29   58.01
  -4   4   3  985.32   35.48
   4  -4  -2  341.27   17.87
  -4   4   2  282.92   10.49
  -4   4   2  282.23   16.71
   4  -4  -1  233.28    9.37
  -4   4   1  255.27   14.24
  -4   4   1  265.48   10.03
   4  -4   0  116.53    6.34
   4  -4   0  128.01    8.53
  -4   4   0  126.09    6.61
  -4   4   0  136.22   12.27
   4  -4   1 2048.07   95.99
   4  -4   1 1951.05   85.19
  -4   4  -1 2290.52   96.89
  -4   4  -1 2302.54   98.56
   4  -4   2  484.97   28.11
   4  -4   2  495.93   22.18
  -4   4  -2  441.21   17.98
  -4   4  -2  449.92   18.62
   4  -4   3  533.65   27.00
   4  -4   3  529.43   21.08
  -4   4  -3  576.10   21.41
  -4   4  -3  558.94   28.58
   4  -4   4 2889.51  123.92
   4  -4   4 2802.00  143.14
  -4   4  -4 2986.84  128.60
  -4   4  -4 2904.19  159.98
   4  -4   5  122.90    8.59
   4  -4   5  139.42   13.04
  -4   4  -5  116.18    5.70
  -4   4  -5  113.60   13.30
   4  -4   6  274.15   30.56
   4  -4   6  260.12   10.62
  -4   4  -6  255.57   21.77
  -4   4  -6  230.95   11.94
   4  -4   7  725.24   30.86
   4  -4   7  737.20   45.00
  -4   4  -7  506.58   41.03
   4  -4   8  901.30   57.85
   4  -4   8  854.19   34.66
  -4   4  -8  890.78   39.17
  -4   4  -8  900.79   78.63
   4  -4   9  155.78   11.37
   4  -4   9  144.75   20.32
  -4   4  -9   69.83    9.41
  -4   4  -9   79.00   20.07
   4  -4  10  202.74   27.38
   4  -4  10  189.43   10.97
  -4   4 -10  153.29   10.00
  -4   4 -10  147.70   28.61
   4  -4  11   32.36   15.03
   4  -4  11   31.17    5.01
  -4   4 -11   20.95    7.18
  -4   4 -11   16.35   16.29
   4  -4  12  163.78   12.49
   4  -4  12  199.17   33.76
  -4   4 -12  211.83   36.29
  -4   4 -12  216.18   17.50
   4  -4  13  139.61   11.32
   4  -4  13  149.52   32.85
  -4   4 -13  152.96   33.57
  -4   4 -13  121.44   10.81
   4  -4  14  149.09   37.89
  -4   4 -14  156.09   39.60
   4  -4  15   59.38   26.97
  -4   4 -15   25.38   28.58
   4  -3 -15   -0.92   16.45
   4  -3 -15   47.36   18.36
  -4   3  15   53.56   16.79
  -4   3  15   29.18   15.32
   4  -3 -14    4.60   10.98
   4  -3 -14    6.91   12.98
  -4   3  14   23.19   17.94
  -4   3  14   13.90   10.19
   4  -3 -13  111.60   23.78
   4  -3 -13   92.82   21.18
  -4   3  13  111.28   22.24
  -4   3  13   90.67   31.13
   4  -3 -12  206.06   25.87
   4  -3 -12  239.38   29.28
  -4   3  12  201.65   25.95
  -4   3  12  201.37   41.25
   4  -3 -11  156.82   20.06
   4  -3 -11  133.55   23.38
  -4   3  11  155.19   22.34
  -4   3  11  145.41   19.46
   4  -3 -10  111.73   16.70
   4  -3 -10  117.50   19.82
  -4   3  10  120.01   18.93
  -4   3  10  134.95   23.67
   4  -3  -9  225.26   24.46
   4  -3  -9  224.32   19.91
  -4   3   9  251.21   24.71
  -4   3   9  257.73   20.43
   4  -3  -8  137.05   17.85
   4  -3  -8  135.08   13.44
  -4   3   8  160.23   17.24
  -4   3   8  136.78   13.63
   4  -3  -7  806.43   40.89
   4  -3  -7  825.19   49.14
  -4   3   7  916.79   50.20
  -4   3   7  932.84   52.09
   4  -3  -6 1309.52   60.36
   4  -3  -6 1338.69   71.18
  -4   3   6 1378.16   62.30
  -4   3   6 1412.16   72.26
   4  -3  -5 2418.85  109.54
   4  -3  -5 2537.14  128.25
  -4   3   5 2532.72  120.82
  -4   3   5 2594.97  129.09
   4  -3  -4   77.18    7.59
   4  -3  -4   82.21    8.43
  -4   3   4   52.41    5.23
  -4   3   4   51.85    8.03
   4  -3  -3   14.21    2.52
   4  -3  -3   15.70    6.85
  -4   3   3   13.58    2.61
  -4   3   3   15.35    4.38
   4  -3  -2 2200.35   86.94
   4  -3  -2 2223.44   97.14
  -4   3   2 1984.43   89.76
  -4   3   2 1960.96   81.02
   4  -3  -1 1970.25   84.92
   4  -3  -1 1932.40   82.70
  -4   3   1 1987.91   81.19
  -4   3   1 2006.04   90.49
   4  -3   0  278.61   12.80
   4  -3   0  264.98   11.95
   4  -3   1 1717.48   78.24
   4  -3   1 1713.09   76.72
  -4   3  -1 1862.47   73.57
  -4   3  -1 1920.68   77.73
   4  -3   2 1459.79   66.18
   4  -3   2 1461.83   64.65
  -4   3  -2 1235.66   45.07
  -4   3  -2 1477.56   52.91
   4  -3   3 1541.56   73.49
   4  -3   3 1587.71   77.28
  -4   3  -3 1505.45   52.39
   4  -3   4  232.72   17.69
   4  -3   4  226.98    7.51
  -4   3  -4  243.18    7.35
  -4   3  -4  253.83   18.37
   4  -3   5  809.72   25.45
   4  -3   5  789.56   44.02
  -4   3  -5  789.41   46.08
  -4   3  -5  765.91   23.47
   4  -3   6  312.28   24.87
   4  -3   6  296.90   11.66
  -4   3  -6  331.99   10.21
  -4   3  -6  358.72   37.39
   4  -3   7   90.92   15.54
   4  -3   7   85.31    4.43
  -4   3  -7  111.27    6.18
  -4   3  -7  126.39   16.40
   4  -3   8  635.49   45.17
   4  -3   8  644.12   25.87
  -4   3  -8  556.91   20.73
  -4   3  -8  550.91   45.94
   4  -3   9  616.63   48.28
   4  -3   9  596.72   27.00
  -4   3  -9  563.15   25.32
  -4   3  -9  538.49   48.29
   4  -3  10  140.76   24.25
   4  -3  10  128.74    8.08
  -4   3 -10  145.00   11.20
  -4   3 -10  144.20   26.35
   4  -3  11  151.91   29.56
   4  -3  11  173.15   10.65
  -4   3 -11  175.79   13.56
  -4   3 -11  162.29   48.52
   4  -3  12  199.87   34.61
   4  -3  12  175.90   11.60
  -4   3 -12  172.73   36.51
  -4   3 -12  175.97   15.41
   4  -3  13  108.28    8.94
   4  -3  13  161.99   32.16
  -4   3 -13  191.80   34.79
   4  -3  14  136.89   37.03
  -4   3 -14  148.95   39.37
   4  -3  15    2.23   14.21
  -4   3 -15    6.29   14.93
   4  -2 -15    1.31   10.82
   4  -2 -15   15.10   10.85
  -4   2  15    7.07   10.04
  -4   2  15   -0.06   10.15
   4  -2 -14   31.80   15.92
   4  -2 -14   48.71   17.25
  -4   2  14   28.16   15.75
  -4   2  14   35.67   15.26
   4  -2 -13  159.01   26.78
   4  -2 -13  129.74   38.01
  -4   2  13  148.05   25.56
  -4   2  13  171.82   24.66
   4  -2 -12   72.32   16.52
   4  -2 -12   42.61   17.99
  -4   2  12   82.60   16.74
  -4   2  12   55.10   24.41
   4  -2 -11  399.60   33.97
   4  -2 -11  448.28   38.77
  -4   2  11  369.04   34.47
  -4   2  11  350.60   32.22
   4  -2 -10  176.06   19.04
   4  -2 -10  194.27   21.29
  -4   2  10  139.46   18.04
  -4   2  10  135.90   19.77
   4  -2  -9    0.07    5.51
   4  -2  -9    1.57    6.70
  -4   2   9   13.93    5.49
  -4   2   9   11.46    6.37
   4  -2  -8  911.83   48.66
   4  -2  -8  924.17   53.02
  -4   2   8  892.10   51.81
  -4   2   8  817.11   45.82
   4  -2  -7  294.08   19.02
   4  -2  -7  308.15   31.54
  -4   2   7  329.44   22.68
  -4   2   7  302.75   19.39
   4  -2  -6 1017.35   51.68
   4  -2  -6  971.50   44.88
  -4   2   6  959.37   48.73
  -4   2   6  947.86   45.32
   4  -2  -5  943.31   46.98
   4  -2  -5  923.30   41.69
  -4   2   5 1059.35   49.19
  -4   2   5 1084.18   46.63
   4  -2  -4  624.68   29.77
   4  -2  -4  621.38   31.24
  -4   2   4  621.70   27.00
  -4   2   4  598.48   35.32
   4  -2  -3 2712.69  124.83
   4  -2  -3 2867.86  126.16
  -4   2   3 2777.35  123.61
  -4   2   3 2834.39  129.46
   4  -2  -2  573.12   26.12
   4  -2  -2  555.55   22.73
  -4   2   2  489.05   20.88
  -4   2   2  463.81   20.30
   4  -2  -1 2040.81   85.30
   4  -2  -1 1992.30   79.77
  -4   2   1 1839.32   84.12
  -4   2   1 1840.03   74.97
   4  -2   0 1555.18   62.86
   4  -2   0 1541.79   54.18
  -4   2   0 1132.07   50.80
  -4   2   0 1078.87   40.97
   4  -2   1  219.34   13.45
   4  -2   1  208.84    7.35
   4  -2   2 2112.12   99.51
   4  -2   2 2125.26   99.05
  -4   2  -2 1809.40   62.88
   4  -2   3  583.89   30.70
   4  -2   3  610.26   32.83
  -4   2  -3  518.33   11.24
  -4   2  -3  538.52   12.13
   4  -2   4  437.04   28.91
   4  -2   4  456.04   27.87
   4  -2   5 1911.73  106.51
   4  -2   5 1910.79  103.37
   4  -2   6  143.68    3.38
   4  -2   6  167.26   17.72
  -4   2  -6  170.75   19.05
  -4   2  -6  166.19    3.69
   4  -2   7  188.47   20.30
   4  -2   7  164.19    6.07
  -4   2  -7  145.70    5.85
  -4   2  -7  164.98   21.52
   4  -2   8  742.67   24.84
   4  -2   8  805.25   73.46
  -4   2  -8  690.22   25.70
  -4   2  -8  691.55   55.09
   4  -2   9  155.31   24.74
   4  -2   9  150.33    7.08
  -4   2  -9  195.02   27.39
  -4   2  -9  182.91    7.52
   4  -2  10   60.23    4.74
   4  -2  10   55.41   19.26
  -4   2 -10   79.06   21.00
  -4   2 -10   71.33    4.83
   4  -2  11    8.74   12.00
   4  -2  11   12.10    2.68
  -4   2 -11    5.88   13.13
  -4   2 -11    8.67    2.66
   4  -2  12  162.45   32.16
   4  -2  12  173.49    9.75
  -4   2 -12  148.69   35.24
  -4   2 -12  129.01   12.16
   4  -2  13    1.37   27.05
   4  -2  13  121.63   26.01
   4  -2  14   -1.58   21.87
   4  -2  14   42.77   20.06
   4  -1 -16    0.86   30.26
   4  -1 -16   37.98   17.82
  -4   1  16   29.87   16.72
  -4   1  16   30.23   17.97
   4  -1 -15   -3.92   26.07
   4  -1 -15  129.43   25.66
  -4   1  15  120.69   23.83
  -4   1  15  116.60   24.66
   4  -1 -14   81.88   21.20
   4  -1 -14   92.15   21.08
  -4   1  14   50.17   19.14
  -4   1  14   56.65   19.57
   4  -1 -13   17.71   12.41
   4  -1 -13   11.12   19.58
  -4   1  13   22.97   18.17
  -4   1  13   16.16   11.59
   4  -1 -12  259.74   31.16
   4  -1 -12  296.22   32.83
  -4   1  12  280.22   30.48
  -4   1  12  264.72   30.60
   4  -1 -11   12.24   11.38
   4  -1 -11   27.19   10.56
  -4   1  11   24.47   11.10
  -4   1  11   39.49   10.91
   4  -1 -10    8.05    8.31
   4  -1 -10   16.61    7.26
  -4   1  10   11.80    7.77
  -4   1  10    8.95    7.54
   4  -1  -9  588.76   38.71
   4  -1  -9  592.13   36.81
  -4   1   9  517.43   35.06
  -4   1   9  517.33   36.28
   4  -1  -8  175.89   17.78
   4  -1  -8  175.00   15.95
  -4   1   8  188.08   25.62
  -4   1   8  184.34   16.61
   4  -1  -7 1093.85   57.14
   4  -1  -7 1062.82   53.95
  -4   1   7 1061.14   55.12
  -4   1   7 1033.23   53.04
   4  -1  -6  110.92   10.18
   4  -1  -6  116.27   16.60
  -4   1   6  101.73   10.33
  -4   1   6  114.70   11.11
   4  -1  -5  296.05   18.15
   4  -1  -5  304.44   17.24
  -4   1   5  338.32   18.63
  -4   1   5  328.93   23.50
   4  -1  -4  715.99   33.34
   4  -1  -4  722.17   32.67
  -4   1   4  775.38   34.16
  -4   1   4  721.11   32.64
   4  -1  -3    6.97    3.14
   4  -1  -3   10.52    3.19
  -4   1   3   11.60    3.24
  -4   1   3   10.97    4.81
   4  -1  -2  524.34   23.08
   4  -1  -2  502.09   20.54
  -4   1   2  509.25   22.88
  -4   1   2  514.26   20.42
   4  -1  -1 4314.20  196.29
   4  -1  -1 4263.42  211.16
  -4   1   1 4369.55  215.79
  -4   1   1 4602.44  205.95
   4  -1   0 1365.00   48.68
   4  -1   0 1447.78   64.61
  -4   1   0 1394.36   48.90
  -4   1   0 1418.35   70.64
   4  -1   1 2101.92   99.99
   4  -1   1 2063.07   74.02
  -4   1  -1 1969.14   94.38
   4  -1   2 1104.14   55.29
   4  -1   2 1108.89   29.65
  -4   1  -2  876.17   46.80
   4  -1   3  477.00   29.80
   4  -1   3  462.69   27.75
   4  -1   4 1594.81   87.95
   4  -1   4 1625.39   86.31
   4  -1   5  152.30   16.92
   4  -1   5  145.44   17.93
   4  -1   6   51.24   13.02
   4  -1   6   56.25   12.22
   4  -1   7  931.72   64.37
   4  -1   7  896.03   26.05
   4  -1   7  905.20   59.85
   4  -1   7  903.31   26.38
   4  -1   8   82.10   18.39
   4  -1   8   85.92    4.74
   4  -1   8   78.81   19.03
   4  -1   8   82.36    5.09
   4  -1   9  240.07   32.38
   4  -1   9  226.38    9.17
   4  -1   9  221.12    8.66
   4  -1   9  248.50   29.29
   4  -1  10   34.08    3.16
   4  -1  10   25.66   17.45
   4  -1  10   32.79    3.50
   4  -1  10   21.82   24.22
   4  -1  11   45.09   20.42
   4  -1  11   40.29    4.28
   4  -1  11   36.03   19.11
   4  -1  11   46.70    5.90
   4  -1  12    0.41    9.68
   4  -1  12    2.43    8.59
   4  -1  13   37.84   17.86
   4  -1  13   -0.61   20.30
   4  -1  14   -1.97   24.93
   4  -1  14   61.67   23.01
   4   0 -16   17.27   14.18
   4   0 -16    0.86   14.77
  -4   0  16   14.95   20.42
  -4   0  16   16.67   14.52
   4   0 -15    3.58   26.08
   4   0 -15   99.09   23.87
  -4   0  15  103.72   21.70
  -4   0  15  104.43   24.69
   4   0 -14   14.38   13.35
   4   0 -14    3.80   20.45
  -4   0  14   21.12   12.21
  -4   0  14   18.17   13.00
   4   0 -13  425.05   42.67
   4   0 -13  406.26   42.97
  -4   0  13  400.92   39.12
  -4   0  13  372.78   40.90
   4   0 -12   74.96   26.24
   4   0 -12   80.31   16.87
  -4   0  12   48.86   15.73
  -4   0  12   43.19   16.15
   4   0 -11  234.31   26.27
   4   0 -11  218.53   25.05
  -4   0  11  219.26   24.77
  -4   0  11  218.83   25.17
   4   0 -10  270.64   27.87
   4   0 -10  258.48   27.18
  -4   0  10  391.42   29.41
  -4   0  10  382.64   40.84
   4   0  -9   58.77   11.86
   4   0  -9   54.47   11.62
  -4   0   9   59.53   11.60
  -4   0   9   55.76   11.16
   4   0  -8  250.96   19.87
   4   0  -8  260.29   19.79
  -4   0   8  199.39   18.78
  -4   0   8  160.03   17.79
   4   0  -7  484.87   29.13
   4   0  -7  484.75   36.47
  -4   0   7  496.00   29.68
  -4   0   7  471.04   28.90
   4   0  -6 1145.25   54.71
   4   0  -6 1125.63   54.40
  -4   0   6 1020.09   51.27
  -4   0   6  991.28   50.81
   4   0  -5 2426.99  113.28
   4   0  -5 2517.36  119.26
  -4   0   5 2204.12  109.04
  -4   0   5 2301.23  109.90
   4   0  -4 1805.58   81.00
   4   0  -4 1948.81   89.34
  -4   0   4 1864.39   86.89
  -4   0   4 1854.78   83.37
   4   0  -3 1410.87   59.84
   4   0  -3 1517.83   67.08
  -4   0   3 1452.36   60.96
  -4   0   3 1435.31   72.03
   4   0  -2 1806.55   72.51
   4   0  -2 1850.55   81.72
  -4   0   2 1643.59   67.68
  -4   0   2 1632.11   75.22
   4   0  -1   94.02    7.35
  -4   0   1   41.78    6.50
  -4   0   1   50.89    3.96
   4   0   0 1084.49   37.28
   4   0   0 1147.65   53.33
  -4   0   0 1077.20   37.66
  -4   0   0 1120.06   52.27
   4   0   1  217.36   21.57
   4   0   1  193.57    5.95
  -4   0  -1  141.17   14.13
   4   0   2  313.18   23.70
  -4   0  -2  388.62   10.77
  -4   0  -2  375.56   23.87
   4   0   3 1918.08  105.33
   4   0   3 1996.68  105.24
   4   0   4  304.86   25.58
   4   0   4  321.41   24.09
   4   0   5  200.46   20.27
   4   0   5  184.89   21.45
   4   0   6   84.76   15.22
   4   0   6   85.97   16.26
   4   0   6   81.85    2.39
   4   0   6   78.22    2.03
   4   0   7   55.56    2.29
   4   0   7   52.31   14.35
   4   0   7   62.32   16.26
   4   0   7   57.93    2.47
   4   0   8  494.78   45.30
   4   0   8  493.19   41.63
   4   0   8  438.07   16.10
   4   0   8  433.03   16.61
   4   0   9  251.58   36.19
   4   0   9  284.26   51.52
   4   0   9  267.65   10.11
   4   0   9  256.95   10.21
   4   0  10  158.12   31.61
   4   0  10  159.64    9.94
   4   0  10  154.86   27.97
   4   0  10  155.50   10.13
   4   0  11  204.72   32.35
   4   0  11  175.13   34.88
   4   0  11  163.40    8.56
   4   0  11  166.50   11.36
   4   0  12   45.55   18.19
   4   0  12    0.03   19.97
   4   0  13   82.43   24.07
   4   0  13    2.05   26.79
   4   1 -16    1.02   17.43
   4   1 -16   16.29   24.03
  -4  -1  16   28.90   14.17
  -4  -1  16    9.44   25.74
   4   1 -15   29.72   15.66
   4   1 -15   -2.13   16.59
  -4  -1  15   26.21   14.43
  -4  -1  15   28.85   16.07
   4   1 -14  157.39   39.07
   4   1 -14  108.60   26.62
  -4  -1  14  131.66   26.30
  -4  -1  14  102.29   36.89
   4   1 -13  207.22   29.43
   4   1 -13  207.35   30.83
  -4  -1  13  213.06   30.15
  -4  -1  13  190.09   27.62
   4   1 -12  134.65   22.33
   4   1 -12  138.99   23.24
  -4  -1  12  138.40   21.43
  -4  -1  12  136.82   35.95
   4   1 -11  648.75   46.60
   4   1 -11  645.91   48.58
  -4  -1  11  498.32   40.84
  -4  -1  11  485.49   42.98
   4   1 -10   22.28   10.24
   4   1 -10   29.84   10.58
  -4  -1  10   28.82   15.59
  -4  -1  10   26.77   10.30
   4   1  -9  121.49   17.01
   4   1  -9  135.72   17.14
  -4  -1   9  152.45   16.86
  -4  -1   9  140.47   16.75
   4   1  -8  209.30   17.76
   4   1  -8  237.35   18.61
  -4  -1   8  148.74   16.84
  -4  -1   8  147.96   17.24
   4   1  -7  771.43   41.23
   4   1  -7  813.58   43.79
  -4  -1   7  798.95   42.22
  -4  -1   7  736.71   41.82
   4   1  -6 3051.84  157.79
   4   1  -6 3194.27  166.95
  -4  -1   6 3475.00  183.87
  -4  -1   6 3209.50  180.01
   4   1  -5  526.14   27.23
   4   1  -5  568.19   38.28
  -4  -1   5  573.80   30.79
  -4  -1   5  580.59   28.86
   4   1  -4  511.99   24.87
   4   1  -4  549.55   28.98
  -4  -1   4  594.95   29.97
  -4  -1   4  599.88   27.36
   4   1  -3 2699.95  119.03
   4   1  -3 2753.55  129.45
  -4  -1   3 2396.07  109.98
  -4  -1   3 2371.94  117.05
   4   1  -2 1186.88   54.03
   4   1  -2 1204.16   46.97
  -4  -1   2 1022.65   42.85
  -4  -1   2 1019.22   49.13
   4   1  -1  640.50   23.66
   4   1  -1  647.57   31.44
  -4  -1   1  537.95   21.92
  -4  -1   1  564.99   29.45
   4   1   0  741.39   26.18
   4   1   0  784.19   39.00
  -4  -1   0  681.60   25.56
  -4  -1   0  727.09   37.74
   4   1   1 3476.06  185.03
   4   1   1 3367.26  139.16
  -4  -1  -1 3519.96  184.37
   4   1   2  895.31   49.74
   4   1   2  834.57   29.25
  -4  -1  -2 1001.24   61.92
   4   1   3  348.09   11.77
   4   1   3  357.55   27.22
   4   1   3  382.23   27.74
   4   1   3  359.80   12.33
   4   1   4  194.52    7.20
   4   1   4  222.50   20.24
   4   1   4  191.98    5.87
   4   1   4  210.32   21.26
   4   1   5  627.11   20.53
   4   1   5  683.34   59.02
   4   1   5  711.94   62.81
   4   1   5  668.70   22.35
   4   1   6   72.97   15.57
   4   1   6   57.70   14.38
   4   1   6   64.05    4.44
   4   1   6   61.89    2.90
   4   1   7  141.26   24.57
   4   1   7  151.89    5.97
   4   1   7  158.59    6.54
   4   1   7  143.81   22.03
   4   1   8  137.04   26.41
   4   1   8  140.24    6.26
   4   1   8  136.81   36.52
   4   1   8  148.28    6.93
   4   1   9  281.11   53.86
   4   1   9  269.45   34.62
   4   1   9  240.83   13.49
   4   1   9  240.88   10.06
   4   1  10   13.58    7.04
   4   1  10    1.46    1.80
   4   1  10   -1.74    2.00
   4   1  10    1.80    6.20
   4   1  11   -2.86    8.87
   4   1  11    0.10   15.85
   4   1  12   -0.70   26.01
   4   1  12   21.30   23.24
   4   1  13   -3.34   16.56
   4   1  13   17.73   14.69
   4   2 -16   29.28   31.35
   4   2 -16   38.41   21.75
  -4  -2  16   36.41   18.48
  -4  -2  16   35.19   21.20
   4   2 -15   86.54   24.19
   4   2 -15   71.43   26.32
  -4  -2  15   86.54   22.64
  -4  -2  15   77.06   25.70
   4   2 -14  117.77   23.87
   4   2 -14  108.08   26.20
  -4  -2  14   83.88   25.34
  -4  -2  14   86.00   22.22
   4   2 -13   22.84   14.27
   4   2 -13   19.26   15.37
  -4  -2  13   37.54   13.89
  -4  -2  13   35.59   15.29
   4   2 -12  760.12   59.22
   4   2 -12  777.60   61.75
  -4  -2  12  793.29   57.99
  -4  -2  12  767.11   61.54
   4   2 -11   50.57   14.30
   4   2 -11   57.70   15.56
  -4  -2  11   52.57   13.63
  -4  -2  11   47.42   14.87
   4   2 -10  356.33   41.09
   4   2 -10  295.21   26.98
  -4  -2  10  257.54   27.80
  -4  -2  10  284.60   27.11
   4   2  -9  625.84   41.00
   4   2  -9  629.76   42.60
  -4  -2   9  647.74   41.00
  -4  -2   9  585.46   41.70
   4   2  -8  232.67   20.93
   4   2  -8  229.90   21.56
  -4  -2   8  270.56   21.40
  -4  -2   8  252.95   31.49
   4   2  -7  108.44   12.72
   4   2  -7  101.29   13.73
  -4  -2   7  146.58   13.99
  -4  -2   7  132.28   14.44
   4   2  -6  239.17   17.76
   4   2  -6  284.58   28.31
  -4  -2   6  280.96   19.01
  -4  -2   6  273.60   20.08
   4   2  -5 1539.92   72.38
   4   2  -5 1635.59   80.25
  -4  -2   5 1528.50   73.72
  -4  -2   5 1424.14   74.12
   4   2  -4 1397.70   65.82
   4   2  -4 1439.41   72.37
  -4  -2   4 1612.07   78.48
  -4  -2   4 1677.20   75.29
   4   2  -3    2.17    3.24
   4   2  -3    2.88    6.87
  -4  -2   3   10.36    3.49
  -4  -2   3   16.31    4.58
   4   2  -2  297.02   14.79
   4   2  -2  322.99   19.94
  -4  -2   2  325.03   15.93
  -4  -2   2  331.39   20.83
   4   2  -1  901.43   36.89
   4   2  -1  909.01   47.02
  -4  -2   1  995.14   49.43
  -4  -2   1 1023.17   46.04
   4   2   0  273.78   12.50
   4   2   0  270.66   20.26
  -4  -2   0  297.98   13.16
  -4  -2   0  322.43   21.05
   4   2   1  530.11   19.32
   4   2   1  537.05   31.63
  -4  -2  -1  404.09   17.22
  -4  -2  -1  404.52   27.59
   4   2   2    1.13    5.15
   4   2   2    5.26    1.69
   4   2   3  197.93   20.19
   4   2   3  226.06   20.27
   4   2   3  196.06   10.69
   4   2   3  198.78   10.88
   4   2   4    4.94    1.58
   4   2   4    0.96    6.08
   4   2   4    2.42    1.51
   4   2   4   -0.54    5.50
   4   2   5  481.26   17.75
   4   2   5  482.75   18.35
   4   2   5  502.11   56.04
   4   2   5  512.88   39.28
   4   2   6   90.48    5.09
   4   2   6   80.14    5.23
   4   2   6  104.19   19.25
   4   2   6  101.85   17.55
   4   2   7   80.77    5.20
   4   2   7   88.70   18.68
   4   2   7   77.11    5.62
   4   2   7  115.69   20.12
   4   2   8   70.17   31.62
   4   2   8   66.07    6.88
   4   2   8   66.65    5.39
   4   2   8   53.94   18.23
   4   2   9   41.37   19.28
   4   2   9   66.39   17.96
   4   2   9   43.82    4.33
   4   2   9   45.62    4.84
   4   2  10    9.39   12.04
   4   2  10    5.33    3.45
   4   2  10    9.05   10.87
   4   2  10    7.07    2.49
   4   2  11   -0.41    9.65
   4   2  11   -2.73    8.67
   4   2  12  146.40   39.06
   4   2  12  160.98   35.24
   4   3 -17  171.59   37.46
   4   3 -17  121.10   41.61
  -4  -3  17  189.85   35.07
  -4  -3  17  137.44   41.12
   4   3 -16  196.55   37.22
   4   3 -16  190.96   40.13
  -4  -3  16  168.85   32.39
  -4  -3  16  132.25   38.26
   4   3 -15   73.18   26.37
   4   3 -15   68.34   24.10
  -4  -3  15   82.45   22.77
  -4  -3  15   77.09   26.24
   4   3 -14   57.92   21.85
   4   3 -14   60.48   20.48
  -4  -3  14   44.38   19.39
  -4  -3  14   65.75   21.16
   4   3 -13   86.31   22.42
   4   3 -13   77.41   38.13
  -4  -3  13  132.36   23.98
  -4  -3  13  108.80   22.50
   4   3 -12  220.35   28.03
   4   3 -12  213.18   30.43
  -4  -3  12  220.40   28.14
  -4  -3  12  202.76   30.12
   4   3 -11  201.45   26.11
   4   3 -11  189.84   35.68
  -4  -3  11  165.53   24.00
  -4  -3  11  153.61   24.95
   4   3 -10  755.72   53.57
   4   3 -10  715.77   49.12
  -4  -3  10  723.18   50.12
  -4  -3  10  678.32   51.49
   4   3  -9  300.86   26.62
   4   3  -9  292.45   28.11
  -4  -3   9  377.85   28.78
  -4  -3   9  353.63   41.60
   4   3  -8  923.30   65.47
   4   3  -8  973.40   57.90
  -4  -3   8  989.49   56.84
  -4  -3   8  889.34   55.95
   4   3  -7  353.21   23.81
   4   3  -7  382.20   26.95
  -4  -3   7  295.75   33.07
  -4  -3   7  256.77   24.48
   4   3  -6  125.74   14.01
   4   3  -6  136.18   15.43
  -4  -3   6  168.13   16.35
  -4  -3   6  179.72   15.04
   4   3  -5 2530.05  126.40
   4   3  -5 2613.68  136.52
  -4  -3   5 2548.92  136.01
  -4  -3   5 2550.05  129.65
   4   3  -4  543.02   34.42
   4   3  -4  623.25   33.18
  -4  -3   4  447.93   29.34
  -4  -3   4  468.67   33.80
   4   3  -3   53.04   14.73
   4   3  -3   45.54    7.52
  -4  -3   3  103.60   12.46
  -4  -3   3   91.18   10.18
   4   3  -2 1348.68   67.29
   4   3  -2 1286.22   57.09
  -4  -3   2 1273.82   65.99
  -4  -3   2 1229.55   57.05
   4   3  -1  366.32   18.92
   4   3  -1  392.19   26.11
  -4  -3   1  510.89   28.80
  -4  -3   1  509.26   22.55
   4   3   0  695.68   30.69
   4   3   0  746.28   42.73
  -4  -3   0  746.80   33.12
  -4  -3   0  736.94   43.02
   4   3   1  362.70   26.70
   4   3   1  341.04   16.23
  -4  -3  -1  401.53   22.32
  -4  -3  -1  420.80   27.81
   4   3   2 1611.11   72.47
   4   3   2 1625.49   91.25
  -4  -3  -2 1523.65   87.92
  -4  -3  -2 1513.41   66.53
   4   3   3 1074.75   66.48
   4   3   3 1056.68   49.52
   4   3   3 1151.45   70.45
   4   3   3 1084.85   45.65
   4   3   4  258.24   28.15
   4   3   4  258.56   16.80
   4   3   4  278.82   27.10
   4   3   4  270.82   13.30
   4   3   5  374.17   34.54
   4   3   5  358.66   16.93
   4   3   5  380.88   35.95
   4   3   5  379.49   20.98
   4   3   6  691.87   29.04
   4   3   6  682.06   54.19
   4   3   6  685.51   30.01
   4   3   6  699.35   58.04
   4   3   7  461.59   42.75
   4   3   7  427.11   19.38
   4   3   7  445.21   25.32
   4   3   7  478.04   46.96
   4   3   8   76.20    6.49
   4   3   8  108.76   22.48
   4   3   8   81.80   20.70
   4   3   8   82.33    6.99
   4   3   9   26.49    4.60
   4   3   9   26.21    6.24
   4   3   9   47.76   17.52
   4   3   9   50.92   15.95
   4   3  10   -2.76   21.36
   4   3  10   74.14   19.10
   4   3  11   28.57   13.92
   4   3  11  -10.89   15.08
   4   4 -17  124.32   30.48
   4   4 -17  128.41   35.44
  -4  -4  17    2.55   28.46
  -4  -4  17  132.31   34.93
   4   4 -16   16.99   15.59
   4   4 -16   41.56   19.30
  -4  -4  16    0.06   15.44
  -4  -4  16   17.68   18.26
   4   4 -15  105.95   24.51
   4   4 -15  105.87   42.97
  -4  -4  15   -0.34   23.70
  -4  -4  15  117.71   27.36
   4   4 -14  142.61   31.25
   4   4 -14  171.99   28.75
  -4  -4  14  112.76   27.57
  -4  -4  14  137.82   45.55
   4   4 -13   90.05   23.81
   4   4 -13  104.76   25.74
  -4  -4  13  126.83   23.17
  -4  -4  13  103.29   25.50
   4   4 -12   20.26   13.11
   4   4 -12   27.83   14.45
  -4  -4  12   28.59   13.15
  -4  -4  12   28.19   14.39
   4   4 -11 1037.64   73.87
   4   4 -11  938.28   65.73
  -4  -4  11  962.49   68.13
  -4  -4  11  919.07   69.16
   4   4 -10   97.35   18.97
   4   4 -10   89.41   17.06
  -4  -4  10  101.84   18.21
  -4  -4  10  115.60   28.27
   4   4  -9  572.81   40.80
   4   4  -9  572.77   43.53
  -4  -4   9  615.64   43.10
  -4  -4   9  563.84   43.66
   4   4  -8  632.22   42.60
   4   4  -8  694.38   47.04
  -4  -4   8  735.97   46.10
  -4  -4   8  714.59   47.85
   4   4  -7  620.88   38.70
   4   4  -7  658.40   43.50
  -4  -4   7  628.87   42.54
  -4  -4   7  658.85   42.09
   4   4  -6  516.55   31.25
   4   4  -6  551.19   35.92
  -4  -4   6  518.09   46.90
  -4  -4   6  503.49   32.48
   4   4  -5   98.05   10.80
   4   4  -5  118.22   18.95
  -4  -4   5   61.09   12.22
  -4  -4   5   63.73   10.88
   4   4  -4  341.76   20.60
   4   4  -4  354.96   23.30
  -4  -4   4  261.11   19.94
  -4  -4   4  285.61   22.91
   4   4  -3  652.20   34.73
   4   4  -3  657.20   39.43
  -4  -4   3  787.56   39.34
  -4  -4   3  808.14   56.01
   4   4  -2  159.87   15.45
   4   4  -2  141.14   17.30
  -4  -4   2  152.24   15.99
  -4  -4   2  145.30   12.06
   4   4  -1   19.53    6.15
   4   4  -1   21.20    4.60
  -4  -4   1   15.70    6.46
  -4  -4   1    3.42    4.64
   4   4   0  436.14   22.49
   4   4   0  475.54   30.84
  -4  -4   0  442.77   23.44
  -4  -4   0  423.21   30.44
   4   4   1  271.71   16.19
   4   4   1  290.22   24.79
  -4  -4  -1  351.22   23.43
  -4  -4  -1  341.33   26.41
   4   4   2  171.20   11.03
   4   4   2  177.76   18.96
  -4  -4  -2  109.50   27.36
  -4  -4  -2  114.12   10.70
   4   4   3  518.00   25.84
   4   4   3  541.72   41.24
   4   4   3  561.73   42.52
   4   4   3  540.39   26.51
   4   4   4  602.83   35.18
   4   4   4  597.84   46.22
   4   4   4  594.16   45.43
   4   4   4  556.71   27.24
   4   4   5   21.41   10.76
   4   4   5   15.80    4.52
   4   4   5   19.29   10.62
   4   4   5   15.83    6.68
   4   4   6   39.22    5.76
   4   4   6   50.77   15.66
   4   4   6   42.21    9.22
   4   4   6   39.19   14.94
   4   4   7    4.83    8.94
   4   4   7   -0.15    9.53
   4   4   7   -0.00    3.13
   4   4   7   12.75    3.30
   4   4   8   44.25    6.29
   4   4   8   43.26   18.63
   4   4   8   36.52    8.76
   4   4   8   53.08   16.91
   4   4   9  -10.59    7.74
   4   4   9    9.65    8.67
   4   4  10  124.85   29.00
   4   4  10  152.74   33.36
   4   5 -17  195.81   59.67
   4   5 -17  162.58   45.86
  -4  -5  17  167.04   38.35
  -4  -5  17  195.55   47.50
   4   5 -16  114.22   29.93
   4   5 -16  113.03   36.40
  -4  -5  16  116.83   30.58
  -4  -5  16  144.45   38.19
   4   5 -15  307.71   42.90
   4   5 -15  240.23   45.19
  -4  -5  15  245.35   39.05
  -4  -5  15  235.56   46.48
   4   5 -14   29.15   23.72
   4   5 -14   36.24   17.04
  -4  -5  14   -0.42   14.44
  -4  -5  14   27.23   16.59
   4   5 -13  685.81   62.75
   4   5 -13  693.62   90.41
  -4  -5  13  641.31   58.24
  -4  -5  13  603.08   62.53
   4   5 -12    2.37   11.61
   4   5 -12   -3.03   10.71
  -4  -5  12   26.40   10.98
  -4  -5  12   21.22   11.83
   4   5 -11   71.05   17.95
   4   5 -11   75.19   25.08
  -4  -5  11   40.47   16.48
  -4  -5  11   43.88   17.39
   4   5 -10  390.70   38.75
   4   5 -10  354.22   35.34
  -4  -5  10  455.57   38.14
  -4  -5  10  413.53   38.48
   4   5  -9  282.16   27.53
   4   5  -9  286.33   29.39
  -4  -5   9  279.51   30.60
  -4  -5   9  316.92   29.86
   4   5  -8   55.47   13.74
   4   5  -8   47.03   15.03
  -4  -5   8  112.36   15.56
  -4  -5   8  101.21   16.22
   4   5  -7  988.09   57.71
   4   5  -7 1080.21   65.12
  -4  -5   7  945.91   59.06
  -4  -5   7  939.02   62.79
   4   5  -6  426.75   29.42
   4   5  -6  467.80   32.90
  -4  -5   6  420.82   32.77
  -4  -5   6  416.58   30.73
   4   5  -5  846.19   46.78
   4   5  -5  888.79   51.78
  -4  -5   5  710.33   46.48
  -4  -5   5  759.51   46.40
   4   5  -4  167.27   15.24
   4   5  -4  161.78   17.14
  -4  -5   4  146.45   15.92
  -4  -5   4  149.87   17.67
   4   5  -3 1228.34   65.50
   4   5  -3 1198.44   59.98
  -4  -5   3  964.13   54.43
  -4  -5   3  997.14   61.11
   4   5  -2  164.18   17.31
   4   5  -2  150.13   14.46
  -4  -5   2  209.33   18.89
  -4  -5   2  195.45   15.39
   4   5  -1  197.87   19.64
   4   5  -1  206.53   16.06
  -4  -5   1  241.92   21.65
  -4  -5   1  249.42   17.65
   4   5   0  224.59   14.86
   4   5   0  210.50   19.62
  -4  -5   0  149.11   19.02
  -4  -5   0  122.53   13.44
   4   5   1  890.74   54.65
   4   5   1  916.94   57.83
  -4  -5  -1  966.63   49.84
  -4  -5  -1 1006.26   62.80
   4   5   2  374.53   23.00
   4   5   2  383.41   33.97
  -4  -5  -2  451.01   34.72
  -4  -5  -2  456.23   26.28
   4   5   3  698.19   37.08
   4   5   3  739.31   54.87
   4   5   3  723.33   68.58
   4   5   3  715.91   37.11
   4   5   4  162.15   13.25
   4   5   4  166.55   13.32
   4   5   4  187.13   24.39
   4   5   4  187.12   24.21
   4   5   5  605.79   49.55
   4   5   5  543.51   48.96
   4   5   5  560.95   31.34
   4   5   5  525.63   28.89
   4   5   6  156.26   24.18
   4   5   6  130.84   25.31
   4   5   6  144.79   12.45
   4   5   6  132.07   11.88
   4   5   7   -0.26    2.20
   4   5   7   -2.28    3.75
   4   5   7   -3.03    8.84
   4   5   7   11.18    9.02
   4   5   8   13.67   11.84
   4   5   8    5.84    4.03
   4   5   8    8.28   11.03
   4   5   8   14.00    6.68
   4   5   9    1.00   21.13
   4   5   9   88.00   20.44
   4   5  10    2.84    9.32
   4   5  10    0.53    8.62
   4   6 -16  251.00   46.37
   4   6 -16  196.28   38.74
  -4  -6  16  189.49   40.25
  -4  -6  16  198.64   48.09
   4   6 -15   74.72   25.38
   4   6 -15   73.83   23.98
  -4  -6  15   -0.03   21.57
  -4  -6  15   57.27   25.98
   4   6 -14  185.14   34.65
   4   6 -14  204.53   38.20
  -4  -6  14  173.80   34.05
  -4  -6  14  185.71   36.76
   4   6 -13  445.87   48.47
   4   6 -13  410.19   45.41
  -4  -6  13  332.99   43.97
  -4  -6  13  314.29   46.81
   4   6 -12   12.00   14.09
   4   6 -12   25.77   12.96
  -4  -6  12   15.93   13.14
  -4  -6  12   12.32   13.73
   4   6 -11   21.92   13.43
   4   6 -11   18.14   23.74
  -4  -6  11   43.43   14.71
  -4  -6  11   31.12   15.10
   4   6 -10  267.47   33.24
   4   6 -10  266.15   31.67
  -4  -6  10  332.86   35.57
  -4  -6  10  364.47   34.72
   4   6  -9  349.07   33.32
   4   6  -9  391.71   34.96
  -4  -6   9  330.24   35.23
  -4  -6   9  304.45   32.91
   4   6  -8  486.83   39.34
   4   6  -8  526.39   42.44
  -4  -6   8  569.33   45.67
  -4  -6   8  608.58   45.17
   4   6  -7  455.00   36.10
   4   6  -7  519.82   40.51
  -4  -6   7  531.51   41.41
  -4  -6   7  533.90   40.38
   4   6  -6  835.80   51.66
   4   6  -6  869.92   55.32
  -4  -6   6  801.77   55.62
  -4  -6   6  847.93   54.58
   4   6  -5  809.67   63.40
   4   6  -5  836.38   66.12
  -4  -6   5  763.52   50.51
  -4  -6   5  795.53   54.17
   4   6  -4  412.90   30.79
   4   6  -4  447.33   32.38
  -4  -6   4  471.12   32.47
  -4  -6   4  441.47   34.38
   4   6  -3  213.94   18.24
   4   6  -3  193.95   19.71
  -4  -6   3  156.50   20.85
  -4  -6   3  170.52   17.62
   4   6  -2  332.87   28.71
   4   6  -2  340.05   25.71
  -4  -6   2  422.19   32.13
  -4  -6   2  429.71   38.43
   4   6  -1  156.23   18.87
   4   6  -1  145.10   15.58
  -4  -6   1  175.05   16.60
  -4  -6   1  178.11   20.30
   4   6   0   82.75   15.50
   4   6   0   86.53   12.38
  -4  -6   0  139.96   17.47
  -4  -6   0  116.99   12.99
   4   6   1   87.62   12.16
   4   6   1   89.30   16.49
  -4  -6  -1  102.95   26.22
  -4  -6  -1  107.55   12.87
   4   6   2   78.51   10.19
   4   6   2   86.84   15.12
  -4  -6  -2   43.83   10.35
  -4  -6  -2   49.79   14.85
   4   6   3  129.21   13.74
   4   6   3  143.34   21.19
   4   6   3  120.73   21.68
   4   6   3  122.65   19.43
   4   6   4  179.87   16.42
   4   6   4  174.49   26.53
   4   6   4  204.04   25.64
   4   6   4  183.57   15.90
   4   6   5   83.94   20.04
   4   6   5  101.48   16.91
   4   6   5   41.59   29.41
   4   6   5   74.60   10.29
   4   6   6   11.64   12.05
   4   6   6   16.28    5.85
   4   6   6   15.24    6.30
   4   6   6   19.21   12.96
   4   6   7   86.72   15.27
   4   6   7   88.18   35.01
   4   6   7   78.54   11.28
   4   6   7   78.85   21.35
   4   6   8    6.51   11.40
   4   6   8    8.17   17.32
   4   6   9    5.35   11.20
   4   6   9    4.31   17.25
   4   7 -16  168.55   38.66
   4   7 -16  185.78   44.99
  -4  -7  16  157.69   39.17
  -4  -7  16  183.64   47.37
   4   7 -15   52.14   20.98
   4   7 -15   24.36   22.72
  -4  -7  15   -0.22   19.41
  -4  -7  15   49.66   22.88
   4   7 -14  451.41   53.28
   4   7 -14  399.53   57.19
  -4  -7  14  478.03   53.67
  -4  -7  14  385.55   56.20
   4   7 -13  145.70   31.31
   4   7 -13  197.06   33.16
  -4  -7  13  135.95   31.53
  -4  -7  13  138.81   33.06
   4   7 -12  211.50   35.36
   4   7 -12  223.68   32.69
  -4  -7  12  183.71   32.99
  -4  -7  12  176.95   53.83
   4   7 -11   29.13   15.30
   4   7 -11   31.06   14.46
  -4  -7  11   23.87   15.50
  -4  -7  11   20.82   14.38
   4   7 -10  201.13   27.34
   4   7 -10  197.11   44.19
  -4  -7  10  192.58   44.44
  -4  -7  10  170.88   45.30
   4   7  -9    7.87   12.09
   4   7  -9   15.64   12.45
  -4  -7   9   41.43   13.32
  -4  -7   9   37.06   13.46
   4   7  -8  320.07   32.03
   4   7  -8  348.84   33.87
  -4  -7   8  319.48   35.69
  -4  -7   8  339.54   34.62
   4   7  -7   17.69   10.52
   4   7  -7   15.39   10.99
  -4  -7   7   25.28   11.58
  -4  -7   7   33.81   11.47
   4   7  -6 1362.15   82.39
   4   7  -6 1412.47   86.68
  -4  -7   6 1260.08   82.19
  -4  -7   6 1300.13   88.49
   4   7  -5   35.58    9.68
   4   7  -5   25.80    9.92
  -4  -7   5   12.01    9.85
  -4  -7   5   12.37   10.72
   4   7  -4  178.94   22.09
   4   7  -4  173.23   21.25
  -4  -7   4  213.94   21.76
  -4  -7   4  221.36   24.62
   4   7  -3  431.09   31.40
   4   7  -3  471.98   45.39
  -4  -7   3  352.11   34.58
  -4  -7   3  341.04   30.86
   4   7  -2 1101.81   79.44
   4   7  -2 1061.82   61.34
  -4  -7   2  871.28   61.87
  -4  -7   2  879.40   72.07
   4   7  -1  332.72   42.43
   4   7  -1  341.77   27.20
  -4  -7   1  350.17   28.70
  -4  -7   1  396.32   34.01
   4   7   0  238.73   24.63
   4   7   0  247.42   21.76
  -4  -7   0  224.46   22.25
  -4  -7   0  250.36   39.13
   4   7   1  183.06   23.34
   4   7   1  210.04   19.44
  -4  -7  -1  204.46   25.52
  -4  -7  -1  192.56   20.43
   4   7   2  266.88   28.32
   4   7   2  258.96   21.36
  -4  -7  -2  205.06   27.00
  -4  -7  -2  192.04   20.99
   4   7   3   20.60    8.03
   4   7   3   22.44   12.53
   4   7   3   26.01   11.65
   4   7   3   29.83   19.28
   4   7   4   88.58   13.35
   4   7   4   89.63   13.03
   4   7   4  103.61   20.44
   4   7   4   96.35   20.11
   4   7   5   99.40   13.23
   4   7   5  110.44   22.49
   4   7   5  107.39   13.95
   4   7   5   88.40   22.69
   4   7   6  226.00   34.03
   4   7   6  221.24   20.62
   4   7   6  276.37   35.27
   4   7   6  228.18   27.43
   4   7   7   11.04    5.28
   4   7   7   23.53   11.05
   4   7   7    0.54    5.54
   4   7   7   13.02   18.48
   4   8 -16   12.19   12.84
   4   8 -16   -2.19   14.75
  -4  -8  16    0.02   20.76
  -4  -8  16    1.75   15.73
   4   8 -15   -2.25   32.61
   4   8 -15  129.99   29.95
  -4  -8  15    0.03   45.65
  -4  -8  15  136.54   32.80
   4   8 -14    9.57   11.87
   4   8 -14   -2.34   12.24
  -4  -8  14   14.73   20.14
  -4  -8  14   -0.17   11.34
   4   8 -13  187.48   38.79
   4   8 -13  202.17   37.84
  -4  -8  13  153.49   39.76
  -4  -8  13  232.71   37.78
   4   8 -12  214.22   33.60
   4   8 -12  228.77   35.18
  -4  -8  12  167.39   35.50
  -4  -8  12  140.21   37.58
   4   8 -11  468.83   50.13
   4   8 -11  463.35   49.17
  -4  -8  11  471.19   51.19
  -4  -8  11  450.92   53.68
   4   8 -10   85.18   21.01
   4   8 -10   67.70   21.95
  -4  -8  10  103.46   35.37
  -4  -8  10   98.25   24.12
   4   8  -9   52.94   16.72
   4   8  -9   75.13   26.48
  -4  -8   9   34.67   17.94
  -4  -8   9   46.53   18.42
   4   8  -8  503.39   61.13
   4   8  -8  513.89   44.29
  -4  -8   8  406.21   43.54
  -4  -8   8  387.62   43.02
   4   8  -7  179.11   25.58
   4   8  -7  209.95   26.69
  -4  -8   7  207.71   41.00
  -4  -8   7  177.77   27.18
   4   8  -6  287.01   29.63
   4   8  -6  296.48   30.60
  -4  -8   6  243.48   29.92
  -4  -8   6  233.89   45.41
   4   8  -5   48.07   23.18
   4   8  -5   41.79   14.45
  -4  -8   5   82.75   24.40
  -4  -8   5   80.44   16.76
   4   8  -4  164.73   21.41
   4   8  -4  128.13   21.07
  -4  -8   4  169.25   23.00
  -4  -8   4  153.86   22.30
   4   8  -3  143.96   21.56
   4   8  -3  157.91   21.72
  -4  -8   3  217.35   25.30
  -4  -8   3  204.53   23.33
   4   8  -2  141.95   18.69
   4   8  -2  136.47   19.02
  -4  -8   2  120.79   20.73
  -4  -8   2  103.95   28.48
   4   8  -1   53.88   12.57
   4   8  -1   44.74   11.68
  -4  -8   1   32.42   14.14
  -4  -8   1   28.55   12.15
   4   8   0  508.20   41.82
   4   8   0  466.79   37.41
  -4  -8   0  535.40   40.96
  -4  -8   0  532.93   46.22
   4   8   1  107.82   29.96
   4   8   1   99.56   16.94
  -4  -8  -1  156.13   22.98
  -4  -8  -1  142.60   18.75
   4   8   2    5.09    9.45
   4   8   2   10.62    7.51
   4   8   2   16.63    7.64
   4   8   3   12.85   11.76
   4   8   3   15.75    8.54
   4   8   3   17.45    8.54
   4   8   3   28.76   11.54
   4   8   4   89.97   18.59
   4   8   4   -0.74   19.31
   4   8   4   47.52   19.30
   4   8   4   85.50   18.04
   4   8   5   46.23   14.09
   4   8   5   -0.14    9.55
   4   8   5   35.73   14.45
   4   8   5   34.06    9.20
   4   8   6   71.68   23.82
   4   8   6   92.71   14.68
   4   8   6  126.60   24.10
   4   8   6   98.00   21.09
   4   9 -15    2.82   24.02
   4   9 -15    1.06   15.22
  -4  -9  15   21.85   16.17
  -4  -9  15   -0.11   15.19
   4   9 -14   45.99   23.97
   4   9 -14   63.96   23.50
  -4  -9  14    0.03   35.92
  -4  -9  14   23.24   25.49
   4   9 -13  308.04   47.41
   4   9 -13  333.23   50.30
  -4  -9  13  307.65   50.93
  -4  -9  13  338.71   76.88
   4   9 -12   27.78   18.73
   4   9 -12   30.30   18.34
  -4  -9  12   32.40   20.74
  -4  -9  12   34.16   19.72
   4   9 -11  252.44   36.48
   4   9 -11  223.05   37.27
  -4  -9  11  206.14   39.63
  -4  -9  11  217.49   39.14
   4   9 -10   45.52   18.96
   4   9 -10   31.69   18.31
  -4  -9  10   58.24   19.95
  -4  -9  10   46.45   32.45
   4   9  -9  212.30   32.27
   4   9  -9  218.20   47.86
  -4  -9   9  240.93   34.43
  -4  -9   9  220.94   35.15
   4   9  -8   86.15   20.00
   4   9  -8   59.49   19.01
  -4  -9   8   51.50   20.80
  -4  -9   8   90.71   20.48
   4   9  -7   85.38   17.72
   4   9  -7   69.94   28.88
  -4  -9   7   53.74   18.96
  -4  -9   7   46.41   18.91
   4   9  -6  249.95   30.28
   4   9  -6  264.61   28.55
  -4  -9   6  162.45   30.17
  -4  -9   6  179.02   29.15
   4   9  -5  320.73   36.43
   4   9  -5  310.87   34.57
  -4  -9   5  377.19   55.22
  -4  -9   5  380.10   38.26
   4   9  -4   36.05   12.86
   4   9  -4   36.30   13.22
  -4  -9   4   24.26   21.21
  -4  -9   4   26.58   13.87
   4   9  -3   95.52   18.56
   4   9  -3   81.11   17.55
  -4  -9   3   91.03   18.99
  -4  -9   3   91.12   19.15
   4   9  -2   27.64   17.02
   4   9  -2   23.24   11.42
  -4  -9   2   21.19   11.71
  -4  -9   2   22.33   12.51
   4   9  -1  246.02   27.38
   4   9  -1  218.54   26.18
  -4  -9   1  214.57   29.96
  -4  -9   1  226.23   26.99
   4   9   0    4.77    7.78
   4   9   0   14.22    8.17
  -4  -9   0   -4.89   14.58
  -4  -9   0    6.79   13.26
   4   9   1  296.03   31.62
   4   9   1  293.93   40.65
  -4  -9  -1  236.22   29.59
  -4  -9  -1  267.99   32.69
   4   9   2   82.04   19.12
   4   9   2   84.47   16.86
   4   9   2   70.87   20.24
   4   9   2   88.58   16.76
   4   9   3  109.73   21.59
   4   9   3  103.62   17.73
   4   9   3   92.57   27.97
   4   9   3  119.28   22.10
   4   9   4    3.81    9.56
   4   9   4   -5.01    6.45
   4   9   4   -1.67    4.84
   4   9   4    6.09    4.78
   4   9   5   68.26   21.53
   4   9   5    0.17    9.34
   4   9   5   26.48    9.16
   4   9   5   26.88   13.58
   4  10 -14  141.55   33.95
   4  10 -14  104.74   35.04
  -4 -10  14   81.38   34.65
  -4 -10  14   60.47   35.08
   4  10 -13   51.50   44.19
   4  10 -13   98.96   29.88
  -4 -10  13   71.38   47.47
  -4 -10  13   57.75   30.12
   4  10 -12   22.04   21.02
   4  10 -12   24.93   19.77
  -4 -10  12   45.44   33.59
  -4 -10  12   40.30   21.72
   4  10 -11   42.24   20.36
   4  10 -11   38.85   20.82
  -4 -10  11   35.85   22.79
  -4 -10  11   53.51   22.09
   4  10 -10  110.28   28.13
   4  10 -10  110.13   26.50
  -4 -10  10  117.17   28.78
  -4 -10  10  103.61   29.89
   4  10  -9  156.85   30.53
   4  10  -9  131.79   27.00
  -4 -10   9  129.15   28.73
  -4 -10   9  141.87   30.81
   4  10  -8   47.92   17.94
   4  10  -8   55.38   16.89
  -4 -10   8   54.83   18.71
  -4 -10   8   -0.46   17.97
   4  10  -7  137.44   28.38
   4  10  -7  145.45   26.22
  -4 -10   7  165.41   30.33
  -4 -10   7  142.78   27.42
   4  10  -6   40.65   16.33
   4  10  -6   38.28   14.14
  -4 -10   6   17.41   16.92
  -4 -10   6   27.93   15.46
   4  10  -5   64.58   18.40
   4  10  -5   52.52   25.54
  -4 -10   5   63.99   18.54
  -4 -10   5   38.41   19.39
   4  10  -4  149.14   24.19
   4  10  -4  124.81   21.13
  -4 -10   4  108.47   23.06
  -4 -10   4  106.84   24.60
   4  10  -3  326.65   35.42
   4  10  -3  307.56   33.19
  -4 -10   3  293.29   36.46
  -4 -10   3  289.51   36.45
   4  10  -2  189.11   29.09
   4  10  -2  195.31   27.26
  -4 -10   2  241.05   31.49
  -4 -10   2  252.40   31.53
   4  10  -1  112.46   22.31
   4  10  -1  120.27   31.75
  -4 -10   1  111.50   23.63
  -4 -10   1  127.26   23.81
   4  10   0   94.19   20.42
   4  10   0   94.96   20.34
  -4 -10   0  140.28   22.90
  -4 -10   0  111.75   22.07
   4  10   1  319.06   34.95
   4  10   1  341.82   37.43
  -4 -10  -1  364.93   39.59
  -4 -10  -1  344.53   36.88
   4  10   2    9.23   19.10
   4  10   2   19.42   17.76
   4  10   2   38.72   19.38
   4  10   2   14.68   18.28
   4  10   3   32.54   14.60
   4  10   3   33.23   12.84
   4  10   3   37.97   15.33
   4  10   3   24.48   12.68
   4  11 -13   57.41   49.59
   4  11 -13  103.75   35.21
  -4 -11  13   99.37   33.03
  -4 -11  13  103.57   34.71
   4  11 -12  129.80   30.19
   4  11 -12   79.84   34.15
  -4 -11  12   96.33   34.35
  -4 -11  12   80.33   32.27
   4  11 -11  240.45   40.01
   4  11 -11  227.83   44.21
  -4 -11  11  206.92   42.03
  -4 -11  11  260.60   48.17
   4  11 -10    2.02   23.18
   4  11 -10   32.83   16.97
  -4 -11  10    0.02   15.74
  -4 -11  10   28.47   17.74
   4  11  -9   70.79   19.98
   4  11  -9    0.76   17.39
  -4 -11   9   71.20   21.18
  -4 -11   9    0.37   19.55
   4  11  -8  311.37   42.64
   4  11  -8  285.82   38.00
  -4 -11   8  264.24   44.15
  -4 -11   8  225.04   40.76
   4  11  -7   36.23   16.68
   4  11  -7   29.11   14.29
  -4 -11   7   27.67   17.62
  -4 -11   7   -1.21   15.58
   4  11  -6   67.70   19.18
   4  11  -6   67.72   16.87
  -4 -11   6   -0.67   30.86
  -4 -11   6   -0.69   17.75
   4  11  -5   60.98   17.76
   4  11  -5   61.04   14.62
  -4 -11   5    2.00   16.29
  -4 -11   5    1.12   17.99
   4  11  -4  114.48   27.54
   4  11  -4  119.53   23.12
  -4 -11   4  146.87   28.10
  -4 -11   4  147.39   26.74
   4  11  -3   10.55   15.11
   4  11  -3   38.56   20.72
  -4 -11   3   38.60   15.53
  -4 -11   3   28.18   16.46
   4  11  -2   -1.53    7.17
   4  11  -2   -5.70    8.31
  -4 -11   2   -2.40    8.28
  -4 -11   2   -1.94    8.59
   4  11  -1    0.74   15.35
   4  11  -1    5.16    8.65
  -4 -11   1   18.40   15.08
  -4 -11   1    4.04   10.29
   4  11   0   57.99   15.84
   4  11   0   23.12   22.38
  -4 -11   0   -0.81   17.23
  -4 -11   0   56.61   16.34
   4  11   1   25.49   10.44
   4  11   1   10.32   10.83
   4  11   1    7.47   10.10
   4  11   1   -4.32   10.90
   4  12 -12   20.85   13.95
   4  12 -12   -3.72   11.84
  -4 -12  12   -0.35   11.79
  -4 -12  12    0.50   13.70
   4  12 -11   -2.40    9.44
   4  12 -11   22.66   11.65
  -4 -12  11  -11.73   11.83
  -4 -12  11   -0.71   15.29
   4  12 -10  112.42   24.02
   4  12 -10  -23.91   44.75
  -4 -12  10  120.40   29.68
  -4 -12  10   -0.50   24.03
   4  12  -9  169.82   40.43
   4  12  -9  184.86   33.31
  -4 -12   9  193.39   42.21
  -4 -12   9  174.06   33.97
   4  12  -8   28.45   21.96
   4  12  -8    1.15   11.01
  -4 -12   8   14.80   13.85
  -4 -12   8    0.40   12.06
   4  12  -7   21.68   12.45
   4  12  -7   -0.31   10.00
  -4 -12   7    2.43   11.48
  -4 -12   7    0.64   12.80
   4  12  -6   -1.19   16.65
   4  12  -6    6.01    8.57
  -4 -12   6    4.64    9.54
  -4 -12   6   -1.21   10.82
   4  12  -5   -7.56   10.17
   4  12  -5    7.86    8.07
  -4 -12   5    9.54   10.48
  -4 -12   5    1.07    9.00
   4  12  -4   92.04   25.61
   4  12  -4  104.46   20.76
  -4 -12   4    1.92   26.32
  -4 -12   4  112.95   23.33
   4  12  -3    8.01   11.52
   4  12  -3    6.19    9.30
  -4 -12   3    1.99   12.31
  -4 -12   3   10.41   10.73
   4  12  -2   15.10   16.10
   4  12  -2   24.60   21.22
  -4 -12   2    1.86   28.00
  -4 -12   2   44.09   15.39
   4  12  -1   26.37   12.88
   4  12  -1   14.15   10.87
  -4 -12   1    2.36   12.27
  -4 -12   1   -1.75   21.34
   4  13  -8   31.24   18.46
   4  13  -8    0.70    8.76
  -4 -13   8   -4.75   11.81
  -4 -13   8   -2.17   14.49
   4  13  -7   41.69   16.55
   4  13  -7   -1.34   12.62
  -4 -13   7    1.79   26.77
  -4 -13   7   -1.96   21.41
   4  13  -6   66.47   17.61
   4  13  -6    0.78   21.19
  -4 -13   6    0.79   14.95
  -4 -13   6   -6.27   18.00
   4  13  -5   77.82   18.76
  -4 -13   5    0.98   25.46
  -4 -13   5   45.24   31.91
  -5  16   0    1.14   11.28
  -5  16  -1    1.32    9.36
  -5  16  -1   -2.93    9.98
  -5  16  -2   57.38   25.91
  -5  16  -2   34.82   27.34
  -5  16  -3   18.96   19.66
  -5  16  -3   15.85   31.19
  -5  16  -4   61.06   41.63
  -5  16  -4   51.44   27.17
   5 -16   5  180.29   42.48
  -5  16  -5  151.68   39.56
   5 -16   6   29.01   25.49
  -5  16  -6   60.26   24.35
   5 -16   7  125.91   54.12
  -5  16  -7   94.13   33.31
   5 -16   8  191.38   38.87
  -5  16  -8  138.12   36.17
  -5  16  -8  123.68   16.98
   5 -16   9   83.41   13.95
   5 -16   9  101.89   27.66
  -5  16  -9    1.18   13.86
  -5  16  -9   74.97   25.96
  -5  15   2   -0.05   10.09
  -5  15   2    2.08   10.89
  -5  15   1    0.17    7.67
  -5  15   1   -0.54    8.05
  -5  15   0   -0.20   10.48
  -5  15   0    2.84   10.68
  -5  15  -1   -0.45    8.99
  -5  15  -1    2.34    9.61
  -5  15  -2   46.95   22.66
  -5  15  -2   33.52   21.66
  -5  15  -3   73.22   26.98
  -5  15  -3   81.05   27.93
  -5  15  -4  172.42   34.82
  -5  15  -4  152.92   36.74
   5 -15   5   56.98   27.17
  -5  15  -5   84.63   26.34
   5 -15   6  202.93   16.55
   5 -15   6  230.41   60.77
  -5  15  -6  234.39   59.25
  -5  15  -6  179.58   15.90
   5 -15   7  151.73   16.71
   5 -15   7  172.86   37.38
  -5  15  -7  155.11   16.92
  -5  15  -7  174.53   34.57
   5 -15   8  145.41   27.43
   5 -15   8  132.84   35.52
  -5  15  -8  149.89   19.51
  -5  15  -8  169.61   34.15
   5 -15   9  246.32   42.78
   5 -15   9  228.55   26.98
  -5  15  -9  207.85   26.51
  -5  15  -9  255.40   40.70
   5 -15  10  193.89   39.57
   5 -15  10  215.92   27.29
  -5  15 -10  178.38   37.47
  -5  15 -10  172.30   26.53
   5 -15  11   44.92   14.79
   5 -15  11   -0.89   10.83
  -5  15 -11    0.01   10.92
  -5  15 -11   14.65   22.52
  -5  14   4    2.23   36.22
  -5  14   4   52.36   34.68
  -5  14   3    1.96    9.65
  -5  14   3   -0.12    9.55
  -5  14   2  241.90   44.02
  -5  14   2  233.85   46.18
  -5  14   1   -0.91    9.49
  -5  14   1   -2.81   15.54
  -5  14   0  222.28   40.82
  -5  14   0  193.45   38.64
  -5  14  -1  192.53   37.10
  -5  14  -1  183.68   38.29
  -5  14  -2  143.30   51.55
  -5  14  -2  159.55   31.79
  -5  14  -3   86.88   26.69
  -5  14  -3  110.26   27.89
   5 -14   4  139.63   30.72
   5 -14   4  130.80    8.40
  -5  14  -4  134.63   28.77
  -5  14  -4  123.15   11.32
   5 -14   5   11.51   15.49
   5 -14   5   12.73    5.14
  -5  14  -5   18.57   14.97
  -5  14  -5   24.88    5.21
   5 -14   6  337.33   24.21
   5 -14   6  333.30   47.95
  -5  14  -6  426.51   46.45
  -5  14  -6  354.01   24.30
   5 -14   7   37.23   11.44
   5 -14   7   56.23   22.43
  -5  14  -7   82.89   11.75
  -5  14  -7   82.74   22.14
   5 -14   8   65.39   23.48
   5 -14   8   58.62   14.09
  -5  14  -8   75.84   21.89
  -5  14  -8   73.32   14.17
   5 -14   9   96.56   28.50
   5 -14   9  115.33   19.78
  -5  14  -9  141.13   27.79
  -5  14  -9  122.54   19.61
   5 -14  10   33.69   36.43
   5 -14  10   49.32   17.47
  -5  14 -10  109.29   22.36
  -5  14 -10   59.38   17.66
   5 -14  11   24.09   17.63
   5 -14  11   33.06   24.25
  -5  14 -11   39.60   17.00
  -5  14 -11   21.88   15.19
   5 -14  12  189.17   34.33
   5 -14  12  220.56   34.58
  -5  14 -12  171.43   33.27
  -5  14 -12  124.99   32.24
  -5  13   6    1.64    8.06
  -5  13   6   -2.44    8.20
  -5  13   5   32.75   24.84
  -5  13   5    1.15   16.61
  -5  13   4   12.85   14.01
  -5  13   4   -4.27   22.84
  -5  13   3   79.48   21.74
  -5  13   3    3.73   22.17
  -5  13   2   20.29   13.90
  -5  13   2    0.61   14.65
  -5  13   1    0.42    8.13
  -5  13   1    1.58    8.02
  -5  13   0   50.51   19.68
  -5  13   0   37.09   20.80
  -5  13  -1  202.70   32.84
  -5  13  -1  183.22   34.90
  -5  13  -2  170.84   32.04
  -5  13  -2  205.94   32.70
   5 -13   3  289.03   13.24
   5 -13   3  276.61   11.09
  -5  13  -3  294.91   39.10
  -5  13  -3  276.07   36.57
   5 -13   4    3.78    2.41
   5 -13   4    9.60    8.56
  -5  13  -4    7.02    7.63
  -5  13  -4    0.23    2.42
   5 -13   5  246.87   16.53
   5 -13   5  234.93   35.26
  -5  13  -5  236.42   32.75
  -5  13  -5  225.54   16.83
   5 -13   6  199.82   16.74
   5 -13   6  191.64   33.18
  -5  13  -6  187.47   17.33
  -5  13  -6  206.09   30.59
   5 -13   7  484.44   49.89
   5 -13   7  457.10   32.54
  -5  13  -7  473.60   47.39
  -5  13  -7  442.56   33.16
   5 -13   8   92.24   24.62
   5 -13   8  110.25   25.80
  -5  13  -8  105.42   17.09
  -5  13  -8  134.19   23.84
   5 -13   9  165.41   46.86
   5 -13   9  179.12   25.88
  -5  13  -9  246.81   31.95
  -5  13  -9  209.81   25.84
   5 -13  10  158.24   29.29
   5 -13  10  179.62   26.56
  -5  13 -10  152.84   25.18
  -5  13 -10  152.42   28.09
   5 -13  11  129.20   28.79
   5 -13  11  177.87   29.48
  -5  13 -11  193.95   29.42
  -5  13 -11  181.14   29.30
   5 -13  12   65.05   30.76
   5 -13  12   81.03   21.63
  -5  13 -12    4.17   21.34
  -5  13 -12   75.02   19.60
   5 -13  13   29.20   16.19
   5 -13  13   44.82   20.21
  -5  13 -13    2.60   20.42
  -5  13 -13   50.05   16.22
  -5  12   7   69.23   30.44
  -5  12   7   -1.94   18.74
  -5  12   6   63.12   20.81
  -5  12   6    0.00   20.87
  -5  12   5   19.06   14.25
  -5  12   5    0.28   14.73
  -5  12   4   -2.63   27.75
  -5  12   4   35.07   17.55
  -5  12   3  181.31   34.44
  -5  12   3  200.58   34.92
  -5  12   2  100.10   25.32
  -5  12   2  112.12   27.25
  -5  12   1  154.65   29.48
  -5  12   1  162.53   30.32
  -5  12   0  179.45   46.21
  -5  12   0  186.73   46.97
  -5  12  -1  470.89   47.26
  -5  12  -1  473.24   48.87
  -5  12  -2  227.43   32.83
  -5  12  -2  231.48   31.81
   5 -12   3   40.25   15.75
   5 -12   3   29.76    3.96
  -5  12  -3   45.27   23.66
  -5  12  -3   48.58    4.31
   5 -12   4   61.73   20.07
   5 -12   4   72.07    7.53
  -5  12  -4   78.20   18.06
  -5  12  -4   76.27   11.25
   5 -12   5  428.07   43.15
   5 -12   5  417.94   31.80
  -5  12  -5  437.81   33.53
  -5  12  -5  460.48   40.44
   5 -12   6   67.82   28.23
   5 -12   6   69.76   10.87
  -5  12  -6   43.75   10.34
  -5  12  -6   81.37   16.63
   5 -12   7   84.62   20.33
   5 -12   7   95.93   21.01
  -5  12  -7   89.81   13.87
  -5  12  -7   95.79   19.51
   5 -12   8  255.85   51.64
   5 -12   8  321.13   29.71
  -5  12  -8  346.46   34.34
  -5  12  -8  301.96   28.80
   5 -12   9   59.78   17.52
   5 -12   9   75.82   16.07
  -5  12  -9   61.27   15.73
  -5  12  -9   52.27   17.01
   5 -12  10  219.44   29.76
   5 -12  10  250.60   30.52
  -5  12 -10  235.35   30.02
  -5  12 -10  202.96   30.48
   5 -12  11  152.30   37.57
   5 -12  11  153.22   28.82
  -5  12 -11  175.65   38.46
  -5  12 -11  166.58   28.70
   5 -12  12   26.24   12.25
   5 -12  12   15.91   15.42
  -5  12 -12   -3.14   15.15
  -5  12 -12   27.46   11.93
   5 -12  13  138.99   25.35
   5 -12  13  154.42   34.70
  -5  12 -13  140.89   34.46
  -5  12 -13  153.19   24.43
   5 -12  14   90.15   16.31
   5 -12  14   77.27   24.90
  -5  12 -14   -7.39   24.37
  -5  12 -14    1.86   15.55
  -5  11   9    5.28   15.39
  -5  11   9   15.41   16.22
  -5  11   8   19.09   16.32
  -5  11   8   -3.78   24.87
  -5  11   7    1.60   17.22
  -5  11   7   39.02   18.12
  -5  11   6  125.50   32.00
  -5  11   6  139.09   30.60
  -5  11   5  243.46   39.36
  -5  11   5  235.75   39.41
  -5  11   4   19.38   14.27
  -5  11   4   11.22   22.46
  -5  11   3   51.40   33.91
  -5  11   3   92.12   22.45
  -5  11   2  151.32   28.23
  -5  11   2  186.73   29.88
  -5  11   1  147.59   25.96
  -5  11   1  147.67   25.80
  -5  11   0   34.63   23.53
  -5  11   0   34.14   14.13
  -5  11  -1   26.89   13.08
  -5  11  -1   30.67   13.50
   5 -11   2  680.09   23.32
   5 -11   2  655.99   22.44
  -5  11  -2  716.09   54.08
  -5  11  -2  710.62   55.23
   5 -11   3  386.66   35.73
   5 -11   3  390.49   20.35
  -5  11  -3  317.66   33.16
  -5  11  -3  309.54   15.84
   5 -11   4  717.04   42.56
   5 -11   4  670.90   72.22
  -5  11  -4  748.87   36.65
  -5  11  -4  735.04   52.96
   5 -11   5  303.69   31.97
   5 -11   5  308.43   20.40
  -5  11  -5  286.55   29.09
  -5  11  -5  282.76   26.98
   5 -11   6  253.04   27.99
   5 -11   6  269.60   28.39
  -5  11  -6  191.43   18.98
  -5  11  -6  209.59   24.95
   5 -11   7  801.95   58.61
   5 -11   7  861.35   52.33
  -5  11  -7  708.81   48.40
  -5  11  -7  755.69   53.59
   5 -11   8  254.30   29.69
   5 -11   8  291.92   28.03
  -5  11  -8  287.82   28.30
  -5  11  -8  315.34   29.34
   5 -11   9  173.78   23.74
   5 -11   9  153.57   22.50
  -5  11  -9  150.40   22.99
  -5  11  -9  157.47   21.76
   5 -11  10   49.15   15.43
   5 -11  10   64.01   12.97
  -5  11 -10   22.92   14.86
  -5  11 -10   18.68   12.39
   5 -11  11  130.60   25.26
   5 -11  11  107.01   19.56
  -5  11 -11  115.57   19.48
  -5  11 -11  114.36   25.33
   5 -11  12  392.78   49.49
   5 -11  12  370.27   37.13
  -5  11 -12  376.68   48.87
  -5  11 -12  434.53   37.70
   5 -11  13   54.43   30.89
   5 -11  13   33.91   11.92
  -5  11 -13   29.40   18.23
  -5  11 -13   -1.11   18.99
   5 -11  14   14.95   16.72
   5 -11  14   38.82   19.11
  -5  11 -14   17.43   10.26
  -5  11 -14    1.16   18.95
  -5  10  10   21.68   19.17
  -5  10  10   26.35   20.84
  -5  10   9   -0.02   22.81
  -5  10   9   90.83   24.57
  -5  10   8    1.28   15.10
  -5  10   8   29.53   16.55
  -5  10   7  -14.64   12.10
  -5  10   7    0.47   11.55
  -5  10   6   12.32   15.34
  -5  10   6   24.92   14.74
  -5  10   5   43.42   20.17
  -5  10   5   71.61   20.83
  -5  10   4  201.60   30.79
  -5  10   4  173.68   30.07
  -5  10   3   37.46   15.51
  -5  10   3   38.19   15.59
  -5  10   2  307.14   35.51
  -5  10   2  302.19   34.66
  -5  10   1  323.30   34.52
  -5  10   1  358.01   35.65
  -5  10   0   53.85   14.92
  -5  10   0   67.20   24.77
  -5  10  -1  128.84   19.67
  -5  10  -1  139.57   20.83
   5 -10   2  416.93   16.58
   5 -10   2  401.95   15.40
  -5  10  -2  419.15   34.65
  -5  10  -2  459.18   35.99
   5 -10   3  638.70   47.55
   5 -10   3  617.30   27.27
  -5  10  -3  727.89   47.50
  -5  10  -3  727.06   36.96
   5 -10   4    7.61    6.37
   5 -10   4    4.97    2.96
  -5  10  -4    0.63    5.70
  -5  10  -4    2.06    3.28
   5 -10   5  257.49   17.59
   5 -10   5  253.47   25.63
  -5  10  -5  260.90   24.23
  -5  10  -5  239.90   18.63
   5 -10   6 2205.99  134.22
   5 -10   6 2244.45  119.55
  -5  10  -6 2233.71  128.57
  -5  10  -6 2109.65  118.48
   5 -10   7   54.58   16.24
   5 -10   7   45.50   11.87
  -5  10  -7   45.62   16.92
  -5  10  -7   31.89   10.73
   5 -10   8   24.43    8.82
   5 -10   8   15.01    8.38
  -5  10  -8    6.29    7.85
  -5  10  -8   12.24    8.78
   5 -10   9  401.22   33.37
   5 -10   9  476.17   40.39
  -5  10  -9  457.94   34.46
  -5  10  -9  378.27   38.47
   5 -10  10  282.09   34.00
   5 -10  10  221.91   24.71
  -5  10 -10  327.21   36.85
  -5  10 -10  274.17   33.29
   5 -10  11  106.39   14.89
   5 -10  11  104.95   21.97
  -5  10 -11   40.60   13.99
  -5  10 -11   45.00   20.85
   5 -10  12   22.24   17.12
   5 -10  12   36.23   29.13
  -5  10 -12   39.14   10.86
  -5  10 -12   34.86   29.33
   5 -10  13  123.59   27.58
   5 -10  13   86.88   15.56
  -5  10 -13   94.46   22.87
  -5  10 -13   -2.20   27.51
   5 -10  14  143.07   36.47
   5 -10  14  123.84   19.61
  -5  10 -14  134.52   18.68
  -5  10 -14  141.05   36.53
   5 -10  15  -13.01   10.18
   5 -10  15    3.41    4.58
  -5  10 -15   -1.26   10.88
  -5  10 -15    1.55    4.13
  -5   9  11    1.28    6.17
  -5   9  11   -1.41    6.82
  -5   9  10   29.44   16.74
  -5   9  10    0.11   14.63
  -5   9   9    3.30    9.51
  -5   9   9  -10.11   10.49
  -5   9   8   10.79   10.52
  -5   9   8    4.23    2.65
  -5   9   8    4.94    1.88
  -5   9   8    4.18   11.40
  -5   9   7   50.06    2.29
  -5   9   7   80.60   20.41
  -5   9   7   49.31    2.42
  -5   9   7   48.95   19.43
  -5   9   6   34.86   18.09
  -5   9   6   48.29   16.60
  -5   9   5   40.29   15.26
  -5   9   5   34.41   16.57
  -5   9   4  666.63   79.46
  -5   9   4  688.24   57.13
  -5   9   3  734.38   58.10
  -5   9   3  722.72   56.39
  -5   9   2   20.85   11.37
  -5   9   2   18.44   11.07
  -5   9   1  176.10   22.62
  -5   9   1  180.51   22.90
  -5   9   0  840.26   54.04
  -5   9   0  815.04   54.01
   5  -9   1  140.07    5.02
   5  -9   1  134.73    5.83
  -5   9  -1  133.45   17.58
  -5   9  -1  145.81   19.09
   5  -9   2  326.33   13.03
  -5   9  -2  278.92   25.30
  -5   9  -2  283.18   25.45
   5  -9   3  811.99   40.15
   5  -9   3  778.59   50.63
  -5   9  -3  831.30   62.62
  -5   9  -3  804.01   36.73
   5  -9   4   49.43    6.75
   5  -9   4   46.89   11.10
  -5   9  -4   51.59   10.25
  -5   9  -4   49.35    7.27
   5  -9   5 1245.39   63.89
   5  -9   5 1177.88   87.01
  -5   9  -5 1379.46   74.87
  -5   9  -5 1364.25   71.28
   5  -9   6   60.85   10.62
   5  -9   6   69.87   12.36
  -5   9  -6   63.78   11.25
  -5   9  -6   75.61   11.40
   5  -9   7  327.01   27.04
   5  -9   7  341.30   27.07
  -5   9  -7  383.51   26.41
  -5   9  -7  373.28   40.38
   5  -9   8  676.89   45.52
   5  -9   8  621.16   38.98
  -5   9  -8  526.31   35.39
  -5   9  -8  516.97   42.42
   5  -9   9  205.55   24.93
   5  -9   9  194.62   18.46
  -5   9  -9  167.75   17.84
  -5   9  -9  138.15   24.53
   5  -9  10  230.59   30.90
   5  -9  10  204.19   20.29
  -5   9 -10  215.31   28.73
  -5   9 -10  227.45   44.86
   5  -9  11   33.97   10.39
   5  -9  11   52.79   29.12
  -5   9 -11   38.18   18.54
  -5   9 -11   50.92    9.92
   5  -9  12   11.17   13.04
   5  -9  12   11.11    6.59
  -5   9 -12    7.46    6.55
  -5   9 -12    9.37   13.26
   5  -9  13   52.27   21.85
   5  -9  13   37.12   10.26
  -5   9 -13   46.87   10.11
  -5   9 -13    0.96   22.77
   5  -9  14    6.66   14.24
   5  -9  14    7.42    6.09
  -5   9 -14    5.55    5.64
  -5   9 -14   -0.78   14.73
   5  -9  15   12.00    7.49
   5  -9  15   50.03   19.75
  -5   9 -15    1.95   21.25
  -5   8  12    2.01   13.27
  -5   8  12   17.20   15.46
  -5   8  11   -1.25   14.53
  -5   8  11   32.11   16.11
  -5   8  10   76.64   24.95
  -5   8  10   76.98   22.42
  -5   8  10   63.10    8.64
  -5   8  10   59.19    8.43
  -5   8   9   65.56   21.69
  -5   8   9   49.28    6.87
  -5   8   9   39.36    9.85
  -5   8   9   45.37   19.11
  -5   8   8  150.10   26.94
  -5   8   8  137.75    9.60
  -5   8   8  136.97    9.30
  -5   8   8  131.93   29.03
  -5   8   7   24.72    5.08
  -5   8   7   22.25    3.18
  -5   8   7   19.62   15.11
  -5   8   7   23.42   21.72
  -5   8   6  246.23   10.53
  -5   8   6  289.92   34.49
  -5   8   6  246.43    9.12
  -5   8   6  302.80   32.20
  -5   8   5   40.99   14.97
  -5   8   5   32.17   13.85
  -5   8   4  513.23   61.60
  -5   8   4  512.63   42.95
  -5   8   3   25.05   12.69
  -5   8   3   38.29   11.50
  -5   8   2  225.11   24.33
  -5   8   2  215.54   33.77
  -5   8   1 1204.85   72.63
  -5   8   1 1173.30   70.51
  -5   8   0   64.37   12.21
  -5   8   0   57.51   11.86
   5  -8   1 2190.59   88.68
  -5   8  -1 2111.45  115.40
  -5   8  -1 2209.34  122.72
   5  -8   2  284.16   12.91
   5  -8   2  272.54   13.30
  -5   8  -2  272.04   21.19
  -5   8  -2  265.78   21.47
   5  -8   3  199.04   11.29
   5  -8   3  188.47   16.89
  -5   8  -3  137.12   15.17
  -5   8  -3  128.51   10.98
   5  -8   4 3249.51  161.71
   5  -8   4 3132.02  173.60
  -5   8  -4 3097.83  165.05
  -5   8  -4 3109.30  162.09
   5  -8   5   73.90    9.53
   5  -8   5   70.34   16.22
  -5   8  -5   72.35   10.63
  -5   8  -5   75.66   10.18
   5  -8   6  183.68   16.68
   5  -8   6  162.88   15.56
  -5   8  -6  173.49   14.83
  -5   8  -6  174.83   18.12
   5  -8   7  742.56   46.05
   5  -8   7  743.30   41.67
  -5   8  -7  647.65   44.80
  -5   8  -7  612.00   45.23
   5  -8   8  123.43   17.30
   5  -8   8  129.13   12.18
  -5   8  -8   76.96   17.54
  -5   8  -8   72.08   11.31
   5  -8   9  483.40   38.11
   5  -8   9  396.32   25.80
  -5   8  -9  367.45   24.76
  -5   8  -9  329.24   37.17
   5  -8  10   65.26   32.89
   5  -8  10   74.01   11.60
  -5   8 -10  120.76   11.57
  -5   8 -10  110.90   22.92
   5  -8  11  197.52   31.25
   5  -8  11  155.22   15.76
  -5   8 -11  189.87   16.04
  -5   8 -11  192.21   31.94
   5  -8  12  281.89   41.88
   5  -8  12  263.43   21.39
  -5   8 -12  282.68   21.43
  -5   8 -12  288.94   43.28
   5  -8  13   38.06   13.06
   5  -8  13   51.52   19.84
  -5   8 -13   -0.25   21.17
  -5   8 -13   29.69    8.26
   5  -8  14   -5.12   12.55
   5  -8  14    7.56    7.24
  -5   8 -14    3.81    4.13
  -5   8 -14   -1.35   20.92
   5  -8  15   -8.08   13.79
  -5   8 -15    1.21   14.14
   5  -7 -12    2.16    4.02
   5  -7 -12    5.00    8.07
  -5   7  12    0.81    7.59
  -5   7  12   -0.93    3.64
   5  -7 -11    8.14   11.78
   5  -7 -11    2.35    5.49
  -5   7  11   19.84   10.90
  -5   7  11    9.87    8.15
   5  -7 -10   69.07    9.87
   5  -7 -10    2.41   21.01
  -5   7  10   57.76   19.94
  -5   7  10   54.31   13.87
   5  -7  -9  175.51   30.17
   5  -7  -9  181.76   20.52
  -5   7   9  192.24   30.16
  -5   7   9  204.55   15.14
   5  -7  -8  141.35   10.62
   5  -7  -8  122.55   24.88
  -5   7   8  165.84   26.00
  -5   7   8  153.48   15.47
   5  -7  -7  267.02   30.90
  -5   7   7  259.95   31.85
  -5   7   7  263.55   13.82
   5  -7  -6  126.98    7.41
   5  -7  -6  142.56   21.70
  -5   7   6  154.78    7.83
  -5   7   6  174.85   22.50
   5  -7  -5  402.49   14.25
   5  -7  -5  395.60   35.68
  -5   7   5  433.91   16.76
  -5   7   5  465.03   50.69
   5  -7  -4  149.44    3.82
   5  -7  -4  179.28   19.47
  -5   7   4  128.80   19.19
  -5   7   4  124.77    4.35
  -5   7   3  223.79   22.74
  -5   7   3  214.30   22.94
  -5   7   2 1095.89   65.37
  -5   7   2 1086.34   62.36
  -5   7   1  295.17   24.36
  -5   7   1  301.06   23.52
   5  -7   0  951.76   31.98
   5  -7   0  945.82   32.17
  -5   7   0  963.08   53.36
  -5   7   0  879.79   49.83
   5  -7   1 1518.13   60.43
  -5   7  -1 1610.86   82.84
  -5   7  -1 1611.90   83.11
   5  -7   2  915.00   41.21
   5  -7   2  910.03   38.93
  -5   7  -2 1012.68   50.20
  -5   7  -2 1002.46   50.41
   5  -7   3 1331.02   68.70
   5  -7   3 1257.21   65.28
  -5   7  -3 1532.09   72.69
   5  -7   4  146.98   12.05
   5  -7   4  155.27   18.70
  -5   7  -4  147.02   12.05
  -5   7  -4  158.21   18.37
   5  -7   5   51.25   12.00
   5  -7   5   52.36    8.91
  -5   7  -5   54.56   10.90
  -5   7  -5   36.76    9.29
   5  -7   6  859.22   43.35
   5  -7   6  866.83   49.60
  -5   7  -6  828.74   47.64
  -5   7  -6  820.92   62.77
   5  -7   7    5.80    6.06
   5  -7   7   -1.07    3.95
  -5   7  -7   16.12    6.65
  -5   7  -7   13.59    5.59
   5  -7   8  599.32   42.07
   5  -7   8  558.62   30.09
  -5   7  -8  559.06   28.67
  -5   7  -8  516.46   43.08
   5  -7   9  426.38   36.19
   5  -7   9  422.35   29.81
  -5   7  -9  323.75   36.89
  -5   7  -9  308.86   26.23
   5  -7  10    8.13    4.05
   5  -7  10    5.69    9.20
  -5   7 -10    1.88    5.94
  -5   7 -10    2.50    9.71
   5  -7  11  240.23   31.67
   5  -7  11  194.84   14.71
  -5   7 -11  177.93   32.68
  -5   7 -11  162.19   13.95
   5  -7  12   45.29   27.55
   5  -7  12   32.85   10.18
  -5   7 -12   25.87    6.45
  -5   7 -12    0.44   28.95
   5  -7  13   68.49   24.15
   5  -7  13   50.18    8.31
  -5   7 -13   58.11    8.02
  -5   7 -13    1.75   25.44
   5  -7  14   36.15   19.42
  -5   7 -14   -2.03   19.54
   5  -7  15   96.82   29.03
  -5   7 -15   -1.09   30.27
   5  -6 -13  141.55   31.54
   5  -6 -13  136.79   28.42
  -5   6  13  123.87   18.36
  -5   6  13    0.14   45.30
   5  -6 -12   17.54    8.72
   5  -6 -12   17.48   15.08
  -5   6  12   -0.60   14.23
  -5   6  12   20.12    8.21
   5  -6 -11   22.41   13.65
   5  -6 -11    3.83   16.16
  -5   6  11   22.77   15.04
  -5   6  11   35.89    8.55
   5  -6 -10   94.94   12.64
   5  -6 -10    2.40   22.60
  -5   6  10  138.71   33.65
  -5   6  10  120.61   12.65
   5  -6  -9  277.00   19.91
   5  -6  -9  266.65   33.42
  -5   6   9  259.69   33.50
  -5   6   9  272.70   26.89
   5  -6  -8  120.12   17.06
   5  -6  -8  110.49   36.15
  -5   6   8  171.76   24.28
  -5   6   8  169.34   12.65
   5  -6  -7  384.79   19.88
   5  -6  -7  363.61   34.97
  -5   6   7  376.44   19.74
  -5   6   7  393.39   50.93
   5  -6  -6  153.49   22.48
  -5   6   6  202.27   22.86
  -5   6   6  204.62   10.91
   5  -6  -5  198.49   21.32
  -5   6   5  192.23    9.15
  -5   6   5  175.10   21.35
   5  -6  -4  326.97   11.21
   5  -6  -4  341.61   27.16
  -5   6   4  351.38   27.18
  -5   6   4  330.56   12.09
   5  -6  -3 2071.73   76.96
   5  -6  -3 2169.40  113.52
  -5   6   3 1891.82  118.20
  -5   6   3 1829.08   68.83
   5  -6  -2    4.94    5.84
   5  -6  -2   11.50    1.27
  -5   6   2    6.95    1.41
  -5   6   2   11.64    5.74
   5  -6  -1  479.99   16.33
  -5   6   1  452.17   29.18
  -5   6   1  433.62   28.21
   5  -6   0 1115.57   41.06
  -5   6   0  968.63   52.48
  -5   6   0  965.45   51.57
   5  -6   1  823.69   33.25
   5  -6   1  896.73   41.10
  -5   6  -1  707.45   37.85
  -5   6  -1  686.91   36.65
   5  -6   2 1893.63   86.72
   5  -6   2 1846.72   82.45
  -5   6  -2 1723.03   82.28
  -5   6  -2 1748.54   84.77
   5  -6   3   73.05    9.06
   5  -6   3   83.69   13.28
  -5   6  -3   88.68    8.37
  -5   6  -3  100.38    8.42
   5  -6   4  201.66   12.82
   5  -6   4  211.66   15.80
  -5   6  -4  184.44   11.73
  -5   6  -4  201.88   16.27
   5  -6   5 3432.94  186.95
   5  -6   5 3523.04  175.30
  -5   6  -5 3622.05  173.43
  -5   6  -5 3392.27  203.57
   5  -6   6  237.95   20.29
   5  -6   6  231.92   13.62
  -5   6  -6  210.26   12.15
  -5   6  -6  205.34   20.49
   5  -6   7   42.80   10.61
   5  -6   7   35.12    5.47
  -5   6  -7   36.63    4.93
  -5   6  -7   43.06   11.47
   5  -6   8  831.80   55.35
   5  -6   8  797.86   35.89
  -5   6  -8  706.93   37.66
  -5   6  -8  705.81   54.35
   5  -6   9  203.09   12.60
   5  -6   9  217.49   26.09
  -5   6  -9  183.78   11.71
  -5   6  -9  198.86   27.80
   5  -6  10  417.98   43.35
   5  -6  10  388.14   21.33
  -5   6 -10  487.76   22.78
  -5   6 -10  459.29   47.70
   5  -6  11   12.56   21.27
   5  -6  11   18.62    6.97
  -5   6 -11   12.52    6.53
  -5   6 -11   16.40   13.87
   5  -6  12  152.57   31.79
   5  -6  12  136.44   11.10
  -5   6 -12  137.00   10.77
  -5   6 -12  122.77   31.94
   5  -6  13   41.85   21.13
   5  -6  13   18.29    5.85
  -5   6 -13   51.39    5.98
  -5   6 -13   -0.23   22.35
   5  -6  14   14.17   15.01
  -5   6 -14   -0.65   15.99
   5  -6  15   58.30   30.63
  -5   6 -15   49.48   31.14
   5  -5 -14   31.53   24.52
   5  -5 -14   27.87   37.38
  -5   5  14    4.79   21.53
  -5   5  14   86.76   15.50
   5  -5 -13   48.03   14.09
   5  -5 -13   68.64   20.17
  -5   5  13    0.73   19.16
  -5   5  13   50.85   13.26
   5  -5 -12  242.23   26.33
   5  -5 -12  259.90   36.40
  -5   5  12  252.89   35.19
  -5   5  12  223.73   24.22
   5  -5 -11  189.43   20.00
   5  -5 -11  180.22   29.02
  -5   5  11  158.98   27.91
  -5   5  11  139.09   18.07
   5  -5 -10  229.19   20.94
   5  -5 -10  218.68   46.66
  -5   5  10  251.96   30.69
  -5   5  10  256.16   21.29
   5  -5  -9  576.21   34.86
   5  -5  -9  592.29   48.52
  -5   5   9  518.10   62.64
  -5   5   9  523.38   41.80
   5  -5  -8  179.47   14.29
   5  -5  -8  172.25   24.80
  -5   5   8  202.74   24.59
  -5   5   8  183.39   14.76
   5  -5  -7  472.52   23.64
   5  -5  -7  485.06   36.18
  -5   5   7  389.92   33.63
  -5   5   7  373.75   21.49
   5  -5  -6  203.52   12.14
   5  -5  -6  202.02   22.08
  -5   5   6  272.41   23.23
  -5   5   6  266.86   13.96
   5  -5  -5  525.06   26.24
   5  -5  -5  523.26   34.80
  -5   5   5  533.51   36.30
  -5   5   5  546.50   27.49
   5  -5  -4  902.45   53.26
  -5   5   4 1106.23   43.03
  -5   5   4 1142.70   61.29
   5  -5  -3  123.76   12.63
  -5   5   3  115.47    6.20
  -5   5   3  121.28   19.43
   5  -5  -2 1460.37   75.04
  -5   5   2 1579.07   61.67
  -5   5   2 1574.36   78.15
   5  -5  -1 4677.17  248.57
   5  -5  -1 4486.99  211.08
  -5   5   1 4671.29  248.45
  -5   5   1 4639.33  220.07
   5  -5   0  635.37   31.48
   5  -5   0  652.57   27.88
  -5   5   0  786.48   37.03
  -5   5   0  758.31   35.78
   5  -5   1 2858.94  132.61
   5  -5   1 2865.84  135.90
  -5   5  -1 2761.15  134.23
  -5   5  -1 2838.40  136.09
   5  -5   2  873.43   43.63
   5  -5   2  871.84   42.18
  -5   5  -2 1059.40   44.89
  -5   5  -2 1092.88   45.69
   5  -5   3  432.56   31.69
   5  -5   3  413.02   24.07
  -5   5  -3  418.18   18.66
  -5   5  -3  414.58   19.13
   5  -5   4 1467.27   78.19
   5  -5   4 1481.14   75.87
  -5   5  -4 1451.93   64.33
  -5   5  -4 1518.36   62.97
   5  -5   5  233.57   27.24
   5  -5   5  219.11   14.46
  -5   5  -5  223.24   10.39
  -5   5  -5  201.53   19.69
   5  -5   6   43.45    4.66
   5  -5   6   44.14   11.56
  -5   5  -6   59.70    4.39
  -5   5  -6   65.22   12.01
   5  -5   7 1084.14   67.32
   5  -5   7 1074.55   43.89
  -5   5  -7 1105.82   87.12
  -5   5  -7 1118.53   43.40
   5  -5   8  243.31   26.06
   5  -5   8  211.84   10.66
  -5   5  -8  236.96   10.62
  -5   5  -8  216.48   28.06
   5  -5   9  182.68   24.33
   5  -5   9  185.07    9.21
  -5   5  -9  117.06    7.86
  -5   5  -9  126.55   24.78
   5  -5  10   23.12   18.93
   5  -5  10   20.41    3.32
  -5   5 -10    8.58    3.11
  -5   5 -10   -1.48   12.64
   5  -5  11  108.34   23.94
   5  -5  11   95.24    6.90
  -5   5 -11   75.38    6.50
  -5   5 -11   71.32   24.20
   5  -5  12  106.57   38.02
   5  -5  12   70.55    6.12
  -5   5 -12   43.05    8.12
  -5   5 -12   -0.80   39.67
   5  -5  13   66.60   26.34
  -5   5 -13   64.54   29.64
   5  -5  14   40.61   25.17
  -5   5 -14   37.54   26.62
   5  -4 -14   10.05    8.42
   5  -4 -14   19.50   17.53
  -5   4  14   -2.69    9.97
  -5   4  14    0.52    7.72
   5  -4 -13   41.31   16.31
   5  -4 -13   54.22   22.42
  -5   4  13   20.51   31.80
  -5   4  13   90.15   15.73
   5  -4 -12   88.35   15.74
   5  -4 -12   -0.26   22.74
  -5   4  12  106.65   21.14
  -5   4  12   89.47   15.27
   5  -4 -11   75.66   14.76
   5  -4 -11   90.66   20.88
  -5   4  11   71.86   19.88
  -5   4  11   76.10   13.44
   5  -4 -10   73.43   12.23
   5  -4 -10   64.99   17.82
  -5   4  10   85.09   17.57
  -5   4  10   67.92   12.62
   5  -4  -9  154.74   21.69
   5  -4  -9  149.83   21.76
  -5   4   9  131.07   20.69
  -5   4   9  153.03   21.78
   5  -4  -8  838.20   52.89
   5  -4  -8  864.01   56.56
  -5   4   8  809.17   53.87
  -5   4   8  813.36   44.73
   5  -4  -7  119.72   10.77
   5  -4  -7  118.27   16.38
  -5   4   7  129.92   16.88
  -5   4   7  130.42   11.26
   5  -4  -6  320.49   17.93
   5  -4  -6  327.77   26.23
  -5   4   6  407.14   28.37
  -5   4   6  415.58   20.44
   5  -4  -5  120.51    7.95
   5  -4  -5  129.52   13.17
  -5   4   5   86.13   12.69
  -5   4   5   88.59    7.85
   5  -4  -4  406.36   21.63
   5  -4  -4  391.58   24.92
  -5   4   4  414.10   18.26
  -5   4   4  426.11   26.36
   5  -4  -3  495.45   24.21
   5  -4  -3  502.10   28.57
  -5   4   3  552.09   29.74
  -5   4   3  547.79   22.59
   5  -4  -2 4228.47  199.68
   5  -4  -2 4228.32  219.57
  -5   4   2 4276.45  203.82
  -5   4   2 4323.40  223.03
   5  -4  -1  265.74   16.03
   5  -4  -1  268.90   17.10
  -5   4   1  315.66   16.62
  -5   4   1  325.38   15.07
   5  -4   0 1936.58   90.31
   5  -4   0 1924.02   83.59
  -5   4   0 1669.85   75.51
  -5   4   0 1612.06   72.57
   5  -4   1 3788.54  188.30
   5  -4   1 3802.18  190.61
  -5   4  -1 3551.97  169.40
  -5   4  -1 3517.60  165.97
   5  -4   2 2201.41  117.41
   5  -4   2 2175.75  110.14
  -5   4  -2 2319.07  102.84
  -5   4  -2 2316.09   96.52
   5  -4   3  281.65   20.42
   5  -4   3  249.76   18.87
  -5   4  -3  305.07   11.94
  -5   4  -3  311.13   11.83
   5  -4   4  129.28   15.22
   5  -4   4  124.41   14.56
  -5   4  -4  160.56    6.60
   5  -4   5   48.90   10.60
   5  -4   5   48.55    9.61
  -5   4  -5   41.14    2.60
   5  -4   6 1158.61   67.16
   5  -4   6 1157.95   40.21
  -5   4  -6 1063.33   36.20
  -5   4  -6 1094.03   69.10
   5  -4   7   22.62   13.66
  -5   4  -7   60.44    3.16
  -5   4  -7   72.02   14.84
   5  -4   8  389.35   35.96
   5  -4   8  377.56   13.57
  -5   4  -8  412.59   15.82
  -5   4  -8  422.98   38.86
   5  -4   9   45.45   13.06
  -5   4  -9   24.99    2.42
  -5   4  -9   14.59   14.57
   5  -4  10   81.97   21.23
   5  -4  10   78.37    4.71
  -5   4 -10   74.65   23.44
  -5   4 -10   87.19    6.33
   5  -4  11    1.25   26.76
   5  -4  11   32.11    4.52
  -5   4 -11   27.16   17.04
  -5   4 -11   23.04    2.80
   5  -4  12   83.66   21.69
   5  -4  12   41.53    3.88
  -5   4 -12   47.83   22.69
   5  -4  13  108.95   31.71
  -5   4 -13   87.09   32.30
   5  -4  14   -1.17   25.27
   5  -4  14   68.00   24.28
   5  -3 -15    1.04   12.54
   5  -3 -15   17.30   14.64
  -5   3  15    5.64   13.78
  -5   3  15   20.45   11.53
   5  -3 -14   45.91   18.34
   5  -3 -14   78.89   22.01
  -5   3  14   75.36   20.27
  -5   3  14   38.51   17.25
   5  -3 -13  123.16   23.07
   5  -3 -13  141.83   27.89
  -5   3  13  128.22   26.17
  -5   3  13  148.47   22.52
   5  -3 -12   33.47   12.28
   5  -3 -12    2.02   15.28
  -5   3  12   38.04   14.26
  -5   3  12   35.33   11.76
   5  -3 -11  288.57   28.65
   5  -3 -11  309.08   36.27
  -5   3  11  378.66   35.99
  -5   3  11  359.67   30.77
   5  -3 -10  126.36   16.13
   5  -3 -10  126.87   21.80
  -5   3  10  147.47   20.80
  -5   3  10  128.91   16.26
   5  -3  -9  370.25   26.33
   5  -3  -9  379.07   33.69
  -5   3   9  371.10   32.67
  -5   3   9  371.57   27.27
   5  -3  -8  275.06   19.69
   5  -3  -8  283.33   26.03
  -5   3   8  255.17   24.14
  -5   3   8  253.64   19.69
   5  -3  -7   17.57    9.13
   5  -3  -7   17.08    8.23
  -5   3   7   22.66    8.22
  -5   3   7   30.18    6.10
   5  -3  -6 1206.45   56.76
   5  -3  -6 1314.97   81.26
  -5   3   6 1213.62   65.15
  -5   3   6 1220.45   58.74
   5  -3  -5  156.76    9.97
   5  -3  -5  161.43   20.67
  -5   3   5  117.44   13.57
  -5   3   5  124.46    9.93
   5  -3  -4 1068.51   52.00
   5  -3  -4 1057.26   52.38
  -5   3   4 1058.03   46.40
  -5   3   4 1026.15   51.37
   5  -3  -3 1174.04   50.90
   5  -3  -3 1148.63   56.03
  -5   3   3 1400.88   62.90
  -5   3   3 1378.83   58.19
   5  -3  -2  986.45   42.79
   5  -3  -2  967.92   45.13
  -5   3   2 1135.65   48.92
  -5   3   2 1146.07   53.60
   5  -3  -1  747.82   33.21
   5  -3  -1  734.69   32.08
  -5   3   1  795.55   38.54
  -5   3   1  784.04   34.99
   5  -3   0 1693.77   77.75
   5  -3   0 1755.79   77.72
  -5   3   0 1624.09   67.30
  -5   3   0 1621.90   75.85
   5  -3   1 1300.02   64.06
   5  -3   1 1305.33   51.79
  -5   3  -1 1487.67   69.35
  -5   3  -1 1440.61   54.18
   5  -3   2 5446.98  305.85
   5  -3   2 5480.77  311.34
  -5   3  -2 5811.93  278.77
   5  -3   3 2988.82  152.63
   5  -3   3 2949.15  148.37
  -5   3  -3 2863.62  105.84
  -5   3  -3 2148.01   81.41
   5  -3   4 1340.58   71.04
   5  -3   4 1289.44   65.98
  -5   3  -4 1106.58   32.62
  -5   3  -4 1047.93   30.20
   5  -3   5  620.47   54.54
   5  -3   5  578.93   38.94
   5  -3   6  558.27   42.52
   5  -3   6  539.82   39.50
   5  -3   7  323.89   32.52
   5  -3   7  303.10   43.40
   5  -3   8  135.90   24.43
   5  -3   8  142.20   22.89
   5  -3   9  374.81   38.81
   5  -3   9  349.74   41.07
   5  -3  10  497.48   54.32
   5  -3  10  542.91   73.32
   5  -3  11  271.43   45.75
   5  -3  11  320.43   42.80
   5  -3  12  162.66   37.10
   5  -3  12  140.94   33.80
   5  -3  13   -1.79   20.78
   5  -3  13   38.49   19.22
   5  -3  14   48.74   23.62
   5  -3  14    4.14   24.86
   5  -2 -15  231.28   36.14
   5  -2 -15  255.03   39.64
  -5   2  15  219.51   37.02
  -5   2  15  208.31   34.41
   5  -2 -14   35.19   15.90
   5  -2 -14   33.74   18.18
  -5   2  14   25.61   16.28
  -5   2  14   32.48   14.60
   5  -2 -13  151.77   24.09
   5  -2 -13  173.06   29.37
  -5   2  13  148.32   26.55
  -5   2  13  125.38   23.11
   5  -2 -12   -2.83   21.83
   5  -2 -12   45.82   27.08
  -5   2  12   52.14   15.56
  -5   2  12   61.36   14.46
   5  -2 -11  164.41   21.56
   5  -2 -11  172.44   25.32
  -5   2  11  182.98   24.46
  -5   2  11  169.79   21.43
   5  -2 -10  146.17   18.57
   5  -2 -10  151.78   22.70
  -5   2  10  237.60   34.32
  -5   2  10  195.29   29.57
   5  -2  -9 1277.21   74.09
   5  -2  -9 1371.90   82.69
  -5   2   9 1394.29   79.07
  -5   2   9 1392.22   81.99
   5  -2  -8  127.31   16.70
   5  -2  -8  120.82   13.34
  -5   2   8  135.99   16.02
  -5   2   8  134.94   14.48
   5  -2  -7  257.19   20.89
   5  -2  -7  260.22   17.10
  -5   2   7  202.54   19.73
  -5   2   7  196.51   17.03
   5  -2  -6 1013.02   54.21
   5  -2  -6 1047.06   50.13
  -5   2   6  984.20   53.89
  -5   2   6 1010.05   50.42
   5  -2  -5 1227.37   61.39
   5  -2  -5 1251.18   64.68
  -5   2   5 1218.98   65.20
  -5   2   5 1147.75   58.45
   5  -2  -4 1722.10   83.75
   5  -2  -4 1817.99   84.69
  -5   2   4 1974.80   90.17
  -5   2   4 2003.11  101.40
   5  -2  -3  616.67   28.31
   5  -2  -3  638.26   28.43
  -5   2   3  508.55   25.29
  -5   2   3  523.79   26.12
   5  -2  -2 1419.41   63.31
   5  -2  -2 1390.10   60.27
  -5   2   2 1430.35   60.30
  -5   2   2 1404.94   64.09
   5  -2  -1 2819.02  135.92
   5  -2  -1 2813.30  124.29
  -5   2   1 2769.28  120.67
  -5   2   1 2810.52  136.05
   5  -2   0 1041.96   50.77
   5  -2   0 1027.54   39.78
  -5   2   0 1035.45   42.00
  -5   2   0 1093.06   51.99
   5  -2   1 1091.25   55.29
   5  -2   1 1104.49   39.40
  -5   2  -1 1057.90   53.64
   5  -2   2  638.61   38.72
   5  -2   2  629.89   38.37
  -5   2  -2  739.81   21.36
  -5   2  -2  777.81   23.70
   5  -2   3  704.86   43.10
   5  -2   3  690.32   40.54
   5  -2   4  427.13   32.04
   5  -2   4  438.32   30.71
   5  -2   5  379.94   32.33
   5  -2   5  370.32   30.01
   5  -2   6  223.38   24.85
   5  -2   6  241.21   26.99
   5  -2   7   25.38   23.64
   5  -2   7   49.38   13.66
   5  -2   8  292.26   36.70
   5  -2   8  298.68   33.40
   5  -2   9   52.73   19.29
   5  -2   9   52.63   28.32
   5  -2  10    7.27   11.26
   5  -2  10    4.13   10.06
   5  -2  11  130.57   32.51
   5  -2  11  135.01   30.83
   5  -2  12   -4.54   27.20
   5  -2  12  118.36   25.68
   5  -2  13    1.42   65.74
   5  -2  13  223.09   39.74
   5  -1 -16    0.26   30.13
   5  -1 -16   13.89   20.47
  -5   1  16   36.76   18.26
  -5   1  16   51.55   18.23
   5  -1 -15  179.51   34.60
   5  -1 -15  192.39   37.21
  -5   1  15  192.61   32.02
  -5   1  15  162.17   32.40
   5  -1 -14   46.82   19.08
   5  -1 -14   40.37   20.44
  -5   1  14   50.84   19.03
  -5   1  14   73.92   18.01
   5  -1 -13   88.33   20.58
   5  -1 -13   87.73   22.58
  -5   1  13   98.04   21.82
  -5   1  13  104.59   20.45
   5  -1 -12   37.05   16.68
   5  -1 -12   53.94   22.63
  -5   1  12   55.23   15.06
  -5   1  12   49.07   15.81
   5  -1 -11   60.61   15.40
   5  -1 -11   65.95   13.42
  -5   1  11   30.69   13.26
  -5   1  11   33.19   14.34
   5  -1 -10  109.26   20.56
   5  -1 -10  118.82   18.14
  -5   1  10  173.79   31.46
  -5   1  10  176.64   19.37
   5  -1  -9   98.65   14.95
   5  -1  -9  106.28   20.29
  -5   1   9   71.93   14.58
  -5   1   9   75.31   13.79
   5  -1  -8  474.80   34.66
   5  -1  -8  484.46   31.95
  -5   1   8  584.21   36.49
  -5   1   8  575.68   34.68
   5  -1  -7  532.08   33.87
   5  -1  -7  538.26   31.45
  -5   1   7  565.27   34.77
  -5   1   7  550.94   42.31
   5  -1  -6  532.21   32.06
   5  -1  -6  544.25   31.60
  -5   1   6  636.67   34.55
  -5   1   6  664.03   43.50
   5  -1  -5 4275.33  221.97
   5  -1  -5 4502.25  241.84
  -5   1   5 3916.62  210.34
  -5   1   5 3948.21  218.51
   5  -1  -4  370.89   20.43
   5  -1  -4  366.00   27.17
  -5   1   4  366.01   20.71
  -5   1   4  375.91   26.21
   5  -1  -3  779.08   33.86
   5  -1  -3  799.57   37.21
  -5   1   3  664.32   30.94
  -5   1   3  685.08   34.67
   5  -1  -2 1551.90   68.31
   5  -1  -2 1506.18   60.56
  -5   1   2 1151.31   50.26
  -5   1   2 1128.74   56.84
   5  -1  -1 1215.35   46.43
   5  -1  -1 1243.71   57.46
  -5   1   1 1001.62   45.03
  -5   1   1 1000.77   50.43
   5  -1   0  573.22   21.42
   5  -1   0  624.11   34.14
  -5   1   0  665.36   34.38
  -5   1   0  646.45   22.81
   5  -1   1  261.43   19.18
   5  -1   1  253.78    8.65
  -5   1  -1  293.00   27.56
   5  -1   2  191.14   15.94
  -5   1  -2   90.33   13.68
   5  -1   3 1860.01  105.70
   5  -1   3 1910.87  105.39
   5  -1   4  972.75   61.46
   5  -1   4  943.63   57.96
   5  -1   5  506.79   40.33
   5  -1   5  489.69   36.28
   5  -1   6  352.87   35.60
   5  -1   6  360.90   33.17
   5  -1   7 1018.97   75.17
   5  -1   7  950.80   67.19
   5  -1   8   47.77   17.79
   5  -1   8   45.42   15.75
   5  -1   9  175.28   33.06
   5  -1   9  184.09   30.32
   5  -1  10  194.32   36.92
   5  -1  10  214.21   34.00
   5  -1  11  215.48   55.89
   5  -1  11  206.06   42.59
   5  -1  12   66.35   22.20
   5  -1  12    0.34   24.22
   5  -1  13  139.68   31.03
   5  -1  13    0.80   34.69
   5   0 -16    3.84   31.20
   5   0 -16  145.97   29.42
  -5   0  16  122.81   28.78
  -5   0  16  137.90   42.57
   5   0 -15   -1.44   11.28
   5   0 -15   11.18   11.14
  -5   0  15   -2.30   10.84
  -5   0  15   13.73   10.41
   5   0 -14  273.22   39.32
   5   0 -14  278.64   38.30
  -5   0  14  295.88   37.12
  -5   0  14  262.19   36.76
   5   0 -13   16.26   12.79
   5   0 -13   26.44   18.57
  -5   0  13   15.22   12.17
  -5   0  13    9.86   12.13
   5   0 -12   77.12   19.69
   5   0 -12   95.11   18.84
  -5   0  12   87.91   19.05
  -5   0  12   64.47   28.91
   5   0 -11  390.92   36.52
   5   0 -11  396.06   34.37
  -5   0  11  324.98   33.43
  -5   0  11  313.39   33.41
   5   0 -10  363.96   30.90
   5   0 -10  326.69   31.82
  -5   0  10  345.16   31.23
  -5   0  10  333.05   30.96
   5   0  -9  389.87   31.84
   5   0  -9  406.76   43.76
  -5   0   9  470.86   33.74
  -5   0   9  459.00   44.97
   5   0  -8  167.03   17.13
   5   0  -8  165.79   26.89
  -5   0   8  160.76   18.39
  -5   0   8  166.67   17.39
   5   0  -7    6.88    7.25
   5   0  -7    8.28    6.87
  -5   0   7   34.92    7.44
  -5   0   7   34.37    7.26
   5   0  -6 1479.14   74.35
   5   0  -6 1451.23   74.65
  -5   0   6 1459.86   73.47
  -5   0   6 1400.52   73.81
   5   0  -5  410.54   24.27
   5   0  -5  458.71   27.06
  -5   0   5  514.74   28.89
  -5   0   5  504.56   27.13
   5   0  -4 1429.39   67.66
   5   0  -4 1522.31   74.64
  -5   0   4 1595.17   72.53
  -5   0   4 1595.23   78.34
   5   0  -3  590.86   27.71
   5   0  -3  629.91   33.29
  -5   0   3  716.50   31.30
  -5   0   3  683.48   35.04
   5   0  -2 4866.73  261.60
   5   0  -2 4785.75  237.33
  -5   0   2 5062.24  273.10
  -5   0   2 5024.04  248.37
   5   0  -1   87.84    5.77
   5   0  -1   98.14   10.27
  -5   0   1   47.78    9.42
   5   0   0 1323.43   51.21
   5   0   0 1338.83   71.50
  -5   0   0 1695.33   92.64
  -5   0   0 1571.66   58.84
   5   0   1  614.92   35.95
   5   0   1  612.25   21.62
  -5   0  -1  430.90   30.91
   5   0   2  259.41   21.22
   5   0   2  244.18    7.79
  -5   0  -2  210.73   19.73
  -5   0  -2  210.84    6.49
   5   0   3  188.28   21.06
   5   0   3  190.82   20.52
   5   0   4  149.63   20.47
   5   0   4  134.87   18.59
   5   0   5  543.35   44.29
   5   0   5  515.95   41.51
   5   0   6  669.52   54.97
   5   0   6  669.67   51.66
   5   0   7  177.43   29.32
   5   0   7  173.48   26.17
   5   0   8   31.10   15.98
   5   0   8   22.43   13.70
   5   0   9   85.14   26.32
   5   0   9   98.21   23.81
   5   0  10   12.36   16.63
   5   0  10   19.29   14.61
   5   0  11   -0.34   20.03
   5   0  11   41.96   17.85
   5   0  12   -0.16   11.54
   5   0  12    4.15   10.76
   5   1 -16    1.92    9.91
   5   1 -16    4.57   11.05
  -5  -1  16    5.04    9.95
  -5  -1  16   -4.00   17.08
   5   1 -15   59.98   20.35
   5   1 -15    0.00   21.49
  -5  -1  15   58.10   33.92
  -5  -1  15   73.89   20.22
   5   1 -14   81.69   22.81
   5   1 -14   68.48   36.86
  -5  -1  14   78.57   34.93
  -5  -1  14   78.00   35.06
   5   1 -13   98.50   22.72
   5   1 -13   92.76   22.62
  -5  -1  13   88.96   21.88
  -5  -1  13  110.04   23.08
   5   1 -12  340.51   37.19
   5   1 -12  364.86   38.05
  -5  -1  12  357.38   36.34
  -5  -1  12  321.03   37.44
   5   1 -11  104.18   19.63
   5   1 -11  118.56   19.65
  -5  -1  11  106.21   20.19
  -5  -1  11  109.41   19.82
   5   1 -10  466.95   37.62
   5   1 -10  473.92   37.45
  -5  -1  10  397.87   35.58
  -5  -1  10  388.17   50.13
   5   1  -9  445.66   34.83
   5   1  -9  446.74   35.00
  -5  -1   9  503.22   35.26
  -5  -1   9  466.52   35.26
   5   1  -8 1007.40   57.90
   5   1  -8  962.90   56.08
  -5  -1   8  991.89   56.97
  -5  -1   8  901.84   57.10
   5   1  -7  343.31   25.59
   5   1  -7  382.72   27.26
  -5  -1   7  409.64   27.10
  -5  -1   7  410.58   29.00
   5   1  -6  335.76   22.12
   5   1  -6  318.12   23.22
  -5  -1   6  307.20   23.15
  -5  -1   6  297.73   21.64
   5   1  -5  546.04   28.00
   5   1  -5  565.42   31.61
  -5  -1   5  394.14   27.59
  -5  -1   5  406.95   24.84
   5   1  -4 3295.02  161.76
   5   1  -4 3395.79  173.93
  -5  -1   4 3099.81  155.30
  -5  -1   4 3092.08  166.17
   5   1  -3  864.44   39.39
   5   1  -3  916.99   48.10
  -5  -1   3  944.34   49.25
  -5  -1   3  975.61   59.10
   5   1  -2  599.46   33.64
   5   1  -2  583.65   26.20
  -5  -1   2  614.41   27.17
  -5  -1   2  631.02   35.26
   5   1  -1 2736.23  115.84
   5   1  -1 2768.55  139.05
  -5  -1   1 2216.34   99.97
  -5  -1   1 2291.14  123.23
   5   1   0 3263.44  141.97
   5   1   0 3356.24  180.93
  -5  -1   0 3078.17  142.80
  -5  -1   0 3097.46  169.48
   5   1   1  689.99   24.77
   5   1   1  706.86   43.39
  -5  -1  -1  728.35   43.60
   5   1   2  210.85   20.57
   5   1   2  207.18    9.06
  -5  -1  -2  219.27   30.12
   5   1   3  190.09   21.74
   5   1   3  180.76    5.64
   5   1   3  205.64   22.19
   5   1   3  193.30    6.18
   5   1   4 1321.59   39.81
   5   1   4 1411.08   43.02
   5   1   4 1475.10   89.13
   5   1   4 1487.87   92.33
   5   1   5  749.72   55.86
   5   1   5  750.19   58.01
   5   1   6   21.87   13.79
   5   1   6   27.48   12.43
   5   1   7  297.33   36.89
   5   1   7  280.74   34.94
   5   1   8  530.23   56.44
   5   1   8  496.93   50.88
   5   1   9   64.14   20.66
   5   1   9   24.57   34.08
   5   1  10   -1.81   42.68
   5   1  10  138.26   38.31
   5   1  11    0.24   41.42
   5   1  11   69.94   23.41
   5   1  12   -1.47   15.13
   5   1  12    1.36    8.77
   5   2 -16   95.46   31.98
   5   2 -16  132.01   36.09
  -5  -2  16  187.48   32.56
  -5  -2  16  147.88   35.63
   5   2 -15  131.04   28.27
   5   2 -15  122.48   30.72
  -5  -2  15  108.91   28.20
  -5  -2  15  104.74   29.94
   5   2 -14   35.59   13.56
   5   2 -14    8.23   14.58
  -5  -2  14   11.57   14.47
  -5  -2  14    8.60   13.27
   5   2 -13  425.32   47.07
   5   2 -13  460.99   45.84
  -5  -2  13  424.60   44.84
  -5  -2  13  420.57   47.43
   5   2 -12   34.15   14.37
   5   2 -12   32.10   15.06
  -5  -2  12   41.61   14.46
  -5  -2  12   22.20   15.05
   5   2 -11  260.45   46.04
   5   2 -11  265.33   31.81
  -5  -2  11  340.25   32.62
  -5  -2  11  300.78   48.06
   5   2 -10   36.67   11.65
   5   2 -10   36.69   10.93
  -5  -2  10   14.39   11.61
  -5  -2  10   17.93   11.35
   5   2  -9  572.02   41.00
   5   2  -9  557.04   52.87
  -5  -2   9  463.87   36.97
  -5  -2   9  458.28   51.65
   5   2  -8  159.20   18.00
   5   2  -8  165.78   18.84
  -5  -2   8  137.61   17.37
  -5  -2   8  145.75   18.87
   5   2  -7  645.34   38.49
   5   2  -7  706.04   43.77
  -5  -2   7  586.83   40.65
  -5  -2   7  609.65   38.32
   5   2  -6 1815.07   96.86
   5   2  -6 1687.89   86.70
  -5  -2   6 1636.31   92.54
  -5  -2   6 1709.19   89.77
   5   2  -5 1111.74   56.40
   5   2  -5 1170.55   63.81
  -5  -2   5 1139.59   63.55
  -5  -2   5 1233.75   61.54
   5   2  -4 1391.11   67.58
   5   2  -4 1430.28   76.23
  -5  -2   4 1556.80   74.13
  -5  -2   4 1515.37   80.13
   5   2  -3  880.70   41.31
   5   2  -3  916.10   49.68
  -5  -2   3  866.57   42.01
  -5  -2   3  883.21   49.72
   5   2  -2  325.31   22.99
   5   2  -2  361.63   17.69
  -5  -2   2  299.14   17.00
  -5  -2   2  315.38   23.72
   5   2  -1 1418.56   60.09
   5   2  -1 1437.59   76.94
  -5  -2   1 1303.61   58.10
  -5  -2   1 1323.68   74.13
   5   2   0   17.76    6.33
   5   2   0   14.37    2.76
  -5  -2   0    2.73    2.76
  -5  -2   0   -1.39    9.54
   5   2   1   39.33    3.58
   5   2   1   41.87   14.65
  -5  -2  -1   15.52    3.61
  -5  -2  -1   12.90    8.86
   5   2   2 1044.08   78.53
   5   2   2  974.33   36.41
  -5  -2  -2  846.24   57.67
   5   2   3  166.71   22.14
   5   2   3  160.94   21.47
   5   2   3  168.72    7.37
   5   2   3  166.37    7.56
   5   2   4  502.86   43.27
   5   2   4  495.37   17.30
   5   2   4  504.57   41.76
   5   2   4  492.18   17.37
   5   2   5  429.59   14.39
   5   2   5  441.57   16.99
   5   2   5  492.68   41.88
   5   2   5  478.68   43.95
   5   2   6   30.89    2.16
   5   2   6   32.31   13.83
   5   2   6   31.07    2.90
   5   2   6   28.83   15.34
   5   2   7   23.55    2.36
   5   2   7   27.44    2.44
   5   2   7   20.98   14.13
   5   2   7   27.61   15.46
   5   2   8   65.40   24.54
   5   2   8    1.90   13.78
   5   2   9   13.67   13.32
   5   2   9    8.75   14.95
   5   2  10   65.39   46.50
   5   2  10  127.38   32.72
   5   2  11   14.48   12.54
   5   2  11   -6.24   14.32
   5   3 -16  121.80   28.99
   5   3 -16  139.85   30.73
  -5  -3  16   -0.11   26.61
  -5  -3  16   81.46   30.25
   5   3 -15   95.90   26.59
   5   3 -15   96.06   29.67
  -5  -3  15  105.85   27.25
  -5  -3  15  105.16   30.40
   5   3 -14  134.05   30.97
   5   3 -14  148.06   32.16
  -5  -3  14  168.24   30.90
  -5  -3  14  187.32   33.37
   5   3 -13    8.38   10.95
   5   3 -13    5.06   18.28
  -5  -3  13   10.77   10.94
  -5  -3  13    6.85   11.36
   5   3 -12   35.04   14.97
   5   3 -12   37.81   16.30
  -5  -3  12   40.87   15.26
  -5  -3  12   35.68   16.42
   5   3 -11  315.65   36.77
   5   3 -11  302.62   49.51
  -5  -3  11  427.27   38.39
  -5  -3  11  353.17   38.49
   5   3 -10  182.00   26.38
   5   3 -10  213.47   25.48
  -5  -3  10  234.99   26.05
  -5  -3  10  210.47   26.61
   5   3  -9  893.08   57.50
   5   3  -9  838.22   52.10
  -5  -3   9  653.84   52.71
  -5  -3   9  771.45   53.16
   5   3  -8  127.38   17.13
   5   3  -8  129.42   28.79
  -5  -3   8  147.84   19.81
  -5  -3   8  147.02   18.29
   5   3  -7 1227.22   69.70
   5   3  -7 1330.89   77.92
  -5  -3   7 1266.54   92.33
  -5  -3   7 1312.45   73.92
   5   3  -6   33.40   13.21
   5   3  -6   33.06   10.07
  -5  -3   6   37.13   15.88
  -5  -3   6   33.28    8.76
   5   3  -5  270.02   19.04
   5   3  -5  265.01   22.18
  -5  -3   5  204.96   18.13
  -5  -3   5  209.80   21.49
   5   3  -4  127.12   12.75
   5   3  -4  130.45   15.80
  -5  -3   4  157.57   13.59
  -5  -3   4  168.84   17.22
   5   3  -3  484.50   25.50
   5   3  -3  492.68   31.87
  -5  -3   3  452.69   25.62
  -5  -3   3  433.12   31.58
   5   3  -2  205.25   13.21
   5   3  -2  208.41   18.68
  -5  -3   2  175.05   18.45
  -5  -3   2  168.07   13.05
   5   3  -1  448.65   22.44
   5   3  -1  495.37   32.43
  -5  -3   1  438.59   22.90
  -5  -3   1  422.25   31.01
   5   3   0  276.03   18.26
   5   3   0  268.95   22.83
  -5  -3   0  195.43   21.28
  -5  -3   0  201.94   13.42
   5   3   1 1049.66   45.03
   5   3   1 1093.51   67.07
  -5  -3  -1 1015.79   45.34
  -5  -3  -1 1001.50   64.21
   5   3   2  162.44    9.33
   5   3   2  161.41   20.82
  -5  -3  -2  129.03   20.04
  -5  -3  -2  136.99    9.52
   5   3   3  505.01   41.87
   5   3   3  446.46   23.83
   5   3   3  453.30   20.28
   5   3   3  473.39   39.85
   5   3   4  376.76   38.02
   5   3   4  351.46   15.61
   5   3   4  384.54   37.02
   5   3   4  362.54   16.09
   5   3   5  205.54   30.30
   5   3   5  203.53   10.09
   5   3   5  233.05   28.83
   5   3   5  200.47    9.82
   5   3   6  182.41   30.39
   5   3   6  180.00    8.53
   5   3   6  171.63    8.63
   5   3   6  201.65   28.85
   5   3   7   75.38    6.25
   5   3   7   68.09    6.67
   5   3   7   75.52   20.91
   5   3   7   68.05   34.80
   5   3   8   34.40   16.03
   5   3   8   16.24   17.54
   5   3   9  155.39   33.07
   5   3   9  174.38   36.05
   5   3  10    2.06   12.22
   5   3  10   -0.07    8.94
   5   4 -16    8.86   17.58
   5   4 -16    1.10   11.39
  -5  -4  16   -0.34   10.44
  -5  -4  16    4.70   11.88
   5   4 -15  134.96   32.93
   5   4 -15  123.19   29.38
  -5  -4  15   88.68   49.79
  -5  -4  15  107.51   29.16
   5   4 -14  115.21   28.32
   5   4 -14  150.35   31.37
  -5  -4  14  128.94   28.94
  -5  -4  14  130.40   31.32
   5   4 -13  205.69   32.88
   5   4 -13  215.78   36.50
  -5  -4  13  255.97   35.34
  -5  -4  13  261.91   37.34
   5   4 -12   40.54   18.36
   5   4 -12   72.48   16.97
  -5  -4  12   28.44   17.16
  -5  -4  12   40.50   17.75
   5   4 -11  146.65   27.22
   5   4 -11  176.34   25.07
  -5  -4  11  142.48   40.52
  -5  -4  11  183.40   26.34
   5   4 -10  301.28   31.43
   5   4 -10  270.74   28.72
  -5  -4  10  264.12   30.28
  -5  -4  10  221.09   30.96
   5   4  -9   79.86   15.00
   5   4  -9   76.97   16.89
  -5  -4   9   38.33   25.87
  -5  -4   9   43.02   23.48
   5   4  -8  536.88   37.06
   5   4  -8  578.40   42.37
  -5  -4   8  394.87   38.24
  -5  -4   8  418.26   35.86
   5   4  -7  882.81   56.20
   5   4  -7  846.08   50.52
  -5  -4   7  727.31   52.69
  -5  -4   7  750.51   49.23
   5   4  -6  161.92   24.89
   5   4  -6  194.54   20.28
  -5  -4   6  146.97   19.64
  -5  -4   6  144.73   17.43
   5   4  -5  314.67   26.03
   5   4  -5  309.00   21.99
  -5  -4   5  240.40   30.62
  -5  -4   5  241.53   24.94
   5   4  -4  509.89   29.45
   5   4  -4  517.07   47.29
  -5  -4   4  479.55   35.03
  -5  -4   4  431.35   29.31
   5   4  -3 1591.57   90.06
   5   4  -3 1570.27   89.32
  -5  -4   3 1591.91   92.72
  -5  -4   3 1536.98   91.18
   5   4  -2   20.28    9.52
   5   4  -2   24.48    6.56
  -5  -4   2   39.83    9.97
  -5  -4   2   37.27    6.83
   5   4  -1  167.44   19.51
   5   4  -1  178.12   13.44
  -5  -4   1  171.05   13.55
  -5  -4   1  181.18   29.48
   5   4   0 1716.96   92.69
   5   4   0 1755.92  104.98
  -5  -4   0 1820.48  109.51
  -5  -4   0 1776.45   87.61
   5   4   1   79.99    8.55
   5   4   1   68.25   15.82
  -5  -4  -1  102.05    9.31
  -5  -4  -1   94.68   16.54
   5   4   2  545.82   27.93
   5   4   2  600.19   47.36
  -5  -4  -2  700.18   65.20
  -5  -4  -2  667.46   39.29
   5   4   3  956.88   71.04
   5   4   3  894.86   41.57
   5   4   3  981.04   69.55
   5   4   3  928.22   43.26
   5   4   4  196.75   12.39
   5   4   4  221.22   29.71
   5   4   4  211.90   28.74
   5   4   4  203.58   16.70
   5   4   5  189.19   11.94
   5   4   5  206.38   29.89
   5   4   5  211.69   30.49
   5   4   5  193.11   11.69
   5   4   6    0.16    5.27
   5   4   6   21.07   12.32
   5   4   6   22.78    5.62
   5   4   6   25.61   11.80
   5   4   7   46.60    5.07
   5   4   7   55.73    7.83
   5   4   7   68.87   19.20
   5   4   7   61.91   20.83
   5   4   8    4.50    7.13
   5   4   8   -4.36    6.36
   5   4   9    7.05   12.91
   5   4   9    4.40   11.67
   5   4  10    5.86   19.63
   5   4  10   33.82   17.61
   5   5 -16   38.46   24.73
   5   5 -16   60.72   26.26
  -5  -5  16    0.17   22.94
  -5  -5  16   79.38   26.64
   5   5 -15   -6.68   11.55
   5   5 -15   -7.54   12.11
  -5  -5  15   -0.33   11.01
  -5  -5  15   -0.57   12.32
   5   5 -14   67.17   30.23
   5   5 -14   91.59   32.75
  -5  -5  14    0.35   19.04
  -5  -5  14   36.25   20.67
   5   5 -13  220.92   34.95
   5   5 -13  185.05   37.57
  -5  -5  13  251.08   35.36
  -5  -5  13  227.29   37.21
   5   5 -12  322.12   41.12
   5   5 -12  325.15   37.19
  -5  -5  12  260.24   39.64
  -5  -5  12  307.68   38.46
   5   5 -11  276.39   34.11
   5   5 -11  257.44   31.51
  -5  -5  11  226.94   33.74
  -5  -5  11  255.79   33.15
   5   5 -10  180.75   26.71
   5   5 -10  164.13   24.37
  -5  -5  10  138.61   40.49
  -5  -5  10  149.02   25.18
   5   5  -9  582.62   50.17
  -5  -5   9  589.98   51.40
  -5  -5   9  665.68   50.21
   5   5  -8  338.49   30.42
   5   5  -8  395.97   34.09
  -5  -5   8  263.68   29.62
  -5  -5   8  241.42   31.04
   5   5  -7    6.09    6.24
   5   5  -7    1.97    7.21
  -5  -5   7    7.24    7.57
  -5  -5   7    3.85   10.66
   5   5  -6 1620.76   99.43
   5   5  -6 1525.38   89.01
  -5  -5   6 1670.52   96.20
  -5  -5   6 1607.06  102.98
   5   5  -5  224.68   20.93
   5   5  -5  233.18   24.71
  -5  -5   5  222.32   22.01
  -5  -5   5  240.98   26.22
   5   5  -4  410.66   28.91
   5   5  -4  414.30   33.13
  -5  -5   4  459.55   31.44
  -5  -5   4  459.74   36.34
   5   5  -3  397.83   42.90
   5   5  -3  360.80   24.79
  -5  -5   3  342.74   31.23
  -5  -5   3  326.99   24.84
   5   5  -2    0.79    6.99
   5   5  -2    6.72    5.17
  -5  -5   2    9.35    5.06
  -5  -5   2    9.87   11.16
   5   5  -1  260.32   27.60
   5   5  -1  251.88   28.40
  -5  -5   1  314.02   21.89
  -5  -5   1  325.27   29.83
   5   5   0  355.94   22.38
   5   5   0  367.75   31.57
  -5  -5   0  315.91   32.36
  -5  -5   0  311.04   22.01
   5   5   1   15.56    4.98
   5   5   1   16.49   14.04
  -5  -5  -1    0.23   14.30
  -5  -5  -1    5.84    5.16
   5   5   2   21.64    5.77
   5   5   2   22.15   11.61
  -5  -5  -2   21.83   11.77
  -5  -5  -2   24.99    6.40
   5   5   3   71.65    8.59
   5   5   3   60.99   18.37
   5   5   3   67.05   18.30
   5   5   3   64.46    8.43
   5   5   4  127.38   11.19
   5   5   4  142.68   36.97
   5   5   4  133.82   23.39
   5   5   4  116.58   10.76
   5   5   5  188.91   13.91
   5   5   5  208.86   32.46
   5   5   5  238.69   31.47
   5   5   5  203.55   18.75
   5   5   6   -0.24    5.00
   5   5   6    0.35    5.26
   5   5   6   39.21   15.91
   5   5   6   25.83    9.66
   5   5   7   39.19   17.12
   5   5   7   19.76   18.29
   5   5   8   61.48   18.72
   5   5   8    1.39   19.96
   5   5   9   -3.78   13.55
   5   5   9   18.76   13.40
   5   6 -16  111.11   31.98
   5   6 -16   80.78   27.99
  -5  -6  16    0.17   28.89
  -5  -6  16  106.64   33.83
   5   6 -15   65.44   37.30
   5   6 -15   57.76   24.63
  -5  -6  15   -0.11   22.92
  -5  -6  15   65.92   25.64
   5   6 -14  104.84   26.38
   5   6 -14  115.45   28.12
  -5  -6  14   -0.06   25.33
  -5  -6  14   85.52   43.06
   5   6 -13  111.67   24.08
   5   6 -13  129.21   26.52
  -5  -6  13   81.13   26.35
  -5  -6  13    0.24   24.78
   5   6 -12  225.74   56.36
   5   6 -12  170.24   33.22
  -5  -6  12  242.69   37.27
  -5  -6  12  286.66   36.82
   5   6 -11   -5.75    8.98
   5   6 -11    3.77    8.36
  -5  -6  11   16.82    9.32
  -5  -6  11    0.94    9.01
   5   6 -10  358.01   39.61
   5   6 -10  327.47   37.55
  -5  -6  10  345.04   55.56
  -5  -6  10  321.46   40.29
   5   6  -9  298.96   31.89
   5   6  -9  288.67   34.45
  -5  -6   9  259.47   34.28
  -5  -6   9  281.40   32.81
   5   6  -8  145.85   21.50
   5   6  -8  165.90   23.99
  -5  -6   8  123.40   35.87
  -5  -6   8  122.87   22.40
   5   6  -7  903.47   74.63
   5   6  -7  962.60   63.65
  -5  -6   7  694.81   58.19
  -5  -6   7  751.50   56.14
   5   6  -6   38.66   13.48
   5   6  -6   55.00   15.47
  -5  -6   6  111.14   22.69
  -5  -6   6   82.73   17.05
   5   6  -5  259.03   23.97
   5   6  -5  255.00   27.38
  -5  -6   5  230.32   24.49
  -5  -6   5  244.14   28.84
   5   6  -4  113.40   16.23
   5   6  -4  122.56   18.82
  -5  -6   4  138.07   17.14
  -5  -6   4  145.83   31.37
   5   6  -3   91.54   13.97
   5   6  -3   85.29   16.78
  -5  -6   3   91.79   18.19
  -5  -6   3   91.61   13.99
   5   6  -2  784.59   55.61
   5   6  -2  787.28   61.20
  -5  -6   2  900.41   65.94
  -5  -6   2  903.50   62.99
   5   6  -1   60.70   14.60
   5   6  -1   70.69   11.05
  -5  -6   1   56.83   10.68
  -5  -6   1   38.69   15.63
   5   6   0    6.31    7.89
   5   6   0    4.33    8.44
  -5  -6   0    7.60    5.39
  -5  -6   0   12.98   13.20
   5   6   1  729.07   41.71
   5   6   1  747.70   57.27
  -5  -6  -1  688.29   55.87
  -5  -6  -1  632.95   41.10
   5   6   2  178.47   28.27
   5   6   2  201.13   24.66
  -5  -6  -2  232.56   29.28
  -5  -6  -2  211.95   18.29
   5   6   3  127.69   22.77
   5   6   3   96.67   12.03
   5   6   3   97.51   18.10
   5   6   3  105.10   21.73
   5   6   4    0.27    5.14
   5   6   4   25.27   10.71
   5   6   4   11.39   10.78
   5   6   4   17.74    7.55
   5   6   5   70.53    9.65
   5   6   5   80.04   21.57
   5   6   5   78.52   22.02
   5   6   5   72.92    9.39
   5   6   6   -0.52    9.17
   5   6   6   39.38   25.44
   5   6   6   48.26   15.70
   5   6   6   27.52    5.86
   5   6   7   -3.58   14.93
   5   6   7   32.68   14.49
   5   6   8    7.58   13.36
   5   7 -16  189.05   46.21
   5   7 -16  139.42   40.51
  -5  -7  16  163.43   48.49
  -5  -7  16  178.01   41.09
   5   7 -15   -9.77   14.01
   5   7 -15   24.09   15.31
  -5  -7  15    0.41   13.70
  -5  -7  15   15.79   15.64
   5   7 -14   18.26   17.04
   5   7 -14   21.68   15.79
  -5  -7  14   10.65   16.89
  -5  -7  14   -0.24   15.75
   5   7 -13  149.27   32.56
   5   7 -13  120.78   30.03
  -5  -7  13  109.39   32.68
  -5  -7  13  121.09   30.46
   5   7 -12  197.24   34.44
   5   7 -12  184.65   32.81
  -5  -7  12  157.78   35.47
  -5  -7  12  178.96   33.35
   5   7 -11  148.88   44.27
   5   7 -11  146.57   26.69
  -5  -7  11  130.70   31.04
  -5  -7  11  126.93   28.15
   5   7 -10  269.81   35.99
   5   7 -10  257.91   34.23
  -5  -7  10  236.11   37.07
  -5  -7  10  256.91   53.40
   5   7  -9   19.39   12.93
   5   7  -9   33.13   14.39
  -5  -7   9   24.13   14.85
  -5  -7   9   26.84   13.84
   5   7  -8  556.03   46.93
   5   7  -8  586.58   51.95
  -5  -7   8  531.66   50.83
  -5  -7   8  566.44   50.11
   5   7  -7    6.28    9.02
   5   7  -7    0.98    9.97
  -5  -7   7   14.16    9.84
  -5  -7   7   24.00   10.70
   5   7  -6   12.84   10.18
   5   7  -6   10.93   10.85
  -5  -7   6   22.98   10.31
  -5  -7   6   22.06   11.84
   5   7  -5  293.45   28.71
   5   7  -5  322.36   32.47
  -5  -7   5  272.03   33.58
  -5  -7   5  276.65   41.89
   5   7  -4  368.59   34.14
   5   7  -4  336.31   30.48
  -5  -7   4  308.98   30.48
  -5  -7   4  343.12   36.15
   5   7  -3  567.54   40.44
   5   7  -3  555.00   45.77
  -5  -7   3  523.29   41.04
  -5  -7   3  520.41   46.98
   5   7  -2   75.70   16.64
   5   7  -2   79.30   13.63
  -5  -7   2   39.10   21.07
  -5  -7   2   61.74   26.94
   5   7  -1  296.52   25.31
   5   7  -1  274.42   45.33
  -5  -7   1  275.67   34.26
  -5  -7   1  289.42   25.83
   5   7   0   63.14   17.44
   5   7   0   56.15   13.05
  -5  -7   0   92.54   13.92
  -5  -7   0  114.43   19.80
   5   7   1   52.43   14.77
   5   7   1   39.37   10.02
  -5  -7  -1   36.18   15.65
  -5  -7  -1   34.73   10.49
   5   7   2   23.69   11.01
   5   7   2   33.00   11.41
  -5  -7  -2    0.25    7.38
  -5  -7  -2   17.10   11.75
   5   7   3   -0.60    8.47
   5   7   3   28.70   23.72
   5   7   3   52.38    8.66
   5   7   3   41.46   14.63
   5   7   4   -0.28    2.73
   5   7   4   -0.28    8.32
   5   7   4    5.60    5.26
   5   7   4   -3.50    4.21
   5   7   5   46.43    9.08
   5   7   5   50.84   18.88
   5   7   5   34.67   19.27
   5   7   5   47.07    8.72
   5   7   6   38.52   15.45
   5   7   6   -3.72   15.73
   5   8 -15   80.04   32.69
   5   8 -15   91.68   31.45
  -5  -8  15   -0.08   49.60
  -5  -8  15   90.31   34.67
   5   8 -14  217.22   42.05
   5   8 -14  197.01   40.15
  -5  -8  14  160.09   42.98
  -5  -8  14  150.47   40.32
   5   8 -13   89.87   26.60
   5   8 -13   77.46   24.98
  -5  -8  13   82.55   28.99
  -5  -8  13   -0.19   26.69
   5   8 -12   49.92   16.78
   5   8 -12   23.45   25.60
  -5  -8  12    8.09   18.07
  -5  -8  12   -5.43   16.48
   5   8 -11   84.49   39.01
   5   8 -11   75.05   23.76
  -5  -8  11   90.94   27.49
  -5  -8  11   79.53   25.18
   5   8 -10   23.77   16.13
   5   8 -10   44.96   16.28
  -5  -8  10   18.21   17.88
  -5  -8  10   22.24   17.13
   5   8  -9  423.23   46.31
   5   8  -9  416.02   46.77
  -5  -8   9  452.81   51.82
  -5  -8   9  478.41   49.66
   5   8  -8   94.51   22.28
   5   8  -8   99.16   20.39
  -5  -8   8   74.05   33.85
  -5  -8   8   58.74   23.16
   5   8  -7  133.30   35.50
   5   8  -7  126.53   23.46
  -5  -8   7  118.60   24.34
  -5  -8   7  144.86   27.06
   5   8  -6  315.72   33.52
   5   8  -6  301.27   34.87
  -5  -8   6  325.09   39.21
  -5  -8   6  305.28   34.21
   5   8  -5   30.00   20.18
   5   8  -5   32.11   13.55
  -5  -8   5   23.14   20.44
  -5  -8   5   26.29   14.69
   5   8  -4   55.29   14.41
   5   8  -4   48.47   23.72
  -5  -8   4   44.36   16.39
  -5  -8   4   41.94   14.73
   5   8  -3   64.03   24.33
   5   8  -3   78.20   17.20
  -5  -8   3   65.70   16.10
  -5  -8   3   77.11   19.06
   5   8  -2   39.92   12.97
   5   8  -2   50.43   14.80
  -5  -8   2   43.90   20.26
  -5  -8   2   41.92   16.17
   5   8  -1  323.65   33.37
   5   8  -1  299.04   39.42
  -5  -8   1  254.58   34.76
  -5  -8   1  227.86   27.63
   5   8   0   41.09   13.43
   5   8   0   26.56   10.68
  -5  -8   0   24.73   11.21
  -5  -8   0   31.32   14.86
   5   8   1   22.36   13.35
   5   8   1   20.24    9.59
  -5  -8  -1   38.10   21.93
  -5  -8  -1   26.35   10.12
   5   8   2   98.58   20.04
   5   8   2   66.82   18.38
   5   8   2   -0.21   19.00
   5   8   2   59.32   12.77
   5   8   3   -0.18    9.18
   5   8   3   42.68   14.28
   5   8   3   30.82    9.29
   5   8   3   47.49   22.36
   5   8   4   -1.11    6.82
   5   8   4   25.27   12.00
   5   8   4   12.61    6.72
   5   8   4   17.82   11.84
   5   8   5    0.82    4.70
   5   8   5    9.37    9.68
   5   8   5    6.77    7.00
   5   8   5    0.11    9.50
   5   9 -14   26.16   20.16
   5   9 -14   26.37   20.30
  -5  -9  14   10.41   21.71
  -5  -9  14    0.10   31.67
   5   9 -13  265.51   49.10
   5   9 -13  288.74   72.98
  -5  -9  13  262.90   49.90
  -5  -9  13  294.38   79.64
   5   9 -12   19.69   15.29
   5   9 -12   19.47   15.73
  -5  -9  12    5.52   16.67
  -5  -9  12    1.02   16.10
   5   9 -11  219.35   56.43
   5   9 -11  176.02   37.64
  -5  -9  11  238.96   60.33
  -5  -9  11  209.01   40.87
   5   9 -10  254.40   39.65
   5   9 -10  249.97   39.52
  -5  -9  10  271.16   42.46
  -5  -9  10  252.25   60.99
   5   9  -9   69.50   24.74
   5   9  -9   87.37   24.67
  -5  -9   9  113.78   25.28
  -5  -9   9  128.42   28.55
   5   9  -8   75.39   20.20
   5   9  -8   53.54   21.26
  -5  -9   8   62.30   32.65
  -5  -9   8   62.50   35.44
   5   9  -7  184.77   28.40
   5   9  -7  139.49   27.87
  -5  -9   7  165.22   29.34
  -5  -9   7  144.72   31.04
   5   9  -6   32.31   13.09
   5   9  -6   13.39   20.68
  -5  -9   6    1.58   15.01
  -5  -9   6   28.08   14.30
   5   9  -5  409.12   41.91
   5   9  -5  388.10   41.21
  -5  -9   5  378.40   44.51
  -5  -9   5  379.39   59.98
   5   9  -4  158.47   24.63
   5   9  -4  166.89   25.81
  -5  -9   4  130.65   28.00
  -5  -9   4  147.45   25.61
   5   9  -3  116.36   22.72
   5   9  -3  128.61   22.32
  -5  -9   3  116.76   22.61
  -5  -9   3  137.67   25.51
   5   9  -2  200.69   26.01
   5   9  -2  190.72   28.41
  -5  -9   2  229.04   48.45
  -5  -9   2  194.81   26.72
   5   9  -1   52.96   23.15
   5   9  -1   48.26   16.99
  -5  -9   1   63.68   24.30
  -5  -9   1   53.68   18.86
   5   9   0  120.32   23.66
   5   9   0  127.51   20.07
  -5  -9   0  117.11   26.14
  -5  -9   0  125.32   21.34
   5   9   1    1.38    7.23
   5   9   1   21.21    9.39
  -5  -9  -1    2.63   10.18
  -5  -9  -1    0.36    7.76
   5   9   2   27.07   15.05
   5   9   2   42.11   13.76
   5   9   2    0.59   10.28
   5   9   2   27.33   10.64
   5   9   3    0.41   11.48
   5   9   3    1.20   11.08
   5   9   3   21.79   11.33
   5   9   3    8.88    7.43
   5  10 -13  146.63   40.73
   5  10 -13  208.86   44.57
  -5 -10  13  178.91   42.68
  -5 -10  13   59.37   64.47
   5  10 -12   14.29   21.25
   5  10 -12   32.54   22.62
  -5 -10  12   39.11   22.72
  -5 -10  12   45.56   22.35
   5  10 -11  218.02   56.98
   5  10 -11  218.59   39.97
  -5 -10  11  126.28   38.76
  -5 -10  11  143.65   38.42
   5  10 -10   11.03   12.64
   5  10 -10  -15.26   21.41
  -5 -10  10    6.65   21.82
  -5 -10  10   13.15   13.80
   5  10  -9  164.15   31.53
   5  10  -9  158.00   33.32
  -5 -10   9  159.54   33.58
  -5 -10   9  135.13   33.72
   5  10  -8   91.98   39.09
   5  10  -8  121.96   24.26
  -5 -10   8  124.60   38.60
  -5 -10   8    1.84   26.03
   5  10  -7  293.65   39.71
   5  10  -7  320.02   57.57
  -5 -10   7  249.57   41.34
  -5 -10   7  241.04   40.99
   5  10  -6  185.18   49.20
   5  10  -6  177.45   30.00
  -5 -10   6  196.20   34.58
  -5 -10   6  188.01   32.44
   5  10  -5  255.28   35.59
   5  10  -5  252.14   33.76
  -5 -10   5  247.16   36.55
  -5 -10   5  219.76   52.93
   5  10  -4   42.78   14.09
   5  10  -4   26.45   14.09
  -5 -10   4   21.42   14.42
  -5 -10   4   -0.38   15.25
   5  10  -3  187.57   29.29
   5  10  -3  205.48   29.38
  -5 -10   3  159.09   29.06
  -5 -10   3  164.23   32.47
   5  10  -2  144.90   24.46
   5  10  -2  131.79   25.28
  -5 -10   2  133.04   28.34
  -5 -10   2  113.96   24.72
   5  10  -1   87.70   19.22
   5  10  -1   56.86   27.24
  -5 -10   1   89.53   18.98
  -5 -10   1   -0.74   21.66
   5  10   0   10.03    9.49
   5  10   0    8.48   10.88
  -5 -10   0   -2.03   18.74
  -5 -10   0   12.13    9.96
   5  10   1  100.43   20.57
   5  10   1   57.79   17.82
   5  10   1   97.18   17.24
  -5 -10  -1    0.19   21.22
   5  10   2   26.01   14.41
   5  10   2   20.27   11.19
   5  10   2   20.80   15.02
   5  10   2   18.73   11.89
   5  11 -12  219.25   42.55
   5  11 -12  262.10   47.67
  -5 -11  12  148.52   42.66
  -5 -11  12  177.27   46.51
   5  11 -11    9.61   14.08
   5  11 -11   16.50   15.48
  -5 -11  11    5.98   15.81
  -5 -11  11    1.01   14.52
   5  11 -10   -3.16    7.40
   5  11 -10   -4.54    8.23
  -5 -11  10    7.51    8.43
  -5 -11  10   -0.47    7.52
   5  11  -9   -0.04   19.27
   5  11  -9   95.75   20.99
  -5 -11   9   40.92   21.13
  -5 -11   9   -2.69   19.14
   5  11  -8   76.08   22.68
   5  11  -8    0.62   31.62
  -5 -11   8   -1.31   23.18
  -5 -11   8   89.95   24.00
   5  11  -7   12.85   10.37
   5  11  -7    1.58    9.55
  -5 -11   7    3.49   10.54
  -5 -11   7   -3.97   10.97
   5  11  -6   39.81   13.09
   5  11  -6   -0.41   12.15
  -5 -11   6    1.60   13.29
  -5 -11   6   -3.09   13.65
   5  11  -5    0.68    9.38
  -5 -11   5    2.50    6.58
  -5 -11   5   -3.58    6.62
   5  11  -4  182.55   32.21
   5  11  -4  183.90   30.97
  -5 -11   4  191.72   33.63
  -5 -11   4  188.92   34.88
   5  11  -3   74.96   14.90
   5  11  -3    0.67   14.43
  -5 -11   3    6.14   15.64
  -5 -11   3   -3.34   16.36
   5  11  -2  -11.32    7.96
   5  11  -2   -0.20   12.50
  -5 -11   2    4.85    8.66
  -5 -11   2    0.43    8.94
   5  11  -1  143.55   25.97
   5  11  -1  126.11   26.84
  -5 -11   1  131.68   29.63
  -5 -11   1  133.22   27.91
   5  12  -9   -0.87   29.23
   5  12  -9   43.00   21.42
  -5 -12   9    0.67   19.32
  -5 -12   9   57.06   22.83
   5  12  -8  131.74   30.98
   5  12  -8  128.85   27.63
  -5 -12   8    0.43   28.17
  -5 -12   8  109.73   32.54
   5  12  -7   41.31   15.63
   5  12  -7   -0.85   14.23
  -5 -12   7   -0.03   24.41
  -5 -12   7    0.34   16.42
   5  12  -6   70.58   17.51
   5  12  -6    0.44   15.54
  -5 -12   6   -2.63   16.54
  -5 -12   6   -5.05   27.73
   5  12  -5   15.99    9.62
   5  12  -5    1.02    8.28
  -5 -12   5   -5.60    9.91
  -5 -12   5   -3.23    9.45
   5  12  -4    2.94    9.12
   5  12  -4   -1.20    8.33
  -5 -12   4   -6.79    9.77
  -5 -12   4   -4.12    9.44
  -6  16   0    0.63   11.35
  -6  16   0    1.79   12.30
  -6  16  -1  109.16   36.55
  -6  16  -1  117.39   37.09
  -6  16  -2   76.15   30.27
  -6  16  -2   71.31   51.26
  -6  16  -3   12.90   18.44
  -6  16  -3   22.85   19.55
  -6  16  -4   19.02   17.66
  -6  16  -4    8.66   29.80
  -6  16  -5  130.35   35.03
  -6  16  -5  110.59   35.03
  -6  16  -6   -1.12   10.41
  -6  16  -6   -2.47   10.37
   6 -16   7   54.62   27.10
  -6  16  -7   72.30   26.63
   6 -16   8   73.96   19.47
  -6  16  -8   69.75   19.04
  -6  16  -8   -0.05    8.59
   6 -16   9   34.59   12.00
   6 -16   9   44.90   23.18
  -6  16  -9   81.23   22.19
  -6  16  -9    0.27   18.35
  -6  15   2  137.36   30.72
  -6  15   2   -4.17   32.57
  -6  15   1   -0.53   10.15
  -6  15   1   -1.58   10.65
  -6  15   0   25.66   21.07
  -6  15   0   29.19   34.13
  -6  15  -1   13.39   20.20
  -6  15  -1   32.45   19.16
  -6  15  -2  226.78   41.35
  -6  15  -2  244.52   45.15
  -6  15  -3   37.33   19.50
  -6  15  -3   20.52   20.77
  -6  15  -4  190.13   36.44
  -6  15  -4  160.37   37.09
  -6  15  -5   34.94   32.38
  -6  15  -5   44.13   21.92
   6 -15   6    9.12    9.12
  -6  15  -6    3.28    9.16
  -6  15  -6    0.53    3.27
   6 -15   7   14.71   12.68
   6 -15   7    8.25    5.52
  -6  15  -7   21.57   12.34
  -6  15  -7    1.22    5.53
   6 -15   8  105.15   15.49
   6 -15   8  137.02   28.43
  -6  15  -8    0.78   23.43
  -6  15  -8  132.19   27.15
   6 -15   9  141.66   31.73
   6 -15   9  117.75   33.07
  -6  15  -9  166.32   31.50
  -6  15  -9  145.25   21.92
   6 -15  10   96.09   25.06
   6 -15  10   -0.72   17.37
  -6  15 -10  101.75   18.12
  -6  15 -10   97.47   36.40
   6 -15  11   20.93   18.31
   6 -15  11    0.93   23.37
  -6  15 -11   24.08   17.94
  -6  15 -11   43.80   15.35
  -6  14   4   18.52   17.28
  -6  14   4    3.54   17.86
  -6  14   3   71.66   23.48
  -6  14   3    2.23   23.97
  -6  14   2   73.90   22.97
  -6  14   2    3.68   22.81
  -6  14   1   45.51   24.27
  -6  14   1   63.30   26.00
  -6  14   0   38.65   21.01
  -6  14   0   38.24   21.58
  -6  14  -1    1.47   12.58
  -6  14  -1   11.00   12.43
  -6  14  -2  397.58   51.66
  -6  14  -2  440.51   53.67
  -6  14  -3  345.23   44.06
  -6  14  -3  337.62   69.27
   6 -14   4   10.55    2.65
   6 -14   4    9.21    2.74
  -6  14  -4   14.98   19.51
  -6  14  -4   21.72   13.62
   6 -14   5   10.64   13.31
   6 -14   5   12.43    4.42
  -6  14  -5   17.75   12.73
  -6  14  -5   11.22    4.62
   6 -14   6  651.72   64.56
   6 -14   6  668.57   47.47
  -6  14  -6  673.15   63.09
  -6  14  -6  588.97   37.50
   6 -14   7    8.54   25.50
   6 -14   7   38.80    8.41
  -6  14  -7   53.62   15.14
  -6  14  -7   -0.26    8.91
   6 -14   8    2.52    8.89
   6 -14   8    4.22    8.65
  -6  14  -8    7.78    8.61
  -6  14  -8   -0.41    5.68
   6 -14   9  194.95   24.78
   6 -14   9  171.68   32.39
  -6  14  -9  165.97   30.48
  -6  14  -9  136.53   23.54
   6 -14  10  114.57   27.26
   6 -14  10  140.12   23.61
  -6  14 -10  107.27   26.41
  -6  14 -10  106.89   22.73
   6 -14  11  223.76   34.99
   6 -14  11  211.48   32.87
  -6  14 -11  222.75   33.42
  -6  14 -11  184.21   32.82
   6 -14  12   12.64   13.72
   6 -14  12   28.37   14.62
  -6  14 -12   18.06   13.39
  -6  14 -12    2.13   14.69
  -6  13   6   68.77   23.92
  -6  13   6   -1.65   24.04
  -6  13   5   50.17   22.64
  -6  13   5   -0.25   36.24
  -6  13   4    6.55   14.16
  -6  13   4    7.52   14.40
  -6  13   3  229.95   41.97
  -6  13   3  244.84   43.46
  -6  13   2   13.27   13.58
  -6  13   2    0.03   21.77
  -6  13   1    7.83   13.85
  -6  13   1   15.96   14.24
  -6  13   0  272.37   41.44
  -6  13   0  292.11   42.10
  -6  13  -1   86.73   24.53
  -6  13  -1  101.11   25.36
  -6  13  -2  101.34   22.64
  -6  13  -2   66.13   23.46
   6 -13   3  166.54    7.34
   6 -13   3  177.20    9.56
  -6  13  -3  219.28   31.67
  -6  13  -3  213.04   30.02
   6 -13   4   74.41   10.61
  -6  13  -4  107.42   20.77
  -6  13  -4  102.28   22.77
   6 -13   5  240.63   32.22
   6 -13   5  208.08   21.25
  -6  13  -5  227.49   30.64
  -6  13  -5  205.85   16.54
   6 -13   6   76.11   21.59
   6 -13   6   94.13   11.74
  -6  13  -6   77.09   20.32
  -6  13  -6   79.76   11.80
   6 -13   7    7.20   10.63
   6 -13   7   17.45   10.21
  -6  13  -7    9.20   10.02
  -6  13  -7   -1.14   10.48
   6 -13   8  163.37   27.63
   6 -13   8  185.58   21.33
  -6  13  -8  170.43   26.84
  -6  13  -8  129.27   20.76
   6 -13   9   75.64   23.59
   6 -13   9  120.03   20.14
  -6  13  -9  137.53   23.16
  -6  13  -9  111.94   20.60
   6 -13  10  144.15   35.36
   6 -13  10  105.74   23.72
  -6  13 -10  105.65   23.03
  -6  13 -10  118.81   22.78
   6 -13  11   20.87   15.54
   6 -13  11   29.59   14.54
  -6  13 -11   35.86   14.27
  -6  13 -11   16.28   15.55
   6 -13  12   28.71   15.52
   6 -13  12   10.02   19.78
  -6  13 -12   24.92   12.42
  -6  13 -12   -2.74   15.70
   6 -13  13  105.49   29.38
   6 -13  13  111.85   21.52
  -6  13 -13   96.57   20.44
  -6  13 -13    6.05   28.52
  -6  12   7   80.72   24.69
  -6  12   7   -5.60   23.94
  -6  12   6   25.57   17.40
  -6  12   6    2.51   16.68
  -6  12   5   91.50   23.75
  -6  12   5   -3.19   23.39
  -6  12   4   80.01   21.76
  -6  12   4    5.87   22.52
  -6  12   3  101.92   26.87
  -6  12   3  106.52   27.28
  -6  12   2   22.85   16.14
  -6  12   2   32.54   26.12
  -6  12   1  300.51   59.68
  -6  12   1  318.93   41.90
  -6  12   0    3.22    9.74
  -6  12   0    8.97    9.92
  -6  12  -1   20.74   14.99
  -6  12  -1   61.15   24.54
  -6  12  -2   95.12   22.02
  -6  12  -2  110.27   22.87
   6 -12   3  129.24    8.30
   6 -12   3  132.20    7.65
  -6  12  -3  120.33   23.12
  -6  12  -3   99.01   23.79
   6 -12   4  762.11   37.86
   6 -12   4  779.93   44.18
  -6  12  -4  756.15   58.92
  -6  12  -4  776.51   61.69
   6 -12   5  173.51   25.72
   6 -12   5  176.30   14.85
  -6  12  -5  161.13   23.61
  -6  12  -5  159.03   14.70
   6 -12   6   20.53   11.98
   6 -12   6   20.46   19.10
  -6  12  -6   22.12    7.69
  -6  12  -6   22.13   11.34
   6 -12   7  692.74   45.78
   6 -12   7  611.67   53.51
  -6  12  -7  646.10   49.83
  -6  12  -7  555.03   54.38
   6 -12   8   45.72   19.65
   6 -12   8   51.15   22.35
  -6  12  -8   43.16   13.77
  -6  12  -8   31.05   12.59
   6 -12   9   93.74   18.86
   6 -12   9   84.79   18.75
  -6  12  -9   86.12   17.89
  -6  12  -9   66.86   18.59
   6 -12  10  125.31   21.54
   6 -12  10   91.33   19.63
  -6  12 -10   76.69   18.54
  -6  12 -10   75.90   21.51
   6 -12  11  328.65   40.40
   6 -12  11  287.41   47.20
  -6  12 -11  285.09   45.23
  -6  12 -11  259.55   38.73
   6 -12  12   87.12   25.65
   6 -12  12   77.28   18.69
  -6  12 -12  125.46   18.65
  -6  12 -12    1.86   26.28
   6 -12  13  -12.06   21.65
   6 -12  13   18.84    8.70
  -6  12 -13    2.90    8.17
  -6  12 -13   -1.60   13.68
  -6  11   9    3.26   24.89
  -6  11   9  -14.02   16.52
  -6  11   8   -3.31   12.40
  -6  11   8   12.84   13.15
  -6  11   7   51.54   19.97
  -6  11   7   -1.32   19.02
  -6  11   6  142.40   35.49
  -6  11   6  139.62   32.90
  -6  11   5  112.63   30.38
  -6  11   5  126.12   29.35
  -6  11   4  111.19   28.39
  -6  11   4  134.82   28.49
  -6  11   3  150.87   28.68
  -6  11   3  139.80   29.10
  -6  11   2 1106.11   86.01
  -6  11   2 1072.60   82.91
  -6  11   1  103.08   24.00
  -6  11   1  144.56   25.43
  -6  11   0  536.21   47.56
  -6  11   0  547.14   49.61
  -6  11  -1  752.12   59.00
  -6  11  -1  808.40   79.96
   6 -11   2  403.65   15.11
   6 -11   2  426.06   18.90
  -6  11  -2  454.03   38.98
  -6  11  -2  415.07   39.79
  -6  11  -3   97.79   17.73
  -6  11  -3   85.96   17.91
   6 -11   4   19.94    5.53
   6 -11   4   20.62    5.93
  -6  11  -4   49.24   11.08
  -6  11  -4   39.89   11.44
   6 -11   5  282.18   18.58
   6 -11   5  258.37   28.69
  -6  11  -5  233.79   27.41
  -6  11  -5  221.44   25.65
   6 -11   6  231.21   20.27
   6 -11   6  203.86   26.47
  -6  11  -6  287.33   26.49
  -6  11  -6  260.23   22.06
   6 -11   7   23.07    9.85
   6 -11   7   21.90   11.77
  -6  11  -7   41.67   11.10
  -6  11  -7   37.89   10.30
   6 -11   8   46.06   12.02
   6 -11   8   38.03   12.04
  -6  11  -8   32.38   11.36
  -6  11  -8   21.05   12.07
   6 -11   9  420.74   39.38
   6 -11   9  351.64   33.87
  -6  11  -9  357.36   37.40
  -6  11  -9  381.72   46.11
   6 -11  10    6.93   11.68
   6 -11  10    4.51   14.05
  -6  11 -10   14.83    8.55
  -6  11 -10   19.24   11.63
   6 -11  11  373.01   42.14
   6 -11  11  311.80   30.67
  -6  11 -11  291.97   29.14
  -6  11 -11  236.44   40.29
   6 -11  12   11.22   20.20
   6 -11  12   11.88    7.70
  -6  11 -12    6.35    7.48
  -6  11 -12   -1.86   12.65
   6 -11  13   11.46   15.47
   6 -11  13    4.61    8.42
  -6  11 -13   18.35    7.97
  -6  11 -13    0.24   24.70
   6 -11  14    9.78   15.31
   6 -11  14    5.78    7.37
  -6  11 -14    9.92    6.54
  -6  11 -14    0.60   15.82
  -6  10  10    0.33   22.74
  -6  10  10   78.66   25.41
  -6  10   9   -0.59    7.51
  -6  10   9   -0.04    8.34
  -6  10   8  243.40   40.85
  -6  10   8  216.24   44.29
  -6  10   7   37.56   16.35
  -6  10   7   -2.43   14.99
  -6  10   6  164.74   30.60
  -6  10   6  147.92   33.98
  -6  10   5   45.97   31.19
  -6  10   5   41.74   18.14
  -6  10   4   26.18   15.87
  -6  10   4   33.46   15.52
  -6  10   3   85.80   21.34
  -6  10   3   90.63   33.44
  -6  10   2  895.54   90.88
  -6  10   2  891.05   68.23
  -6  10   1  332.11   35.63
  -6  10   1  350.01   36.37
  -6  10   0  554.00   45.03
  -6  10   0  606.37   46.54
   6 -10   1   78.93    4.40
  -6  10  -1  115.87   25.11
  -6  10  -1   89.97   16.42
   6 -10   2 1914.82   83.96
  -6  10  -2 1894.11  113.96
  -6  10  -2 1844.81  115.25
   6 -10   3  426.29   19.96
   6 -10   3  420.87   21.81
  -6  10  -3  325.40   31.09
  -6  10  -3  315.46   31.81
   6 -10   4  185.42   18.06
   6 -10   4  146.73   13.70
  -6  10  -4  207.65   20.58
  -6  10  -4  158.03   20.18
   6 -10   5   48.68    8.00
   6 -10   5   55.57   11.39
  -6  10  -5   32.92   10.62
  -6  10  -5   22.33    8.83
   6 -10   6  199.61   18.39
   6 -10   6  212.51   21.68
  -6  10  -6  177.77   19.77
  -6  10  -6  164.36   18.48
   6 -10   7  175.85   19.21
   6 -10   7  171.94   20.13
  -6  10  -7  171.42   18.20
  -6  10  -7  162.61   19.85
   6 -10   8  772.85   53.20
   6 -10   8  821.46   58.14
  -6  10  -8  930.19   54.28
  -6  10  -8  809.80   59.45
   6 -10   9   60.66   15.55
   6 -10   9   45.00   11.82
  -6  10  -9   46.76   11.28
  -6  10  -9   63.46   25.01
   6 -10  10  476.38   47.43
   6 -10  10  423.16   33.56
  -6  10 -10  487.45   34.17
  -6  10 -10  439.14   65.76
   6 -10  11  310.98   59.61
   6 -10  11  282.86   25.99
  -6  10 -11  272.78   24.65
  -6  10 -11  246.72   57.21
   6 -10  12  477.88   55.51
   6 -10  12  404.47   33.21
  -6  10 -12  481.51   33.78
  -6  10 -12  407.97   55.65
   6 -10  13   40.36   24.19
   6 -10  13   43.10   11.33
  -6  10 -13   59.11   11.04
  -6  10 -13    0.13   24.68
   6 -10  14   30.06   20.21
   6 -10  14   19.27    7.97
  -6  10 -14    1.48   19.93
  -6   9  11  130.66   40.32
  -6   9  11  160.52   37.22
  -6   9  10   66.06   26.75
  -6   9  10   73.30   29.47
  -6   9   9  112.56   27.59
  -6   9   9   61.99   29.25
  -6   9   8    1.52    8.46
  -6   9   8    1.17    8.91
  -6   9   7   30.39   18.60
  -6   9   7   55.48   20.30
  -6   9   6  104.64   24.02
  -6   9   6   68.48   22.12
  -6   9   5   33.32   27.63
  -6   9   5   42.81   16.11
  -6   9   4  785.78   66.73
  -6   9   4  813.06   86.95
  -6   9   3  149.25   23.72
  -6   9   3  130.77   23.34
  -6   9   2   -3.72    7.27
  -6   9   2   -2.23    6.51
  -6   9   1  538.79   43.17
  -6   9   1  508.61   41.36
   6  -9   0  118.74    3.83
   6  -9   0  102.54    3.39
  -6   9   0   93.60   17.48
  -6   9   0  119.32   17.50
  -6   9  -1  231.59   22.47
  -6   9  -1  218.12   22.87
   6  -9   2  311.55   15.94
   6  -9   2  284.91   14.84
  -6   9  -2  427.71   28.97
  -6   9  -2  457.00   30.15
   6  -9   3  179.75   11.79
   6  -9   3  184.61   13.01
  -6   9  -3  129.96   17.22
  -6   9  -3  136.09   17.51
   6  -9   4  933.10   48.99
   6  -9   4 1008.49   56.66
  -6   9  -4  763.94   48.63
  -6   9  -4  812.05   49.35
   6  -9   5  140.77   16.31
   6  -9   5  157.32   21.47
  -6   9  -5  159.66   15.81
  -6   9  -5  155.15   15.95
   6  -9   6  846.61   60.94
   6  -9   6  839.02   49.57
  -6   9  -6  821.03   46.66
  -6   9  -6  717.23   47.98
   6  -9   7  485.51   36.78
   6  -9   7  506.05   33.52
  -6   9  -7  534.60   32.07
  -6   9  -7  519.01   39.75
   6  -9   8  354.50   27.03
   6  -9   8  368.90   33.50
  -6   9  -8  413.32   35.20
  -6   9  -8  386.93   35.84
   6  -9   9    5.52   10.85
   6  -9   9    4.00    6.92
  -6   9  -9   29.02    6.77
  -6   9  -9   26.00   11.50
   6  -9  10  471.52   47.83
   6  -9  10  446.37   31.12
  -6   9 -10  493.82   30.95
  -6   9 -10  492.28   49.84
   6  -9  11  101.00   24.93
   6  -9  11   90.49   12.44
  -6   9 -11  108.23   18.38
  -6   9 -11   67.59   25.46
   6  -9  12  319.97   44.26
   6  -9  12  274.08   22.30
  -6   9 -12  256.98   21.02
  -6   9 -12  229.75   43.09
   6  -9  13  147.20   34.27
   6  -9  13  122.37   14.47
  -6   9 -13  143.23   35.51
  -6   9 -13  112.66   13.05
   6  -9  14   33.84   19.98
  -6   9 -14    0.94   20.45
   6  -8 -12   38.11   21.07
  -6   8  12   17.28   19.56
   6  -8 -11   -0.97   25.16
  -6   8  11  104.29   23.89
   6  -8 -10    2.86   29.26
  -6   8  10  136.74   29.75
  -6   8  10  126.10   10.98
   6  -8  -9    0.50    1.82
   6  -8  -9    1.32    7.18
  -6   8   9    2.93    7.31
   6  -8  -8   30.23    4.30
   6  -8  -8    1.73   16.47
  -6   8   8   28.68   16.22
  -6   8   8   29.04    4.39
   6  -8  -7  525.06   21.84
   6  -8  -7  542.02   52.19
  -6   8   7  616.54   54.56
  -6   8   7  554.42   25.28
   6  -8  -6   29.69    3.57
   6  -8  -6   39.29   15.32
  -6   8   6   40.37    2.66
  -6   8   6   48.04   16.25
   6  -8  -5    3.94   22.20
  -6   8   5  431.99   29.55
  -6   8   4   68.90   17.93
  -6   8   4   70.02   16.20
  -6   8   3   19.26   12.08
  -6   8   3   34.66   11.57
  -6   8   2  364.79   32.94
  -6   8   2  343.64   43.53
   6  -8  -1  680.08   19.68
   6  -8  -1  677.78   20.86
  -6   8   1  639.99   45.04
  -6   8   1  587.81   41.78
   6  -8   0   49.23    3.59
   6  -8   0   60.38    5.15
  -6   8   0   61.50   12.16
  -6   8   0   70.67   11.61
   6  -8   1 1249.13   52.38
  -6   8  -1 1481.78   80.25
  -6   8  -1 1454.58   79.05
   6  -8   2  138.54    9.52
   6  -8   2  141.37   10.71
  -6   8  -2  131.92   14.71
  -6   8  -2  145.84   22.63
   6  -8   3  886.80   52.52
   6  -8   3  886.84   47.00
  -6   8  -3 1084.56   56.20
  -6   8  -3 1082.62   56.56
   6  -8   4  685.22   39.93
   6  -8   4  706.21   38.42
  -6   8  -4  746.92   40.34
  -6   8  -4  704.74   39.76
   6  -8   5  281.47   21.99
   6  -8   5  253.29   20.46
  -6   8  -5  332.46   20.46
  -6   8  -5  308.14   23.75
   6  -8   6  624.98   37.32
   6  -8   6  600.67   40.37
  -6   8  -6  422.47   26.41
  -6   8  -6  396.11   33.89
   6  -8   7  369.59   29.60
   6  -8   7  372.03   23.27
  -6   8  -7  296.76   26.68
  -6   8  -7  311.80   30.26
   6  -8   8   15.64    8.72
   6  -8   8   10.74    5.21
  -6   8  -8    4.42    7.62
  -6   8  -8   14.17    9.11
   6  -8   9   24.60   10.44
   6  -8   9   10.31    5.79
  -6   8  -9   17.58    8.42
  -6   8  -9   17.91   11.63
   6  -8  10   19.32   15.84
   6  -8  10   22.28    7.05
  -6   8 -10   43.35    6.75
  -6   8 -10   47.13   16.48
   6  -8  11  271.66   38.92
   6  -8  11  228.79   17.84
  -6   8 -11  259.53   17.42
  -6   8 -11  240.00   38.47
   6  -8  12   67.72   23.35
   6  -8  12   43.12    8.60
  -6   8 -12   68.74    7.89
  -6   8 -12    1.04   24.47
   6  -8  13  183.20   40.13
  -6   8 -13  176.22   41.14
   6  -8  14  312.93   57.87
  -6   8 -14  304.55   57.81
   6  -7 -12   21.09    8.58
   6  -7 -12    3.30   30.04
  -6   7  12   35.85   18.66
  -6   7  12   27.94    8.21
   6  -7 -11  122.51   14.37
   6  -7 -11  111.25   29.99
  -6   7  11  120.62   28.23
  -6   7  11  111.28   13.40
   6  -7 -10    4.15    2.70
   6  -7 -10   -3.55    6.38
  -6   7  10  -10.63    6.46
  -6   7  10   -2.12    4.01
   6  -7  -9   27.80    8.48
   6  -7  -9    3.56   13.86
  -6   7   9   18.69    5.33
  -6   7   9    7.13   13.66
   6  -7  -8  158.94   10.80
   6  -7  -8  141.04   27.49
  -6   7   8  171.31   27.35
  -6   7   8  151.62   11.35
   6  -7  -7   62.24   17.26
  -6   7   7   53.16    6.08
  -6   7   7   46.59   27.20
   6  -7  -6  294.45   33.82
  -6   7   6  359.29   35.87
  -6   7   6  341.90   15.29
   6  -7  -5  291.38   11.56
   6  -7  -5  301.32   44.26
  -6   7   5  289.20   11.79
  -6   7   5  301.80   31.50
   6  -7  -4   29.32   12.33
  -6   7   4   50.87   19.63
  -6   7   4   42.68    4.34
   6  -7  -3  941.26   33.69
   6  -7  -3 1002.18   61.11
  -6   7   3  987.08   33.84
  -6   7   3  992.61   61.18
   6  -7  -2  433.85   16.65
   6  -7  -2  432.27   17.48
  -6   7   2  447.96   33.58
  -6   7   2  456.70   32.77
   6  -7  -1   19.44    2.67
  -6   7   1   22.87   12.80
  -6   7   1   36.66    7.95
   6  -7   0  874.61   34.39
  -6   7   0  818.90   47.78
  -6   7   0  753.88   44.70
   6  -7   1  308.18   15.48
   6  -7   1  317.65   15.14
  -6   7  -1  174.26   27.26
  -6   7  -1  179.03   18.61
   6  -7   2 2342.10  111.21
   6  -7   2 2339.83  115.87
  -6   7  -2 2285.40  116.62
  -6   7  -2 2247.32  116.64
   6  -7   3  222.85   17.08
   6  -7   3  227.87   21.95
  -6   7  -3  209.93   15.47
  -6   7  -3  199.65   15.92
   6  -7   4  331.18   23.97
   6  -7   4  362.07   24.08
  -6   7  -4  344.14   20.04
  -6   7  -4  330.31   26.74
   6  -7   5 1639.65   94.64
   6  -7   5 1640.68   89.82
  -6   7  -5 1661.02   79.88
  -6   7  -5 1691.98   79.50
   6  -7   6  430.04   23.63
   6  -7   6  438.85   32.91
  -6   7  -6  439.88   28.48
  -6   7  -6  410.76   33.64
   6  -7   7  160.57   21.50
   6  -7   7  172.22   12.72
  -6   7  -7  183.82   11.71
  -6   7  -7  183.67   23.39
   6  -7   8  198.79   23.72
   6  -7   8  222.44   17.67
  -6   7  -8  149.76   24.14
  -6   7  -8  141.50   10.79
   6  -7   9  340.05   50.06
   6  -7   9  317.37   17.95
  -6   7  -9  263.95   20.42
  -6   7  -9  258.41   35.61
   6  -7  10  135.18   26.66
   6  -7  10  145.49   15.98
  -6   7 -10  142.60   14.06
  -6   7 -10  136.58   29.51
   6  -7  11   56.20   20.12
   6  -7  11   40.64    6.43
  -6   7 -11   52.69    6.12
  -6   7 -11   48.57   21.21
   6  -7  12  139.60   29.25
   6  -7  12   98.27    8.71
  -6   7 -12   75.59   10.96
  -6   7 -12    0.43   29.88
   6  -7  13  295.64   48.54
  -6   7 -13  251.34   51.14
   6  -7  14   99.14   29.02
  -6   7 -14   -2.44   30.95
   6  -6 -13   14.54    8.38
   6  -6 -13    3.86   15.71
  -6   6  13    9.48   14.53
  -6   6  13   14.94   12.60
   6  -6 -12   98.15   23.42
   6  -6 -12   -2.83   43.13
  -6   6  12  123.53   26.82
  -6   6  12   98.85   15.01
   6  -6 -11   12.18    5.91
   6  -6 -11   -0.72   10.98
  -6   6  11   -3.38   17.24
  -6   6  11    4.96    5.68
   6  -6 -10   91.83   12.74
   6  -6 -10  137.13   24.30
  -6   6  10  111.71   23.07
  -6   6  10  101.34   12.51
   6  -6  -9  335.66   22.84
   6  -6  -9  380.59   38.63
  -6   6   9  322.98   38.35
  -6   6   9  293.08   20.92
   6  -6  -8  144.87   12.35
   6  -6  -8  138.00   24.08
  -6   6   8  156.31   25.39
  -6   6   8  162.01   12.82
   6  -6  -7   62.64    7.40
   6  -6  -7   60.34   16.73
  -6   6   7   97.81   17.89
  -6   6   7   92.41   11.80
   6  -6  -6  230.53   12.52
   6  -6  -6  245.03   26.45
  -6   6   6  261.94   39.30
  -6   6   6  239.86   13.38
   6  -6  -5   81.32   15.33
  -6   6   5   90.18   15.51
  -6   6   5   88.46    6.56
   6  -6  -4  893.12   56.98
  -6   6   4  979.99   39.31
  -6   6   4 1012.55   60.72
   6  -6  -3  347.70   27.49
  -6   6   3  374.18   19.01
  -6   6   3  357.61   27.37
   6  -6  -2  914.12   49.99
  -6   6   2  874.12   35.48
  -6   6   2  876.75   50.09
   6  -6  -1  402.21   20.44
   6  -6  -1  416.68   25.59
  -6   6   1  360.62   16.51
  -6   6   1  359.00   24.74
   6  -6   0  545.28   24.45
   6  -6   0  564.93   24.68
  -6   6   0  457.94   29.36
  -6   6   0  455.41   36.00
   6  -6   1  821.45   38.61
   6  -6   1  860.17   38.64
  -6   6  -1  742.83   39.19
  -6   6  -1  715.91   37.29
   6  -6   2  456.35   28.31
   6  -6   2  475.05   26.78
  -6   6  -2  630.43   29.95
  -6   6  -2  616.05   30.04
   6  -6   3   60.54   10.04
   6  -6   3   52.95    9.42
  -6   6  -3   79.16    7.43
  -6   6  -3   70.11    7.29
   6  -6   4 1072.54   61.85
   6  -6   4 1028.57   57.42
  -6   6  -4 1117.09   54.88
  -6   6  -4 1078.08   48.53
   6  -6   5 1280.89   77.52
  -6   6  -5 1297.04   56.19
  -6   6  -5 1288.58   63.38
   6  -6   6  344.90   30.13
   6  -6   6  351.69   28.94
  -6   6  -6  286.39   14.13
  -6   6  -6  312.24   15.26
   6  -6   7  187.27   20.90
   6  -6   7  182.03    9.73
  -6   6  -7  121.71    8.07
  -6   6  -7  131.10   21.67
   6  -6   8  888.34   62.17
   6  -6   8  875.50   37.04
  -6   6  -8  811.22   33.12
  -6   6  -8  816.34   64.34
   6  -6   9  267.66   31.87
   6  -6   9  254.44   12.48
  -6   6  -9  191.23   13.36
  -6   6  -9  205.29   32.88
   6  -6  10   60.60   19.94
   6  -6  10   54.12    5.39
  -6   6 -10   51.22   21.31
  -6   6 -10   62.53    4.91
   6  -6  11   13.05   13.32
   6  -6  11    3.80    2.84
  -6   6 -11   16.90    2.60
  -6   6 -11   25.13   14.50
   6  -6  12  119.51   25.58
  -6   6 -12    2.15   27.48
   6  -6  13    9.73   14.35
  -6   6 -13    1.56   14.38
   6  -6  14   48.15   28.88
   6  -5 -14   38.18   13.13
   6  -5 -14   53.69   20.36
  -6   5  14   42.56   19.10
  -6   5  14    1.00   12.71
   6  -5 -13    4.23    8.36
   6  -5 -13   -4.12   13.37
  -6   5  13   14.54   12.64
  -6   5  13   16.29    8.24
   6  -5 -12  117.26   17.27
   6  -5 -12    7.30   43.74
  -6   5  12  120.59   25.40
  -6   5  12  107.18   25.94
   6  -5 -11  130.84   17.56
   6  -5 -11  148.06   28.15
  -6   5  11  134.04   26.71
  -6   5  11  124.61   16.99
   6  -5 -10  169.19   18.90
   6  -5 -10  210.31   31.59
  -6   5  10  278.94   45.81
  -6   5  10  269.33   20.72
   6  -5  -9   32.88    7.98
   6  -5  -9   33.97   14.76
  -6   5   9   44.78   14.24
  -6   5   9   31.25   12.34
   6  -5  -8   60.06    8.67
   6  -5  -8   55.95   16.59
  -6   5   8   64.59    9.11
  -6   5   8   66.41   16.40
   6  -5  -7  152.31   11.76
   6  -5  -7  152.36   21.22
  -6   5   7  140.47   20.94
  -6   5   7  144.83   12.48
   6  -5  -6  317.81   17.20
   6  -5  -6  335.70   28.97
  -6   5   6  296.64   28.05
  -6   5   6  293.24   17.38
   6  -5  -5  717.03   30.96
   6  -5  -5  708.09   44.88
  -6   5   5  631.31   42.35
  -6   5   5  631.94   30.08
   6  -5  -4  222.79   11.70
   6  -5  -4  224.96   19.88
  -6   5   4  193.76   18.98
  -6   5   4  198.94   11.74
   6  -5  -3  147.36    8.84
   6  -5  -3  141.89   14.63
  -6   5   3  138.32   14.52
  -6   5   3  142.86    9.04
   6  -5  -2 2301.07  102.10
   6  -5  -2 2261.23  116.24
  -6   5   2 2285.22  104.16
  -6   5   2 2309.00  117.78
   6  -5  -1  676.55   35.73
   6  -5  -1  670.25   29.90
  -6   5   1  680.31   30.74
  -6   5   1  633.24   33.75
   6  -5   0  321.08   19.23
   6  -5   0  342.26   20.71
  -6   5   0  484.59   22.44
  -6   5   0  460.10   22.71
   6  -5   1 1507.43   73.05
   6  -5   1 1571.52   81.13
  -6   5  -1 1415.83   66.65
  -6   5  -1 1380.53   64.55
   6  -5   2 2321.82  119.82
   6  -5   2 2295.68  114.95
  -6   5  -2 2139.68  104.99
  -6   5  -2 2082.48  102.49
   6  -5   3  533.56   31.98
   6  -5   3  522.97   30.08
  -6   5  -3  426.72   19.33
  -6   5  -3  434.24   19.50
   6  -5   4  342.60   24.72
   6  -5   4  346.63   23.26
  -6   5  -4  236.50   11.05
  -6   5  -4  251.58   11.21
   6  -5   5   82.72   14.32
   6  -5   5  107.66   19.13
  -6   5  -5   63.44    4.53
   6  -5   6  806.77   55.99
   6  -5   6  832.62   52.97
  -6   5  -6  709.63   25.44
  -6   5  -6  759.72   27.29
   6  -5   7 1211.56   86.54
   6  -5   7 1229.31   82.99
  -6   5  -7 1300.01   46.69
  -6   5  -7 1375.75   49.95
   6  -5   8  610.48   54.23
   6  -5   8  587.01   48.62
  -6   5  -8  573.98   20.76
  -6   5  -8  590.24   21.76
   6  -5   9  584.44   55.68
   6  -5   9  581.29   51.71
  -6   5  -9  553.32   17.84
  -6   5  -9  577.62   18.68
   6  -5  10  535.31   62.36
   6  -5  10  751.76   62.59
  -6   5 -10  578.40   17.44
  -6   5 -10  631.49   18.85
   6  -5  11   -0.80   21.46
   6  -5  11   65.09   19.13
   6  -5  12   35.63   18.24
   6  -5  12    1.32   19.05
   6  -5  13   30.39   19.32
   6  -5  13    3.03   20.56
   6  -5  14    4.07   13.05
   6  -5  14    0.78   14.03
   6  -4 -14   43.04   12.99
   6  -4 -14    5.26   18.31
  -6   4  14   50.47   17.22
  -6   4  14    0.08   12.40
   6  -4 -13   16.00   11.60
   6  -4 -13   -4.92   16.51
  -6   4  13   24.37   15.03
  -6   4  13   29.52   10.87
   6  -4 -12   29.49   16.59
   6  -4 -12   -0.72   15.09
  -6   4  12   35.70   14.24
  -6   4  12   18.46    9.95
   6  -4 -11  238.45   23.37
   6  -4 -11  242.89   32.96
  -6   4  11  218.03   31.30
  -6   4  11  179.17   32.65
   6  -4 -10   -1.08    3.21
   6  -4 -10   10.42    4.82
  -6   4  10   -8.26    4.74
  -6   4  10    0.85    3.09
   6  -4  -9   10.82    5.42
   6  -4  -9    6.36    8.55
  -6   4   9   -0.11    8.50
  -6   4   9    8.93    5.70
   6  -4  -8  486.45   37.16
   6  -4  -8  455.56   38.91
  -6   4   8  452.46   37.55
  -6   4   8  465.98   29.28
   6  -4  -7  129.73   11.79
   6  -4  -7  120.31   18.19
  -6   4   7  126.68   18.01
  -6   4   7  127.40   12.45
   6  -4  -6 1130.81   53.69
   6  -4  -6 1110.19   64.89
  -6   4   6 1209.00   68.50
  -6   4   6 1175.32   57.62
   6  -4  -5  425.42   22.51
   6  -4  -5  430.70   29.63
  -6   4   5  474.50   31.34
  -6   4   5  492.84   30.92
   6  -4  -4  282.87   15.31
   6  -4  -4  295.38   20.77
  -6   4   4  246.38   19.84
  -6   4   4  251.02   15.18
   6  -4  -3 1016.71   51.17
   6  -4  -3  979.29   50.60
  -6   4   3 1009.35   51.07
  -6   4   3  989.75   45.55
   6  -4  -2 1616.10   72.47
   6  -4  -2 1616.07   78.49
  -6   4   2 1522.96   82.80
  -6   4   2 1499.76   70.59
   6  -4  -1  168.11   17.31
   6  -4  -1  157.21   11.58
  -6   4   1  183.45   12.32
  -6   4   1  183.49   12.61
   6  -4   0  975.89   48.82
   6  -4   0  992.59   45.31
  -6   4   0 1042.63   45.51
  -6   4   0 1102.76   52.52
   6  -4   1  712.59   39.77
   6  -4   1  696.90   31.18
  -6   4  -1  882.00   43.58
  -6   4  -1  863.00   34.71
   6  -4   2  189.75   16.35
   6  -4   2  205.38   17.40
   6  -4   3  141.04   17.42
   6  -4   3  157.70   16.69
  -6   4  -3  191.58    7.98
   6  -4   4  861.88   55.76
   6  -4   4  873.05   53.35
  -6   4  -4  938.26   31.50
  -6   4  -4  927.97   30.82
   6  -4   5  547.02   41.77
   6  -4   5  559.13   39.20
  -6   4  -5  517.39   15.39
  -6   4  -5  552.85   16.38
   6  -4   6  194.92   25.53
   6  -4   6  188.43   22.84
   6  -4   7   17.92   12.80
   6  -4   7   25.51   11.46
   6  -4   8  154.10   27.97
   6  -4   8  170.38   26.39
   6  -4   9  324.63   43.41
   6  -4   9  326.74   38.87
   6  -4  10  229.83   39.89
   6  -4  10  232.57   35.77
   6  -4  11  206.78   37.74
   6  -4  11  208.83   41.40
   6  -4  12   33.09   24.49
   6  -4  12   -0.27   16.59
   6  -4  13    3.41   12.35
   6  -4  13    2.76   13.43
   6  -3 -15    3.27   17.76
   6  -3 -15   62.42   23.30
  -6   3  15   71.11   22.34
  -6   3  15   56.41   17.33
   6  -3 -14   39.02   15.60
   6  -3 -14   -3.58   20.01
  -6   3  14   53.01   19.75
  -6   3  14   38.92   14.82
   6  -3 -13   61.40   16.70
   6  -3 -13    1.32   22.69
  -6   3  13  100.40   21.69
  -6   3  13   83.56   17.21
   6  -3 -12  269.78   29.29
   6  -3 -12  261.73   37.36
  -6   3  12  275.58   37.04
  -6   3  12  275.32   29.16
   6  -3 -11  106.02   17.02
   6  -3 -11   91.47   23.93
  -6   3  11  128.93   34.86
  -6   3  11  128.62   17.49
   6  -3 -10   45.22   11.67
   6  -3 -10   32.60   16.18
  -6   3  10   63.04   15.77
  -6   3  10   66.24   12.20
   6  -3  -9  160.11   15.68
   6  -3  -9  144.20   33.21
  -6   3   9  105.67   19.99
  -6   3   9   93.78   23.64
   6  -3  -8   47.34    8.95
   6  -3  -8   45.11   12.13
  -6   3   8   34.33   11.87
  -6   3   8   38.15    9.26
   6  -3  -7  209.55   22.17
   6  -3  -7  182.75   20.22
  -6   3   7  183.43   20.18
  -6   3   7  188.14   16.31
   6  -3  -6   29.93    6.62
   6  -3  -6   27.52    9.38
  -6   3   6   46.47   14.86
  -6   3   6   50.73    7.48
   6  -3  -5 1237.55   59.45
   6  -3  -5 1206.36   64.67
  -6   3   5 1301.20   62.36
  -6   3   5 1272.71   66.28
   6  -3  -4  394.78   20.54
   6  -3  -4  376.98   22.60
  -6   3   4  292.71   20.57
  -6   3   4  328.30   19.61
   6  -3  -3   93.46   13.59
   6  -3  -3   84.29   10.02
  -6   3   3  108.76    9.99
  -6   3   3  120.45   10.06
   6  -3  -2  372.56   20.91
   6  -3  -2  361.49   20.86
  -6   3   2  449.98   21.95
  -6   3   2  472.39   30.01
   6  -3  -1  745.74   38.03
   6  -3  -1  741.67   33.52
  -6   3   1  758.79   33.44
  -6   3   1  765.68   38.87
   6  -3   0 1205.18   56.74
   6  -3   0 1234.39   47.97
  -6   3   0  794.93   34.78
  -6   3   0  810.86   44.89
   6  -3   1  395.58   32.44
   6  -3   1  384.48   15.69
  -6   3  -1  345.86   31.97
  -6   3  -1  331.92   17.09
   6  -3   2  917.91   52.16
   6  -3   2  888.85   51.46
  -6   3  -2  868.46   34.98
   6  -3   3  791.23   49.10
   6  -3   3  758.56   46.17
  -6   3  -3  736.46   22.17
  -6   3  -3  793.02   24.28
   6  -3   4  741.40   50.60
   6  -3   4  736.97   47.88
   6  -3   5 1431.23   92.06
   6  -3   5 1401.18   86.02
   6  -3   6  178.05   26.07
   6  -3   6  169.54   23.65
   6  -3   7  393.49   43.26
   6  -3   7  391.52   38.00
   6  -3   8  293.29   38.96
   6  -3   8  296.23   36.05
   6  -3   9   54.63   22.78
   6  -3   9   76.15   21.67
   6  -3  10   94.84   23.94
   6  -3  10   64.15   27.35
   6  -3  11   98.36   23.81
   6  -3  11    0.04   26.73
   6  -3  12   43.70   20.06
   6  -3  12   -0.45   21.86
   6  -3  13   39.18   20.94
   6  -3  13    1.43   23.20
   6  -2 -15   -3.64   24.47
   6  -2 -15  123.44   28.28
  -6   2  15  103.91   26.82
  -6   2  15  120.23   23.27
   6  -2 -14   12.07   12.56
   6  -2 -14   11.64   15.58
  -6   2  14   27.82   14.73
  -6   2  14   16.82   12.72
   6  -2 -13  160.76   25.23
   6  -2 -13  187.80   31.53
  -6   2  13  152.44   29.05
  -6   2  13  135.93   24.92
   6  -2 -12   10.27   10.03
   6  -2 -12    7.20   12.57
  -6   2  12   21.99   16.05
  -6   2  12   28.95   12.37
   6  -2 -11  323.11   30.29
   6  -2 -11  319.26   35.70
  -6   2  11  326.74   36.02
  -6   2  11  332.96   31.33
   6  -2 -10  193.68   20.99
   6  -2 -10  186.69   24.72
  -6   2  10  172.89   23.84
  -6   2  10  162.03   21.20
   6  -2  -9  502.44   41.14
   6  -2  -9  548.82   36.63
  -6   2   9  468.44   39.47
  -6   2   9  490.22   35.78
   6  -2  -8 1126.20   61.98
   6  -2  -8 1106.41   67.62
  -6   2   8 1069.47   65.26
  -6   2   8 1094.45   64.22
   6  -2  -7   37.81    9.76
   6  -2  -7   43.05    7.83
  -6   2   7   23.69    9.24
  -6   2   7   22.55    8.05
   6  -2  -6  381.15   24.96
   6  -2  -6  380.05   22.74
  -6   2   6  268.20   20.99
  -6   2   6  273.41   22.14
   6  -2  -5 1332.87   69.22
   6  -2  -5 1412.27   70.13
  -6   2   5 1341.21   67.56
  -6   2   5 1311.36   66.60
   6  -2  -4  823.21   42.93
   6  -2  -4  883.99   44.41
  -6   2   4  885.66   51.84
  -6   2   4  859.33   44.53
   6  -2  -3  202.57   13.81
   6  -2  -3  213.33   15.01
  -6   2   3  189.90   19.20
  -6   2   3  199.94   20.70
   6  -2  -2  960.95   44.36
   6  -2  -2  935.51   48.59
  -6   2   2 1138.30   48.57
  -6   2   2 1175.95   56.67
   6  -2  -1 1837.35   96.11
   6  -2  -1 1798.53   80.92
  -6   2   1 2237.28  110.23
  -6   2   1 2175.33   91.54
   6  -2   0  712.69   40.38
   6  -2   0  703.54   32.52
  -6   2   0  726.40   32.00
  -6   2   0  724.78   50.70
   6  -2   1  411.32   27.77
   6  -2   1  386.81   14.70
  -6   2  -1  408.61   27.59
   6  -2   2  996.46   60.53
   6  -2   2 1036.81   36.45
  -6   2  -2 1181.08   64.84
  -6   2  -2 1079.85   34.42
   6  -2   3  176.75   28.55
   6  -2   3  185.22   21.06
   6  -2   4  446.47   39.02
   6  -2   4  475.42   36.79
   6  -2   5  352.32   49.04
   6  -2   5  326.96   31.71
   6  -2   6  381.43   40.03
   6  -2   6  360.47   35.68
   6  -2   7  447.76   47.00
   6  -2   7  400.66   41.42
   6  -2   8  178.32   47.95
   6  -2   8  168.89   29.04
   6  -2   9   50.25   24.14
   6  -2   9   69.65   21.54
   6  -2  10  208.05   35.39
   6  -2  10  191.51   40.17
   6  -2  11    6.31   10.70
   6  -2  11   -1.25   11.95
   6  -2  12    8.09   12.86
   6  -2  12    0.63   15.21
   6  -2  13   -1.55   11.28
   6  -2  13   -0.94   19.66
  -6   1  16   25.40   18.66
   6  -1 -15  168.97   31.30
   6  -1 -15  172.42   33.82
  -6   1  15  154.81   49.23
  -6   1  15  121.27   29.79
   6  -1 -14  108.12   25.05
   6  -1 -14   97.42   27.82
  -6   1  14  115.45   24.83
  -6   1  14  136.71   27.52
   6  -1 -13  127.86   22.20
   6  -1 -13  123.00   39.77
  -6   1  13  100.61   24.72
  -6   1  13   87.91   34.75
   6  -1 -12  142.91   27.47
   6  -1 -12  170.35   24.24
  -6   1  12  191.56   41.83
  -6   1  12  158.16   24.20
   6  -1 -11  206.83   28.11
   6  -1 -11  222.71   25.32
  -6   1  11  173.77   27.00
  -6   1  11  178.28   24.47
   6  -1 -10  196.79   26.73
   6  -1 -10  191.72   23.16
  -6   1  10  245.94   27.21
  -6   1  10  224.07   24.47
   6  -1  -9  792.16   47.78
   6  -1  -9  746.41   49.80
  -6   1   9  600.98   46.04
  -6   1   9  602.44   44.35
   6  -1  -8   98.54   13.55
   6  -1  -8   87.90   15.71
  -6   1   8   96.66   22.03
  -6   1   8   99.53   23.83
   6  -1  -7 1080.47   74.01
   6  -1  -7 1144.22   61.16
  -6   1   7  960.39   57.33
  -6   1   7 1030.87   59.72
   6  -1  -6  269.47   22.18
   6  -1  -6  279.17   22.11
  -6   1   6  375.18   24.89
  -6   1   6  381.80   24.31
   6  -1  -5  414.77   26.55
   6  -1  -5  444.29   28.72
  -6   1   5  522.74   28.92
  -6   1   5  542.62   40.28
   6  -1  -4  650.27   37.74
   6  -1  -4  641.21   35.34
  -6   1   4  874.01   40.85
  -6   1   4  869.44   44.65
   6  -1  -3 1781.76   82.83
   6  -1  -3 1776.89   89.61
  -6   1   3 1736.77   81.13
  -6   1   3 1664.13   86.10
   6  -1  -2  454.15   21.39
   6  -1  -2  454.21   26.31
  -6   1   2  395.15   25.74
  -6   1   2  408.22   20.34
   6  -1  -1 2372.29  103.94
   6  -1  -1 2420.05  126.55
  -6   1   1 2319.01  101.73
  -6   1   1 2243.99  120.67
   6  -1   0  243.82   10.29
   6  -1   0  266.97   20.13
  -6   1   0  170.70    8.76
  -6   1   0  183.67   17.77
   6  -1   1 2228.48   87.07
   6  -1   1 2252.57  124.59
  -6   1  -1 2163.17  119.67
   6  -1   2  216.03   21.05
   6  -1   2  203.91    5.86
  -6   1  -2  166.52   19.17
  -6   1  -2  159.76    5.23
   6  -1   3  810.15   54.15
   6  -1   3  757.67   53.39
   6  -1   4  573.31   43.13
   6  -1   4  536.58   45.20
   6  -1   5  294.46   33.50
   6  -1   5  266.83   31.06
   6  -1   6  252.46   35.12
   6  -1   6  256.52   30.89
   6  -1   7   53.73   18.81
   6  -1   7   44.94   17.44
   6  -1   8   95.69   26.54
   6  -1   8   89.73   23.16
   6  -1   9  376.04   51.20
   6  -1   9  368.14   47.75
   6  -1  10   -1.56   17.53
   6  -1  10   33.56   16.59
   6  -1  11    1.77   15.42
   6  -1  11   11.13   13.66
   6  -1  12   -2.42   17.78
   6  -1  12   15.91   15.26
   6   0 -16   -2.40   19.99
   6   0 -16   43.45   20.27
  -6   0  16   55.14   32.50
  -6   0  16   55.37   30.19
   6   0 -15   67.34   26.04
   6   0 -15    1.07   15.90
  -6   0  15   18.02   15.60
  -6   0  15   22.73   24.54
   6   0 -14  158.96   32.57
   6   0 -14  173.20   30.89
  -6   0  14  209.95   32.22
  -6   0  14  164.02   46.66
   6   0 -13   82.96   36.50
   6   0 -13   62.16   21.33
  -6   0  13  113.42   22.84
  -6   0  13  103.26   21.78
   6   0 -12  131.36   26.21
   6   0 -12  139.87   36.74
  -6   0  12  169.13   26.23
  -6   0  12  151.07   24.71
   6   0 -11  116.61   22.03
   6   0 -11  117.34   30.39
  -6   0  11  118.15   20.42
  -6   0  11   98.31   20.43
   6   0 -10  633.11   61.76
   6   0 -10  607.71   48.70
  -6   0  10  683.18   50.26
  -6   0  10  661.69   50.05
   6   0  -9  194.22   20.46
   6   0  -9  177.30   21.37
  -6   0   9  140.16   20.29
  -6   0   9  125.38   20.38
   6   0  -8  101.25   24.88
   6   0  -8   91.32   16.26
  -6   0   8  157.68   17.97
  -6   0   8  146.85   17.16
   6   0  -7  819.03   47.81
   6   0  -7  836.96   49.80
  -6   0   7  728.22   47.32
  -6   0   7  759.69   46.10
   6   0  -6  256.86   19.57
   6   0  -6  268.92   21.17
  -6   0   6  210.37   20.17
  -6   0   6  202.91   18.66
   6   0  -5   75.10   15.12
   6   0  -5   74.99   11.04
  -6   0   5   63.65   10.02
  -6   0   5   81.17   11.72
   6   0  -4  313.46   18.73
   6   0  -4  327.09   22.54
  -6   0   4  269.71   18.18
  -6   0   4  272.04   21.78
   6   0  -3  327.12   17.73
   6   0  -3  319.25   30.52
  -6   0   3  286.65   17.27
  -6   0   3  310.39   31.72
   6   0  -2   79.76   11.21
   6   0  -2   79.64    7.29
  -6   0   2   76.56   11.65
  -6   0   2   86.51    7.31
   6   0  -1 1881.00   99.98
   6   0  -1 1848.77   77.86
  -6   0   1 1670.20   73.69
  -6   0   1 1699.69  105.90
   6   0   0 1747.24   69.92
   6   0   0 1829.60   99.13
  -6   0   0 1685.75   94.62
  -6   0   0 1605.08   67.11
   6   0   1  120.39   17.36
   6   0   1  123.30    5.77
  -6   0  -1  111.61   16.20
   6   0   2  686.84   21.46
   6   0   2  720.35   48.85
  -6   0  -2  693.97   46.52
  -6   0  -2  703.53   22.52
   6   0   3 1619.25  102.86
   6   0   3 1649.85  103.71
   6   0   4  557.18   46.71
   6   0   4  601.93   49.18
   6   0   5  105.10   20.27
   6   0   5   88.48   22.13
   6   0   6  582.23   57.72
   6   0   6  609.34   52.67
   6   0   7  158.05   30.50
   6   0   7  130.63   27.14
   6   0   8  359.59   50.64
   6   0   8  391.44   44.31
   6   0   9   31.04   27.25
   6   0   9   21.39   20.02
   6   0  10   13.51   13.35
   6   0  10   -1.16   14.86
   6   0  11  121.99   27.89
   6   0  11   -0.77   31.80
   6   0  12   54.76   23.65
   6   0  12    1.87   26.63
   6   1 -16  154.70   33.30
   6   1 -16  142.39   33.68
  -6  -1  16  105.08   31.56
  -6  -1  16   90.26   31.77
   6   1 -15   26.98   23.57
   6   1 -15   -2.20   15.11
  -6  -1  15   21.98   14.99
  -6  -1  15   18.84   14.94
   6   1 -14  170.69   31.51
   6   1 -14  195.95   48.71
  -6  -1  14  145.10   32.13
  -6  -1  14  168.73   30.91
   6   1 -13   73.54   38.06
   6   1 -13   92.04   23.58
  -6  -1  13  117.48   37.49
  -6  -1  13  121.92   24.25
   6   1 -12   52.78   16.58
   6   1 -12   42.69   16.48
  -6  -1  12   45.19   16.43
  -6  -1  12   34.14   16.67
   6   1 -11   89.88   20.30
   6   1 -11  110.63   20.12
  -6  -1  11   95.14   20.88
  -6  -1  11  103.24   31.59
   6   1 -10 1274.69   82.81
   6   1 -10 1248.40   81.56
  -6  -1  10 1228.70   80.41
  -6  -1  10 1173.95   82.66
   6   1  -9 1060.59   68.94
   6   1  -9 1062.89   68.59
  -6  -1   9 1029.61   67.18
  -6  -1   9 1052.95   88.07
   6   1  -8  211.21   22.69
   6   1  -8  223.55   24.57
  -6  -1   8  261.58   24.87
  -6  -1   8  264.47   23.89
   6   1  -7  525.15   34.88
   6   1  -7  577.65   38.41
  -6  -1   7  532.16   39.23
  -6  -1   7  547.21   35.58
   6   1  -6 1239.37   69.30
   6   1  -6 1336.05   76.46
  -6  -1   6 1401.51   79.64
  -6  -1   6 1442.89   74.86
   6   1  -5  159.08   15.51
   6   1  -5  169.86   18.57
  -6  -1   5  210.00   16.39
  -6  -1   5  228.97   19.85
   6   1  -4  440.12   24.98
   6   1  -4  458.16   31.00
  -6  -1   4  448.51   25.46
  -6  -1   4  446.32   30.86
   6   1  -3  419.89   39.17
   6   1  -3  406.90   22.29
  -6  -1   3  436.63   23.48
  -6  -1   3  444.82   30.73
   6   1  -2  531.28   35.33
   6   1  -2  507.83   25.52
  -6  -1   2  600.57   37.62
  -6  -1   2  618.58   28.62
   6   1  -1  825.74   36.79
   6   1  -1  848.20   53.19
  -6  -1   1 1024.13   42.77
  -6  -1   1 1079.25   72.30
   6   1   0  101.89    6.74
   6   1   0  116.42   23.07
  -6  -1   0  102.52   15.67
  -6  -1   0  100.32    6.94
   6   1   1   42.83    5.63
   6   1   1   53.88   12.70
  -6  -1  -1   53.45   11.91
   6   1   2  756.86   26.97
   6   1   2  804.73   75.52
  -6  -1  -2  968.82   75.88
  -6  -1  -2  930.87   31.66
   6   1   3   89.25    3.20
   6   1   3  108.47   18.76
   6   1   3   93.22   18.31
   6   1   3   87.11    4.36
   6   1   4  447.90   43.35
   6   1   4  439.96   41.25
   6   1   5  253.40   34.89
   6   1   5  255.61   32.79
   6   1   6  190.19   30.82
   6   1   6  226.43   34.55
   6   1   7  144.11   27.67
   6   1   7  129.88   31.12
   6   1   8   -0.97   14.91
   6   1   8   40.63   16.82
   6   1   9    0.52   17.22
   6   1   9    2.69    9.54
   6   1  10    9.79   13.01
   6   1  10    0.34   14.20
   6   1  11   -7.34   12.76
   6   1  11   -0.43   14.70
   6   2 -16   -6.89   14.13
   6   2 -16    5.51   22.81
  -6  -2  16  -14.31   13.31
  -6  -2  16   -3.80   13.36
   6   2 -15  121.58   33.37
   6   2 -15  161.04   34.14
  -6  -2  15  145.98   34.77
  -6  -2  15  177.44   33.59
   6   2 -14  108.31   26.62
   6   2 -14  125.16   27.62
  -6  -2  14  101.87   41.86
  -6  -2  14   75.35   25.96
   6   2 -13   58.82   20.67
   6   2 -13   48.24   20.62
  -6  -2  13   51.46   20.86
  -6  -2  13   83.37   20.91
   6   2 -12  451.69   45.38
   6   2 -12  439.24   46.79
  -6  -2  12  424.71   44.81
  -6  -2  12  417.60   67.00
   6   2 -11  157.62   25.54
   6   2 -11  149.13   26.00
  -6  -2  11  175.52   26.44
  -6  -2  11  195.90   28.23
   6   2 -10   37.52   16.19
   6   2 -10   35.17   15.15
  -6  -2  10   83.77   16.36
  -6  -2  10   86.63   17.03
   6   2  -9  368.01   33.43
   6   2  -9  407.63   36.58
  -6  -2   9  480.40   36.93
  -6  -2   9  443.53   39.20
   6   2  -8  436.99   33.94
   6   2  -8  447.60   37.11
  -6  -2   8  420.78   36.28
  -6  -2   8  422.86   33.69
   6   2  -7  528.26   35.98
   6   2  -7  523.85   39.19
  -6  -2   7  500.61   39.81
  -6  -2   7  530.35   36.38
   6   2  -6 1000.86   56.25
   6   2  -6 1104.21   79.78
  -6  -2   6  935.25   59.98
  -6  -2   6 1043.62   59.32
   6   2  -5  725.07   40.17
   6   2  -5  741.42   47.06
  -6  -2   5  668.42   50.21
  -6  -2   5  653.75   57.53
   6   2  -4 1001.25   50.48
   6   2  -4  983.89   58.59
  -6  -2   4  918.44   58.24
  -6  -2   4  921.84   48.76
   6   2  -3  192.15   29.02
   6   2  -3  168.26   13.94
  -6  -2   3  203.08   14.89
  -6  -2   3  216.66   20.96
   6   2  -2  910.18   53.83
   6   2  -2  916.52   42.43
  -6  -2   2  794.65   47.05
  -6  -2   2  797.04   51.79
   6   2  -1   10.40    3.81
   6   2  -1    5.14    7.32
  -6  -2   1   11.42    3.78
  -6  -2   1   17.59    7.78
   6   2   0  177.14   10.38
   6   2   0  197.20   21.46
  -6  -2   0  173.89   21.16
  -6  -2   0  168.18   10.61
   6   2   1  549.52   22.87
   6   2   1  573.36   43.99
  -6  -2  -1  548.39   23.96
  -6  -2  -1  511.70   41.31
   6   2   2  185.21   23.69
   6   2   2  151.81    7.80
  -6  -2  -2  122.90   33.34
   6   2   3  260.82   10.12
   6   2   3  280.72   32.33
   6   2   3  272.97   32.21
   6   2   3  258.46   10.45
   6   2   4  917.62   69.41
   6   2   4  868.02   66.96
   6   2   4  834.64   29.48
   6   2   4  817.08   27.35
   6   2   5  152.51   28.57
   6   2   5  156.94   27.15
   6   2   6  902.80   79.35
   6   2   6  832.22   72.63
   6   2   7   55.52   17.58
   6   2   7    0.41   16.09
   6   2   8   -2.02   11.14
   6   2   8    1.91    8.16
   6   2   9   -1.13    8.23
   6   2   9   -0.50    9.35
   6   2  10   49.81   20.96
   6   2  10    1.32   23.03
   6   3 -16   57.05   25.74
   6   3 -16   66.68   25.35
  -6  -3  16   -0.02   25.33
  -6  -3  16   77.81   26.33
   6   3 -15  391.34   52.67
   6   3 -15  402.20   55.87
  -6  -3  15  427.97   78.88
  -6  -3  15  404.23   56.54
   6   3 -14  148.19   32.71
   6   3 -14  148.24   50.81
  -6  -3  14  165.38   32.81
  -6  -3  14  148.35   33.15
   6   3 -13  305.17   40.17
   6   3 -13  350.85   42.92
  -6  -3  13  305.54   42.17
  -6  -3  13  264.96   42.27
   6   3 -12   68.68   22.06
   6   3 -12   82.48   20.61
  -6  -3  12   80.24   22.61
  -6  -3  12   86.67   21.83
   6   3 -11  320.81   35.43
   6   3 -11  296.36   32.03
  -6  -3  11  264.64   33.97
  -6  -3  11  243.95   35.52
   6   3 -10  189.34   24.91
   6   3 -10  182.07   23.83
  -6  -3  10  101.45   24.83
  -6  -3  10  108.87   23.22
   6   3  -9  198.47   24.68
   6   3  -9  199.53   27.35
  -6  -3   9  244.52   38.87
  -6  -3   9  215.10   27.72
   6   3  -8  140.31   20.30
   6   3  -8  169.66   24.52
  -6  -3   8  197.08   24.33
  -6  -3   8  226.76   23.11
   6   3  -7  477.05   33.27
   6   3  -7  505.45   53.25
  -6  -3   7  380.81   35.93
  -6  -3   7  419.79   33.41
   6   3  -6  759.87   47.94
   6   3  -6  791.84   54.54
  -6  -3   6  855.10   63.66
  -6  -3   6  821.09   56.97
   6   3  -5 1558.73   98.44
   6   3  -5 1626.19   96.12
  -6  -3   5 1659.89  100.68
  -6  -3   5 1631.87   88.93
   6   3  -4   40.11   12.19
   6   3  -4   34.26    9.16
  -6  -3   4   74.68   13.45
  -6  -3   4   65.07    9.51
   6   3  -3 1005.27   60.09
   6   3  -3  995.37   61.00
  -6  -3   3  925.17   60.19
  -6  -3   3  910.20   49.45
   6   3  -2  134.20   17.87
   6   3  -2  154.20   11.80
  -6  -3   2   96.84   11.41
  -6  -3   2   88.60   26.41
   6   3  -1  416.23   22.82
   6   3  -1  440.58   49.27
  -6  -3   1  432.06   23.71
  -6  -3   1  427.33   35.98
   6   3   0  470.73   23.07
   6   3   0  478.62   52.84
  -6  -3   0  387.76   22.47
  -6  -3   0  398.60   36.68
   6   3   1  119.05    8.55
   6   3   1  115.11   30.00
  -6  -3  -1  103.53    8.81
  -6  -3  -1   90.42   19.97
   6   3   2  376.33   22.38
   6   3   2  402.90   39.12
  -6  -3  -2  384.56   52.60
  -6  -3  -2  378.60   18.95
   6   3   3  481.78   20.64
   6   3   3  509.82   47.81
   6   3   3  519.95   48.53
   6   3   3  473.99   20.90
   6   3   4    5.41    2.14
   6   3   4   -0.12   16.07
   6   3   4    7.00   10.11
   6   3   4    9.04    3.34
   6   3   5  299.91   11.43
   6   3   5  297.67   11.43
   6   3   5  287.72   40.72
   6   3   5  327.02   39.98
   6   3   6  158.31   31.12
   6   3   6  156.62   29.70
   6   3   7   61.25   19.18
   6   3   7   -0.28   17.69
   6   3   8   82.35   22.63
   6   3   8    1.10   20.40
   6   3   9    7.02   18.61
   6   3   9   32.37   26.27
   6   4 -16   90.27   46.45
   6   4 -16   79.15   28.54
  -6  -4  16    0.27   43.04
  -6  -4  16   63.26   45.62
   6   4 -15   91.51   25.96
   6   4 -15   97.68   27.98
  -6  -4  15    0.07   25.58
  -6  -4  15   84.49   42.73
   6   4 -14  316.83   46.30
   6   4 -14  378.04   52.48
  -6  -4  14  423.18   51.33
  -6  -4  14  408.88   54.54
   6   4 -13  133.98   26.03
   6   4 -13  105.98   23.25
  -6  -4  13    0.09   24.09
  -6  -4  13   77.89   25.91
   6   4 -12  111.02   23.86
   6   4 -12  107.11   22.78
  -6  -4  12   67.71   23.81
  -6  -4  12   57.90   22.79
   6   4 -11  189.89   28.63
   6   4 -11  176.70   27.15
  -6  -4  11  152.60   29.40
  -6  -4  11  126.25   27.85
   6   4 -10   79.55   18.30
   6   4 -10   88.19   32.53
  -6  -4  10   82.05   20.89
  -6  -4  10  107.54   31.07
   6   4  -9  451.08   38.87
   6   4  -9  501.09   62.53
  -6  -4   9  453.26   44.81
  -6  -4   9  480.23   41.95
   6   4  -8  232.82   27.00
   6   4  -8  242.46   29.85
  -6  -4   8  279.97   31.17
  -6  -4   8  319.76   29.66
   6   4  -7  207.32   22.30
   6   4  -7  233.62   26.89
  -6  -4   7  178.25   26.62
  -6  -4   7  215.02   34.11
   6   4  -6  560.45   39.67
   6   4  -6  567.83   45.68
  -6  -4   6  619.78   41.58
  -6  -4   6  576.93   46.56
   6   4  -5  186.28   18.15
   6   4  -5  189.75   22.47
  -6  -4   5  126.41   17.50
  -6  -4   5  143.80   22.45
   6   4  -4  754.39   43.87
   6   4  -4  738.63   52.06
  -6  -4   4  705.77   43.27
  -6  -4   4  719.20   69.19
   6   4  -3  250.31   29.37
   6   4  -3  282.12   28.18
  -6  -4   3  313.81   30.59
  -6  -4   3  310.11   22.53
   6   4  -2  342.69   31.96
   6   4  -2  332.34   22.51
  -6  -4   2  364.91   24.15
  -6  -4   2  380.70   34.54
   6   4  -1 1243.49   76.88
   6   4  -1 1167.90   56.93
  -6  -4   1  998.77   65.20
  -6  -4   1  927.96   70.45
   6   4   0  629.94   33.40
   6   4   0  644.69   50.69
  -6  -4   0  665.55   52.50
  -6  -4   0  682.70   36.18
   6   4   1  145.82   11.58
   6   4   1  150.58   23.87
  -6  -4  -1  169.83   36.30
  -6  -4  -1  149.50   17.30
   6   4   2  429.32   26.52
   6   4   2  398.27   40.92
  -6  -4  -2  321.50   37.81
  -6  -4  -2  328.14   20.53
   6   4   3  175.37   11.61
   6   4   3  175.92   29.19
   6   4   3  173.26   29.83
   6   4   3  165.71   11.67
   6   4   4  427.54   20.69
   6   4   4  505.26   50.11
   6   4   4  449.67   48.36
   6   4   4  417.71   20.66
   6   4   5   57.30    5.10
   6   4   5   47.07   21.15
   6   4   5    1.96   20.12
   6   4   5   52.13    4.93
   6   4   6    7.18   19.57
   6   4   6    7.52   11.63
   6   4   7  257.48   43.57
   6   4   7  244.21   41.71
   6   4   8  126.11   33.62
   6   4   8  116.12   30.78
   6   5 -16   46.42   25.12
   6   5 -16   62.41   24.78
  -6  -5  16   33.32   25.30
  -6  -5  16    0.15   23.46
   6   5 -15   49.82   22.76
   6   5 -15   68.83   39.27
  -6  -5  15   78.34   25.79
  -6  -5  15    0.00   23.62
   6   5 -14  109.33   26.34
   6   5 -14  122.62   28.86
  -6  -5  14   94.08   28.64
  -6  -5  14    0.17   27.50
   6   5 -13   82.48   23.88
   6   5 -13   75.63   22.51
  -6  -5  13  109.64   38.19
  -6  -5  13    0.07   22.23
   6   5 -12  268.12   39.38
   6   5 -12  264.41   34.76
  -6  -5  12  179.53   38.83
  -6  -5  12  233.74   36.33
   6   5 -11   57.54   20.38
   6   5 -11   58.73   18.15
  -6  -5  11   47.57   20.01
  -6  -5  11   45.62   19.29
   6   5 -10  567.93   68.36
   6   5 -10  618.04   54.37
  -6  -5  10  519.13   52.08
  -6  -5  10  503.43   49.78
   6   5  -9   50.67   16.09
   6   5  -9   50.31   17.70
  -6  -5   9   59.86   17.68
  -6  -5   9   65.69   17.18
   6   5  -8  115.61   20.25
   6   5  -8  131.02   23.05
  -6  -5   8  141.28   23.97
  -6  -5   8  118.65   21.67
   6   5  -7  294.69   31.19
   6   5  -7  268.63   27.37
  -6  -5   7  215.75   26.39
  -6  -5   7  184.53   30.22
   6   5  -6  860.48   54.72
   6   5  -6  879.27   62.89
  -6  -5   6  802.02   54.69
  -6  -5   6  757.58   62.40
   6   5  -5  135.38   22.68
   6   5  -5  141.59   18.73
  -6  -5   5  192.93   20.52
  -6  -5   5  198.66   25.83
   6   5  -4  162.85   17.77
   6   5  -4  175.57   22.84
  -6  -5   4  143.74   24.79
  -6  -5   4  146.93   18.42
   6   5  -3  199.14   24.44
   6   5  -3  182.13   18.19
  -6  -5   3  148.76   24.53
  -6  -5   3  162.96   17.96
   6   5  -2 1006.25   56.69
   6   5  -2 1075.30   71.59
  -6  -5   2  916.43   54.87
  -6  -5   2  986.86   72.26
   6   5  -1  201.30   27.58
   6   5  -1  213.77   18.36
  -6  -5   1  245.21   19.88
  -6  -5   1  249.52   30.04
   6   5   0  323.76   34.33
   6   5   0  331.93   30.25
  -6  -5   0  339.26   31.07
  -6  -5   0  337.53   37.52
   6   5   1  358.01   22.22
   6   5   1  327.81   37.76
  -6  -5  -1  342.34   38.81
  -6  -5  -1  313.90   22.47
   6   5   2  635.21   34.92
   6   5   2  614.32   58.97
  -6  -5  -2  757.46   61.87
  -6  -5  -2  678.43   37.63
   6   5   3    0.34    8.82
   6   5   3   38.61   15.83
   6   5   3   43.79    8.96
   6   5   3   25.88   23.11
   6   5   4   68.60    8.20
   6   5   4  107.97   22.72
   6   5   4   68.96   22.71
   6   5   4   70.71    8.07
   6   5   5   30.36    5.08
   6   5   5   23.99   17.58
   6   5   5   36.37   17.81
   6   5   5   29.76    4.89
   6   5   6    1.97   22.85
   6   5   6   85.22   20.88
   6   5   7   -2.60   11.72
   6   5   7    9.21   11.02
   6   6 -15   47.37   22.18
   6   6 -15   38.22   23.40
  -6  -6  15   44.00   25.65
  -6  -6  15    0.17   22.52
   6   6 -14   14.51   16.66
   6   6 -14   12.71   16.27
  -6  -6  14   25.01   16.86
  -6  -6  14   -0.59   15.81
   6   6 -13  239.56   41.96
   6   6 -13  185.83   58.15
  -6  -6  13  272.09   42.14
  -6  -6  13  223.90   42.80
   6   6 -12   38.98   20.47
   6   6 -12   45.15   18.89
  -6  -6  12   39.47   21.18
  -6  -6  12   43.12   19.90
   6   6 -11  341.58   45.21
   6   6 -11  323.16   41.18
  -6  -6  11  325.41   46.16
  -6  -6  11  360.73   42.41
   6   6 -10   80.60   20.50
   6   6 -10   82.59   22.39
  -6  -6  10   73.72   22.82
  -6  -6  10   66.98   21.01
   6   6  -9   85.70   21.40
   6   6  -9   92.62   24.25
  -6  -6   9  107.88   21.67
  -6  -6   9  109.59   24.12
   6   6  -8  127.03   24.47
   6   6  -8  150.46   28.42
  -6  -6   8  249.94   40.89
  -6  -6   8  238.38   31.30
   6   6  -7  142.42   22.01
   6   6  -7  138.18   24.64
  -6  -6   7  144.23   22.90
  -6  -6   7  155.13   40.42
   6   6  -6  494.96   39.30
   6   6  -6  506.04   44.59
  -6  -6   6  437.75   45.84
  -6  -6   6  427.78   38.76
   6   6  -5  211.26   24.34
   6   6  -5  235.57   43.47
  -6  -6   5  254.86   37.20
  -6  -6   5  246.99   31.99
   6   6  -4   90.50   27.62
   6   6  -4   77.40   14.31
  -6  -6   4   64.95   19.67
  -6  -6   4   71.69   14.61
   6   6  -3  481.27   35.01
   6   6  -3  502.75   43.55
  -6  -6   3  498.69   64.70
  -6  -6   3  468.58   35.70
   6   6  -2   93.18   14.60
   6   6  -2   80.02   19.71
  -6  -6   2  120.65   15.33
  -6  -6   2  101.43   21.99
   6   6  -1    4.57    6.01
   6   6  -1   -2.04    9.37
  -6  -6   1    8.65   10.26
  -6  -6   1   16.13    6.38
   6   6   0  102.17   22.09
   6   6   0   88.21   13.80
  -6  -6   0  148.07   21.76
  -6  -6   0  155.42   24.89
   6   6   1   29.01    9.36
   6   6   1   47.83   26.89
  -6  -6  -1   61.04   18.18
  -6  -6  -1   66.88   10.19
   6   6   2  249.99   19.44
   6   6   2  264.67   35.83
  -6  -6  -2  225.40   19.82
  -6  -6  -2  243.32   35.48
   6   6   3   67.07    9.98
   6   6   3   88.99   23.52
   6   6   3   73.87   10.36
   6   6   3   68.16   22.18
   6   6   4  103.99   11.49
   6   6   4  101.15   26.98
   6   6   4  126.45   28.08
   6   6   4  112.84   11.46
   6   6   5   15.22   13.09
   6   6   5    2.06   13.73
   6   6   6    0.82    9.17
   6   6   6    2.86    9.73
   6   7 -15   57.44   24.97
   6   7 -15   41.00   25.92
  -6  -7  15   45.33   26.96
  -6  -7  15   -0.31   23.58
   6   7 -14  -10.11   13.14
   6   7 -14  -10.63   12.51
  -6  -7  14    3.46   13.50
  -6  -7  14    0.07   12.93
   6   7 -13  128.50   49.73
   6   7 -13  100.33   28.26
  -6  -7  13  103.88   30.77
  -6  -7  13   93.10   33.05
   6   7 -12  244.29   41.34
   6   7 -12  218.22   38.74
  -6  -7  12  199.01   42.62
  -6  -7  12  243.43   39.88
   6   7 -11  154.08   32.91
   6   7 -11  149.65   30.95
  -6  -7  11  153.59   34.86
  -6  -7  11  181.14   32.61
   6   7 -10   19.98   14.86
   6   7 -10   24.96   15.71
  -6  -7  10   23.53   16.48
  -6  -7  10   19.73   15.22
   6   7  -9  679.57   59.55
   6   7  -9  711.92   64.42
  -6  -7   9  633.87   61.25
  -6  -7   9  603.63   89.26
   6   7  -8   27.74   12.97
   6   7  -8   26.18   14.36
  -6  -7   8   15.94   13.90
  -6  -7   8   20.48   15.74
   6   7  -7  195.38   43.35
   6   7  -7  184.94   26.01
  -6  -7   7  150.12   26.46
  -6  -7   7  162.19   30.34
   6   7  -6  149.53   21.74
   6   7  -6  130.21   25.30
  -6  -7   6  101.89   21.55
  -6  -7   6  111.72   26.58
   6   7  -5  219.50   27.08
   6   7  -5  227.32   32.35
  -6  -7   5  277.42   35.18
  -6  -7   5  268.80   28.72
   6   7  -4   74.39   14.05
   6   7  -4   55.38   17.17
  -6  -7   4   30.92   18.27
  -6  -7   4   29.18   22.38
   6   7  -3   22.59   10.24
   6   7  -3   24.39   13.28
  -6  -7   3   33.03   17.14
  -6  -7   3   28.17   14.64
   6   7  -2   47.21   17.17
   6   7  -2   59.69   12.77
  -6  -7   2   57.21   13.24
  -6  -7   2   42.88   19.16
   6   7  -1  277.92   49.13
   6   7  -1  276.14   24.42
  -6  -7   1  241.68   35.82
  -6  -7   1  209.28   24.08
   6   7   0  292.41   38.10
   6   7   0  300.90   25.96
  -6  -7   0  302.34   27.61
  -6  -7   0  359.68   41.37
   6   7   1  100.44   22.77
   6   7   1   94.40   13.74
  -6  -7  -1    2.30   37.35
  -6  -7  -1   87.17   14.53
   6   7   2  236.10   48.07
   6   7   2  198.92   18.34
  -6  -7  -2  102.08   31.10
   6   7   3  332.24   25.74
   6   7   3  360.91   65.18
   6   7   3  316.60   25.90
   6   7   3  360.85   45.98
   6   7   4    0.02    5.57
   6   7   4   39.26   21.42
   6   7   4   20.49    5.59
   6   7   4    1.91   13.77
   6   7   5    6.78   13.00
   6   7   5   -4.50    8.48
   6   8 -14   17.30   18.03
   6   8 -14   19.73   17.88
  -6  -8  14   14.54   20.28
  -6  -8  14   -0.18   18.36
   6   8 -13   92.67   29.85
   6   8 -13   90.62   29.15
  -6  -8  13   61.06   32.77
  -6  -8  13   63.73   29.81
   6   8 -12  109.25   30.65
   6   8 -12  137.36   29.85
  -6  -8  12   84.67   33.76
  -6  -8  12   69.38   30.15
   6   8 -11    5.51    9.99
   6   8 -11   -1.98   10.04
  -6  -8  11    5.74   10.52
  -6  -8  11    0.60    9.94
   6   8 -10   27.86   19.52
   6   8 -10   51.95   20.84
  -6  -8  10   30.00   34.18
  -6  -8  10   57.08   20.24
   6   8  -9   10.71    9.01
   6   8  -9   -2.64    9.95
  -6  -8   9   10.46    9.40
  -6  -8   9   -9.19   10.28
   6   8  -8   87.45   22.72
   6   8  -8   78.39   37.76
  -6  -8   8   82.92   22.99
  -6  -8   8  110.90   26.56
   6   8  -7  612.69   54.55
   6   8  -7  644.76   58.44
  -6  -8   7  636.90   65.20
  -6  -8   7  604.26   57.18
   6   8  -6   71.23   22.30
   6   8  -6   86.43   19.77
  -6  -8   6  109.52   39.89
  -6  -8   6   94.43   20.84
   6   8  -5   25.21   10.76
   6   8  -5   15.20   12.53
  -6  -8   5   26.54   21.60
  -6  -8   5   -0.71   10.98
   6   8  -4  119.55   19.92
   6   8  -4  115.12   23.62
  -6  -8   4   83.05   39.66
  -6  -8   4   92.82   31.90
   6   8  -3   78.03   25.21
   6   8  -3   81.92   31.38
  -6  -8   3   97.55   26.45
  -6  -8   3   -3.65   35.53
   6   8  -2  134.58   26.57
   6   8  -2  147.95   21.32
  -6  -8   2  152.87   30.20
  -6  -8   2  144.81   22.30
   6   8  -1   19.62   13.21
   6   8  -1   23.68    9.41
  -6  -8   1   17.29    9.91
  -6  -8   1   -2.42   14.58
   6   8   0   23.37   11.09
   6   8   0   15.41   11.21
  -6  -8   0   -2.15   12.09
  -6  -8   0    0.16    7.99
   6   8   1  105.95   21.78
   6   8   1   99.84   13.95
  -6  -8  -1   -1.20   22.43
  -6  -8  -1    3.84   23.25
   6   8   2   -0.16   13.39
   6   8   2   -0.31    7.46
   6   8   2   35.80   14.44
   6   8   2   23.03    7.70
   6   8   3    0.02   12.83
   6   8   3   -0.58    6.55
   6   8   3   24.91   13.34
   6   8   3   18.50    6.65
   6   8   4    2.24    9.65
   6   9 -13  150.73   40.55
   6   9 -13  173.29   41.76
  -6  -9  13  151.14   71.02
  -6  -9  13  170.94   42.59
   6   9 -12    0.73    9.91
   6   9 -12   -1.72    9.98
  -6  -9  12    9.00   11.12
  -6  -9  12   -1.47   10.25
   6   9 -11  203.26   39.90
   6   9 -11  192.37   39.64
  -6  -9  11  117.92   59.97
  -6  -9  11  207.16   40.45
   6   9 -10    1.49   13.11
   6   9 -10   12.73   13.97
  -6  -9  10   11.51   13.71
  -6  -9  10   12.97   14.24
   6   9  -9   46.73   20.11
   6   9  -9   -0.38   22.52
  -6  -9   9   76.15   21.60
  -6  -9   9   64.91   22.80
   6   9  -8  139.70   26.91
   6   9  -8  110.02   29.18
  -6  -9   8  113.92   28.15
  -6  -9   8  106.53   47.17
   6   9  -7   48.06   15.79
   6   9  -7    2.64   16.87
  -6  -9   7   27.47   16.38
  -6  -9   7   35.32   18.65
   6   9  -6  147.55   37.22
   6   9  -6   89.24   26.47
  -6  -9   6  117.69   25.94
  -6  -9   6  122.55   30.65
   6   9  -5   40.84   13.87
   6   9  -5   31.34   15.63
  -6  -9   5   -2.55   17.24
  -6  -9   5   23.87   14.37
   6   9  -4   14.17    9.96
   6   9  -4    7.32   11.68
  -6  -9   4   14.32   16.29
  -6  -9   4   -0.17   12.99
   6   9  -3   72.66   15.36
   6   9  -3   58.52   18.12
  -6  -9   3    0.39   23.75
  -6  -9   3   -4.19   20.03
   6   9  -2   58.26   18.82
   6   9  -2   65.01   14.87
  -6  -9   2   -1.65   20.83
  -6  -9   2   36.80   24.50
   6   9  -1   23.49    9.24
   6   9  -1    2.80   12.15
  -6  -9   1    8.72   10.25
  -6  -9   1   -2.93   13.26
   6   9   0    0.83    9.37
   6   9   0   13.95   10.36
  -6  -9   0    1.21   10.52
  -6  -9   0    0.40    7.39
   6   9   1    0.08    9.99
   6   9   1    0.00    4.27
  -6  -9  -1   -0.04    4.58
  -6  -9  -1   -2.64    7.13
   6   9   2   -1.48    8.26
   6   9   2    0.44    4.96
   6   9   2    3.56    9.02
   6   9   2    3.32    5.26
   6  10 -12  169.31   40.68
   6  10 -12  164.99   43.30
  -6 -10  12  203.00   43.83
  -6 -10  12  147.79   45.44
   6  10 -11   12.13   16.34
   6  10 -11   15.36   16.63
  -6 -10  11   17.97   16.99
  -6 -10  11    0.63   17.39
   6  10 -10    9.02   14.19
   6  10 -10   10.94   14.10
  -6 -10  10    1.85   16.17
  -6 -10  10    9.08   14.65
   6  10  -9  173.17   35.22
   6  10  -9  161.37   35.12
  -6 -10   9  176.67   36.36
  -6 -10   9  120.77   35.64
   6  10  -8   55.78   18.45
   6  10  -8    1.88   19.40
  -6 -10   8   51.68   19.69
  -6 -10   8    1.60   20.52
   6  10  -7   16.24   10.55
   6  10  -7   -1.45   10.95
  -6 -10   7    1.83   12.63
  -6 -10   7    0.95   11.30
   6  10  -6    0.44   12.56
  -6 -10   6   -0.26    9.45
  -6 -10   6    2.39    8.22
   6  10  -5  161.36   31.15
   6  10  -5  188.78   33.07
  -6 -10   5  195.33   32.81
  -6 -10   5  186.55   38.74
   6  10  -4   35.91   12.36
   6  10  -4   -1.13   14.00
  -6 -10   4    2.27   20.07
  -6 -10   4    3.00   16.14
   6  10  -3    6.51    8.18
   6  10  -3    0.33   14.23
  -6 -10   3   -1.06   10.55
  -6 -10   3    2.55    8.34
   6  10  -2   30.56   12.77
   6  10  -2    2.63   15.04
  -6 -10   2   36.42   13.48
  -6 -10   2    1.15   17.24
   6  10  -1   -7.39    7.72
   6  10  -1   -0.79    9.85
  -6 -10   1   -2.04   10.99
  -6 -10   1    0.23   13.04
   6  10   0   -1.11    7.20
   6  10   0   -0.74    6.41
  -6 -10   0    2.55    7.01
   6  11 -10   72.60   22.69
   6  11 -10   -4.28   34.50
  -6 -11  10   58.52   36.71
  -6 -11  10   -8.81   23.91
   6  11  -9   10.99   19.39
   6  11  -9    4.57   11.78
  -6 -11   9    4.19   12.68
  -6 -11   9   -0.33   12.76
   6  11  -8   20.40   14.19
   6  11  -8   -0.82   14.45
  -6 -11   8   26.41   23.91
  -6 -11   8   -0.80   14.67
   6  11  -7   37.13   13.73
   6  11  -7   -0.70   21.88
  -6 -11   7   -4.33   15.90
  -6 -11   7   -6.28   14.76
   6  11  -6   38.77   13.86
   6  11  -6   -0.85   14.14
  -6 -11   6   -2.90   24.02
  -6 -11   6   -2.74   14.11
   6  11  -5    0.52   16.05
   6  11  -5   56.54   15.63
  -6 -11   5    0.50   25.08
  -6 -11   5    0.11   17.77
   6  11  -4   11.87    9.26
   6  11  -4   -0.38    9.87
  -6 -11   4    0.39    9.48
  -6 -11   4   -0.44   11.46
  -7  16   0   59.12   29.47
  -7  16   0   49.02   30.28
  -7  16  -1   71.81   30.04
  -7  16  -1   47.79   49.50
  -7  16  -2   65.79   28.83
  -7  16  -2   79.72   30.73
  -7  16  -3   36.74   40.28
  -7  16  -3   47.02   23.52
  -7  16  -4  124.85   34.72
  -7  16  -4  146.40   37.18
  -7  16  -5   52.84   23.91
  -7  16  -5   39.30   24.42
  -7  16  -6    7.56   13.31
  -7  16  -6    4.58   13.58
  -7  16  -7   41.88   22.23
  -7  16  -7   38.90   22.50
   7 -16   8   49.36   26.98
  -7  16  -8   90.80   26.72
  -7  15   3    7.22   14.52
  -7  15   3    1.61   15.67
  -7  15   2   -0.39   16.34
  -7  15   2    1.47   10.44
  -7  15   1   68.84   29.18
  -7  15   1   58.77   46.53
  -7  15   0   71.90   28.29
  -7  15   0   64.74   30.91
  -7  15  -1   67.14   27.78
  -7  15  -1   75.03   28.34
  -7  15  -2  178.65   40.26
  -7  15  -2  222.07   41.26
  -7  15  -3  280.30   43.54
  -7  15  -3  249.37   46.43
  -7  15  -4  141.45   32.33
  -7  15  -4  105.73   47.28
  -7  15  -5    5.81   12.76
  -7  15  -5   12.87   13.32
  -7  15  -6  341.19   44.87
  -7  15  -6  269.56   44.77
   7 -15   7    0.01    7.78
   7 -15   7   27.99   11.17
  -7  15  -7   57.54   15.65
  -7  15  -7   19.26   15.67
   7 -15   8   16.87   13.76
   7 -15   8   18.80    7.89
  -7  15  -8   -2.09    8.45
  -7  15  -8   29.77   21.03
   7 -15   9   27.96   20.20
   7 -15   9   54.43   14.21
  -7  15  -9  109.68   32.08
  -7  15  -9    0.24   22.60
   7 -15  10    0.51    9.56
   7 -15  10   18.17   18.45
  -7  15 -10   24.57   11.82
  -7  15 -10   -1.46    9.38
  -7  14   5   -4.93   15.30
  -7  14   4    8.21    9.42
  -7  14   4   -7.63    9.81
  -7  14   3   94.20   25.80
  -7  14   3   -3.40   26.69
  -7  14   2   33.61   20.42
  -7  14   2   20.29   21.52
  -7  14   1   30.28   20.56
  -7  14   1   38.96   34.28
  -7  14   0  100.28   29.78
  -7  14   0  116.37   31.59
  -7  14  -1   19.46   16.81
  -7  14  -1   26.58   17.78
  -7  14  -2   31.78   19.41
  -7  14  -2   37.12   19.65
  -7  14  -3   38.28   17.36
  -7  14  -3   25.12   18.44
   7 -14   4   58.97    5.78
   7 -14   4   57.77    5.40
  -7  14  -4   46.23   20.09
  -7  14  -4   54.69   21.69
   7 -14   5  140.70   12.37
  -7  14  -5  198.10   31.75
  -7  14  -5  182.26   28.77
   7 -14   6   -0.50    7.27
   7 -14   6   25.83   10.18
  -7  14  -6   52.39   13.87
  -7  14  -6   31.14   14.21
   7 -14   7   44.47   16.79
   7 -14   7   55.80    9.94
  -7  14  -7   40.73   16.03
  -7  14  -7    0.12   10.04
   7 -14   8  179.50   30.09
   7 -14   8  191.16   21.36
  -7  14  -8  145.43   43.35
  -7  14  -8  124.55   21.50
   7 -14   9  101.72   22.68
   7 -14   9  102.81   18.84
  -7  14  -9   91.08   33.29
  -7  14  -9    1.37   27.16
   7 -14  10   46.41   18.00
   7 -14  10   44.10   26.08
  -7  14 -10   56.65   17.37
  -7  14 -10   33.94   16.38
   7 -14  11   37.98   15.57
   7 -14  11    9.88   14.96
  -7  14 -11   50.60   14.53
  -7  14 -11   -1.38   15.50
  -7  13   6   -6.40   10.18
  -7  13   6    4.44    9.95
  -7  13   5   11.39   13.07
  -7  13   5   -3.84   12.56
  -7  13   4   51.69   20.56
  -7  13   4    2.62   22.95
  -7  13   3   38.92   22.31
  -7  13   3   42.79   22.88
  -7  13   2   40.92   20.67
  -7  13   2   36.80   21.28
  -7  13   1  372.15   49.07
  -7  13   1  383.57   75.25
  -7  13   0   79.06   23.82
  -7  13   0   73.67   25.49
  -7  13  -1  293.96   42.02
  -7  13  -1  313.99   41.51
  -7  13  -2  338.35   42.47
  -7  13  -2  353.52   42.72
   7 -13   3   64.11    4.84
   7 -13   3   63.48    6.41
  -7  13  -3   79.16   20.38
  -7  13  -3   66.91   20.76
   7 -13   4  447.37   23.80
  -7  13  -4  471.50   47.99
  -7  13  -4  490.70   46.36
   7 -13   5  131.19   13.95
   7 -13   5  145.69   19.28
  -7  13  -5  155.29   24.22
  -7  13  -5  130.96   25.89
   7 -13   6   -0.56    8.56
   7 -13   6   40.64   12.31
  -7  13  -6   42.88   12.84
  -7  13  -6   31.88   13.34
   7 -13   7  668.29   47.16
   7 -13   7  615.01   56.66
  -7  13  -7  689.20   55.23
  -7  13  -7  659.57   47.27
   7 -13   8  155.95   19.48
   7 -13   8  107.97   23.47
  -7  13  -8  107.36   20.03
  -7  13  -8  103.17   22.36
   7 -13   9   81.48   28.77
   7 -13   9   82.92   30.76
  -7  13  -9   81.07   19.41
  -7  13  -9   81.55   18.48
   7 -13  10  199.03   30.52
   7 -13  10  187.47   27.96
  -7  13 -10  198.39   27.82
  -7  13 -10  164.23   29.39
   7 -13  11   53.05   20.67
   7 -13  11   58.38   17.07
  -7  13 -11    2.94   20.54
  -7  13 -11   87.35   16.83
   7 -13  12  122.42   28.56
   7 -13  12   82.34   21.10
  -7  13 -12    7.01   27.69
  -7  13 -12  146.29   20.65
  -7  12   7   89.51   26.89
  -7  12   7   -2.53   25.60
  -7  12   6  106.14   36.81
  -7  12   6    7.57   22.73
  -7  12   5   26.18   17.28
  -7  12   5    4.64   16.99
  -7  12   4   40.59   17.09
  -7  12   4   -2.52   17.10
  -7  12   3   15.35   14.68
  -7  12   3   11.59   14.91
  -7  12   2  225.54   57.91
  -7  12   2  261.40   37.96
  -7  12   1   29.14   16.98
  -7  12   1   50.84   27.39
  -7  12   0   40.74   26.44
  -7  12   0   38.77   17.69
  -7  12  -1  206.13   31.11
  -7  12  -1  233.65   31.85
   7 -12   2  106.21    4.76
   7 -12   2  110.04    5.01
  -7  12  -2  131.78   22.78
  -7  12  -2  124.63   23.20
   7 -12   3   -1.54    1.24
  -7  12  -3    8.93    5.86
  -7  12  -3    2.02    6.13
   7 -12   4   93.93    9.20
   7 -12   4   75.85    9.75
  -7  12  -4   36.61   27.26
  -7  12  -4   91.91   19.43
   7 -12   5   44.92    7.68
   7 -12   5   -0.01   12.41
  -7  12  -5   26.22   19.48
  -7  12  -5   26.54   13.05
   7 -12   6  420.36   30.13
   7 -12   6  376.91   30.36
  -7  12  -6  408.02   50.99
  -7  12  -6  377.82   37.19
   7 -12   7  132.76   26.89
   7 -12   7  102.21   21.03
  -7  12  -7  134.33   20.03
  -7  12  -7  135.12   18.64
   7 -12   8   96.35   17.97
   7 -12   8   81.66   17.76
  -7  12  -8   74.91   17.93
  -7  12  -8   88.76   17.22
   7 -12   9  264.72   31.45
   7 -12   9  210.80   27.98
  -7  12  -9  271.12   28.06
  -7  12  -9  227.42   44.87
   7 -12  10  194.91   30.28
   7 -12  10  159.87   24.02
  -7  12 -10  178.40   29.27
  -7  12 -10  210.24   34.44
   7 -12  11  107.95   23.97
   7 -12  11   88.72   16.99
  -7  12 -11   74.14   15.70
  -7  12 -11   -2.54   22.58
   7 -12  12   55.82   34.46
   7 -12  12   56.48   13.72
  -7  12 -12   43.13   12.88
  -7  12 -12    5.06   21.60
   7 -12  13   50.64   22.43
   7 -12  13   51.40   18.91
  -7  12 -13   32.42   17.34
  -7  12 -13    0.07   22.39
  -7  11   9   -0.07   19.37
  -7  11   9   34.02   20.68
  -7  11   8    1.68   17.24
  -7  11   8   38.78   28.08
  -7  11   7    6.71   27.58
  -7  11   7   26.31   29.58
  -7  11   6   90.92   23.76
  -7  11   6    1.74   22.54
  -7  11   5   56.58   19.04
  -7  11   5   -2.30   17.50
  -7  11   4   60.28   21.08
  -7  11   4   33.29   20.21
  -7  11   3   43.14   18.43
  -7  11   3   37.32   18.27
  -7  11   2   17.96   13.57
  -7  11   2   16.04   13.14
  -7  11   1  121.30   24.67
  -7  11   1  125.15   23.84
  -7  11   0  383.64   39.64
  -7  11   0  415.46   42.18
  -7  11  -1  121.99   21.03
  -7  11  -1  112.70   21.46
   7 -11   2  414.25   17.66
   7 -11   2  431.43   18.99
  -7  11  -2  446.61   38.99
  -7  11  -2  435.60   39.00
   7 -11   3  262.16   14.74
   7 -11   3  278.66   16.91
  -7  11  -3  234.31   27.74
  -7  11  -3  226.89   28.75
   7 -11   4   88.59    9.43
   7 -11   4   85.89   16.05
  -7  11  -4   56.13   15.76
  -7  11  -4   78.41   16.15
   7 -11   5  649.99   37.16
   7 -11   5  637.81   40.73
  -7  11  -5  647.05   46.30
  -7  11  -5  680.37   49.57
   7 -11   6  228.85   20.08
   7 -11   6  233.36   22.73
  -7  11  -6  198.43   33.10
  -7  11  -6  174.13   23.17
   7 -11   7   12.54    8.48
   7 -11   7   14.90    8.89
  -7  11  -7   15.98    8.23
  -7  11  -7   18.86    9.13
   7 -11   8  434.45   36.62
   7 -11   8  506.59   41.05
  -7  11  -8  429.20   42.34
  -7  11  -8  486.37   36.33
   7 -11   9  343.85   37.40
   7 -11   9  325.63   30.04
  -7  11  -9  311.23   37.82
  -7  11  -9  360.45   29.48
   7 -11  10   62.99   18.98
   7 -11  10   48.37   12.74
  -7  11 -10   47.90   12.26
  -7  11 -10   54.58   28.45
   7 -11  11  105.07   38.35
   7 -11  11   85.57   15.25
  -7  11 -11    1.43   36.95
  -7  11 -11   85.00   13.65
   7 -11  12  160.71   32.91
   7 -11  12  138.04   17.93
  -7  11 -12  109.98   16.09
  -7  11 -12   -8.53   48.26
   7 -11  13   36.56   18.98
   7 -11  13   13.96   13.08
  -7  11 -13   21.69    7.88
  -7  11 -13   -0.55   18.87
  -7  10  10    7.03   18.68
  -7  10  10   23.45   20.08
  -7  10   9    8.27   16.40
  -7  10   9   24.61   28.89
  -7  10   8  178.83   37.32
  -7  10   8  179.28   62.77
  -7  10   7    0.52   18.14
  -7  10   7   55.35   20.05
  -7  10   6   64.05   24.04
  -7  10   6   48.25   22.47
  -7  10   5  141.05   31.29
  -7  10   5  163.71   45.08
  -7  10   4  256.97   36.86
  -7  10   4  228.64   34.19
  -7  10   3   14.04   12.20
  -7  10   3   12.41   12.37
  -7  10   2  245.48   33.23
  -7  10   2  254.80   46.50
  -7  10   1  996.11   71.07
  -7  10   1  973.92   70.23
  -7  10   0   99.65   19.03
  -7  10   0   97.04   19.24
   7 -10   1  213.62    9.83
   7 -10   1  212.34   10.45
  -7  10  -1  268.93   25.92
  -7  10  -1  258.08   26.31
   7 -10   2  899.56   40.32
  -7  10  -2  971.19   62.62
  -7  10  -2  966.84   62.33
   7 -10   3  275.19   17.35
   7 -10   3  285.04   19.13
  -7  10  -3  333.89   28.04
  -7  10  -3  315.98   27.64
   7 -10   4  557.68   39.59
   7 -10   4  535.44   33.35
  -7  10  -4  527.27   38.37
  -7  10  -4  505.83   37.59
   7 -10   5  218.10   26.24
   7 -10   5  197.93   19.89
  -7  10  -5  217.42   21.16
  -7  10  -5  205.53   20.90
   7 -10   6    3.76    5.23
   7 -10   6   -5.97    5.83
  -7  10  -6    6.38    5.20
  -7  10  -6    9.43    5.33
   7 -10   7  295.91   23.96
   7 -10   7  320.57   26.44
  -7  10  -7  175.15   26.01
  -7  10  -7  208.26   20.58
   7 -10   8  172.55   23.02
   7 -10   8  151.26   17.90
  -7  10  -8  170.62   24.90
  -7  10  -8  168.19   17.46
   7 -10   9   67.85   17.40
   7 -10   9   85.51   17.33
  -7  10  -9   46.51   18.08
  -7  10  -9   31.53   17.00
   7 -10  10   75.06   19.99
   7 -10  10   63.31   11.72
  -7  10 -10   61.65   11.01
  -7  10 -10   44.33   20.83
   7 -10  11   83.34   22.74
   7 -10  11   65.30   11.32
  -7  10 -11    0.73   22.73
  -7  10 -11   63.21   10.27
   7 -10  12  130.20   29.71
   7 -10  12   97.84   13.35
  -7  10 -12   -0.29   30.98
  -7  10 -12  108.36   18.00
   7 -10  13   28.07   18.25
  -7  10 -13    0.12   18.52
  -7   9  11  117.20   50.61
  -7   9  11   98.97   37.51
  -7   9  10    7.65    7.54
  -7   9  10   -8.76    8.38
  -7   9   9   -0.48   20.89
  -7   9   9   75.72   23.09
  -7   9   8   -1.23   19.66
  -7   9   8   77.06   21.92
  -7   9   7   50.48   19.82
  -7   9   7   39.43   21.33
  -7   9   6  103.70   26.01
  -7   9   6   88.58   38.95
  -7   9   5  653.49   62.70
  -7   9   5  674.36   60.05
  -7   9   4  176.46   29.77
  -7   9   4  202.40   27.92
  -7   9   3   82.17   20.44
  -7   9   3   85.59   19.50
  -7   9   2 1205.70   84.46
  -7   9   2 1176.97   81.60
  -7   9   1    6.66    6.80
  -7   9   1    0.01    6.57
   7  -9   0  272.04   14.54
   7  -9   0  275.85   14.04
  -7   9   0  265.85   40.22
  -7   9   0  265.63   27.11
   7  -9   1  948.03   44.68
  -7   9  -1  814.82   54.08
  -7   9  -1  825.66   55.76
   7  -9   2 1283.24   64.98
   7  -9   2 1252.23   60.25
  -7   9  -2 1053.02   65.11
  -7   9  -2 1059.43   66.73
   7  -9   3 1545.33   86.60
   7  -9   3 1502.29   90.87
  -7   9  -3 1675.71  105.87
  -7   9  -3 1570.01   89.85
   7  -9   4  275.77   20.32
   7  -9   4  264.53   21.46
  -7   9  -4  236.14   21.16
  -7   9  -4  235.85   21.40
   7  -9   5  273.71   23.37
   7  -9   5  249.37   35.79
  -7   9  -5  335.29   23.22
  -7   9  -5  321.58   32.91
   7  -9   6  390.66   31.19
   7  -9   6  386.82   33.97
  -7   9  -6  405.94   27.37
  -7   9  -6  413.66   27.70
   7  -9   7  803.93   51.29
   7  -9   7  495.70   48.16
  -7   9  -7  891.77   43.64
  -7   9  -7  575.18   37.12
   7  -9   8  235.35   28.01
   7  -9   8  232.96   18.99
  -7   9  -8  246.98   30.24
  -7   9  -8  246.43   18.74
   7  -9   9   20.81   13.59
   7  -9   9   32.76    7.58
  -7   9  -9   36.44   11.22
  -7   9  -9   20.32   14.96
   7  -9  10  395.61   41.26
   7  -9  10  341.24   30.60
  -7   9 -10  260.95   41.60
  -7   9 -10  272.39   27.06
   7  -9  11   23.81   15.85
   7  -9  11   18.78    6.33
  -7   9 -11   25.04    8.75
  -7   9 -11   -0.38   16.74
   7  -9  12   22.70   13.82
   7  -9  12    5.77    4.34
  -7   9 -12   -0.39   13.73
   7  -9  13   18.84   15.69
  -7   9 -13   -1.64   16.45
   7  -8 -12   -1.76    9.00
  -7   8  12    1.99   13.63
   7  -8 -11    6.94   24.00
  -7   8  11   78.81   23.26
   7  -8 -10   -0.49   23.69
  -7   8  10   99.63   24.37
  -7   8  10   55.62    8.05
   7  -8  -9    0.82   20.81
  -7   8   9   47.80    6.42
  -7   8   9   76.87   20.90
   7  -8  -8   22.33    5.79
   7  -8  -8    0.36   14.23
  -7   8   8   18.05   14.11
  -7   8   8   13.83    3.79
   7  -8  -7  282.09   13.32
   7  -8  -7  292.08   37.74
  -7   8   7  333.70   57.30
  -7   8   7  273.39   13.59
   7  -8  -6   70.07   23.27
  -7   8   6  151.61   23.88
  -7   8   6  118.63    6.40
   7  -8  -5  120.01    6.68
   7  -8  -5  127.10   21.79
  -7   8   5   95.54    6.75
  -7   8   5   98.76   21.95
   7  -8  -4  124.29   23.85
  -7   8   4  168.26    8.01
  -7   8   4  220.86   25.40
   7  -8  -3 1248.77   44.33
   7  -8  -3 1306.68   49.55
  -7   8   3 1395.24   90.91
  -7   8   3 1350.37   85.53
   7  -8  -2  701.05   25.50
   7  -8  -2  724.10   26.58
  -7   8   2  868.77   56.79
  -7   8   2  867.45   71.64
   7  -8  -1  282.46   12.51
  -7   8   1  286.11   27.36
  -7   8   1  290.28   26.93
   7  -8   0 1009.29   43.04
   7  -8   0  934.16   39.67
  -7   8   0  932.34   58.29
  -7   8   0  928.21   57.32
   7  -8   1  848.87   41.13
   7  -8   1  889.37   40.62
  -7   8  -1  870.15   51.88
  -7   8  -1  870.73   63.43
   7  -8   2  408.68   21.57
   7  -8   2  414.92   23.12
  -7   8  -2  256.64   22.83
  -7   8  -2  261.85   23.51
   7  -8   3   41.65    7.51
   7  -8   3   34.45    8.13
  -7   8  -3   29.85    7.82
  -7   8  -3   26.22    7.81
   7  -8   4  131.10   24.22
   7  -8   4  153.09   16.01
  -7   8  -4  151.53   13.99
  -7   8  -4  139.93   13.86
   7  -8   5  340.99   26.08
   7  -8   5  347.75   27.80
  -7   8  -5  280.22   19.24
  -7   8  -5  288.80   20.42
   7  -8   6   45.39   11.41
   7  -8   6   24.59   12.51
  -7   8  -6   42.69   10.87
  -7   8  -6   45.03   11.27
   7  -8   7  212.88   24.34
   7  -8   7  202.64   26.31
  -7   8  -7  183.32   13.53
  -7   8  -7  203.71   14.99
   7  -8   8  660.72   53.87
   7  -8   8  638.86   56.74
  -7   8  -8  711.48   35.55
  -7   8  -8  665.39   34.21
   7  -8   9  347.54   55.59
   7  -8   9  349.90   20.84
  -7   8  -9  346.72   19.47
   7  -8  10   72.83   17.52
   7  -8  10   52.21    6.61
  -7   8 -10   10.11    8.56
  -7   8 -10   29.19   18.84
   7  -8  11    7.20    9.10
   7  -8  11   -0.51    2.54
  -7   8 -11   -1.16    9.71
  -7   8 -11    3.90    2.24
   7  -8  12   21.44   15.58
  -7   8 -12   -0.43   15.90
   7  -8  13   22.07   17.02
   7  -8  13   -1.28   18.03
   7  -7 -12   -2.41   27.47
  -7   7  12   90.21   26.39
  -7   7  12   77.03   11.90
   7  -7 -11   12.20    6.12
   7  -7 -11   -1.66   14.77
  -7   7  11   11.91   14.25
  -7   7  11   12.20    6.12
   7  -7 -10    0.98    4.11
   7  -7 -10   -3.28    6.61
  -7   7  10    4.86    6.44
  -7   7  10   -0.72    4.24
   7  -7  -9  154.47   30.17
  -7   7   9  180.52   29.78
  -7   7   9  143.05   13.11
   7  -7  -8  103.49   13.61
   7  -7  -8  109.29   23.78
  -7   7   8   99.54    9.70
  -7   7   8  119.37   23.72
   7  -7  -7  305.43   35.66
  -7   7   7  344.24   36.94
  -7   7   7  290.95   16.72
   7  -7  -6  264.36   31.84
  -7   7   6  324.84   48.18
  -7   7   6  271.98   14.66
   7  -7  -5  250.30   29.16
  -7   7   5  255.93   28.93
  -7   7   5  243.60   12.46
   7  -7  -4  865.54   59.54
  -7   7   4  918.87   38.29
  -7   7   4  909.16   61.71
   7  -7  -3  112.47   18.08
  -7   7   3  137.73    8.23
  -7   7   3  129.59   18.52
   7  -7  -2  646.12   45.08
  -7   7   2  755.55   31.57
  -7   7   2  740.57   47.19
   7  -7  -1  339.51   16.50
   7  -7  -1  346.25   17.19
  -7   7   1  362.25   28.32
  -7   7   1  350.43   26.31
   7  -7   0  584.50   30.40
   7  -7   0  700.71   33.47
  -7   7   0  865.66   47.83
  -7   7   0  847.72   46.00
   7  -7   1   14.53    5.48
   7  -7   1   20.22    5.27
  -7   7  -1   31.28    7.21
  -7   7  -1   23.95    6.78
   7  -7   2  220.20   22.54
   7  -7   2  223.93   17.16
  -7   7  -2  196.58   15.98
  -7   7  -2  183.09   15.45
   7  -7   3  798.19   46.19
   7  -7   3  828.99   44.38
  -7   7  -3  641.30   34.90
  -7   7  -3  665.78   36.31
   7  -7   4  295.88   26.05
   7  -7   4  280.62   24.01
  -7   7  -4  322.17   18.92
  -7   7  -4  346.02   19.70
   7  -7   5  513.64   36.09
   7  -7   5  538.91   38.15
  -7   7  -5  441.39   23.07
  -7   7  -5  431.42   23.41
   7  -7   6  388.88   35.41
   7  -7   6  395.58   38.05
  -7   7  -6  479.01   27.42
  -7   7  -6  463.76   27.56
   7  -7   7  226.72   24.29
   7  -7   7  247.91   26.88
  -7   7  -7  141.89    9.64
  -7   7  -7  157.23    9.43
   7  -7   8  398.83   36.31
   7  -7   8  410.61   40.55
  -7   7  -8  283.30   14.51
   7  -7   9   29.87   15.78
   7  -7   9   35.26   13.72
  -7   7  -9   25.02    3.53
  -7   7  -9   18.98    5.77
   7  -7  10  139.10   27.20
   7  -7  10  134.21   29.41
  -7   7 -10  108.88    6.70
  -7   7 -10  115.99    9.35
   7  -7  11  280.61   44.53
   7  -7  11  311.95   48.66
   7  -7  12   -9.17   12.59
   7  -7  12    0.81   13.63
   7  -7  13   84.32   26.70
   7  -7  13    0.22   28.16
   7  -6 -13   15.68   11.39
   7  -6 -13    0.02   21.71
  -7   6  13   55.78   20.11
  -7   6  13   48.26   11.10
   7  -6 -12  123.89   18.08
   7  -6 -12  133.98   33.91
  -7   6  12  140.48   33.06
  -7   6  12  163.24   18.79
   7  -6 -11   39.77   11.03
   7  -6 -11   -0.89   21.42
  -7   6  11   73.26   21.32
  -7   6  11   87.37   17.16
   7  -6 -10   68.47   10.23
   7  -6 -10   -0.04   20.32
  -7   6  10   44.10   19.70
  -7   6  10   54.56   10.53
   7  -6  -9  172.06   16.06
   7  -6  -9  199.84   30.05
  -7   6   9  203.21   29.76
  -7   6   9  202.10   24.03
   7  -6  -8  824.48   42.31
   7  -6  -8  778.81   63.15
  -7   6   8  807.41   66.02
  -7   6   8  766.18   50.46
   7  -6  -7  117.54   10.48
   7  -6  -7  124.08   21.19
  -7   6   7  125.74   15.58
  -7   6   7  113.86   22.25
   7  -6  -6  197.10   13.14
   7  -6  -6  201.57   25.29
  -7   6   6  249.45   26.54
  -7   6   6  246.65   14.88
   7  -6  -5  694.97   30.93
   7  -6  -5  692.31   47.92
  -7   6   5  642.35   46.49
  -7   6   5  628.87   36.56
   7  -6  -4  242.44   17.02
   7  -6  -4  232.30   23.25
  -7   6   4  247.77   23.50
  -7   6   4  226.42   13.29
   7  -6  -3  105.54    8.22
   7  -6  -3  103.58   15.04
  -7   6   3  109.10   15.00
  -7   6   3  117.20    8.73
   7  -6  -2 1048.71   46.94
   7  -6  -2 1071.98   59.99
  -7   6   2 1034.97   47.82
  -7   6   2 1065.48   58.93
   7  -6  -1  276.03   20.42
   7  -6  -1  283.59   15.84
  -7   6   1  230.75   20.44
  -7   6   1  206.18   18.64
   7  -6   0  478.75   26.15
   7  -6   0  495.33   26.72
  -7   6   0  486.80   29.68
  -7   6   0  480.96   28.11
   7  -6   1  542.05   30.80
   7  -6   1  553.56   30.35
  -7   6  -1  548.40   30.80
  -7   6  -1  509.52   28.16
   7  -6   2 2186.10  116.88
   7  -6   2 2247.98  121.67
  -7   6  -2 2198.21  107.33
  -7   6  -2 2220.59  108.21
   7  -6   3  598.04   40.93
   7  -6   3  609.85   38.62
  -7   6  -3  671.88   31.10
  -7   6  -3  636.91   29.87
   7  -6   4  680.09   46.94
   7  -6   4  688.40   45.14
  -7   6  -4  682.33   30.52
  -7   6  -4  685.95   30.40
   7  -6   5 1462.17  109.42
   7  -6   5 1375.01   83.51
  -7   6  -5 1353.21   57.83
   7  -6   6 1081.43   77.93
   7  -6   6 1097.10   72.10
  -7   6  -6 1117.82   47.93
   7  -6   7  200.98   27.30
   7  -6   7  181.29   29.33
  -7   6  -7  188.60    8.20
  -7   6  -7  195.86    8.62
   7  -6   8   84.52   30.65
   7  -6   8  101.42   22.39
  -7   6  -8   83.13    5.48
  -7   6  -8   87.72    5.70
   7  -6   9    9.38   11.48
   7  -6   9   22.50   12.75
  -7   6  -9   10.46    0.90
  -7   6  -9   10.13    1.35
   7  -6  10  185.88   33.50
   7  -6  10  172.47   36.66
   7  -6  11    6.79   11.28
   7  -6  11    0.21   11.90
   7  -6  12  109.56   27.00
   7  -6  12    1.70   28.69
   7  -6  13   55.12   23.52
   7  -6  13   -1.61   25.37
   7  -5 -14   28.70   12.69
   7  -5 -14   -0.29   21.27
  -7   5  14   16.15   19.53
  -7   5  14   40.47   12.20
   7  -5 -13   33.42   20.02
   7  -5 -13    3.57   22.89
  -7   5  13   55.97   20.56
  -7   5  13   47.03   12.99
   7  -5 -12  100.10   17.96
   7  -5 -12  140.45   29.56
  -7   5  12  120.64   27.39
  -7   5  12   94.53   17.27
   7  -5 -11   59.68   12.80
   7  -5 -11   -0.96   22.12
  -7   5  11   84.14   21.59
  -7   5  11   79.95   13.26
   7  -5 -10   13.99    6.77
   7  -5 -10    6.05   12.09
  -7   5  10    6.14   11.88
  -7   5  10   12.14    6.80
   7  -5  -9   57.09   17.18
   7  -5  -9   67.05   31.62
  -7   5   9   97.66   19.96
  -7   5   9   85.75   11.90
   7  -5  -8  740.31   41.78
   7  -5  -8  733.48   74.29
  -7   5   8  710.43   55.83
  -7   5   8  728.17   42.45
   7  -5  -7  836.90   45.24
   7  -5  -7  839.71   78.71
  -7   5   7  985.45   50.04
  -7   5   7  973.39   82.36
   7  -5  -6  371.69   21.77
   7  -5  -6  436.95   49.28
  -7   5   6  424.70   34.78
  -7   5   6  423.53   24.52
   7  -5  -5  129.67   10.76
   7  -5  -5  133.59   18.01
  -7   5   5  133.61   17.95
  -7   5   5  143.81   11.72
   7  -5  -4 2029.02   96.33
   7  -5  -4 2040.67  114.37
  -7   5   4 2006.87  112.17
  -7   5   4 2062.48  100.11
   7  -5  -3  343.90   19.96
   7  -5  -3  349.19   26.75
  -7   5   3  439.41   28.07
  -7   5   3  455.27   22.93
   7  -5  -2  392.34   22.21
   7  -5  -2  394.53   26.16
  -7   5   2  453.33   27.02
  -7   5   2  462.13   25.16
   7  -5  -1   95.63    9.83
   7  -5  -1   88.44    8.79
  -7   5   1   49.88    8.85
  -7   5   1   54.36    8.63
   7  -5   0  654.31   44.23
   7  -5   0  661.06   34.05
  -7   5   0  675.65   33.39
  -7   5   0  720.51   38.02
   7  -5   1  318.76   24.90
   7  -5   1  334.68   25.36
  -7   5  -1  502.60   24.69
  -7   5  -1  486.06   22.67
   7  -5   2  430.62   28.90
   7  -5   2  448.75   41.54
  -7   5  -2  442.73   21.34
  -7   5  -2  412.38   19.62
   7  -5   3  433.82   33.34
   7  -5   3  434.61   31.92
  -7   5  -3  460.80   23.94
  -7   5  -3  450.05   19.09
   7  -5   4  958.30   61.69
   7  -5   4  949.29   58.84
  -7   5  -4  890.13   34.67
   7  -5   5  143.28   22.15
   7  -5   5  145.13   20.35
   7  -5   6 1339.98  109.49
   7  -5   6 1275.83   78.00
  -7   5  -6 1070.51   34.20
  -7   5  -6 1027.10   32.72
   7  -5   7  374.06   42.23
   7  -5   7  374.98   38.06
   7  -5   8   20.64   13.40
   7  -5   8   19.15   14.99
   7  -5   9   18.69   13.85
   7  -5   9   16.02   15.97
   7  -5  10  152.82   30.93
   7  -5  10  123.84   34.70
   7  -5  11   31.24   17.78
   7  -5  11    2.07   19.11
   7  -5  12  138.04   30.82
   7  -5  12    0.19   34.65
   7  -5  13   28.04   19.99
   7  -5  13   -0.72   22.19
   7  -4 -14   34.61   13.54
   7  -4 -14    1.32   20.45
  -7   4  14   42.51   18.55
  -7   4  14    0.79   19.53
   7  -4 -13  125.11   22.21
   7  -4 -13  126.53   32.22
  -7   4  13  151.01   32.15
  -7   4  13  166.19   22.40
   7  -4 -12   20.96    8.85
   7  -4 -12   -0.14   13.62
  -7   4  12    4.17   20.26
  -7   4  12    8.94    8.90
   7  -4 -11   41.63   10.71
   7  -4 -11   -0.96   16.54
  -7   4  11   38.02   15.89
  -7   4  11   27.09   10.79
   7  -4 -10  386.56   30.74
   7  -4 -10  399.09   42.26
  -7   4  10  388.23   41.09
  -7   4  10  398.93   42.77
   7  -4  -9   93.60   13.78
   7  -4  -9   72.25   21.74
  -7   4   9  115.35   21.73
  -7   4   9  132.90   15.17
   7  -4  -8   45.09    9.09
   7  -4  -8   33.30   13.87
  -7   4   8   38.45   13.67
  -7   4   8   41.28    9.66
   7  -4  -7  757.79   41.95
   7  -4  -7  772.64   53.16
  -7   4   7  786.70   44.25
  -7   4   7  767.64   52.51
   7  -4  -6  399.05   32.78
   7  -4  -6  403.45   32.72
  -7   4   6  418.22   31.71
  -7   4   6  428.85   26.91
   7  -4  -5  852.68   51.27
   7  -4  -5  818.42   49.89
  -7   4   5  805.56   48.17
  -7   4   5  823.21   43.86
   7  -4  -4  103.44   14.32
   7  -4  -4   85.38   12.28
  -7   4   4   67.66   11.99
  -7   4   4   88.72   10.02
   7  -4  -3  259.77   16.79
   7  -4  -3  258.62   18.61
  -7   4   3  242.93   17.99
  -7   4   3  219.07   16.65
   7  -4  -2   98.11   10.01
   7  -4  -2  105.85   10.60
  -7   4   2   86.13   10.24
  -7   4   2   88.23   10.62
   7  -4  -1 1019.17   52.94
   7  -4  -1 1013.98   49.60
  -7   4   1 1024.70   48.33
  -7   4   1 1040.13   54.94
   7  -4   0 1637.18   95.49
   7  -4   0 1629.76   73.71
  -7   4   0 1549.21   82.43
  -7   4   0 1448.66   66.75
   7  -4   1  930.43   54.41
   7  -4   1  962.48   41.96
  -7   4  -1  964.89   40.41
  -7   4  -1  980.11   55.19
   7  -4   2  707.95   45.59
   7  -4   2  733.62   46.02
  -7   4  -2  687.17   27.14
  -7   4  -2  696.72   29.15
   7  -4   3 1581.70   92.36
   7  -4   3 1545.27   94.78
  -7   4  -3 1604.16   64.85
   7  -4   4   53.20   12.80
   7  -4   4   44.06   11.91
  -7   4  -4   36.89    2.73
  -7   4  -4   41.58    3.04
   7  -4   5 1242.06   86.22
   7  -4   5 1267.96   80.80
   7  -4   6  734.59   63.13
   7  -4   6  747.94   57.99
   7  -4   7   16.77   14.33
   7  -4   7   21.82   12.70
   7  -4   8  468.50   53.85
   7  -4   9  135.30   31.23
   7  -4   9  178.33   35.36
   7  -4  10  113.84   24.56
   7  -4  10   -1.00   28.48
   7  -4  11  153.82   40.30
   7  -4  11   -0.97   28.50
   7  -4  12   18.56   16.63
   7  -4  12    0.59   19.84
   7  -4  13   66.63   26.36
   7  -4  13   -0.54   29.44
   7  -3 -15   25.22   15.58
   7  -3 -15    2.77   20.81
  -7   3  15   47.44   19.64
  -7   3  15   23.94   14.76
   7  -3 -14   27.80   13.24
   7  -3 -14   -1.21   18.11
  -7   3  14   33.69   17.48
  -7   3  14   19.61   20.05
   7  -3 -13  116.98   21.46
   7  -3 -13  124.35   29.44
  -7   3  13  126.33   43.74
  -7   3  13   84.70   32.53
   7  -3 -12  162.53   24.08
   7  -3 -12  203.72   33.06
  -7   3  12  174.74   30.97
  -7   3  12  174.88   24.10
   7  -3 -11  105.55   17.30
   7  -3 -11  111.31   23.85
  -7   3  11   97.82   23.01
  -7   3  11   98.54   17.58
   7  -3 -10  181.56   20.96
   7  -3 -10  185.63   42.75
  -7   3  10  186.56   41.07
  -7   3  10  178.71   31.19
   7  -3  -9  110.42   16.02
   7  -3  -9   94.42   20.48
  -7   3   9  154.38   20.89
  -7   3   9  140.34   17.26
   7  -3  -8    6.01   10.74
   7  -3  -8   12.48    9.33
  -7   3   8   19.35    7.46
  -7   3   8   14.35    9.22
   7  -3  -7  464.02   29.86
   7  -3  -7  457.20   35.14
  -7   3   7  448.94   31.10
  -7   3   7  456.77   48.92
   7  -3  -6  417.65   28.14
   7  -3  -6  416.20   32.68
  -7   3   6  565.71   36.21
  -7   3   6  617.90   34.72
   7  -3  -5 1114.97   67.56
   7  -3  -5  993.15   57.65
  -7   3   5 1068.47   59.67
  -7   3   5 1078.38   58.10
   7  -3  -4  940.36   48.75
   7  -3  -4  943.53   50.21
  -7   3   4  888.63   48.72
  -7   3   4  917.40   50.11
   7  -3  -3 1154.96   58.87
   7  -3  -3 1084.74   55.28
  -7   3   3 1088.20   54.50
  -7   3   3 1112.71   58.62
   7  -3  -2  150.16   13.77
   7  -3  -2  157.47   12.32
  -7   3   2  117.09   10.92
  -7   3   2  117.70   13.56
   7  -3  -1 1664.03   87.24
   7  -3  -1 1700.77   83.84
  -7   3   1 1553.52   71.39
  -7   3   1 1579.28   85.97
   7  -3   0  768.88   45.38
   7  -3   0  800.02   39.69
  -7   3   0  696.90   30.66
  -7   3   0  703.83   42.88
   7  -3   1  397.82   29.99
   7  -3   1  391.35   16.88
  -7   3  -1  414.46   41.09
  -7   3  -1  393.64   16.27
   7  -3   2 1425.77   88.15
   7  -3   2 1460.92   87.83
  -7   3  -2 1554.35   59.96
   7  -3   3   50.20   12.38
   7  -3   3   49.39   13.59
   7  -3   4  159.16   21.84
   7  -3   4  143.66   34.90
   7  -3   5  462.78   44.33
   7  -3   5  439.50   39.75
   7  -3   6  176.36   44.59
   7  -3   6  161.71   39.53
   7  -3   7  280.29   38.89
   7  -3   7  270.21   36.43
   7  -3   8    7.52   16.14
   7  -3   8   24.41   13.28
   7  -3   9  130.92   33.27
   7  -3   9  118.54   29.62
   7  -3  10    1.20   27.12
   7  -3  10  135.84   36.61
   7  -3  11   -0.38   32.78
   7  -3  11  132.96   29.14
   7  -3  12    0.18   30.82
   7  -3  12   86.64   27.51
   7  -2 -15   -3.69   22.86
   7  -2 -15   88.21   29.26
  -7   2  15  123.65   28.80
  -7   2  15  126.14   23.06
   7  -2 -14   41.18   17.96
   7  -2 -14   47.98   22.72
  -7   2  14   28.13   26.44
  -7   2  14   56.11   21.31
   7  -2 -13   10.67   10.19
   7  -2 -13   18.76   12.47
  -7   2  13    9.98   13.00
  -7   2  13    3.82   10.09
   7  -2 -12  245.47   28.78
   7  -2 -12  251.41   35.89
  -7   2  12  238.66   35.75
  -7   2  12  223.33   29.65
   7  -2 -11   93.41   17.24
   7  -2 -11   99.87   20.94
  -7   2  11   97.53   20.76
  -7   2  11   56.26   17.06
   7  -2 -10   93.66   21.15
   7  -2 -10   95.96   17.05
  -7   2  10  104.55   20.81
  -7   2  10  109.55   17.84
   7  -2  -9  458.54   42.22
   7  -2  -9  500.04   36.58
  -7   2   9  588.54   45.43
  -7   2   9  580.80   41.40
   7  -2  -8    9.42    9.43
   7  -2  -8   16.62   12.35
  -7   2   8   23.24    8.54
  -7   2   8   19.05    9.48
   7  -2  -7  428.59   35.79
   7  -2  -7  460.60   33.83
  -7   2   7  607.37   38.37
  -7   2   7  590.97   38.58
   7  -2  -6  159.82   16.95
   7  -2  -6  181.36   23.38
  -7   2   6  123.87   24.61
  -7   2   6  120.00   15.80
   7  -2  -5   93.38   13.17
   7  -2  -5   90.25   12.43
  -7   2   5  118.68   19.14
  -7   2   5  110.92   13.61
   7  -2  -4 1565.06   82.43
   7  -2  -4 1583.21   85.70
  -7   2   4 1837.98  100.02
  -7   2   4 1792.38   94.91
   7  -2  -3  175.74   12.80
   7  -2  -3  192.35   21.54
  -7   2   3  112.22   11.56
  -7   2   3  105.61   14.09
   7  -2  -2  942.57   44.74
   7  -2  -2  949.90   52.35
  -7   2   2  959.97   44.38
  -7   2   2  964.84   54.62
   7  -2  -1  177.48   17.07
   7  -2  -1  170.69   11.06
  -7   2   1  175.55   14.99
  -7   2   1  172.40   17.83
   7  -2   0   17.84    7.61
   7  -2   0   18.56    5.38
  -7   2   0   15.39    3.21
  -7   2   0   11.35    7.61
   7  -2   1 2610.77  148.93
   7  -2   1 2514.80  104.75
  -7   2  -1 2219.00  132.09
   7  -2   2  738.32   52.03
   7  -2   2  749.82   25.11
  -7   2  -2  731.43   23.99
  -7   2  -2  799.29   52.07
   7  -2   3   85.56   17.03
   7  -2   3   75.91   17.20
   7  -2   4  178.83   25.12
   7  -2   4  183.76   26.93
   7  -2   5  203.76   28.53
   7  -2   5  193.37   45.95
   7  -2   6 1058.77   86.97
   7  -2   6 1051.47   79.98
   7  -2   7  238.64   36.23
   7  -2   7  205.25   34.69
   7  -2   8  142.40   32.54
   7  -2   8  106.80   27.41
   7  -2   9  338.17   52.62
   7  -2   9  364.84   72.95
   7  -2  10   -0.25   30.31
   7  -2  10  122.30   27.57
   7  -2  11   -1.17   16.64
   7  -2  11   11.76   14.26
   7  -2  12    1.87   24.85
   7  -2  12   39.29   22.32
   7  -1 -15    3.05   21.85
   7  -1 -15   89.52   25.07
  -7   1  15   88.38   24.45
  -7   1  15   61.32   32.16
   7  -1 -14    1.49   10.23
   7  -1 -14    4.96   11.89
  -7   1  14   14.31   11.55
  -7   1  14   -0.43   15.78
   7  -1 -13  125.11   28.75
   7  -1 -13  148.21   25.17
  -7   1  13  118.29   24.67
  -7   1  13  121.40   28.54
   7  -1 -12  376.43   44.67
   7  -1 -12  393.75   40.44
  -7   1  12  454.97   45.82
  -7   1  12  392.90   41.17
   7  -1 -11    8.87   12.71
   7  -1 -11   15.27   10.81
  -7   1  11   14.13   20.54
  -7   1  11   33.05   11.40
   7  -1 -10  352.62   35.72
   7  -1 -10  341.32   32.51
  -7   1  10  304.39   34.89
  -7   1  10  318.45   32.90
   7  -1  -9  118.35   16.98
   7  -1  -9  106.73   19.50
  -7   1   9  100.49   18.80
  -7   1   9  100.97   18.46
   7  -1  -8  949.64   62.34
   7  -1  -8  964.61   60.97
  -7   1   8 1025.59   65.57
  -7   1   8 1014.56   64.22
   7  -1  -7  189.85   28.49
   7  -1  -7  176.17   18.95
  -7   1   7  156.59   18.76
  -7   1   7  137.97   18.79
   7  -1  -6  566.02   36.72
   7  -1  -6  597.97   38.55
  -7   1   6  589.36   37.63
  -7   1   6  581.97   39.34
   7  -1  -5 1682.77   87.18
   7  -1  -5 1751.09   93.26
  -7   1   5 1527.12   81.94
  -7   1   5 1491.80   87.09
   7  -1  -4 1335.16   69.20
   7  -1  -4 1350.76   75.72
  -7   1   4 1436.21   72.01
  -7   1   4 1437.96   80.93
   7  -1  -3 1199.26   59.04
   7  -1  -3 1195.17   67.91
  -7   1   3 1345.55   86.25
  -7   1   3 1292.57   61.59
   7  -1  -2  295.27   16.93
   7  -1  -2  277.75   22.88
  -7   1   2  308.49   16.83
  -7   1   2  284.12   24.04
   7  -1  -1   32.65    4.94
   7  -1  -1   35.27    9.59
  -7   1   1   28.81    4.66
  -7   1   1   32.74    9.59
   7  -1   0 1060.35   44.07
   7  -1   0 1121.20   68.72
  -7   1   0 1154.67   46.77
  -7   1   0 1193.74   84.39
   7  -1   1   47.52   12.59
   7  -1   1   39.89    5.28
  -7   1  -1   54.70   12.10
   7  -1   2  219.18   24.44
   7  -1   2  201.48    7.95
  -7   1  -2  171.54    7.57
  -7   1  -2  163.57   22.90
   7  -1   3  990.57   71.25
   7  -1   3  996.64   71.92
   7  -1   4  858.81   68.28
   7  -1   4  886.02   66.17
   7  -1   5  463.16   46.44
   7  -1   5  466.14   49.97
   7  -1   6  131.47   25.52
   7  -1   6  115.57   28.43
   7  -1   7   81.59   20.07
   7  -1   7   -1.88   18.55
   7  -1   8  163.94   36.08
   7  -1   8  135.79   31.27
   7  -1   9   -1.29    9.29
   7  -1   9   -2.12   10.92
   7  -1  10  143.10   38.21
   7  -1  10  167.45   41.94
   7  -1  11   47.89   22.38
   7  -1  11   -0.15   25.51
   7   0 -15   14.34   14.77
   7   0 -15   -0.37   13.58
  -7   0  15   15.44   14.71
  -7   0  15   12.62   13.15
   7   0 -14   69.92   20.90
   7   0 -14    3.42   19.02
  -7   0  14   52.71   19.82
  -7   0  14   36.14   18.67
   7   0 -13   38.02   19.00
   7   0 -13   49.09   17.52
  -7   0  13   48.14   18.91
  -7   0  13   31.10   17.43
   7   0 -12    3.29    8.06
   7   0 -12    1.26   11.73
  -7   0  12    5.68    7.46
  -7   0  12   -2.11    8.04
   7   0 -11  392.47   41.35
   7   0 -11  422.37   54.39
  -7   0  11  368.84   58.27
  -7   0  11  364.10   39.93
   7   0 -10  157.65   22.97
   7   0 -10  166.51   24.77
  -7   0  10  134.45   24.11
  -7   0  10  155.74   24.17
   7   0  -9  490.86   41.94
   7   0  -9  524.26   42.09
  -7   0   9  574.60   46.01
  -7   0   9  577.04   44.45
   7   0  -8  754.13   50.86
   7   0  -8  797.04   53.03
  -7   0   8  660.16   50.76
  -7   0   8  703.89   49.22
   7   0  -7   96.37   15.76
   7   0  -7   98.05   16.05
  -7   0   7  101.91   16.50
  -7   0   7  106.09   15.51
   7   0  -6 1090.53   63.46
   7   0  -6 1187.75   70.46
  -7   0   6 1145.58   77.41
  -7   0   6 1167.76   71.33
   7   0  -5  395.32   26.33
   7   0  -5  392.97   29.37
  -7   0   5  364.54   25.44
  -7   0   5  348.91   29.26
   7   0  -4  335.80   20.94
   7   0  -4  339.89   25.30
  -7   0   4  226.64   18.35
  -7   0   4  247.75   24.12
   7   0  -3  273.12   24.18
   7   0  -3  251.24   23.52
  -7   0   3  268.74   34.80
  -7   0   3  282.68   17.59
   7   0  -2  185.67   16.65
   7   0  -2  158.06   17.79
  -7   0   2  140.84   11.14
  -7   0   2  112.22   17.85
   7   0  -1 1482.40   63.75
   7   0  -1 1433.35   83.87
  -7   0   1 1208.27   77.41
  -7   0   1 1265.95   57.78
   7   0   0    8.33    2.84
   7   0   0   16.53   12.61
  -7   0   0   14.78    7.57
  -7   0   0    8.79    2.90
   7   0   1   76.94    4.95
   7   0   1   89.23   25.95
  -7   0  -1   72.45   16.14
   7   0   2  852.55   29.87
   7   0   2  847.54   60.97
  -7   0  -2  768.77   26.62
  -7   0  -2  739.17   56.49
   7   0   3   25.73   13.02
   7   0   3   22.11   13.24
   7   0   4  643.04   57.93
   7   0   4  632.49   56.46
   7   0   5   27.35   14.51
   7   0   5    9.82   13.40
   7   0   6    5.76   10.67
   7   0   6    7.18   11.78
   7   0   7  184.42   34.87
   7   0   7  211.05   38.94
   7   0   8   -0.86   13.01
   7   0   8    1.69    8.98
   7   0   9    0.98    8.73
   7   0   9    0.34    9.69
   7   0  10  195.23   44.51
   7   0  10  215.23   49.18
   7   0  11   49.01   23.17
   7   0  11    0.56   26.94
   7   1 -16   23.09   18.81
   7   1 -16    5.62   17.31
  -7  -1  16   21.01   18.05
  -7  -1  16   17.25   17.32
   7   1 -15   79.30   26.58
   7   1 -15   -2.56   39.18
  -7  -1  15   93.17   26.92
  -7  -1  15   77.78   25.53
   7   1 -14  146.41   32.49
   7   1 -14  182.48   31.82
  -7  -1  14  118.81   32.16
  -7  -1  14  148.00   32.87
   7   1 -13  259.73   58.74
   7   1 -13  272.94   38.32
  -7  -1  13  283.97   39.42
  -7  -1  13  233.11   37.66
   7   1 -12   67.72   20.97
   7   1 -12   51.28   20.54
  -7  -1  12   86.86   34.51
  -7  -1  12  122.20   33.08
   7   1 -11  120.76   20.67
   7   1 -11   97.87   21.31
  -7  -1  11   57.70   22.04
  -7  -1  11   58.31   31.87
   7   1 -10 1501.90   99.58
   7   1 -10 1384.51   95.35
  -7  -1  10 1435.63  101.27
  -7  -1  10 1406.88   94.73
   7   1  -9  124.18   22.63
   7   1  -9  146.84   23.16
  -7  -1   9  201.42   25.38
  -7  -1   9  180.81   23.17
   7   1  -8   28.72   19.44
   7   1  -8   56.87   21.34
  -7  -1   8   43.20   13.91
  -7  -1   8   53.03   20.31
   7   1  -7  842.72   53.54
   7   1  -7  763.91   47.60
  -7  -1   7  582.73   47.88
  -7  -1   7  633.76   45.05
   7   1  -6   74.42   12.66
   7   1  -6   85.13   16.32
  -7  -1   6   92.04   13.65
  -7  -1   6  108.59   16.71
   7   1  -5  518.04   42.39
   7   1  -5  496.91   37.11
  -7  -1   5  518.84   32.51
  -7  -1   5  488.14   37.73
   7   1  -4  205.20   17.03
   7   1  -4  200.98   31.74
  -7  -1   4  219.65   17.50
  -7  -1   4  196.80   34.62
   7   1  -3  116.88   11.38
   7   1  -3  123.72   16.84
  -7  -1   3  112.80   17.23
  -7  -1   3   98.22   11.21
   7   1  -2  944.76   60.94
   7   1  -2 1021.58   48.05
  -7  -1   2  869.94   43.79
  -7  -1   2  889.02   59.48
   7   1  -1  787.71   35.50
   7   1  -1  829.47   54.98
  -7  -1   1  717.73   52.42
  -7  -1   1  714.46   34.31
   7   1   0  384.57   17.77
   7   1   0  372.43   34.34
  -7  -1   0  359.26   33.75
  -7  -1   0  348.69   21.96
   7   1   1  772.28   30.53
   7   1   1  794.12   59.70
  -7  -1  -1  723.49   73.36
   7   1   2  123.03    5.74
   7   1   2  141.28   23.13
  -7  -1  -2  123.48    6.08
  -7  -1  -2  110.75   22.11
   7   1   3   20.73    1.78
   7   1   3   31.20   21.73
   7   1   3   31.98   13.87
   7   1   3   24.00    1.90
   7   1   4  331.34   40.34
   7   1   4  305.82   39.24
   7   1   5  631.42   63.14
   7   1   5  637.54   61.57
   7   1   6   48.77   17.33
   7   1   6   -1.34   16.08
   7   1   7   89.81   25.88
   7   1   7   -0.27   36.53
   7   1   8   55.69   27.06
   7   1   8   -0.39   15.59
   7   1   9   -1.35    7.88
   7   1   9    2.69    8.98
   7   1  10    7.75   13.44
   7   1  10    0.06   15.16
   7   2 -16   50.77   25.77
   7   2 -16   69.32   24.77
  -7  -2  16   30.63   24.70
  -7  -2  16   23.70   24.11
   7   2 -15   24.12   19.53
   7   2 -15   12.13   18.80
  -7  -2  15   27.85   19.44
  -7  -2  15   27.57   18.44
   7   2 -14   57.00   23.20
   7   2 -14   69.24   23.02
  -7  -2  14   60.02   23.35
  -7  -2  14   42.13   23.41
   7   2 -13  725.69   68.02
   7   2 -13  763.63   69.25
  -7  -2  13  683.37   68.38
  -7  -2  13  616.07   92.75
   7   2 -12    9.01   11.29
   7   2 -12    7.08   11.43
  -7  -2  12   11.28   12.10
  -7  -2  12    5.52   18.44
   7   2 -11  228.61   33.43
   7   2 -11  249.76   33.49
  -7  -2  11  307.57   37.19
  -7  -2  11  303.89   52.54
   7   2 -10  369.40   37.05
   7   2 -10  410.61   40.08
  -7  -2  10  341.80   40.76
  -7  -2  10  381.91   57.01
   7   2  -9   80.94   18.51
   7   2  -9  106.62   20.90
  -7  -2   9   89.35   21.05
  -7  -2   9  100.96   19.31
   7   2  -8 1176.39   94.44
   7   2  -8 1286.31   84.34
  -7  -2   8 1146.44   81.96
  -7  -2   8 1269.57   80.43
   7   2  -7   11.55    8.98
   7   2  -7   23.80   10.32
  -7  -2   7   13.12    8.93
  -7  -2   7   24.60   10.64
   7   2  -6  457.59   31.97
   7   2  -6  453.79   37.08
  -7  -2   6  364.88   41.66
  -7  -2   6  347.39   35.37
   7   2  -5  232.73   21.93
   7   2  -5  263.05   27.96
  -7  -2   5  335.82   24.31
  -7  -2   5  327.81   30.97
   7   2  -4  134.06   14.05
   7   2  -4  133.60   28.51
  -7  -2   4  114.15   19.96
  -7  -2   4  128.87   13.91
   7   2  -3  506.01   29.55
   7   2  -3  514.76   40.37
  -7  -2   3  519.96   41.49
  -7  -2   3  525.04   30.26
   7   2  -2  196.53   24.58
   7   2  -2  181.89   14.93
  -7  -2   2  222.63   15.67
  -7  -2   2  252.80   26.20
   7   2  -1  193.50   13.51
   7   2  -1  186.91   25.48
  -7  -2   1  203.72   26.32
  -7  -2   1  233.47   20.31
   7   2   0  525.02   26.19
   7   2   0  531.81   46.59
  -7  -2   0  664.62   36.45
  -7  -2   0  673.50   50.07
   7   2   1  149.01    9.22
   7   2   1  191.90   38.16
  -7  -2  -1  150.50    9.62
  -7  -2  -1  141.44   23.96
   7   2   2   69.30    7.18
   7   2   2   74.80   19.03
  -7  -2  -2   43.05   17.86
   7   2   3  180.20    7.25
   7   2   3  201.81   31.69
   7   2   3  194.14   31.36
   7   2   3  180.24    9.57
   7   2   4  163.56   43.80
   7   2   4  138.78   29.50
   7   2   5  324.03   45.00
   7   2   5  301.20   43.08
   7   2   6   88.97   22.02
   7   2   6   -1.13   20.26
   7   2   7    8.39   18.93
   7   2   7   -0.27   17.31
   7   2   8  -13.52   14.71
   7   2   8   -0.48   13.40
   7   2   9    1.63   12.91
   7   2   9    4.46   12.01
   7   3 -16    7.10   15.45
   7   3 -16   29.17   14.99
  -7  -3  16    0.33   15.04
  -7  -3  16   -8.55   14.62
   7   3 -15   56.48   22.70
   7   3 -15   63.87   36.05
  -7  -3  15   48.43   22.64
  -7  -3  15    0.09   22.76
   7   3 -14   81.40   24.94
   7   3 -14   61.16   24.41
  -7  -3  14    0.12   39.28
  -7  -3  14   64.04   39.64
   7   3 -13   46.68   19.26
   7   3 -13   45.83   19.83
  -7  -3  13   23.92   20.47
  -7  -3  13   36.46   30.95
   7   3 -12  371.80   44.86
   7   3 -12  344.09   43.17
  -7  -3  12  375.07   48.83
  -7  -3  12  449.29   67.19
   7   3 -11  340.40   39.00
   7   3 -11  272.49   35.47
  -7  -3  11  291.54   60.62
  -7  -3  11  326.24   57.76
   7   3 -10   49.48   17.95
   7   3 -10   70.17   19.52
  -7  -3  10   52.96   20.14
  -7  -3  10   89.30   18.94
   7   3  -9  492.81   44.18
   7   3  -9  512.48   48.34
  -7  -3   9  465.06   47.36
  -7  -3   9  534.84   44.92
   7   3  -8   59.39   21.98
   7   3  -8   45.35   16.49
  -7  -3   8   43.58   16.19
  -7  -3   8   47.31   14.15
   7   3  -7   30.12   11.80
   7   3  -7   23.30   14.77
  -7  -3   7   61.44   18.75
  -7  -3   7   49.88   14.37
   7   3  -6  693.81   45.81
   7   3  -6  670.54   54.45
  -7  -3   6  708.27   46.95
  -7  -3   6  706.66   55.06
   7   3  -5  379.49   26.94
   7   3  -5  374.94   34.04
  -7  -3   5  283.56   25.48
  -7  -3   5  278.48   33.39
   7   3  -4  458.01   30.89
   7   3  -4  452.31   39.35
  -7  -3   4  474.21   41.67
  -7  -3   4  471.24   42.72
   7   3  -3  522.30   39.44
   7   3  -3  474.64   41.07
  -7  -3   3  471.75   41.33
  -7  -3   3  436.49   38.47
   7   3  -2  202.13   25.95
   7   3  -2  220.98   16.37
  -7  -3   2  167.84   15.67
  -7  -3   2  167.30   25.47
   7   3  -1  600.22   47.13
   7   3  -1  626.10   31.64
  -7  -3   1  489.49   46.45
  -7  -3   1  493.66   29.01
   7   3   0  262.88   16.03
   7   3   0  295.64   32.40
  -7  -3   0  226.56   15.92
  -7  -3   0  213.68   30.91
   7   3   1   35.07    5.46
   7   3   1   42.07   15.66
  -7  -3  -1   25.67    8.72
  -7  -3  -1   49.12   15.43
   7   3   2    6.63    3.05
   7   3   2   16.52   11.33
  -7  -3  -2   36.61   11.02
   7   3   3  102.73    6.66
   7   3   3  137.69   25.45
   7   3   3   98.57   26.44
   7   3   3   97.53    9.32
   7   3   4  160.60    8.70
   7   3   4  182.78   33.05
   7   3   4  187.78   31.71
   7   3   4  149.13    8.79
   7   3   5   33.76   15.93
   7   3   5   -2.07   15.08
   7   3   6   73.78   21.42
   7   3   6   -0.84   20.21
   7   3   7  140.36   28.89
   7   3   7    1.26   26.81
   7   3   8   93.90   30.14
   7   3   8   -1.08   43.49
   7   4 -15  232.51   41.34
   7   4 -15  228.40   43.05
  -7  -4  15  154.88   42.75
  -7  -4  15    0.07   62.28
   7   4 -14   63.88   37.89
   7   4 -14   69.23   25.49
  -7  -4  14   82.82   25.94
  -7  -4  14   -0.08   24.49
   7   4 -13  225.89   59.64
   7   4 -13  221.51   37.31
  -7  -4  13  201.80   41.42
  -7  -4  13  223.26   39.19
   7   4 -12  190.67   36.29
   7   4 -12  206.93   32.97
  -7  -4  12  217.78   58.42
  -7  -4  12  205.25   53.78
   7   4 -11   23.95   16.68
   7   4 -11   22.40   15.01
  -7  -4  11   30.32   17.12
  -7  -4  11   34.88   24.60
   7   4 -10  302.46   37.06
   7   4 -10  314.45   40.22
  -7  -4  10  339.10   62.06
  -7  -4  10  372.12   40.07
   7   4  -9  293.19   32.15
   7   4  -9  284.94   37.67
  -7  -4   9  256.85   32.42
  -7  -4   9  237.06   35.18
   7   4  -8  328.76   33.31
   7   4  -8  335.40   39.10
  -7  -4   8  353.11   34.67
  -7  -4   8  353.70   40.19
   7   4  -7  546.30   40.84
   7   4  -7  553.71   46.85
  -7  -4   7  421.50   38.53
  -7  -4   7  409.19   45.12
   7   4  -6  154.17   20.81
   7   4  -6  158.75   26.52
  -7  -4   6  204.62   21.71
  -7  -4   6  194.45   41.88
   7   4  -5  267.25   24.51
   7   4  -5  274.14   30.63
  -7  -4   5  235.51   23.73
  -7  -4   5  239.98   31.57
   7   4  -4  245.70   22.93
   7   4  -4  256.84   30.83
  -7  -4   4  252.32   32.53
  -7  -4   4  292.15   23.43
   7   4  -3  148.01   16.50
   7   4  -3  168.50   25.14
  -7  -4   3  157.71   38.47
  -7  -4   3  162.51   17.29
   7   4  -2  275.77   35.12
   7   4  -2  289.28   22.54
  -7  -4   2  410.01   26.19
  -7  -4   2  431.19   41.13
   7   4  -1  269.28   31.37
   7   4  -1  247.23   18.34
  -7  -4   1  225.82   18.78
  -7  -4   1  233.60   32.47
   7   4   0    9.39    4.68
   7   4   0    7.32   10.74
  -7  -4   0    8.97    4.83
  -7  -4   0   16.62   10.76
   7   4   1  728.46   42.98
   7   4   1  662.84   62.04
  -7  -4  -1  661.07   35.94
  -7  -4  -1  680.87   62.00
   7   4   2  150.67   15.58
   7   4   2  174.32   30.44
  -7  -4  -2  153.34   12.05
  -7  -4  -2  160.68   29.44
   7   4   3    5.71    4.95
   7   4   3    5.44   12.51
   7   4   3    0.13   12.76
   7   4   3   11.04    3.31
   7   4   4  125.29    7.61
   7   4   4  136.57   30.69
   7   4   4  151.94   30.40
   7   4   4  116.75    7.54
   7   4   5   31.94   22.09
   7   4   5   -0.65   13.59
   7   4   6   19.66   15.64
   7   4   6    1.44   14.24
   7   4   7    5.72   20.69
   7   4   7   36.63   19.04
   7   5 -15   69.35   28.12
   7   5 -15  114.22   30.92
  -7  -5  15   77.32   31.19
  -7  -5  15   -0.17   28.22
   7   5 -14  233.16   44.00
   7   5 -14  194.98   38.94
  -7  -5  14  177.80   44.54
  -7  -5  14  195.74   40.73
   7   5 -13  122.18   30.61
   7   5 -13  106.15   27.82
  -7  -5  13   83.34   49.74
  -7  -5  13   77.58   28.93
   7   5 -12   65.38   25.02
   7   5 -12   76.09   22.81
  -7  -5  12   53.88   25.61
  -7  -5  12   69.54   24.35
   7   5 -11   10.45   34.72
   7   5 -11   78.89   20.06
  -7  -5  11   41.85   23.17
  -7  -5  11   60.95   20.52
   7   5 -10  126.08   25.04
   7   5 -10  125.53   29.15
  -7  -5  10  121.42   29.37
  -7  -5  10  141.95   26.98
   7   5  -9   79.69   19.33
   7   5  -9   77.65   23.14
  -7  -5   9   70.80   20.25
  -7  -5   9   88.46   36.12
   7   5  -8 1067.36   75.35
   7   5  -8 1102.11   84.36
  -7  -5   8 1012.45   85.69
  -7  -5   8 1075.02   99.57
   7   5  -7   20.40   13.21
  -7  -5   7   17.52   11.01
  -7  -5   7   22.50   13.91
   7   5  -6  116.55   18.23
   7   5  -6  111.44   22.25
  -7  -5   6   83.03   18.04
  -7  -5   6  100.08   23.49
   7   5  -5   41.02   11.08
   7   5  -5   43.08   14.83
  -7  -5   5   16.00   15.50
  -7  -5   5   15.29   17.16
   7   5  -4  359.17   29.27
   7   5  -4  343.96   37.94
  -7  -5   4  326.66   29.91
  -7  -5   4  368.55   40.08
   7   5  -3   91.14   13.00
   7   5  -3   96.59   20.04
  -7  -5   3   32.20   18.94
  -7  -5   3   40.79   19.92
   7   5  -2   60.64   14.91
   7   5  -2   40.47   13.82
  -7  -5   2   20.06    9.11
  -7  -5   2   19.48   15.89
   7   5  -1  348.86   53.49
   7   5  -1  294.77   21.95
  -7  -5   1  263.26   37.13
  -7  -5   1  239.81   22.09
   7   5   0  312.08   39.17
   7   5   0  291.57   21.52
  -7  -5   0  305.85   22.80
  -7  -5   0  329.36   40.88
   7   5   1  181.38   15.20
   7   5   1  194.65   32.96
  -7  -5  -1  189.09   16.50
  -7  -5  -1  221.48   33.47
   7   5   2  180.51   13.91
   7   5   2  162.91   32.42
  -7  -5  -2  181.15   15.34
  -7  -5  -2  195.73   33.93
   7   5   3   66.87    7.47
   7   5   3    0.52   24.09
   7   5   3   63.26    7.91
   7   5   3   53.76   23.32
   7   5   4   31.19   16.95
   7   5   4    6.86   17.00
   7   5   5   20.13   17.25
   7   5   5   12.99   17.36
   7   5   6   79.08   23.48
   7   5   6   -2.29   24.64
   7   6 -15  149.51   43.28
   7   6 -15  249.12   72.88
  -7  -6  15  234.48   47.83
  -7  -6  15  188.84   45.89
   7   6 -14  206.69   43.44
   7   6 -14  167.42   38.68
  -7  -6  14  154.95   42.60
  -7  -6  14  144.58   40.38
   7   6 -13   32.46   21.99
   7   6 -13   20.64   20.67
  -7  -6  13   47.46   22.40
  -7  -6  13   31.49   21.11
   7   6 -12  256.63   42.63
   7   6 -12  253.16   38.96
  -7  -6  12  184.12   42.49
  -7  -6  12  199.86   39.22
   7   6 -11   22.33   14.98
   7   6 -11   24.81   16.68
  -7  -6  11   10.73   15.04
  -7  -6  11   14.04   15.90
   7   6 -10  203.86   31.76
   7   6 -10  193.74   53.70
  -7  -6  10  153.48   34.86
  -7  -6  10  173.03   31.63
   7   6  -9  280.26   37.20
   7   6  -9  285.71   41.52
  -7  -6   9  350.56   39.30
  -7  -6   9  284.53   43.26
   7   6  -8   11.82   10.43
   7   6  -8   17.56   12.03
  -7  -6   8    7.45   10.23
  -7  -6   8   -0.09   12.95
   7   6  -7   61.19   18.97
   7   6  -7   72.30   22.98
  -7  -6   7   98.03   19.90
  -7  -6   7  129.56   25.06
   7   6  -6  896.56   71.66
   7   6  -6  824.29   79.08
  -7  -6   6  784.21   61.91
  -7  -6   6  750.65   71.34
   7   6  -5  315.29   30.31
   7   6  -5  309.56   38.78
  -7  -6   5  295.50   42.11
  -7  -6   5  300.87   31.78
   7   6  -4   16.27    9.07
   7   6  -4    5.38   12.79
  -7  -6   4   30.52   14.09
  -7  -6   4   19.43    9.55
   7   6  -3  234.18   22.79
   7   6  -3  256.84   48.11
  -7  -6   3  198.94   23.63
  -7  -6   3  190.47   34.32
   7   6  -2  366.92   41.22
   7   6  -2  327.42   27.62
  -7  -6   2  332.96   29.11
  -7  -6   2  324.66   43.96
   7   6  -1   77.80   24.57
   7   6  -1   75.42   14.16
  -7  -6   1  142.10   27.99
  -7  -6   1  157.95   16.24
   7   6   0   23.13   12.15
   7   6   0   24.57    9.73
  -7  -6   0   -0.41    6.55
  -7  -6   0   13.98   12.70
   7   6   1    9.08    8.70
   7   6   1    3.01    3.94
  -7  -6  -1    0.04    6.75
  -7  -6  -1   -5.83    9.15
   7   6   2  189.70   16.21
   7   6   2  184.58   35.12
  -7  -6  -2  202.05   18.24
  -7  -6  -2  203.07   37.29
   7   6   3   62.97    8.62
   7   6   3   94.84   25.26
   7   6   3   62.07    8.89
   7   6   3   -0.61   24.67
   7   6   4   82.13   22.84
   7   6   4    5.52   22.91
   7   6   5   29.54   17.80
   7   6   5    3.94   18.12
   7   7 -14   48.46   29.75
   7   7 -14   64.99   26.53
  -7  -7  14   43.14   29.91
  -7  -7  14   54.92   28.20
   7   7 -13  181.66   40.02
   7   7 -13  176.19   38.00
  -7  -7  13   92.55   64.05
  -7  -7  13  138.10   38.38
   7   7 -12   50.75   24.60
   7   7 -12   52.50   22.08
  -7  -7  12   42.05   24.23
  -7  -7  12   32.02   22.59
   7   7 -11  194.93   35.78
   7   7 -11  191.23   39.47
  -7  -7  11  158.11   38.09
  -7  -7  11  177.17   36.80
   7   7 -10  106.87   26.38
   7   7 -10   76.31   46.42
  -7  -7  10  118.45   27.63
  -7  -7  10  117.97   30.22
   7   7  -9   66.18   17.86
   7   7  -9   -1.15   20.99
  -7  -7   9   41.80   18.23
  -7  -7   9   40.60   21.29
   7   7  -8  124.09   21.91
   7   7  -8   -3.01   24.90
  -7  -7   8   96.32   22.27
  -7  -7   8   82.26   25.54
   7   7  -7  121.91   24.72
   7   7  -7  109.26   29.20
  -7  -7   7  181.55   26.86
  -7  -7   7  151.79   32.15
   7   7  -6    6.85   11.71
   7   7  -6   12.74   14.86
  -7  -7   6   46.00   16.00
  -7  -7   6   24.08   12.25
   7   7  -5  259.33   29.40
   7   7  -5  262.92   54.92
  -7  -7   5  270.40   40.50
  -7  -7   5  230.77   29.89
   7   7  -4   22.29    9.39
   7   7  -4   13.94   13.01
  -7  -7   4    4.04    9.88
  -7  -7   4   13.71   13.91
   7   7  -3   29.88   11.85
   7   7  -3   30.53   17.19
  -7  -7   3   41.73   12.79
  -7  -7   3   48.86   19.54
   7   7  -2  319.44   28.94
   7   7  -2  340.83   41.61
  -7  -7   2  301.43   45.25
  -7  -7   2  262.02   28.59
   7   7  -1   60.73   10.71
   7   7  -1   52.24   17.50
  -7  -7   1    0.07   10.91
  -7  -7   1    4.86   18.76
   7   7   0    3.26   13.25
   7   7   0   25.85    7.31
  -7  -7   0   -0.07    7.72
  -7  -7   0    0.41   14.05
   7   7   1   -1.17   12.73
   7   7   1   18.74    6.08
  -7  -7  -1   -0.73    6.78
  -7  -7  -1    3.67   13.20
   7   7   2   -2.63   21.05
   7   7   2   33.98    9.56
   7   7   2   50.99   22.80
   7   7   2   59.78    9.93
   7   7   3   20.50   16.71
   7   7   3    0.79   26.00
   7   8 -13  101.45   34.82
   7   8 -13  105.62   33.68
  -7  -8  13   80.46   35.17
  -7  -8  13   93.44   34.02
   7   8 -12  114.82   33.30
   7   8 -12   90.41   30.70
  -7  -8  12   58.51   33.27
  -7  -8  12  118.77   32.23
   7   8 -11  351.84   50.19
   7   8 -11  369.06   54.67
  -7  -8  11  365.69   77.17
  -7  -8  11  269.28   52.96
   7   8 -10   24.16   18.50
   7   8 -10   34.41   20.77
  -7  -8  10   24.00   19.65
  -7  -8  10   46.94   32.39
   7   8  -9   64.55   19.46
   7   8  -9    0.89   21.72
  -7  -8   9   46.09   20.17
  -7  -8   9   38.06   21.54
   7   8  -8   80.66   30.41
   7   8  -8    0.24   22.86
  -7  -8   8   69.89   20.34
  -7  -8   8   59.07   23.71
   7   8  -7  230.55   33.47
   7   8  -7  226.85   37.62
  -7  -8   7  217.22   40.73
  -7  -8   7  198.78   49.11
   7   8  -6   83.78   19.63
   7   8  -6    2.62   36.28
  -7  -8   6   90.73   41.64
  -7  -8   6   75.93   20.39
   7   8  -5  194.69   29.42
   7   8  -5  212.43   36.20
  -7  -8   5  228.06   39.66
  -7  -8   5  222.11   30.86
   7   8  -4  108.99   20.34
   7   8  -4  111.68   26.33
  -7  -8   4   97.92   21.58
  -7  -8   4   93.53   29.38
   7   8  -3   75.37   17.53
   7   8  -3  116.91   24.32
  -7  -8   3   91.48   18.02
  -7  -8   3   -2.38   27.38
   7   8  -2  208.01   25.91
   7   8  -2  232.23   35.81
  -7  -8   2  216.12   40.49
  -7  -8   2  210.34   27.12
   7   8  -1  133.96   20.38
   7   8  -1  145.33   30.64
  -7  -8   1  131.93   21.41
  -7  -8   1  175.33   33.03
   7   8   0    7.03    6.01
   7   8   0    5.50   16.36
  -7  -8   0   -0.36   10.07
  -7  -8   0   -3.96   11.49
   7   8   1  189.32   36.20
   7   8   1  181.93   20.39
  -7  -8  -1  158.78   21.39
  -7  -8  -1  191.73   37.90
   7   8   2   -1.29   15.83
   7   8   2   10.32    7.12
   7   8   2   48.20   16.94
   7   8   2    9.63   11.27
   7   9 -12   42.13   24.57
   7   9 -12   17.56   22.93
  -7  -9  12   40.82   24.19
  -7  -9  12   34.03   27.69
   7   9 -11   21.52   26.85
   7   9 -11   10.01   17.27
  -7  -9  11   11.28   26.93
  -7  -9  11   10.36   30.37
   7   9 -10   92.94   29.64
   7   9 -10   98.51   32.82
  -7  -9  10  130.96   31.19
  -7  -9  10   94.56   34.13
   7   9  -9   27.73   21.05
   7   9  -9   -0.22   15.18
  -7  -9   9    6.67   15.16
  -7  -9   9   10.27   13.67
   7   9  -8   83.23   24.20
   7   9  -8    1.52   26.84
  -7  -9   8  111.75   25.34
  -7  -9   8   91.99   41.30
   7   9  -7   58.01   17.65
   7   9  -7    4.40   31.48
  -7  -9   7   30.96   21.70
  -7  -9   7    3.08   27.94
   7   9  -6   14.24   10.61
   7   9  -6   -1.84   12.43
  -7  -9   6    9.04   13.95
  -7  -9   6    5.13   11.25
   7   9  -5   54.79   13.25
   7   9  -5   -0.64   16.40
  -7  -9   5    4.63   13.97
  -7  -9   5   -2.42   18.26
   7   9  -4   82.10   16.66
   7   9  -4   -0.60   33.26
  -7  -9   4   44.19   17.62
  -7  -9   4   -2.36   24.77
   7   9  -3   18.76   14.43
   7   9  -3   -0.39   11.80
  -7  -9   3   -3.40   14.40
  -7  -9   3   11.75    9.58
   7   9  -2   97.00   18.61
   7   9  -2    0.97   26.21
  -7  -9   2   88.85   20.23
  -7  -9   2  131.11   29.92
   7   9  -1   -3.90    9.52
  -7  -9   1   -0.36    6.83
  -7  -9   1   -2.65   10.44
   7   9   0    4.24    6.00
   7   9   0    1.03    9.86
  -7  -9   0    0.19    6.56
  -7  -9   0    2.06   10.91
   7  10 -10   90.82   29.91
   7  10 -10   90.90   32.33
  -7 -10  10   58.73   36.44
  -7 -10  10   81.66   30.38
   7  10  -9  123.22   30.89
   7  10  -9   -0.21   33.61
  -7 -10   9  137.54   31.72
  -7 -10   9  132.01   36.14
   7  10  -8   52.77   16.70
   7  10  -8    6.26   29.22
  -7 -10   8   -0.87   18.67
  -7 -10   8    2.47   17.99
   7  10  -7   48.20   18.34
   7  10  -7   -1.52   12.81
  -7 -10   7   -3.52   13.62
  -7 -10   7   -0.40   11.88
   7  10  -6  223.41   36.98
   7  10  -6  272.80   41.87
  -7 -10   6  232.45   38.31
  -7 -10   6  169.93   46.50
   7  10  -5   42.78   13.02
   7  10  -5   -0.72   15.53
  -7 -10   5   -6.64   13.59
  -7 -10   5   -1.12   27.33
   7  10  -4   10.37    7.79
   7  10  -4   -0.60    9.81
  -7 -10   4   -2.51    8.49
  -7 -10   4   -3.64   11.48
  -8  16   0   -3.22   25.00
  -8  16   0   10.68   16.19
  -8  16  -1   -9.22   17.77
  -8  16  -1  -13.87   18.35
  -8  16  -2   51.49   26.71
  -8  16  -2   60.90   29.21
  -8  16  -3   43.22   23.90
  -8  16  -3   47.32   24.88
  -8  16  -4   91.54   45.03
  -8  16  -4   86.54   30.41
  -8  16  -5   28.81   19.73
  -8  16  -5   26.25   20.78
  -8  16  -6  126.74   33.25
  -8  16  -6  135.90   34.77
  -8  16  -7   31.00   19.16
  -8  16  -7   20.37   31.26
  -8  15   2  -13.95    8.67
  -8  15   2   16.99    9.33
  -8  15   1   65.79   46.85
  -8  15   1   72.15   29.97
  -8  15   0  194.03   41.35
  -8  15   0  173.10   64.85
  -8  15  -1  304.56   50.14
  -8  15  -1  321.53   51.27
  -8  15  -2   43.13   22.37
  -8  15  -2   39.62   36.74
  -8  15  -3   15.36   16.31
  -8  15  -3  -10.93   10.73
  -8  15  -4   49.53   19.32
  -8  15  -4   26.43   21.36
  -8  15  -5  321.27   43.06
  -8  15  -5  287.94   45.97
  -8  15  -6  158.53   31.28
  -8  15  -6  138.56   31.90
   8 -15   7   -0.83    5.34
   8 -15   7    6.25    5.01
  -8  15  -7   -0.77   14.91
  -8  15  -7    8.57   10.07
   8 -15   8  248.07   28.81
   8 -15   8  279.91   38.19
  -8  15  -8  247.39   57.28
  -8  15  -8  265.94   39.46
   8 -15   9  155.27   24.72
   8 -15   9  150.18   24.15
  -8  15  -9  154.34   29.24
  -8  15  -9  133.87   30.16
  -8  14   4   25.61   25.01
  -8  14   4   44.98   24.48
  -8  14   3    5.70   16.72
  -8  14   3   16.57   17.62
  -8  14   2   -2.34   23.80
  -8  14   2   13.97   15.53
  -8  14   1  159.57   37.93
  -8  14   1  203.56   39.31
  -8  14   0   70.65   25.32
  -8  14   0   66.92   40.58
  -8  14  -1   50.57   22.43
  -8  14  -1   60.73   23.50
  -8  14  -2   87.15   39.32
  -8  14  -2   77.86   40.09
  -8  14  -3  324.80   42.55
  -8  14  -3  295.53   42.45
  -8  14  -4   16.88   13.24
  -8  14  -4   15.80   22.00
   8 -14   5    4.05    3.90
   8 -14   5    1.15    3.51
  -8  14  -5    1.38    8.07
  -8  14  -5    6.52    8.82
   8 -14   6   -0.09   15.60
   8 -14   6   48.96    9.57
  -8  14  -6   57.48   26.08
  -8  14  -6   53.93   17.52
   8 -14   7  240.24   24.29
   8 -14   7  244.78   26.55
  -8  14  -7  258.77   50.78
  -8  14  -7  252.70   35.12
   8 -14   8   27.69   11.38
   8 -14   8    0.93   11.89
  -8  14  -8   49.92   14.66
  -8  14  -8   43.74   22.46
   8 -14   9   95.16   16.66
   8 -14   9   -1.54   17.75
  -8  14  -9   68.97   27.63
  -8  14  -9   54.56   18.26
   8 -14  10    5.66   11.55
   8 -14  10    0.42    7.83
  -8  14 -10   -1.45    6.65
  -8  14 -10    4.24    6.81
   8 -14  11   26.65   31.32
   8 -14  11   39.85   16.94
  -8  14 -11   92.20   16.80
  -8  14 -11    3.83   20.26
  -8  13   6   31.45   20.44
  -8  13   6    1.62   20.91
  -8  13   5   17.04   18.12
  -8  13   5    3.11   28.90
  -8  13   4   -3.99   17.44
  -8  13   4   29.05   16.90
  -8  13   3   45.85   42.90
  -8  13   3   80.10   28.19
  -8  13   2   50.25   22.96
  -8  13   2   70.32   25.08
  -8  13   1   23.03   17.50
  -8  13   1   31.49   17.84
  -8  13   0   66.85   21.52
  -8  13   0   52.89   21.81
  -8  13  -1   13.37   13.96
  -8  13  -1   19.17   14.41
  -8  13  -2   95.08   22.79
  -8  13  -2   74.07   37.35
   8 -13   3  198.90   12.07
   8 -13   3  222.46   12.30
  -8  13  -3  257.65   32.79
  -8  13  -3  263.14   32.95
   8 -13   4  218.14   21.02
   8 -13   4  202.72   15.45
  -8  13  -4  162.36   42.83
  -8  13  -4  147.97   44.12
   8 -13   5  237.46   25.72
   8 -13   5  214.56   19.05
  -8  13  -5  179.78   28.13
  -8  13  -5  174.41   29.03
   8 -13   6  133.12   16.94
   8 -13   6  121.36   17.92
  -8  13  -6  138.23   24.16
  -8  13  -6  145.75   22.01
   8 -13   7   58.90   13.52
   8 -13   7    0.70   21.04
  -8  13  -7   49.21   24.35
  -8  13  -7   60.56   16.02
   8 -13   8   34.90   17.44
   8 -13   8    0.55   11.60
  -8  13  -8   23.45   11.32
  -8  13  -8   26.04   11.65
   8 -13   9  292.87   50.72
   8 -13   9  253.57   36.09
  -8  13  -9  321.15   31.89
  -8  13  -9  261.04   31.99
   8 -13  10  116.79   30.14
   8 -13  10    3.58   19.23
  -8  13 -10  119.06   15.42
  -8  13 -10   -6.99   14.24
   8 -13  11  168.74   47.02
   8 -13  11  122.47   22.13
  -8  13 -11  156.93   32.81
  -8  13 -11  144.63   30.78
  -8  12   7   -6.84   11.59
  -8  12   7    3.68   12.16
  -8  12   6  141.68   31.62
  -8  12   6    0.77   30.40
  -8  12   5   10.89   12.37
  -8  12   5   -2.75   11.73
  -8  12   4   98.01   47.89
  -8  12   4   99.21   29.41
  -8  12   3  122.84   31.13
  -8  12   3  131.70   30.97
  -8  12   2   69.61   22.84
  -8  12   2   53.44   22.06
  -8  12   1   87.76   22.95
  -8  12   1   70.09   23.20
  -8  12   0  318.59   38.03
  -8  12   0  289.62   38.34
  -8  12  -1  155.90   25.96
  -8  12  -1  152.10   27.92
   8 -12   2  286.57   13.23
   8 -12   2  291.93   14.05
  -8  12  -2  293.07   49.65
  -8  12  -2  260.07   34.21
   8 -12   3  111.36    9.07
  -8  12  -3  135.54   22.12
  -8  12  -3  123.69   22.19
   8 -12   4  689.95   37.87
   8 -12   4  730.52   43.29
  -8  12  -4  799.41   60.17
  -8  12  -4  764.77   57.98
   8 -12   5   58.36   11.23
   8 -12   5   65.40   15.06
  -8  12  -5   49.16   14.72
  -8  12  -5   45.04   15.63
   8 -12   6  308.28   25.08
   8 -12   6  310.05   28.31
  -8  12  -6  271.99   29.05
  -8  12  -6  265.74   30.73
   8 -12   7   20.45    9.30
   8 -12   7   36.47   15.65
  -8  12  -7   16.90    9.37
  -8  12  -7    4.26    9.74
   8 -12   8  227.88   28.57
   8 -12   8  196.92   29.61
  -8  12  -8  256.81   26.09
  -8  12  -8  243.46   26.26
   8 -12   9   19.65    9.92
   8 -12   9    7.73   10.28
  -8  12  -9    4.25    7.33
  -8  12  -9    2.98    7.36
   8 -12  10  147.19   26.92
   8 -12  10   83.02   27.52
  -8  12 -10  139.22   17.59
  -8  12 -10   81.48   17.43
   8 -12  11  198.79   36.76
   8 -12  11  165.87   22.34
  -8  12 -11  213.50   22.47
   8 -12  12  225.33   41.80
   8 -12  12  169.31   22.65
  -8  12 -12  231.16   22.19
  -8  12 -12  238.45   42.65
  -8  11   9    0.17   24.89
  -8  11   9   67.83   26.71
  -8  11   8    7.50   26.74
  -8  11   8   11.46   18.71
  -8  11   7    3.62   17.64
  -8  11   7   27.97   18.91
  -8  11   6   58.08   22.04
  -8  11   6    1.07   20.42
  -8  11   5  519.09   62.67
  -8  11   5  469.45   59.36
  -8  11   4    3.92   10.35
  -8  11   4    2.57    9.77
  -8  11   3   42.42   18.91
  -8  11   3   37.41   18.49
  -8  11   2   90.30   23.46
  -8  11   2   74.98   22.21
  -8  11   1  160.69   28.26
  -8  11   1  185.98   42.37
  -8  11   0   28.23   20.70
  -8  11   0   25.18   13.53
   8 -11   1   47.43    6.01
   8 -11   1   42.09    4.27
  -8  11  -1   25.12   14.15
  -8  11  -1   48.83   15.16
   8 -11   2   22.90    7.66
  -8  11  -2   34.84   12.72
  -8  11  -2   54.24   13.32
   8 -11   3  651.54   35.13
   8 -11   3  616.80   36.13
  -8  11  -3  759.92   53.08
  -8  11  -3  714.65   51.65
   8 -11   4  172.51   13.67
   8 -11   4  130.76   15.20
  -8  11  -4   70.85   18.39
  -8  11  -4   70.14   18.70
   8 -11   5  103.76   15.28
   8 -11   5   88.70   13.29
  -8  11  -5  112.19   16.63
  -8  11  -5  104.99   17.36
   8 -11   6  389.06   30.38
   8 -11   6  405.32   34.75
  -8  11  -6  330.94   41.37
  -8  11  -6  341.51   31.22
   8 -11   7  113.52   17.19
   8 -11   7  111.88   28.07
  -8  11  -7   86.16   14.39
  -8  11  -7   83.89   15.27
   8 -11   8  217.69   26.18
   8 -11   8  221.61   28.59
  -8  11  -8  163.19   19.61
  -8  11  -8  162.45   20.41
   8 -11   9   35.69   15.93
   8 -11   9   44.29   16.93
  -8  11  -9   37.51   10.12
  -8  11  -9   34.41   10.47
   8 -11  10  137.48   44.27
   8 -11  10  120.62   29.95
  -8  11 -10  131.93   24.09
  -8  11 -10  143.36   16.96
   8 -11  11  116.35   28.22
   8 -11  11    1.94   29.67
  -8  11 -11  106.10   14.02
  -8  11 -11  109.58   13.84
   8 -11  12  157.26   37.68
   8 -11  12  167.22   38.87
  -8  10  10   10.96   15.77
  -8  10  10    2.09   16.96
  -8  10   9    1.79   15.41
  -8  10   9   14.22   16.84
  -8  10   8  150.46   36.59
  -8  10   8  129.08   38.96
  -8  10   7  160.26   37.56
  -8  10   7  186.30   40.25
  -8  10   6    3.48   14.58
  -8  10   6   24.35   15.60
  -8  10   5  134.69   50.58
  -8  10   5  159.12   31.28
  -8  10   4   51.33   21.51
  -8  10   4   61.99   30.09
  -8  10   3  134.23   28.64
  -8  10   3  170.89   27.73
  -8  10   2   21.55   13.62
  -8  10   2   22.81   13.04
   8 -10  -1  701.11   23.78
   8 -10  -1  681.14   23.43
  -8  10   1  630.23   55.01
  -8  10   1  624.05   54.92
   8 -10   0   94.39    6.30
   8 -10   0  104.01    6.30
  -8  10   0   82.52   18.52
  -8  10   0   70.03   18.29
   8 -10   1    9.92    2.06
   8 -10   1   -1.98    1.19
  -8  10  -1    0.03    4.95
  -8  10  -1    1.26    4.91
   8 -10   2  652.01   34.50
   8 -10   2  703.38   34.59
  -8  10  -2  567.69   59.24
  -8  10  -2  565.16   46.00
   8 -10   3  434.56   26.81
   8 -10   3  415.71   28.44
  -8  10  -3  441.07   34.63
  -8  10  -3  471.80   36.75
   8 -10   4  623.84   38.13
   8 -10   4  591.74   40.69
  -8  10  -4  587.52   41.40
  -8  10  -4  597.75   42.22
   8 -10   5  352.75   30.97
   8 -10   5  351.33   28.42
  -8  10  -5  368.07   28.14
  -8  10  -5  357.42   28.48
   8 -10   6  405.07   45.91
   8 -10   6  388.03   36.26
  -8  10  -6  402.62   29.38
  -8  10  -6  415.35   30.55
   8 -10   7  570.77   45.39
   8 -10   7  553.44   50.67
  -8  10  -7  629.85   37.92
  -8  10  -7  644.33   41.09
   8 -10   8  107.20   20.48
   8 -10   8  102.55   23.50
  -8  10  -8  110.93   13.00
  -8  10  -8  104.78   13.28
   8 -10   9   92.51   22.82
   8 -10   9  107.28   25.51
  -8  10  -9  107.20   12.56
  -8  10  -9   91.13   18.45
   8 -10  10  130.67   29.11
   8 -10  10  162.90   31.34
  -8  10 -10  132.99   13.52
  -8  10 -10  136.38   13.92
   8 -10  11   14.41   13.62
   8 -10  11    2.95   14.14
   8 -10  12   91.30   25.52
   8 -10  12    2.03   27.18
   8  -9 -11   -2.70   24.05
  -8   9  11   65.64   23.11
   8  -9 -10   -2.37   12.81
  -8   9  10   11.77   13.30
   8  -9  -9   -2.67   16.38
  -8   9   9   33.05   16.78
   8  -9  -8  292.77   44.70
  -8   9   8  308.72   46.04
   8  -9  -7  127.63    6.67
   8  -9  -7  139.24   29.27
  -8   9   7  110.21   29.54
  -8   9   7  109.94    6.85
   8  -9  -6   99.09   26.23
  -8   9   6  156.86   27.57
  -8   9   6  107.82    3.98
   8  -9  -5   21.20    1.53
  -8   9   5   16.13   22.12
  -8   9   5   39.25   15.13
   8  -9  -4  116.79    3.76
   8  -9  -4  122.13    4.89
  -8   9   4  100.33   25.45
  -8   9   4  106.19   23.67
  -8   9   3  200.98   28.84
  -8   9   3  180.43   26.40
   8  -9  -2  339.35   13.60
   8  -9  -2  343.54   15.90
  -8   9   2  317.97   34.67
  -8   9   2  310.02   33.58
   8  -9  -1  450.71   23.83
  -8   9   1  438.71   39.81
  -8   9   1  411.04   38.39
   8  -9   0  317.86   17.08
   8  -9   0  314.80   16.03
  -8   9   0  389.55   32.20
  -8   9   0  354.67   31.34
   8  -9   1  578.04   30.00
   8  -9   1  546.73   30.31
  -8   9  -1  649.04   44.10
  -8   9  -1  645.20   43.71
   8  -9   2    4.02    4.29
   8  -9   2    3.78    4.16
  -8   9  -2    1.48    5.72
  -8   9  -2   11.04    5.68
   8  -9   3   11.17    5.73
   8  -9   3   14.03    6.07
  -8   9  -3    6.40    6.22
  -8   9  -3    4.19    6.66
   8  -9   4  292.38   34.94
   8  -9   4  269.60   26.10
  -8   9  -4  317.69   23.58
  -8   9  -4  308.76   24.06
   8  -9   5  601.71   43.51
   8  -9   5  564.76   39.48
  -8   9  -5  546.40   33.70
  -8   9  -5  536.31   33.78
   8  -9   6  157.48   19.39
   8  -9   6  178.30   21.09
  -8   9  -6  110.15   13.24
  -8   9  -6  109.39   12.84
   8  -9   7   36.07   12.15
   8  -9   7   35.94   13.65
  -8   9  -7   21.32    6.38
  -8   9  -7   29.81    6.81
   8  -9   8  170.96   24.28
   8  -9   8  183.13   41.26
  -8   9  -8  126.77   12.12
  -8   9  -8  129.06   12.33
   8  -9   9  381.65   65.42
   8  -9   9  375.24   50.75
  -8   9  -9  495.90   26.70
  -8   9  -9  479.49   26.98
   8  -9  10   54.22   17.07
   8  -9  10    1.35   19.07
  -8   9 -10   28.04    8.14
   8  -9  11   94.89   23.66
   8  -9  11   -0.70   24.95
   8  -9  12   38.61   20.00
   8  -9  12    2.75   21.53
   8  -9  13   31.15   20.44
   8  -9  13   -0.42   20.89
   8  -8 -11    3.31   19.68
  -8   8  11   39.39   18.81
   8  -8 -10  121.03   32.16
  -8   8  10  134.10   32.65
   8  -8  -9   -0.15    1.78
   8  -8  -9   -3.21   10.68
  -8   8   9   14.17   10.73
  -8   8   9   14.27    3.18
   8  -8  -8    0.82    1.49
   8  -8  -8   -0.78    8.98
  -8   8   8   10.63    9.71
  -8   8   8    8.10    2.73
   8  -8  -7  269.58   35.20
  -8   8   7  212.27   34.75
  -8   8   7  229.08   17.58
   8  -8  -6   46.41    4.78
   8  -8  -6   30.57   27.97
  -8   8   6   48.72   18.28
  -8   8   6   55.54    5.45
   8  -8  -5  408.86   17.12
   8  -8  -5  424.38   39.75
  -8   8   5  322.50   38.60
  -8   8   5  338.88   16.61
   8  -8  -4  262.76   31.20
  -8   8   4  245.33   44.85
  -8   8   4  271.09   16.97
   8  -8  -3   35.50   15.35
  -8   8   3   68.22    5.80
  -8   8   3   65.16   15.73
   8  -8  -2   13.32    5.34
  -8   8   2    1.23    8.71
  -8   8   2   18.60   13.11
   8  -8  -1  100.76    8.29
   8  -8  -1   92.84   12.23
  -8   8   1   72.99   24.49
  -8   8   1   70.80   14.72
   8  -8   0  885.69   49.58
   8  -8   0  878.07   42.53
  -8   8   0  708.31   50.64
  -8   8   0  724.63   63.36
   8  -8   1  170.21   14.42
   8  -8   1  170.45   13.99
  -8   8  -1  175.41   18.10
  -8   8  -1  146.80   17.16
   8  -8   2   35.01    8.41
   8  -8   2   36.22    8.26
  -8   8  -2   38.91   13.24
  -8   8  -2   35.14   13.71
   8  -8   3  849.51   49.19
   8  -8   3  860.51   52.15
  -8   8  -3  772.67   44.02
  -8   8  -3  778.98   44.62
   8  -8   4   95.37   14.97
   8  -8   4   93.27   16.60
  -8   8  -4  101.07   11.21
  -8   8  -4  114.38   11.52
   8  -8   5  303.71   32.75
   8  -8   5  316.90   31.49
  -8   8  -5  407.89   29.84
  -8   8  -5  413.34   23.87
   8  -8   6  748.26   82.04
   8  -8   6  758.56   58.56
  -8   8  -6  903.07   43.53
  -8   8  -6  895.62   44.53
   8  -8   7  211.64   25.01
   8  -8   7  192.00   28.06
  -8   8  -7  159.54   11.15
  -8   8  -7  154.70   11.91
   8  -8   8  852.79   67.88
   8  -8   8  799.44   73.86
  -8   8  -8  868.91   40.06
   8  -8   9    9.20   10.37
   8  -8   9    4.38   12.01
  -8   8  -9    4.31    2.53
  -8   8  -9    8.92    2.67
   8  -8  10    8.94   11.82
   8  -8  10    1.07   21.00
   8  -8  11  233.38   41.61
   8  -8  11  245.96   46.13
   8  -8  12   91.55   26.81
   8  -8  12    2.48   28.83
   8  -8  13   38.06   24.02
   8  -8  13   -0.85   40.86
   8  -7 -12    2.97   10.64
  -8   7  12   -7.29   10.54
  -8   7  12   -1.69    4.17
   8  -7 -11   32.13   13.97
   8  -7 -11    2.27   34.43
  -8   7  11   42.54   13.89
  -8   7  11   54.40   21.84
   8  -7 -10   79.49   11.79
   8  -7 -10   -0.36   25.55
  -8   7  10   84.61   11.40
  -8   7  10  116.45   25.82
   8  -7  -9  137.46   19.08
   8  -7  -9  147.90   29.71
  -8   7   9  143.52   29.98
  -8   7   9  152.09   14.22
   8  -7  -8   25.27    4.82
   8  -7  -8    0.19   12.30
  -8   7   8    9.88   12.65
  -8   7   8    1.52    4.97
   8  -7  -7   62.49    7.54
   8  -7  -7   63.83   18.81
  -8   7   7   56.07   18.70
  -8   7   7   48.44    7.65
   8  -7  -6  147.91   10.94
   8  -7  -6  141.63   36.50
  -8   7   6  167.72   24.70
  -8   7   6  145.21   11.61
   8  -7  -5   78.75    8.12
   8  -7  -5   82.16   19.30
  -8   7   5  128.65   19.90
  -8   7   5  123.06    9.27
   8  -7  -4  301.09   15.99
   8  -7  -4  325.74   30.82
  -8   7   4  282.47   30.17
  -8   7   4  278.86   21.80
   8  -7  -3  406.28   20.57
   8  -7  -3  382.32   32.62
  -8   7   3  366.71   32.02
  -8   7   3  379.14   20.63
   8  -7  -2   69.64    8.61
   8  -7  -2   81.75   15.31
  -8   7   2  124.72    9.61
  -8   7   2  117.41   15.25
   8  -7  -1  595.37   31.01
   8  -7  -1  616.84   32.39
  -8   7   1  632.67   42.47
  -8   7   1  588.54   38.69
   8  -7   0   56.33    8.64
   8  -7   0   66.70   13.36
  -8   7   0   52.28   16.86
  -8   7   0   49.84   15.65
   8  -7   1  267.02   20.90
   8  -7   1  281.07   20.80
  -8   7  -1  294.56   21.90
  -8   7  -1  260.59   20.06
   8  -7   2 1196.99   69.22
   8  -7   2 1163.12   65.66
  -8   7  -2 1234.26   63.98
  -8   7  -2 1170.62   59.93
   8  -7   3  165.03   25.51
   8  -7   3  174.56   18.87
  -8   7  -3  124.96   11.96
  -8   7  -3  139.08   12.02
   8  -7   4   93.14   15.71
   8  -7   4   97.38   16.85
  -8   7  -4   92.33    9.12
  -8   7  -4   91.81    9.10
   8  -7   5  743.78   57.59
   8  -7   5  755.83   55.14
  -8   7  -5  824.88   37.49
  -8   7  -5  810.30   37.13
   8  -7   6  129.19   20.77
   8  -7   6  102.10   28.50
  -8   7  -6   81.82    6.93
   8  -7   7  109.47   24.18
   8  -7   7   73.78   40.52
  -8   7  -7  142.32   10.88
  -8   7  -7  151.05    8.25
   8  -7   8   17.61   14.21
   8  -7   8    6.96   16.12
  -8   7  -8   24.80    2.57
  -8   7  -8   25.70    3.94
   8  -7   9   17.34   15.30
   8  -7   9   24.70   17.37
   8  -7  10  202.10   38.61
   8  -7  10  229.03   43.05
   8  -7  11   29.84   17.06
   8  -7  11   -1.92   19.22
   8  -7  12   40.14   20.76
   8  -7  12   -0.46   23.04
   8  -6 -13    8.74    7.74
   8  -6 -13    1.89   15.48
  -8   6  13   15.19   14.85
  -8   6  13    8.55   11.88
   8  -6 -12  282.75   27.74
   8  -6 -12  314.79   48.07
  -8   6  12  269.59   26.45
  -8   6  12  273.89   46.07
   8  -6 -11   13.39    7.45
   8  -6 -11    3.32   24.30
  -8   6  11   13.79   15.16
  -8   6  11   16.84    7.71
   8  -6 -10   66.83   11.44
   8  -6 -10   -0.03   22.36
  -8   6  10   78.84   17.43
  -8   6  10   68.30   22.30
   8  -6  -9   42.34   10.92
   8  -6  -9    0.54   15.05
  -8   6   9   16.75    7.14
  -8   6   9   18.97   14.40
   8  -6  -8   78.33   11.03
   8  -6  -8   99.17   22.19
  -8   6   8   97.05   21.17
  -8   6   8   96.94   11.90
   8  -6  -7  207.63   21.84
   8  -6  -7  204.27   28.65
  -8   6   7  223.53   27.48
  -8   6   7  182.15   15.80
   8  -6  -6  349.98   22.12
   8  -6  -6  374.12   37.12
  -8   6   6  474.92   39.55
  -8   6   6  433.13   24.58
   8  -6  -5  235.59   24.97
   8  -6  -5  222.17   15.08
  -8   6   5  204.09   35.66
  -8   6   5  193.79   15.39
   8  -6  -4  595.18   30.59
   8  -6  -4  564.42   42.01
  -8   6   4  613.43   43.00
  -8   6   4  611.94   32.84
   8  -6  -3  211.29   14.75
   8  -6  -3  208.69   20.81
  -8   6   3  196.08   20.60
  -8   6   3  191.20   21.24
   8  -6  -2  349.10   21.25
   8  -6  -2  351.74   26.42
  -8   6   2  307.70   24.55
  -8   6   2  340.28   21.67
   8  -6  -1  396.19   36.80
   8  -6  -1  392.75   25.00
  -8   6   1  400.61   26.88
  -8   6   1  415.58   25.46
   8  -6   0   66.13    9.89
   8  -6   0   54.87    9.15
  -8   6   0   52.42    8.98
  -8   6   0   51.88    9.54
   8  -6   1 1729.05  110.51
   8  -6   1 1673.46  107.21
  -8   6  -1 1849.77   93.71
  -8   6  -1 1754.00   96.51
   8  -6   2  154.91   18.67
   8  -6   2  155.84   25.91
  -8   6  -2  157.50   12.60
  -8   6  -2  152.02   11.48
   8  -6   3  786.51   69.38
   8  -6   3  910.12   60.68
  -8   6  -3  938.99   48.82
  -8   6  -3  898.69   40.58
   8  -6   4  269.15   26.90
   8  -6   4  272.20   25.17
  -8   6  -4  194.33   11.44
  -8   6  -4  203.79   10.46
   8  -6   5  292.12   31.64
   8  -6   5  313.83   29.75
  -8   6  -5  227.25   14.31
   8  -6   6  595.10   55.64
   8  -6   6  580.43   50.40
  -8   6  -6  637.11   24.40
  -8   6  -6  614.61   21.30
   8  -6   7  340.00   43.49
   8  -6   7  344.38   39.11
   8  -6   8   22.43   26.13
   8  -6   8   23.87   15.09
   8  -6   9  532.14   56.77
   8  -6   9  582.27   65.07
   8  -6  10   17.91   14.11
   8  -6  10   -0.72   16.56
   8  -6  11   18.39   16.33
   8  -6  11    2.57   18.50
   8  -6  12  190.77   37.45
   8  -6  12    1.72   40.94
   8  -5 -13   13.65   11.41
   8  -5 -13    5.31   20.76
  -8   5  13   28.80   19.76
  -8   5  13   45.21   11.88
   8  -5 -12  247.88   26.69
   8  -5 -12  284.59   42.98
  -8   5  12  233.11   40.75
  -8   5  12  228.69   26.35
   8  -5 -11  181.31   22.27
   8  -5 -11  256.66   37.99
  -8   5  11  238.35   23.91
  -8   5  11  232.08   36.81
   8  -5 -10   85.55   15.25
   8  -5 -10  106.63   24.25
  -8   5  10  106.79   25.35
  -8   5  10  118.80   15.83
   8  -5  -9    3.70    4.89
   8  -5  -9    2.28    8.68
  -8   5   9    3.94    5.13
  -8   5   9    6.48    8.79
   8  -5  -8  244.04   26.22
   8  -5  -8  239.20   28.84
  -8   5   8  160.79   26.72
  -8   5   8  153.10   17.77
   8  -5  -7   74.74   10.20
   8  -5  -7   48.41   17.30
  -8   5   7   85.93   17.41
  -8   5   7   86.51   11.44
   8  -5  -6  216.06   17.41
   8  -5  -6  223.61   24.93
  -8   5   6  228.07   25.14
  -8   5   6  242.81   18.68
   8  -5  -5  211.09   14.87
   8  -5  -5  211.57   29.61
  -8   5   5  106.16   28.77
  -8   5   5   91.56   13.45
   8  -5  -4 1207.69   70.87
   8  -5  -4 1159.91   70.71
  -8   5   4 1190.05   69.53
  -8   5   4 1155.51   61.70
   8  -5  -3 1771.34  101.96
   8  -5  -3 1791.98  100.17
  -8   5   3 1782.25   98.07
  -8   5   3 1799.26   94.86
   8  -5  -2  129.02   17.93
   8  -5  -2  117.13   13.57
  -8   5   2  102.13   13.02
  -8   5   2  112.74   13.07
   8  -5  -1    7.64    5.71
   8  -5  -1   10.40    6.23
  -8   5   1   15.00    8.69
  -8   5   1   28.68    6.62
   8  -5   0 1499.11   80.89
   8  -5   0 1486.18   71.47
  -8   5   0 1230.29   61.51
  -8   5   0 1253.00   84.89
   8  -5   1  183.48   19.44
   8  -5   1  206.26   19.97
  -8   5  -1  183.55   12.29
  -8   5  -1  179.49   13.64
   8  -5   2   58.99   21.22
   8  -5   2   56.14   12.99
  -8   5  -2   62.00    9.64
  -8   5  -2   79.41    7.20
   8  -5   3 1209.44   78.56
   8  -5   3 1238.04  102.52
  -8   5  -3 1351.05   55.66
   8  -5   4  369.16   46.71
   8  -5   4  389.76   36.53
  -8   5  -4  343.07   12.77
  -8   5  -4  351.70   13.47
   8  -5   5  863.42   66.22
   8  -5   5  852.95   60.97
  -8   5  -5  781.86   23.36
  -8   5  -5  730.82   22.29
   8  -5   6 1352.11  102.58
   8  -5   6 1342.55   95.88
   8  -5   7   18.99   15.63
   8  -5   7   23.44   13.56
   8  -5   8  116.81   30.13
   8  -5   8  105.98   40.50
   8  -5   9   -1.79   14.38
   8  -5   9   15.12   12.80
   8  -5  10    0.11   29.62
   8  -5  10   99.55   24.78
   8  -5  11    0.31   22.05
   8  -5  11   31.19   19.26
   8  -5  12   -1.75   18.68
   8  -5  12   16.46   17.23
   8  -4 -14   37.25   15.22
   8  -4 -14    5.30   23.68
  -8   4  14   46.39   22.74
  -8   4  14   49.05   15.67
   8  -4 -13   29.49   13.65
   8  -4 -13   -1.71   20.69
  -8   4  13   45.86   20.17
  -8   4  13   45.20   13.88
   8  -4 -12    7.49    5.74
   8  -4 -12    3.84    9.38
  -8   4  12   -1.18    8.87
  -8   4  12   -3.61    6.14
   8  -4 -11  240.97   24.55
   8  -4 -11  221.16   36.35
  -8   4  11  188.59   24.53
  -8   4  11  221.61   51.85
   8  -4 -10   13.81    7.57
   8  -4 -10   10.56   12.08
  -8   4  10    9.83    7.81
  -8   4  10    9.04   11.66
   8  -4  -9  222.19   32.55
   8  -4  -9  231.09   32.75
  -8   4   9  266.07   23.74
  -8   4   9  266.29   32.24
   8  -4  -8  170.82   18.34
   8  -4  -8  202.76   26.30
  -8   4   8  210.54   28.23
  -8   4   8  188.59   25.73
   8  -4  -7  228.89   19.09
   8  -4  -7  215.29   26.62
  -8   4   7  189.60   25.24
  -8   4   7  220.44   20.51
   8  -4  -6 1016.05   58.92
   8  -4  -6 1007.32   67.36
  -8   4   6 1264.23   74.45
  -8   4   6 1269.92   68.51
   8  -4  -5   62.63   10.04
   8  -4  -5   59.96   12.80
  -8   4   5   61.61   12.35
  -8   4   5   61.19   16.51
   8  -4  -4   97.09   19.60
   8  -4  -4   98.47   11.19
  -8   4   4   47.52   18.12
  -8   4   4   56.13   11.13
   8  -4  -3  733.85   42.22
   8  -4  -3  734.15   42.81
  -8   4   3  730.64   40.74
  -8   4   3  753.78   44.02
   8  -4  -2   90.00   12.37
   8  -4  -2   83.42   11.26
  -8   4   2  102.06   11.06
  -8   4   2  134.29   13.73
   8  -4  -1 1034.30   73.69
   8  -4  -1 1066.61   54.92
  -8   4   1 1136.04   54.29
  -8   4   1 1190.27   66.65
   8  -4   0  161.09   18.60
   8  -4   0  149.50   11.70
  -8   4   0  190.60   16.49
  -8   4   0  183.89   18.58
   8  -4   1   21.50    8.10
   8  -4   1   14.76    3.69
  -8   4  -1   10.75    3.53
  -8   4  -1    9.30    7.83
   8  -4   2  765.26   53.88
   8  -4   2  796.16   54.15
  -8   4  -2  754.32   32.26
   8  -4   3   57.77   13.09
   8  -4   3   48.23   12.48
  -8   4  -3   33.29    2.87
  -8   4  -3   31.52    4.56
   8  -4   4  276.74   32.04
   8  -4   4  293.54   34.01
   8  -4   5   85.48   20.16
   8  -4   5   92.29   34.08
   8  -4   6   67.22   22.87
   8  -4   6   77.46   20.41
   8  -4   7   82.20   27.38
   8  -4   7  101.81   23.85
   8  -4   8   24.26   26.10
   8  -4   8   13.65   14.72
   8  -4   9    0.68   11.42
   8  -4   9    3.52   10.06
   8  -4  10  340.60   59.47
   8  -4  10  366.22   80.26
   8  -4  11  156.03   48.00
   8  -4  11  183.87   42.23
   8  -4  12    2.05   31.19
   8  -4  12   70.02   27.39
   8  -3 -14   43.71   18.40
   8  -3 -14   77.34   40.25
  -8   3  14   66.44   24.76
  -8   3  14   48.52   18.28
   8  -3 -13   27.67   13.96
   8  -3 -13   44.44   19.64
  -8   3  13   20.05   19.07
  -8   3  13   27.88   13.85
   8  -3 -12  124.93   22.98
   8  -3 -12  143.45   32.41
  -8   3  12  198.05   48.66
  -8   3  12  173.68   24.87
   8  -3 -11   90.54   17.52
   8  -3 -11   97.41   24.13
  -8   3  11   75.97   27.08
  -8   3  11   77.83   23.35
   8  -3 -10   89.04   17.24
   8  -3 -10   93.78   22.79
  -8   3  10  123.94   18.02
  -8   3  10  109.98   22.97
   8  -3  -9  409.82   44.20
   8  -3  -9  376.46   40.19
  -8   3   9  444.45   35.68
  -8   3   9  445.48   41.58
   8  -3  -8   13.41    8.18
   8  -3  -8   17.55   10.52
  -8   3   8   18.11    8.62
  -8   3   8   22.62   10.35
   8  -3  -7 1048.71   58.73
   8  -3  -7  989.27   61.90
  -8   3   7  718.07   53.85
  -8   3   7  786.88   53.78
   8  -3  -6   87.16   14.10
   8  -3  -6   88.80   15.93
  -8   3   6  121.15   16.23
  -8   3   6  140.32   15.71
   8  -3  -5    2.45    6.69
   8  -3  -5    4.92    6.92
  -8   3   5   21.13    6.78
  -8   3   5   20.61    6.97
   8  -3  -4  718.41   42.33
   8  -3  -4  706.32   40.67
  -8   3   4  586.33   36.79
  -8   3   4  609.82   52.70
   8  -3  -3  235.81   20.89
   8  -3  -3  252.41   18.71
  -8   3   3  232.14   18.13
  -8   3   3  252.93   22.46
   8  -3  -2  818.26   49.50
   8  -3  -2  871.69   44.97
  -8   3   2  858.16   43.19
  -8   3   2  884.72   53.77
   8  -3  -1   10.87    8.04
   8  -3  -1   16.13    7.52
  -8   3   1   25.98    7.38
  -8   3   1   16.05    8.23
   8  -3   0  236.50   23.92
   8  -3   0  235.69   18.44
  -8   3   0  213.13   12.58
  -8   3   0  209.98   22.44
   8  -3   1 2102.79  128.32
   8  -3   1 2025.78   89.29
  -8   3  -1 2138.08   91.31
  -8   3  -1 2114.19  144.61
   8  -3   2   57.77   15.77
   8  -3   2   63.97   15.86
  -8   3  -2   64.48    4.69
   8  -3   3  421.49   39.20
   8  -3   3  435.60   38.44
  -8   3  -3  372.41   11.11
  -8   3  -3  400.34   12.05
   8  -3   4 1002.81   97.61
   8  -3   4 1011.10   94.69
   8  -3   5  448.34   46.50
   8  -3   5  480.14   49.99
   8  -3   6  534.21   52.66
   8  -3   6  550.08   58.31
   8  -3   7    5.57   10.49
   8  -3   7    0.44    9.18
   8  -3   8   19.51   15.22
   8  -3   8    9.27   17.46
   8  -3   9    0.37    8.64
   8  -3  10    7.70   13.31
   8  -3  10    0.21   15.50
   8  -3  11   58.19   24.45
   8  -3  11   -1.28   28.38
   8  -2 -15   -0.83    9.30
   8  -2 -15   -0.91   12.37
  -8   2  15    8.05   11.71
  -8   2  15    9.86   14.59
   8  -2 -14    1.15   10.04
   8  -2 -14   24.04   21.07
  -8   2  14   22.12   12.73
  -8   2  14   -3.04    9.71
   8  -2 -13  119.76   22.85
   8  -2 -13  104.36   28.50
  -8   2  13   96.34   27.66
  -8   2  13   88.61   22.54
   8  -2 -12   67.21   17.93
   8  -2 -12   60.05   22.06
  -8   2  12   62.70   22.16
  -8   2  12   66.01   18.62
   8  -2 -11  122.38   21.77
   8  -2 -11  101.15   27.22
  -8   2  11  174.32   35.21
  -8   2  11  152.27   27.54
   8  -2 -10  126.46   25.79
   8  -2 -10  149.13   21.16
  -8   2  10  162.89   23.08
  -8   2  10  144.43   26.10
   8  -2  -9  118.88   22.00
   8  -2  -9  123.39   18.45
  -8   2   9  128.70   19.30
  -8   2   9   97.13   21.52
   8  -2  -8  682.63   54.73
   8  -2  -8  739.07   51.75
  -8   2   8  885.54   56.84
  -8   2   8  875.72   76.50
   8  -2  -7   76.77   13.97
   8  -2  -7   58.20   12.56
  -8   2   7   45.86   13.62
  -8   2   7   44.38   13.61
   8  -2  -6  368.29   29.10
   8  -2  -6  370.45   28.32
  -8   2   6  335.67   28.36
  -8   2   6  301.78   29.07
   8  -2  -5  298.09   26.36
   8  -2  -5  318.15   28.02
  -8   2   5  433.66   28.59
  -8   2   5  434.99   31.65
   8  -2  -4  194.57   18.15
   8  -2  -4  189.93   19.84
  -8   2   4  218.96   25.39
  -8   2   4  221.57   21.97
   8  -2  -3  408.08   23.96
   8  -2  -3  434.26   29.29
  -8   2   3  274.17   37.23
  -8   2   3  255.65   20.05
   8  -2  -2  167.46   12.77
   8  -2  -2  164.56   18.40
  -8   2   2  158.17   12.56
  -8   2   2  140.80   19.00
   8  -2  -1    1.21    5.11
   8  -2  -1   -0.89    1.63
   8  -2  -1    3.33    5.07
  -8   2   1    0.13    1.59
  -8   2   1    0.22    3.31
   8  -2   0  629.73   48.72
   8  -2   0  640.34   29.37
  -8   2   0  730.90   30.82
  -8   2   0  735.49   49.55
   8  -2   1  200.39   25.45
   8  -2   1  178.43   12.27
  -8   2  -1  231.23   24.53
   8  -2   2  197.33   25.86
   8  -2   2  181.44    9.09
  -8   2  -2  172.62    6.74
  -8   2  -2  183.81   24.28
   8  -2   3 1679.76  117.98
   8  -2   3 1848.60  123.95
   8  -2   4   80.59   22.31
   8  -2   4   99.14   21.95
   8  -2   5  321.69   61.21
   8  -2   5  287.68   37.97
   8  -2   6  760.48   69.99
   8  -2   6  785.79   78.06
   8  -2   7    0.27   22.30
   8  -2   7  109.21   24.84
   8  -2   8   -1.26    8.10
   8  -2   8    1.70    9.44
   8  -2   9   -0.99    8.44
   8  -2   9    0.12    9.61
   8  -2  10   10.14   14.37
   8  -2  10   -1.16   15.89
   8  -2  11   63.07   26.51
   8  -2  11    1.20   30.23
   8  -1 -15    1.71   16.37
   8  -1 -15   29.95   19.44
  -8   1  15   38.21   16.07
  -8   1  15   14.64   19.58
   8  -1 -14  381.88   46.32
   8  -1 -14  408.23   53.55
  -8   1  14  318.55   46.78
  -8   1  14  376.46   52.90
   8  -1 -13    1.17   13.10
   8  -1 -13    6.76   10.63
  -8   1  13   11.49   12.21
  -8   1  13    9.73   10.92
   8  -1 -12  130.97   27.28
   8  -1 -12  140.21   24.08
  -8   1  12  119.11   28.13
  -8   1  12  106.68   24.84
   8  -1 -11  143.73   30.82
   8  -1 -11  155.80   26.56
  -8   1  11  257.03   30.05
  -8   1  11  248.82   32.04
   8  -1 -10  130.31   21.32
   8  -1 -10  122.49   24.44
  -8   1  10  136.22   23.26
  -8   1  10  125.10   23.94
   8  -1  -9   87.31   17.05
   8  -1  -9   90.37   15.90
  -8   1   9   34.30   16.59
  -8   1   9   46.09   16.42
   8  -1  -8 1131.18   74.89
   8  -1  -8 1154.81   76.63
  -8   1   8 1215.50   98.72
  -8   1   8 1203.52   77.10
   8  -1  -7   68.96   15.46
   8  -1  -7   71.43   15.70
  -8   1   7   90.28   15.02
  -8   1   7   85.28   16.40
   8  -1  -6 1511.27  103.07
   8  -1  -6 1641.79   96.09
  -8   1   6 1392.38   81.63
  -8   1   6 1381.73   88.60
   8  -1  -5  203.35   19.85
   8  -1  -5  200.34   22.26
  -8   1   5  236.54   20.09
  -8   1   5  225.37   24.19
   8  -1  -4  787.72   44.31
   8  -1  -4  835.89   52.86
  -8   1   4  757.29   43.06
  -8   1   4  746.83   51.69
   8  -1  -3   92.61   13.87
   8  -1  -3   79.17   13.28
  -8   1   3   43.75   12.70
  -8   1   3   38.79    8.35
   8  -1  -2  342.40   19.95
   8  -1  -2  347.06   29.51
  -8   1   2  298.47   18.67
  -8   1   2  320.29   30.11
   8  -1  -1  292.04   17.16
   8  -1  -1  288.22   30.31
  -8   1   1  389.66   32.82
  -8   1   1  369.91   18.49
   8  -1   0   27.42    4.70
   8  -1   0   12.49   12.69
  -8   1   0   47.88    4.88
  -8   1   0   39.11   12.84
   8  -1   1  163.47   23.62
   8  -1   1  141.77    7.53
  -8   1  -1  155.05   23.56
   8  -1   2 1067.18   80.49
   8  -1   2 1037.48   36.31
  -8   1  -2 1093.51   39.91
  -8   1  -2 1119.29   77.49
   8  -1   3  701.44   63.25
   8  -1   3  691.19   62.49
   8  -1   4  307.38   60.74
   8  -1   4  325.62   39.93
   8  -1   5   42.14   19.73
   8  -1   5   39.02   18.05
   8  -1   6  436.75   57.17
   8  -1   6  475.30   53.10
   8  -1   7   -1.24    6.50
   8  -1   7    1.93    7.22
   8  -1   8    0.75   26.77
   8  -1   8  145.04   30.60
   8  -1   9  168.05   39.42
   8  -1   9  176.82   46.27
   8  -1  10   38.86   22.43
   8  -1  10    1.34   25.05
   8   0 -15   97.40   29.54
   8   0 -15    6.21   25.96
  -8   0  15  101.12   26.06
  -8   0  15   94.96   29.43
   8   0 -14  119.47   28.99
   8   0 -14    2.85   39.98
  -8   0  14   73.41   26.00
  -8   0  14  119.10   28.90
   8   0 -13  106.68   29.03
   8   0 -13  122.39   41.59
  -8   0  13  118.96   28.24
  -8   0  13  153.00   30.03
   8   0 -12  129.44   30.30
   8   0 -12  179.71   27.85
  -8   0  12  165.70   44.05
  -8   0  12  153.32   30.58
   8   0 -11  241.65   31.45
   8   0 -11  197.01   28.88
  -8   0  11  197.19   31.27
  -8   0  11  171.97   31.01
   8   0 -10   57.27   25.07
   8   0 -10   70.06   17.06
  -8   0  10   34.37   17.71
  -8   0  10   47.46   16.85
   8   0  -9    9.30    7.50
   8   0  -9    3.21    7.53
  -8   0   9    7.74    8.01
  -8   0   9   -3.35    7.49
   8   0  -8  466.31   38.09
   8   0  -8  451.87   37.87
  -8   0   8  376.20   35.26
  -8   0   8  353.74   39.06
   8   0  -7  269.71   44.73
   8   0  -7  298.65   33.81
  -8   0   7  528.90   35.87
  -8   0   7  484.33   39.33
   8   0  -6  283.99   24.60
   8   0  -6  289.02   28.08
  -8   0   6  244.13   23.38
  -8   0   6  231.17   28.17
   8   0  -5  347.85   27.53
   8   0  -5  397.11   47.11
  -8   0   5  434.29   38.81
  -8   0   5  397.61   35.26
   8   0  -4 1001.28   54.83
   8   0  -4 1006.15   65.36
  -8   0   4  899.57   51.29
  -8   0   4  925.53   63.64
   8   0  -3  252.75   18.66
   8   0  -3  236.75   27.25
  -8   0   3  277.48   27.59
  -8   0   3  274.19   19.00
   8   0  -2  589.41   30.26
   8   0  -2  568.61   44.13
  -8   0   2  528.72   36.60
  -8   0   2  524.90   44.10
   8   0  -1  209.37   18.32
   8   0  -1  219.49   26.25
  -8   0   1  218.15   26.33
  -8   0   1  193.43   13.22
   8   0   0 1024.36   44.61
   8   0   0 1091.17   74.98
  -8   0   0 1028.88   45.75
  -8   0   0 1070.46   74.86
   8   0   1  585.45   23.92
   8   0   1  643.21   54.49
  -8   0  -1  736.24   56.21
   8   0   2  131.70   24.46
   8   0   2  102.87    4.57
  -8   0  -2   93.08   21.77
  -8   0  -2  101.31    4.69
   8   0   3   23.12   15.47
   8   0   3   23.48   15.50
   8   0   4  987.63   85.00
   8   0   4  989.31   83.19
   8   0   5  150.76   32.17
   8   0   5  134.95   31.40
   8   0   6  132.15   34.01
   8   0   6  128.74   31.15
   8   0   7   52.33   23.56
   8   0   7    4.44   33.42
   8   0   8   76.05   25.64
   8   0   8   -0.17   23.17
   8   0   9    7.56   15.72
   8   0   9    2.99   13.51
   8   1 -15   28.08   19.09
   8   1 -15   -3.69   17.10
  -8  -1  15   32.28   17.45
  -8  -1  15   22.13   18.81
   8   1 -14    5.71   13.03
   8   1 -14   -0.63   11.92
  -8  -1  14    5.27   11.97
  -8  -1  14   14.20   12.95
   8   1 -13  113.75   28.63
   8   1 -13   93.35   27.66
  -8  -1  13  112.87   28.28
  -8  -1  13  125.64   30.01
   8   1 -12   21.72   13.95
   8   1 -12    9.54   14.66
  -8  -1  12   24.79   14.81
  -8  -1  12   15.24   14.79
   8   1 -11  139.90   26.20
   8   1 -11  111.65   26.00
  -8  -1  11  141.50   28.36
  -8  -1  11  118.42   26.94
   8   1 -10   65.02   19.41
   8   1 -10   47.97   19.32
  -8  -1  10   64.46   21.16
  -8  -1  10  100.94   19.35
   8   1  -9   85.11   20.99
   8   1  -9  108.57   22.13
  -8  -1   9  127.68   23.57
  -8  -1   9  109.06   21.47
   8   1  -8  225.26   26.80
   8   1  -8  262.24   29.07
  -8  -1   8  211.83   26.42
  -8  -1   8  206.14   30.60
   8   1  -7  181.21   32.93
   8   1  -7  216.73   26.86
  -8  -1   7  201.71   23.06
  -8  -1   7  193.69   27.13
   8   1  -6  113.89   15.98
   8   1  -6  147.03   20.07
  -8  -1   6   73.90   15.98
  -8  -1   6   96.59   20.35
   8   1  -5  956.43   57.90
   8   1  -5 1015.93   87.41
  -8  -1   5 1060.53   61.08
  -8  -1   5 1041.73   91.61
   8   1  -4   12.01    7.04
   8   1  -4   11.72   10.48
  -8  -1   4   37.66   17.81
  -8  -1   4   27.38    7.29
   8   1  -3  883.45   47.18
   8   1  -3  871.36   63.17
  -8  -1   3  860.08   57.09
  -8  -1   3  869.61   83.30
   8   1  -2  264.02   28.10
   8   1  -2  259.33   16.86
  -8  -1   2  206.45   16.20
  -8  -1   2  201.75   28.14
   8   1  -1   97.03    9.60
   8   1  -1  104.74   21.03
  -8  -1   1  142.34   22.03
  -8  -1   1  124.25   10.45
   8   1   0 1136.70   49.15
   8   1   0 1201.01   82.91
  -8  -1   0  990.38   46.98
  -8  -1   0  950.21   75.48
   8   1   1  159.74    9.01
   8   1   1  168.16   42.40
  -8  -1  -1  140.69   27.02
   8   1   2   57.15    3.83
   8   1   2   64.32   20.00
  -8  -1  -2   55.71   18.74
  -8  -1  -2   58.78    4.12
   8   1   3  231.46   37.53
   8   1   3  233.48   36.93
   8   1   4   -5.67    9.51
   8   1   4    0.95    9.22
   8   1   5  199.76   37.57
   8   1   5  183.19   36.36
   8   1   6    5.77   10.52
   8   1   6   -1.29    9.79
   8   1   7   42.27   22.48
   8   1   7   -0.80   31.44
   8   1   8   82.95   27.26
   8   1   8   -0.19   24.16
   8   1   9  184.33   48.83
   8   1   9  155.15   42.16
   8   2 -15   12.62   19.97
   8   2 -15   20.87   19.66
  -8  -2  15   14.05   19.22
  -8  -2  15   36.78   19.74
   8   2 -14  148.49   36.08
   8   2 -14  132.54   35.72
  -8  -2  14  181.60   36.84
  -8  -2  14  177.26   37.97
   8   2 -13   80.10   22.80
   8   2 -13    3.66   35.78
  -8  -2  13   43.01   24.57
  -8  -2  13   65.62   23.78
   8   2 -12  288.42   42.05
   8   2 -12  277.12   41.73
  -8  -2  12  334.38   46.56
  -8  -2  12  381.95   45.25
   8   2 -11  178.20   31.66
   8   2 -11  185.24   30.78
  -8  -2  11  188.11   34.38
  -8  -2  11  178.21   32.21
   8   2 -10   54.48   26.30
   8   2 -10   46.52   17.25
  -8  -2  10   43.42   17.85
  -8  -2  10   28.15   16.57
   8   2  -9  476.67   44.28
   8   2  -9  534.90   50.14
  -8  -2   9  514.21   70.53
  -8  -2   9  520.49   46.60
   8   2  -8  273.88   29.42
   8   2  -8  278.44   33.84
  -8  -2   8  280.48   30.74
  -8  -2   8  279.11   34.97
   8   2  -7   64.64   20.86
   8   2  -7   76.74   24.80
  -8  -2   7   39.42   12.85
  -8  -2   7   29.71   16.48
   8   2  -6  391.93   30.88
   8   2  -6  403.89   53.03
  -8  -2   6  295.24   29.27
  -8  -2   6  303.83   36.37
   8   2  -5  843.08   52.02
   8   2  -5  809.92   62.38
  -8  -2   5  842.51   52.46
  -8  -2   5  827.51   64.77
   8   2  -4  170.82   18.17
   8   2  -4  173.68   26.67
  -8  -2   4  221.38   27.53
  -8  -2   4  199.11   18.64
   8   2  -3  580.21   43.69
   8   2  -3  559.20   47.07
  -8  -2   3  511.62   32.27
  -8  -2   3  502.37   48.52
   8   2  -2  795.29   62.87
   8   2  -2  774.91   51.44
  -8  -2   2  859.02   55.55
  -8  -2   2  910.77   68.94
   8   2  -1  841.59   84.16
   8   2  -1  797.25   46.93
  -8  -2   1  761.06   62.83
  -8  -2   1  722.40   38.97
   8   2   0  658.62   38.84
   8   2   0  641.44   60.62
  -8  -2   0  725.73   35.07
  -8  -2   0  687.10   61.78
   8   2   1  184.05   10.83
   8   2   1  194.13   31.67
  -8  -2  -1  184.86   31.79
   8   2   2   27.48    3.32
   8   2   2   23.61   16.36
  -8  -2  -2   21.39   15.34
  -8  -2  -2   21.92    3.65
   8   2   3  329.28   12.45
   8   2   3  377.04   46.27
   8   2   3  390.48   47.82
   8   2   3  311.48   12.26
   8   2   4  125.97   25.44
   8   2   4    0.50   23.84
   8   2   5  142.93   35.99
   8   2   5  140.96   34.07
   8   2   6   22.93   22.60
   8   2   6    0.53   13.23
   8   2   7  126.24   33.83
   8   2   7   -0.54   47.92
   8   2   8   56.72   24.04
   8   2   8   -0.48   22.62
   8   3 -15   95.51   31.24
   8   3 -15   96.15   30.97
  -8  -3  15  118.33   31.22
  -8  -3  15    0.04   31.95
   8   3 -14   26.98   29.01
   8   3 -14   30.97   18.82
  -8  -3  14   27.02   19.58
  -8  -3  14    0.35   18.86
   8   3 -13   13.94   16.83
   8   3 -13   16.46   16.54
  -8  -3  13   18.77   18.20
  -8  -3  13   22.09   17.16
   8   3 -12  359.77   47.63
   8   3 -12  350.17   45.06
  -8  -3  12  321.19   50.36
  -8  -3  12  361.60   48.02
   8   3 -11   77.67   19.52
   8   3 -11   56.82   22.07
  -8  -3  11   45.50   22.26
  -8  -3  11   39.77   20.54
   8   3 -10  321.24   38.25
   8   3 -10  352.95   43.24
  -8  -3  10  335.74   43.61
  -8  -3  10  324.54   39.94
   8   3  -9   69.45   19.95
   8   3  -9   92.28   34.71
  -8  -3   9   74.57   20.11
  -8  -3   9   91.57   23.17
   8   3  -8  628.21   50.05
   8   3  -8  589.29   77.03
  -8  -3   8  589.11   65.90
  -8  -3   8  530.50   53.68
   8   3  -7   71.91   15.37
   8   3  -7   69.55   29.24
  -8  -3   7   54.96   15.14
  -8  -3   7   44.84   19.49
   8   3  -6  194.79   21.48
   8   3  -6  232.06   42.90
  -8  -3   6  134.34   31.96
  -8  -3   6  134.04   28.30
   8   3  -5  231.22   21.81
   8   3  -5  261.41   45.26
  -8  -3   5  166.28   29.86
  -8  -3   5  181.48   21.27
   8   3  -4   -1.60    5.78
   8   3  -4    0.01   14.78
  -8  -3   4    9.48    9.59
  -8  -3   4   14.37    5.97
   8   3  -3  134.32   23.90
   8   3  -3  139.59   26.42
  -8  -3   3  187.52   17.64
  -8  -3   3  192.06   29.44
   8   3  -2 1109.17   58.78
   8   3  -2 1123.60   83.28
  -8  -3   2 1049.17   59.64
  -8  -3   2 1041.64   83.64
   8   3  -1   37.55   13.37
   8   3  -1   21.11    5.73
  -8  -3   1    6.88   13.38
  -8  -3   1   12.44    5.93
   8   3   0  229.83   15.67
   8   3   0  233.01   36.08
  -8  -3   0  268.49   17.57
  -8  -3   0  252.43   34.97
   8   3   1  201.24   16.60
   8   3   1  225.37   33.22
  -8  -3  -1  139.49   11.38
  -8  -3  -1  137.20   29.47
   8   3   2  117.21    8.09
   8   3   2  145.50   29.53
  -8  -3  -2  154.66   28.68
   8   3   3   37.24    3.33
   8   3   3   35.62   20.74
   8   3   3    0.04   20.76
   8   3   3   33.38    5.11
   8   3   4   -2.43   24.31
   8   3   4  103.82   24.59
   8   3   5   86.43   32.96
   8   3   5   -0.54   20.14
   8   3   6  124.44   29.36
   8   3   6   -2.17   26.65
   8   3   7   89.37   31.46
   8   3   7    2.95   44.80
   8   4 -15   27.78   19.28
   8   4 -15   20.11   30.49
  -8  -4  15   14.51   19.27
  -8  -4  15   -0.32   19.44
   8   4 -14   12.27   17.23
   8   4 -14    8.71   17.53
  -8  -4  14   17.91   18.22
  -8  -4  14   21.42   18.15
   8   4 -13  127.58   30.10
   8   4 -13   82.28   27.85
  -8  -4  13   82.74   33.13
  -8  -4  13  103.96   30.09
   8   4 -12   35.56   19.29
   8   4 -12   27.17   17.50
  -8  -4  12   24.31   20.64
  -8  -4  12   29.26   18.58
   8   4 -11  356.36   44.51
   8   4 -11  373.18   48.59
  -8  -4  11  305.25   47.39
  -8  -4  11  342.83   46.26
   8   4 -10   83.55   22.31
   8   4 -10   67.65   25.71
  -8  -4  10   80.65   22.13
  -8  -4  10   76.96   25.86
   8   4  -9   49.76   18.76
   8   4  -9   39.27   21.12
  -8  -4   9   87.99   18.55
  -8  -4   9   57.76   21.87
   8   4  -8  165.16   23.75
   8   4  -8  169.41   27.97
  -8  -4   8   99.02   22.61
  -8  -4   8  100.83   28.36
   8   4  -7  234.88   28.50
   8   4  -7  269.75   54.44
  -8  -4   7  269.68   29.83
  -8  -4   7  266.32   37.99
   8   4  -6   93.86   25.06
   8   4  -6   81.97   34.15
  -8  -4   6   75.81   16.57
  -8  -4   6   77.41   34.96
   8   4  -5  276.74   26.78
   8   4  -5  276.67   36.22
  -8  -4   5  249.92   36.96
  -8  -4   5  267.61   38.38
   8   4  -4  341.97   26.39
   8   4  -4  347.80   37.81
  -8  -4   4  227.02   37.45
  -8  -4   4  228.40   24.96
   8   4  -3  411.58   30.79
   8   4  -3  425.01   45.44
  -8  -4   3  383.30   41.43
  -8  -4   3  401.77   46.48
   8   4  -2  120.09   25.65
   8   4  -2  109.72   21.43
  -8  -4   2  121.26   26.95
  -8  -4   2  125.81   14.49
   8   4  -1   76.85   19.95
   8   4  -1   73.49    9.30
  -8  -4   1   40.37   20.10
  -8  -4   1   23.17    9.44
   8   4   0  560.90   56.98
   8   4   0  589.88   32.58
  -8  -4   0  522.27   32.30
  -8  -4   0  535.50   59.04
   8   4   1  293.72   18.65
   8   4   1  267.60   44.17
  -8  -4  -1  318.59   20.62
  -8  -4  -1  363.85   45.11
   8   4   2   89.89   11.90
   8   4   2   78.27   27.93
  -8  -4  -2  109.11   26.95
   8   4   3    2.31   16.67
   8   4   3   23.30   15.92
   8   4   4  305.70   50.40
   8   4   4  317.27   74.67
   8   4   5   -0.68   16.62
   8   4   5   23.70   17.23
   8   4   6    0.48   14.26
   8   4   6   12.82   15.64
   8   5 -14   46.11   39.09
   8   5 -14   48.69   22.98
  -8  -5  14   26.04   27.84
  -8  -5  14   29.06   37.92
   8   5 -13   99.34   30.59
   8   5 -13  104.21   28.10
  -8  -5  13   30.43   31.32
  -8  -5  13   57.62   44.86
   8   5 -12  330.40   50.50
   8   5 -12  289.64   46.81
  -8  -5  12  284.63   50.28
  -8  -5  12  298.80   46.47
   8   5 -11   17.64   15.35
   8   5 -11   29.14   17.30
  -8  -5  11    4.78   27.38
  -8  -5  11   15.06   15.71
   8   5 -10  234.54   32.65
   8   5 -10  200.68   38.70
  -8  -5  10  180.37   32.64
  -8  -5  10  162.18   37.16
   8   5  -9  109.31   22.53
   8   5  -9   -1.03   26.01
  -8  -5   9  152.27   34.85
  -8  -5   9  119.23   27.32
   8   5  -8   27.58   22.66
   8   5  -8   28.87   17.64
  -8  -5   8   32.54   14.80
  -8  -5   8   34.24   18.32
   8   5  -7  131.58   23.69
   8   5  -7  131.59   46.99
  -8  -5   7  159.55   24.31
  -8  -5   7  186.56   32.37
   8   5  -6   48.49   14.83
   8   5  -6   46.85   19.37
  -8  -5   6   43.49   21.05
  -8  -5   6   56.58   15.10
   8   5  -5  500.14   55.25
   8   5  -5  445.59   50.82
  -8  -5   5  566.24   57.70
  -8  -5   5  515.53   43.01
   8   5  -4   23.36    8.57
   8   5  -4   20.98   13.18
  -8  -5   4    4.62    8.29
  -8  -5   4    1.50   14.08
   8   5  -3   67.43   13.89
   8   5  -3   65.80   22.27
  -8  -5   3   79.26   14.08
  -8  -5   3  121.04   24.94
   8   5  -2  798.02   99.68
   8   5  -2  781.29   50.60
  -8  -5   2  904.10  105.54
  -8  -5   2  855.87   54.75
   8   5  -1   24.16   14.19
   8   5  -1   14.91    6.67
  -8  -5   1   -0.35   11.05
  -8  -5   1   15.73   22.65
   8   5   0   54.24   25.25
   8   5   0   70.18   17.31
  -8  -5   0  100.74   12.15
  -8  -5   0   79.28   41.43
   8   5   1   -7.69   13.48
   8   5   1   -3.32    4.84
  -8  -5  -1   -0.12    3.34
  -8  -5  -1    3.07   13.85
   8   5   2  110.16    9.99
   8   5   2  128.24   30.55
  -8  -5  -2   98.96   29.35
  -8  -5  -2   87.73   10.50
   8   5   3   -0.68   12.93
   8   5   3   14.65   19.32
   8   5   4   -1.18   17.80
   8   5   4   28.91   17.74
   8   5   5   16.61   15.84
   8   5   5   -1.56   15.36
   8   6 -14   21.08   26.09
   8   6 -14   20.02   24.69
  -8  -6  14   52.09   27.54
  -8  -6  14   57.57   25.93
   8   6 -13   70.65   44.65
   8   6 -13   55.08   27.39
  -8  -6  13   45.75   28.09
  -8  -6  13   58.62   41.95
   8   6 -12   29.62   23.06
   8   6 -12   37.36   21.36
  -8  -6  12   34.17   35.26
  -8  -6  12   27.88   21.10
   8   6 -11  175.32   32.73
   8   6 -11  143.82   37.46
  -8  -6  11  118.87   34.10
  -8  -6  11  142.40   37.31
   8   6 -10   69.19   21.00
   8   6 -10    0.57   24.74
  -8  -6  10   63.29   21.24
  -8  -6  10   57.53   38.02
   8   6  -9   22.68   14.44
   8   6  -9   -2.15   16.60
  -8  -6   9   25.37   22.57
  -8  -6   9   28.50   16.84
   8   6  -8   59.05   18.50
   8   6  -8   -1.63   35.39
  -8  -6   8   57.35   18.58
  -8  -6   8   53.68   23.54
   8   6  -7  197.70   29.13
   8   6  -7  222.60   37.04
  -8  -6   7  199.06   57.54
  -8  -6   7  182.28   29.80
   8   6  -6  196.98   25.84
   8   6  -6  172.01   34.26
  -8  -6   6  160.21   35.97
  -8  -6   6  161.27   26.78
   8   6  -5  256.68   27.96
   8   6  -5  230.65   36.77
  -8  -6   5  197.40   39.36
  -8  -6   5  203.17   27.20
   8   6  -4   71.76   16.75
   8   6  -4  105.64   24.76
  -8  -6   4   83.84   17.12
  -8  -6   4  100.31   26.55
   8   6  -3  197.83   33.13
   8   6  -3  179.86   33.97
  -8  -6   3  183.20   36.65
  -8  -6   3  190.14   23.78
   8   6  -2  196.55   19.97
   8   6  -2  182.89   33.67
  -8  -6   2  146.30   36.38
  -8  -6   2  139.23   20.24
   8   6  -1  118.47   29.99
   8   6  -1  116.05   15.55
  -8  -6   1  105.31   15.97
  -8  -6   1  136.27   31.64
   8   6   0   74.90   20.54
   8   6   0   58.35    9.33
  -8  -6   0   -0.66    9.82
  -8  -6   0   49.70   21.38
   8   6   1   93.00   25.73
   8   6   1   62.28   10.32
  -8  -6  -1   83.74   27.08
  -8  -6  -1   56.60   11.18
   8   6   2    0.26   22.27
   8   6   2   77.30   23.93
   8   6   3   53.36   21.69
   8   6   3    3.06   21.81
   8   7 -13   56.93   30.52
   8   7 -13   62.15   28.19
  -8  -7  13   33.18   45.66
  -8  -7  13   54.90   28.51
   8   7 -12   59.97   27.40
   8   7 -12   54.52   24.29
  -8  -7  12   34.71   40.17
  -8  -7  12   32.09   27.67
   8   7 -11   27.37   19.68
   8   7 -11   20.28   22.24
  -8  -7  11   38.28   19.62
  -8  -7  11   23.82   22.58
   8   7 -10   -3.69   10.52
   8   7 -10    2.94   12.23
  -8  -7  10    2.39   10.32
  -8  -7  10   13.26   11.81
   8   7  -9   49.91   20.70
   8   7  -9   -3.05   24.59
  -8  -7   9   85.09   21.41
  -8  -7   9   62.67   25.32
   8   7  -8  117.35   28.64
   8   7  -8   -2.00   22.22
  -8  -7   8    3.99   18.92
  -8  -7   8   76.72   22.31
   8   7  -7  183.48   31.05
   8   7  -7  190.19   38.36
  -8  -7   7  185.38   40.70
  -8  -7   7  218.81   31.39
   8   7  -6   64.28   17.17
   8   7  -6    4.24   22.19
  -8  -7   6   62.40   24.13
  -8  -7   6   52.34   17.38
   8   7  -5  154.70   34.58
   8   7  -5  142.15   30.49
  -8  -7   5   99.75   22.72
  -8  -7   5  123.38   33.29
   8   7  -4  189.25   25.53
   8   7  -4  177.18   35.89
  -8  -7   4  191.11   26.92
  -8  -7   4  222.29   60.58
   8   7  -3  123.84   20.62
   8   7  -3  127.13   31.63
  -8  -7   3  145.87   22.01
  -8  -7   3  148.84   35.39
   8   7  -2    7.75    6.85
   8   7  -2   13.81   12.03
  -8  -7   2    6.22   13.70
  -8  -7   2    0.10    7.16
   8   7  -1   70.13   13.42
   8   7  -1   65.58   24.55
  -8  -7   1   65.78   14.32
  -8  -7   1    0.03   26.54
   8   7   0    0.07    9.26
  -8  -7   0   -0.19    4.75
  -8  -7   0   -6.49    9.85
   8   7   1    0.30   11.88
   8   7   1    4.32    4.59
  -8  -7  -1    4.05   12.20
   8   8 -12   82.12   32.00
   8   8 -12   63.95   27.99
  -8  -8  12   57.46   46.97
  -8  -8  12   66.16   34.79
   8   8 -11   31.81   19.82
   8   8 -11   36.57   22.82
  -8  -8  11   19.33   20.88
  -8  -8  11   19.87   24.11
   8   8 -10   54.47   22.41
   8   8 -10   -0.44   26.03
  -8  -8  10   61.34   23.09
  -8  -8  10   75.73   41.73
   8   8  -9   27.92   21.88
   8   8  -9   -0.02   26.38
  -8  -8   9    1.56   13.98
  -8  -8   9   15.69   16.24
   8   8  -8   35.87   15.69
   8   8  -8    1.57   18.83
  -8  -8   8   44.44   19.82
  -8  -8   8    1.96   16.04
   8   8  -7  300.76   39.54
   8   8  -7  298.23   47.86
  -8  -8   7  261.03   74.51
  -8  -8   7  273.56   39.37
   8   8  -6   15.81   18.41
   8   8  -6   -3.05   15.32
  -8  -8   6   31.38   16.72
  -8  -8   6    1.84   18.77
   8   8  -5  111.77   24.19
   8   8  -5  135.00   32.85
  -8  -8   5  132.94   25.43
  -8  -8   5  133.05   35.55
   8   8  -4   61.52   15.41
   8   8  -4    2.01   22.43
  -8  -8   4   38.07   15.90
  -8  -8   4   47.92   24.88
   8   8  -3   85.15   14.32
   8   8  -3   61.68   33.74
  -8  -8   3    4.40   24.38
  -8  -8   3   -0.93   14.48
   8   8  -2    0.94    6.15
   8   8  -2   -1.88    6.57
  -8  -8   2   -0.59    4.12
  -8  -8   2    3.85    7.39
   8   8  -1   50.12   14.42
   8   8  -1   -3.66   17.30
  -8  -8   1   -0.18   15.81
  -8  -8   1   -1.45   18.82
   8   9  -9   -2.24   11.71
   8   9  -9   -5.25   14.23
  -8  -9   9  -14.54   15.20
  -8  -9   9   -0.70   12.03
   8   9  -8   13.13   11.16
   8   9  -8   -0.43   13.53
  -8  -9   8    0.53   14.13
  -8  -9   8    3.08   11.67
   8   9  -7   75.79   27.81
   8   9  -7    0.55   22.34
  -8  -9   7   65.79   22.82
  -8  -9   7    2.58   18.93
   8   9  -6  211.61   32.64
   8   9  -6  165.16   41.15
  -8  -9   6  208.74   52.44
  -8  -9   6  190.69   45.89
   8   9  -5   -0.94    9.84
  -8  -9   5    4.24    8.05
  -8  -9   5   -1.91   11.10
   8   9  -4    7.26    7.73
   8   9  -4    1.03   16.96
  -8  -9   4   -1.37    8.00
  -8  -9   4   -2.11   20.23
  -9  16  -1   98.04   34.60
  -9  16  -1  103.72   35.09
  -9  16  -2   12.22   14.44
  -9  16  -2    0.87   15.63
  -9  16  -3   29.99   20.14
  -9  16  -3   23.68   21.66
  -9  16  -4  126.90   31.93
  -9  16  -4  106.97   52.24
  -9  16  -5  110.66   30.78
  -9  16  -5  126.23   32.36
  -9  16  -6   26.00   19.99
  -9  16  -6   39.43   19.62
  -9  15   2    3.99   14.79
  -9  15   2    6.63   15.76
  -9  15   1  134.11   38.32
  -9  15   1  144.11   39.76
  -9  15   0   11.42   18.83
  -9  15   0   25.90   18.68
  -9  15  -1   23.25   18.25
  -9  15  -1   16.62   18.83
  -9  15  -2   44.67   22.74
  -9  15  -2   47.37   23.52
  -9  15  -3   83.21   26.68
  -9  15  -3   84.48   27.21
  -9  15  -4   20.16   15.85
  -9  15  -4   22.96   16.38
  -9  15  -5   35.32   16.87
  -9  15  -5   23.15   17.56
  -9  15  -6   16.55   13.03
  -9  15  -6   -4.16    8.34
   9 -15   7   89.75   16.74
   9 -15   7  123.81   15.90
  -9  15  -7   88.88   39.25
  -9  15  -7   82.54   26.18
   9 -15   8   90.38   15.95
   9 -15   8   -0.22   26.31
  -9  15  -8   95.41   33.82
  -9  15  -8   72.18   22.20
  -9  14   4   15.87   29.40
  -9  14   4   11.49   19.05
  -9  14   3   13.71   15.01
  -9  14   3   -0.08   15.45
  -9  14   2   11.17   12.61
  -9  14   2   -3.25   12.95
  -9  14   1   78.09   40.62
  -9  14   1   57.43   26.75
  -9  14   0   67.81   24.58
  -9  14   0   64.46   25.11
  -9  14  -1  151.43   46.90
  -9  14  -1  120.09   31.00
  -9  14  -2  441.07   52.22
  -9  14  -2  431.36   53.78
  -9  14  -3  132.61   30.32
  -9  14  -3  158.98   30.74
  -9  14  -4  108.06   24.59
  -9  14  -4  115.70   39.79
   9 -14   5  177.07   16.09
   9 -14   5  160.80   16.32
  -9  14  -5  142.74   29.04
  -9  14  -5  152.40   42.63
   9 -14   6   37.92   10.10
   9 -14   6   -0.80   10.76
  -9  14  -6   67.80   15.49
  -9  14  -6   53.25   15.77
   9 -14   7  206.86   23.93
   9 -14   7  179.22   24.57
  -9  14  -7  190.32   29.37
  -9  14  -7  185.84   29.77
   9 -14   8   13.92    8.39
   9 -14   8   -0.94    9.22
  -9  14  -8    6.75   14.78
  -9  14  -8    5.98    9.51
   9 -14   9   30.92   11.75
   9 -14   9    0.48   12.86
  -9  14  -9   -0.73   11.17
  -9  14  -9   30.22   11.72
   9 -14  10  126.03   26.21
   9 -14  10  119.17   28.02
  -9  14 -10   95.93   21.24
  -9  14 -10  127.87   21.75
  -9  13   6   16.58   30.88
  -9  13   6   10.94   20.19
  -9  13   5   48.29   29.27
  -9  13   5   59.25   28.71
  -9  13   4  100.22   33.27
  -9  13   4  100.02   32.88
  -9  13   3   21.16   19.00
  -9  13   3   20.27   18.33
  -9  13   2  159.85   52.56
  -9  13   2  128.39   33.99
  -9  13   1  367.99   46.77
  -9  13   1  325.34   47.72
  -9  13   0   59.66   33.15
  -9  13   0   53.28   21.36
  -9  13  -1  264.86   36.99
  -9  13  -1  250.15   37.25
  -9  13  -2   -3.15    8.85
  -9  13  -2   -5.42   14.68
   9 -13   3   51.01    6.69
  -9  13  -3   63.55   28.40
  -9  13  -3   88.37   18.92
   9 -13   4  145.15   14.55
   9 -13   4  148.41   13.55
  -9  13  -4  169.04   26.20
  -9  13  -4  140.82   25.76
   9 -13   5   56.41    9.41
   9 -13   5   -0.44   16.33
  -9  13  -5   40.13   14.84
  -9  13  -5   42.22   15.57
   9 -13   6   -0.07   20.01
   9 -13   6   53.14   18.29
  -9  13  -6   56.91   14.93
  -9  13  -6   65.93   15.73
   9 -13   7  129.19   23.25
   9 -13   7  150.68   31.98
  -9  13  -7  142.06   33.86
  -9  13  -7  180.23   34.47
   9 -13   8   -3.72   13.39
   9 -13   8    0.21    9.25
  -9  13  -8    6.69    7.83
  -9  13  -8   11.49    7.78
   9 -13   9  270.04   49.31
   9 -13   9  229.59   34.94
  -9  13  -9  202.96   25.83
  -9  13  -9  182.87   25.82
   9 -13  10   54.07   22.46
   9 -13  10    2.95   23.99
  -9  13 -10   74.86   14.86
  -9  13 -10   80.78   15.08
  -9  12   7   -1.52    7.28
  -9  12   7    4.15   11.84
  -9  12   6   54.88   27.22
  -9  12   6   51.57   28.56
  -9  12   5   61.41   30.58
  -9  12   5   83.39   29.71
  -9  12   4   64.73   28.96
  -9  12   4   90.72   27.70
  -9  12   3  175.93   37.29
  -9  12   3  187.29   35.26
  -9  12   2  208.57   37.54
  -9  12   2  201.34   35.89
  -9  12   1   41.22   20.67
  -9  12   1   68.54   20.80
  -9  12   0  181.98   29.95
  -9  12   0  171.63   30.79
   9 -12   1   39.92    5.50
   9 -12   1   45.32    4.22
  -9  12  -1   47.12   26.02
  -9  12  -1   45.51   16.84
   9 -12   2   49.59    6.57
  -9  12  -2   75.64   17.28
  -9  12  -2   72.65   17.26
   9 -12   3  232.21   22.48
   9 -12   3  217.89   17.54
  -9  12  -3  218.85   29.19
  -9  12  -3  201.74   29.46
   9 -12   4  256.27   19.92
   9 -12   4  244.61   21.99
  -9  12  -4  251.99   29.93
  -9  12  -4  242.67   30.05
   9 -12   5  222.02   20.74
   9 -12   5  209.42   23.21
  -9  12  -5  222.35   26.08
  -9  12  -5  203.46   38.70
   9 -12   6  259.56   27.93
   9 -12   6  250.84   24.10
  -9  12  -6  218.63   24.97
  -9  12  -6  202.86   25.72
   9 -12   7   26.65   13.07
   9 -12   7   25.45   11.33
  -9  12  -7   23.64   10.30
  -9  12  -7   31.51   10.62
   9 -12   8  407.22   39.87
   9 -12   8  368.20   43.22
  -9  12  -8  390.39   32.78
  -9  12  -8  357.35   44.57
   9 -12   9  143.25   36.82
   9 -12   9  115.67   25.93
  -9  12  -9  113.38   22.90
  -9  12  -9   75.78   15.41
   9 -12  10   42.07   16.72
   9 -12  10   -0.14   17.64
  -9  12 -10   24.46    9.14
  -9  12 -10   25.35    9.06
   9 -12  11  213.13   41.12
   9 -12  11  257.47   66.67
  -9  11   8    0.81   18.90
  -9  11   8   28.99   20.23
  -9  11   7   78.21   44.78
  -9  11   7   49.94   29.79
  -9  11   6   46.18   24.63
  -9  11   6   48.18   26.55
  -9  11   5   73.88   26.64
  -9  11   5   65.54   25.85
  -9  11   4   56.16   25.02
  -9  11   4   62.91   23.40
  -9  11   3   62.53   20.22
  -9  11   3   29.13   19.30
  -9  11   2  274.74   41.00
  -9  11   2  300.81   38.34
   9 -11  -1  433.00   13.39
   9 -11  -1  427.84   12.63
  -9  11   1  484.43   46.66
  -9  11   1  464.88   45.99
   9 -11   0  279.86   12.80
   9 -11   0  279.15   13.11
  -9  11   0  278.41   34.48
  -9  11   0  271.86   34.95
   9 -11   1   89.68   11.48
  -9  11  -1   78.41   18.68
  -9  11  -1   88.48   29.92
   9 -11   2  678.47   34.71
   9 -11   2  608.29   34.88
  -9  11  -2  527.68   47.13
  -9  11  -2  539.48   47.75
   9 -11   3  174.79   23.82
   9 -11   3  169.95   15.82
  -9  11  -3  172.97   22.21
  -9  11  -3  151.68   22.08
   9 -11   4   21.62    8.18
   9 -11   4   19.90    8.96
  -9  11  -4   31.26   10.60
  -9  11  -4   24.15   10.42
   9 -11   5  139.98   26.70
   9 -11   5  132.69   20.99
  -9  11  -5  176.37   20.17
  -9  11  -5  169.81   20.78
   9 -11   6  187.04   24.79
   9 -11   6  168.04   20.95
  -9  11  -6  147.90   27.66
  -9  11  -6  170.85   29.12
   9 -11   7  131.51   25.67
   9 -11   7  117.78   21.47
  -9  11  -7  176.80   17.39
  -9  11  -7  168.57   18.49
   9 -11   8    9.58    8.90
   9 -11   8    7.40   10.20
  -9  11  -8    2.06    8.85
  -9  11  -8    6.81    5.73
   9 -11   9   48.97   29.70
   9 -11   9   66.72   21.68
  -9  11  -9   51.12   10.32
  -9  11  -9   58.00   10.46
   9 -11  10  204.17   32.93
   9 -11  10  182.52   35.84
  -9  11 -10  144.92   15.00
  -9  11 -10  132.61   14.23
   9 -11  11  174.83   36.83
   9 -11  11  134.82   39.08
  -9  10   9   73.06   30.68
  -9  10   9   70.85   33.33
  -9  10   8   -2.42    9.57
  -9  10   8    5.06   10.41
  -9  10   7  143.83   36.27
  -9  10   7  181.03   39.61
  -9  10   6   36.59   20.86
  -9  10   6   35.81   22.24
  -9  10   5   25.04   17.14
  -9  10   5   26.32   17.84
  -9  10   4  477.44   76.58
  -9  10   4  441.22   51.86
   9 -10  -3    2.38    1.17
  -9  10   3    7.67    8.61
  -9  10   3    5.21    8.25
  -9  10   2  135.03   26.44
  -9  10   2  130.19   24.36
   9 -10  -1   93.18    6.88
  -9  10   1  143.86   22.08
  -9  10   1  150.72   21.47
   9 -10   0  402.45   20.89
  -9  10   0  339.25   51.33
  -9  10   0  345.91   36.39
   9 -10   1  299.87   19.45
   9 -10   1  289.34   25.95
  -9  10  -1  258.99   29.88
  -9  10  -1  297.71   30.59
   9 -10   2  304.52   21.75
   9 -10   2  282.83   30.10
  -9  10  -2  270.85   27.80
  -9  10  -2  302.58   40.77
   9 -10   3   79.58   12.29
   9 -10   3   90.86   17.17
  -9  10  -3   47.94   13.32
  -9  10  -3   56.38   13.24
   9 -10   4  357.78   29.25
   9 -10   4  349.43   31.35
  -9  10  -4  374.31   29.91
  -9  10  -4  365.06   29.30
   9 -10   5   83.64   16.94
   9 -10   5  112.09   19.28
  -9  10  -5  124.67   14.89
  -9  10  -5  126.72   22.40
   9 -10   6   50.40   15.34
   9 -10   6   36.15   20.99
  -9  10  -6   53.50    9.74
  -9  10  -6   44.69   10.11
   9 -10   7   44.16   14.23
   9 -10   7   56.77   13.23
  -9  10  -7    9.53   11.23
  -9  10  -7   21.78    7.78
   9 -10   8   11.34   12.77
   9 -10   8   31.78   22.72
  -9  10  -8   18.88    9.86
  -9  10  -8   19.91    6.54
   9 -10   9  448.40   46.05
   9 -10   9  465.00   52.57
  -9  10  -9  379.94   30.24
  -9  10  -9  341.28   23.10
   9 -10  10    1.18    6.75
   9 -10  10   -0.65    7.62
   9 -10  11   -7.76   17.38
   9 -10  11   -0.48   12.42
   9  -9 -10    2.04   18.57
  -9   9  10   32.56   18.74
   9  -9  -9    2.41   23.50
  -9   9   9   78.43   23.58
   9  -9  -8    0.95    8.48
  -9   9   8    0.49    8.73
   9  -9  -7  281.18   16.70
   9  -9  -7  301.10   44.05
  -9   9   7  350.80   46.23
  -9   9   7  307.49   14.89
   9  -9  -6  132.50   10.18
   9  -9  -6  149.81   28.59
  -9   9   6  143.47   29.37
  -9   9   6  130.05    7.72
   9  -9  -5  224.07   10.16
   9  -9  -5  234.57   31.63
  -9   9   5  163.74   31.40
  -9   9   5  146.58   12.11
   9  -9  -4   48.45    6.87
   9  -9  -4   57.82    5.25
  -9   9   4   59.73   18.37
  -9   9   4   75.19   20.03
   9  -9  -3   74.55    6.52
  -9   9   3   71.24   20.62
  -9   9   3   69.74   18.91
   9  -9  -2   14.48    4.00
  -9   9   2   14.82   16.83
  -9   9   2   12.44   10.13
   9  -9  -1  435.67   23.65
   9  -9  -1  431.69   23.47
  -9   9   1  471.67   41.39
  -9   9   1  445.70   38.11
   9  -9   0  983.18   51.07
   9  -9   0  982.98   51.74
  -9   9   0 1128.72   73.32
  -9   9   0 1043.81   68.13
   9  -9   1   68.35   10.63
   9  -9   1   81.77   10.99
  -9   9  -1   97.95   15.03
  -9   9  -1   82.17   14.36
   9  -9   2  204.37   19.21
   9  -9   2  210.31   25.68
  -9   9  -2  188.60   20.43
  -9   9  -2  191.02   20.84
   9  -9   3 1064.76   66.77
   9  -9   3 1127.31   65.18
  -9   9  -3 1016.67   60.69
  -9   9  -3  972.92   60.41
   9  -9   4  307.70   39.56
   9  -9   4  288.51   29.75
  -9   9  -4  322.68   32.32
  -9   9  -4  293.70   23.32
   9  -9   5  306.16   29.37
   9  -9   5  263.48   30.83
  -9   9  -5  257.64   19.67
  -9   9  -5  256.66   19.89
   9  -9   6  509.69   59.79
   9  -9   6  545.00   55.53
  -9   9  -6  375.12   24.16
  -9   9  -6  369.29   23.73
   9  -9   7  629.22   60.04
   9  -9   7  627.53   53.45
  -9   9  -7  613.58   39.09
  -9   9  -7  617.56   33.11
   9  -9   8   43.69   24.33
   9  -9   8   62.44   33.50
  -9   9  -8   95.07    8.98
   9  -9   9   95.87   20.96
   9  -9   9    1.31   24.55
   9  -9  10   13.00   12.85
   9  -9  10    0.56   14.65
   9  -9  11  139.12   29.42
   9  -9  11    0.02   34.17
   9  -9  12  107.90   30.19
   9  -9  12    1.37   33.17
   9  -8 -11   -0.10   16.00
  -9   8  11   17.61   16.02
   9  -8 -10  174.56   40.07
  -9   8  10  172.88   38.09
   9  -8  -9   65.41    8.71
   9  -8  -9    0.14   26.22
  -9   8   9  123.07   26.67
  -9   8   9   98.22   13.90
   9  -8  -8   25.11    6.49
   9  -8  -8   37.87   16.38
  -9   8   8    1.72   16.09
  -9   8   8   13.64    8.48
   9  -8  -7   83.02   22.61
  -9   8   7   52.02   22.64
  -9   8   7   67.91   11.81
   9  -8  -6  469.80   49.59
  -9   8   6  508.37   51.20
  -9   8   6  488.48   26.57
   9  -8  -5   16.63    3.39
   9  -8  -5   24.96   12.73
  -9   8   5   20.86   12.65
  -9   8   5   16.82    4.83
   9  -8  -4  351.20   34.62
   9  -8  -4  340.94   23.30
  -9   8   4  263.04   33.28
  -9   8   4  269.10   17.27
   9  -8  -3  349.66   19.78
   9  -8  -3  362.70   34.63
  -9   8   3  322.02   33.47
  -9   8   3  337.82   26.00
   9  -8  -2   28.72   10.15
   9  -8  -2   39.03    7.07
  -9   8   2   39.92   12.01
  -9   8   2   38.95   13.25
   9  -8  -1  303.21   20.20
   9  -8  -1  295.81   20.19
  -9   8   1  325.75   30.90
  -9   8   1  341.49   28.67
   9  -8   0  276.39   20.52
   9  -8   0  276.97   20.79
  -9   8   0  284.69   26.22
  -9   8   0  266.46   24.35
   9  -8   1   33.37   14.28
   9  -8   1   26.89   13.90
  -9   8  -1   40.69   10.25
  -9   8  -1   40.03   14.41
   9  -8   2  849.43   55.12
   9  -8   2  855.03   54.01
  -9   8  -2  989.58   55.10
  -9   8  -2  905.24   51.76
   9  -8   3   10.51    8.45
   9  -8   3    4.95    8.11
  -9   8  -3   14.82    5.97
  -9   8  -3   16.41    5.64
   9  -8   4  293.27   36.22
   9  -8   4  292.38   27.97
  -9   8  -4  197.97   22.78
  -9   8  -4  186.45   15.21
   9  -8   5  142.47   23.59
   9  -8   5  161.18   25.90
  -9   8  -5  178.91   13.16
  -9   8  -5  172.25   12.79
   9  -8   6   93.01   20.61
   9  -8   6  107.50   21.48
  -9   8  -6   95.06    8.47
  -9   8  -6   89.37    8.11
   9  -8   7  316.46   39.42
   9  -8   7  307.38   36.25
  -9   8  -7  244.93   13.08
   9  -8   8  189.07   35.39
   9  -8   8  192.11   31.38
   9  -8   9    1.64   19.08
   9  -8   9   44.35   16.83
   9  -8  10    3.35   57.29
   9  -8  10  172.73   33.29
   9  -8  11   63.18   26.04
   9  -8  11    1.61   44.38
   9  -8  12   51.55   26.57
   9  -8  12    1.64   45.77
   9  -7 -12   -3.32   13.50
  -9   7  12   23.07   20.91
   9  -7 -11    3.12    5.28
   9  -7 -11   -2.97   13.07
  -9   7  11   -1.83   13.45
  -9   7  11   10.22    5.41
   9  -7 -10   36.30    8.21
   9  -7 -10    2.79   19.49
  -9   7  10   33.32   19.06
  -9   7  10   19.69    8.26
   9  -7  -9   59.91   10.01
   9  -7  -9   68.26   23.16
  -9   7   9    0.57   23.07
  -9   7   9   84.05   15.69
   9  -7  -8   18.62    6.20
   9  -7  -8   22.07   14.71
  -9   7   8   15.59   14.53
  -9   7   8   18.11    6.50
   9  -7  -7   62.50    9.52
   9  -7  -7   50.86   20.56
  -9   7   7  101.12   22.17
  -9   7   7   99.07   10.77
   9  -7  -6  357.00   21.68
   9  -7  -6  356.98   38.56
  -9   7   6  368.20   39.58
  -9   7   6  343.22   22.81
   9  -7  -5  178.17   26.70
   9  -7  -5  187.94   14.50
  -9   7   5  219.37   40.71
  -9   7   5  214.72   22.36
   9  -7  -4  854.42   43.25
   9  -7  -4  808.94   59.60
  -9   7   4  759.08   56.26
  -9   7   4  741.61   42.09
   9  -7  -3   32.94   11.22
   9  -7  -3   33.48   12.71
  -9   7   3   31.57   11.97
  -9   7   3   44.69    7.68
   9  -7  -2  502.74   37.91
   9  -7  -2  514.41   37.26
  -9   7   2  455.48   48.77
  -9   7   2  487.38   30.44
   9  -7  -1    9.43    7.17
   9  -7  -1    9.38    5.76
  -9   7   1    0.99    5.63
  -9   7   1    3.42    4.74
   9  -7   0   80.41   11.66
   9  -7   0   75.19   11.19
  -9   7   0   51.19   10.62
  -9   7   0   56.06   11.92
   9  -7   1  607.54   39.19
   9  -7   1  650.94   39.27
  -9   7  -1  436.17   29.19
  -9   7  -1  461.27   32.33
   9  -7   2   89.57   14.66
   9  -7   2   89.48   14.18
  -9   7  -2   68.08   14.55
  -9   7  -2   71.91   10.32
   9  -7   3   76.24   16.22
   9  -7   3   86.63   15.36
  -9   7  -3   72.58   12.96
  -9   7  -3   83.91   13.77
   9  -7   4  368.80   33.06
   9  -7   4  384.35   34.53
  -9   7  -4  271.15   21.93
  -9   7  -4  283.36   17.25
   9  -7   5  473.29   65.24
   9  -7   5  458.83   43.61
  -9   7  -5  517.75   28.77
   9  -7   6  147.22   22.27
   9  -7   6  161.36   25.11
  -9   7  -6   85.26    8.13
   9  -7   7  171.14   43.87
   9  -7   7  170.88   48.09
  -9   7  -7  163.88    6.65
  -9   7  -7  146.56    5.18
   9  -7   8  160.17   35.27
   9  -7   8  159.07   31.47
   9  -7   9   -0.97   31.21
   9  -7   9  161.84   27.58
   9  -7  10    2.74   24.95
   9  -7  10   63.52   22.43
   9  -7  11   -0.39   13.28
   9  -7  11    4.86   11.96
   9  -6 -12   13.73   13.58
   9  -6 -12    1.08   28.80
  -9   6  12   18.61    9.03
  -9   6  12   15.68   17.27
   9  -6 -11   35.60   10.27
   9  -6 -11    3.90   21.21
  -9   6  11   22.17   16.05
  -9   6  11   70.39   20.14
   9  -6 -10   39.47    9.67
   9  -6 -10   -5.57   19.04
  -9   6  10   -1.28   18.82
  -9   6  10   37.08    9.75
   9  -6  -9   49.09   10.19
   9  -6  -9   60.31   19.36
  -9   6   9   -0.35   19.46
  -9   6   9   47.49   10.58
   9  -6  -8  308.29   32.75
   9  -6  -8  327.71   40.82
  -9   6   8  369.48   57.60
  -9   6   8  325.05   35.33
   9  -6  -7   27.84    7.61
   9  -6  -7   39.19   14.12
  -9   6   7   22.50   13.69
  -9   6   7   21.07   12.35
   9  -6  -6   56.45    8.65
   9  -6  -6   42.09   15.45
  -9   6   6   23.68   14.19
  -9   6   6   30.87   13.27
   9  -6  -5  493.66   39.53
   9  -6  -5  442.09   41.27
  -9   6   5  563.29   43.28
  -9   6   5  545.00   33.59
   9  -6  -4  189.43   24.44
   9  -6  -4  173.15   23.46
  -9   6   4  202.48   22.98
  -9   6   4  225.33   18.45
   9  -6  -3  314.97   23.29
   9  -6  -3  341.84   29.22
  -9   6   3  377.85   29.62
  -9   6   3  376.29   26.08
   9  -6  -2  751.92   44.59
   9  -6  -2  768.14   48.66
  -9   6   2  757.82   46.75
  -9   6   2  796.81   46.28
   9  -6  -1  289.51   23.85
   9  -6  -1  314.95   24.66
  -9   6   1  300.55   32.52
  -9   6   1  346.34   25.89
   9  -6   0  527.84   31.06
   9  -6   0  543.49   47.60
  -9   6   0  459.05   28.10
  -9   6   0  414.82   33.05
   9  -6   1  281.19   25.72
   9  -6   1  309.37   26.02
  -9   6  -1  212.09   16.55
  -9   6  -1  242.46   18.43
   9  -6   2   -0.10    8.20
   9  -6   2    8.29    7.86
  -9   6  -2   16.13    6.42
  -9   6  -2   10.22    4.47
   9  -6   3  202.67   27.51
   9  -6   3  196.94   26.57
  -9   6  -3  236.29   13.40
  -9   6  -3  263.90   19.18
   9  -6   4  169.90   24.65
   9  -6   4  174.16   27.04
   9  -6   5  192.64   28.87
   9  -6   5  195.08   30.43
  -9   6  -5  197.53    7.87
  -9   6  -5  202.44   10.52
   9  -6   6  136.23   28.05
   9  -6   6  115.85   25.92
   9  -6   7   98.59   25.52
   9  -6   7  118.65   28.53
   9  -6   8  126.79   29.12
   9  -6   8   99.10   32.69
   9  -6   9  250.44   47.46
   9  -6   9  225.15   43.25
   9  -6  10    0.35   30.12
   9  -6  10   96.22   26.61
   9  -6  11    2.93   20.89
   9  -6  11   20.93   18.46
   9  -5 -13    7.82    9.56
   9  -5 -13    0.92   17.63
  -9   5  13   24.79   15.08
  -9   5  13   19.30   16.52
   9  -5 -12   21.75    7.32
   9  -5 -12   -1.65   20.96
  -9   5  12   -8.94    7.31
  -9   5  12    1.46   12.76
   9  -5 -11  280.86   28.83
   9  -5 -11  271.04   44.20
  -9   5  11  315.47   29.66
  -9   5  11  311.83   44.16
   9  -5 -10    5.98    6.44
   9  -5 -10    3.48   11.07
  -9   5  10   -0.55   10.36
  -9   5  10    7.90    6.66
   9  -5  -9  248.54   32.35
   9  -5  -9  209.93   34.17
  -9   5   9  211.76   49.23
  -9   5   9  221.01   23.56
   9  -5  -8   65.74   11.96
   9  -5  -8   55.96   19.12
  -9   5   8   69.93   19.34
  -9   5   8   72.26   12.63
   9  -5  -7  204.40   27.36
   9  -5  -7  204.68   18.61
  -9   5   7  198.18   27.75
  -9   5   7  214.76   20.54
   9  -5  -6  548.12   33.34
   9  -5  -6  532.41   42.84
  -9   5   6  414.37   38.71
  -9   5   6  434.52   33.22
   9  -5  -5  145.97   15.73
   9  -5  -5  143.55   19.16
  -9   5   5  111.73   18.74
  -9   5   5  126.51   15.78
   9  -5  -4  526.14   34.18
   9  -5  -4  513.89   38.89
  -9   5   4  488.67   36.25
  -9   5   4  494.88   34.69
   9  -5  -3  184.99   17.78
   9  -5  -3  178.28   19.39
  -9   5   3  165.89   17.70
  -9   5   3  179.85   18.57
   9  -5  -2   10.74    7.64
   9  -5  -2   10.06   11.69
  -9   5   2   28.26    6.98
  -9   5   2   28.00   13.05
   9  -5  -1 1839.04   97.34
   9  -5  -1 1910.11  109.19
  -9   5   1 1734.28   91.22
  -9   5   1 1889.74  124.80
   9  -5   0  388.99   44.96
   9  -5   0  381.36   23.69
  -9   5   0  361.04   21.65
  -9   5   0  403.94   31.44
   9  -5   1  236.27   26.12
   9  -5   1  241.88   26.29
  -9   5  -1  220.55   14.23
  -9   5  -1  244.28   16.32
   9  -5   2  558.81   44.06
   9  -5   2  549.80   58.48
  -9   5  -2  507.88   23.46
  -9   5  -2  498.27   24.97
   9  -5   3  669.29   54.16
   9  -5   3  686.74   70.04
  -9   5  -3  608.32   29.84
   9  -5   4  231.47   34.11
   9  -5   4  242.47   32.85
  -9   5  -4  300.61   10.23
  -9   5  -4  294.73   10.42
   9  -5   5  118.51   23.89
   9  -5   5  118.10   26.09
   9  -5   6   28.50   13.64
   9  -5   6    3.98   15.42
   9  -5   7  620.21   90.51
   9  -5   7  721.48   74.49
   9  -5   8  245.08   40.84
   9  -5   8  230.43   46.03
   9  -5   9   62.99   22.42
   9  -5   9    0.05   25.29
   9  -5  10   65.56   34.70
   9  -5  10    2.02   24.84
   9  -5  11   36.73   21.95
   9  -5  11    1.53   25.57
   9  -4 -13   23.79   14.06
   9  -4 -13    3.39   22.39
  -9   4  13   48.83   14.56
  -9   4  13   53.81   22.15
   9  -4 -12   30.17   11.98
   9  -4 -12    0.98   19.13
  -9   4  12   31.80   19.42
  -9   4  12   29.57   18.45
   9  -4 -11   41.58   11.63
   9  -4 -11   31.25   28.36
  -9   4  11   23.89   12.12
  -9   4  11   -2.00   17.87
   9  -4 -10  173.63   21.69
   9  -4 -10  162.66   30.64
  -9   4  10  151.55   32.82
  -9   4  10  163.75   30.69
   9  -4  -9  144.41   17.93
   9  -4  -9  124.37   26.04
  -9   4   9  102.35   23.97
  -9   4   9  100.62   18.41
   9  -4  -8  171.95   19.03
   9  -4  -8  160.42   26.06
  -9   4   8  134.52   23.99
  -9   4   8  137.71   19.35
   9  -4  -7  469.24   34.05
   9  -4  -7  447.74   41.38
  -9   4   7  430.17   38.99
  -9   4   7  432.48   34.68
   9  -4  -6  214.84   21.26
   9  -4  -6  197.09   25.06
  -9   4   6  213.76   23.81
  -9   4   6  211.78   22.16
   9  -4  -5  250.77   23.79
   9  -4  -5  222.94   25.95
  -9   4   5  321.78   36.88
  -9   4   5  342.90   26.66
   9  -4  -4  594.03   39.64
   9  -4  -4  579.19   52.84
  -9   4   4  590.51   50.65
  -9   4   4  569.99   40.57
   9  -4  -3  232.99   30.76
   9  -4  -3  226.76   20.15
  -9   4   3  210.98   27.92
  -9   4   3  213.58   22.69
   9  -4  -2  219.65   23.56
   9  -4  -2  234.98   19.69
  -9   4   2  282.93   19.49
  -9   4   2  314.46   26.34
   9  -4  -1  566.06   32.32
   9  -4  -1  577.94   42.36
  -9   4   1  579.22   31.03
  -9   4   1  604.08   43.41
   9  -4   0  476.95   51.48
   9  -4   0  465.46   24.33
  -9   4   0  389.69   21.70
  -9   4   0  413.16   35.51
   9  -4   1  630.53   50.91
   9  -4   1  630.53   30.41
  -9   4  -1  683.60   30.70
  -9   4  -1  701.76   50.95
   9  -4   2  412.38   55.00
   9  -4   2  418.01   38.97
  -9   4  -2  373.35   17.64
   9  -4   3  329.87   35.02
   9  -4   3  340.08   33.51
  -9   4  -3  256.70   11.43
  -9   4  -3  259.86    9.85
   9  -4   4  115.22   26.17
   9  -4   4  145.41   25.16
   9  -4   5  614.72   82.48
   9  -4   5  543.64   53.54
   9  -4   6   49.00   19.08
   9  -4   6   38.16   21.48
   9  -4   7   93.98   25.81
   9  -4   7   70.49   30.15
   9  -4   8  131.72   29.85
   9  -4   8   -0.16   53.35
   9  -4   9  200.86   64.09
   9  -4   9  191.12   48.39
   9  -4  10   94.40   29.45
   9  -4  10    0.48   33.02
   9  -4  11    9.30   15.92
   9  -4  11    0.61   18.05
   9  -3 -14   -1.33    6.43
   9  -3 -14    0.76    9.61
  -9   3  14    0.61    6.40
  -9   3  14   12.54   14.60
   9  -3 -13   55.85   21.53
   9  -3 -13   86.74   30.23
  -9   3  13  113.98   22.27
  -9   3  13  126.78   29.13
   9  -3 -12   12.34   12.44
   9  -3 -12   27.90   17.37
  -9   3  12   19.31   19.73
  -9   3  12   31.15   17.27
   9  -3 -11  204.06   26.11
   9  -3 -11  229.37   51.94
  -9   3  11  155.10   26.14
  -9   3  11  167.76   33.07
   9  -3 -10   77.91   15.40
   9  -3 -10   80.67   20.45
  -9   3  10   49.91   16.13
  -9   3  10   45.09   33.37
   9  -3  -9  281.83   41.85
   9  -3  -9  260.25   35.56
  -9   3   9  321.51   35.79
  -9   3   9  310.45   31.48
   9  -3  -8  303.53   28.82
   9  -3  -8  268.93   32.95
  -9   3   8  325.69   33.80
  -9   3   8  306.51   30.98
   9  -3  -7   54.61   12.33
   9  -3  -7   47.45   13.67
  -9   3   7   40.96   13.61
  -9   3   7   34.52   20.36
   9  -3  -6  849.75   68.39
   9  -3  -6  781.67   53.11
  -9   3   6  719.59   50.42
  -9   3   6  712.87   51.56
   9  -3  -5  187.31   22.51
   9  -3  -5  179.40   22.39
  -9   3   5  278.95   23.62
  -9   3   5  298.57   25.94
   9  -3  -4   78.01   15.23
   9  -3  -4   85.04   13.57
  -9   3   4   98.24   15.91
  -9   3   4   96.69   13.46
   9  -3  -3  492.93   37.89
   9  -3  -3  502.68   43.40
  -9   3   3  518.86   31.71
  -9   3   3  497.00   52.55
   9  -3  -2   54.98   13.37
   9  -3  -2   55.11    9.21
  -9   3   2   60.55    8.93
  -9   3   2   53.76   21.75
   9  -3  -1  109.95   11.28
   9  -3  -1  126.36   19.27
  -9   3   1  142.62   11.57
  -9   3   1  150.18   20.37
   9  -3   0  754.77   54.42
   9  -3   0  774.16   36.38
  -9   3   0  692.43   33.14
  -9   3   0  702.96   53.64
   9  -3   1  342.44   33.70
   9  -3   1  302.83   18.73
  -9   3  -1  274.54   13.44
  -9   3  -1  267.44   31.13
   9  -3   2    3.58   12.46
   9  -3   2   12.66   12.44
  -9   3  -2   17.41    2.59
  -9   3  -2   20.18    2.85
   9  -3   3  483.72   48.95
   9  -3   3  474.29   47.96
   9  -3   4  295.16   41.02
   9  -3   4  311.64   57.06
   9  -3   5  177.28   33.49
   9  -3   5  156.25   31.93
   9  -3   6  227.83   60.40
   9  -3   6  190.18   35.90
   9  -3   7  144.68   33.33
   9  -3   7  136.59   37.81
   9  -3   8   28.52   17.56
   9  -3   8   -0.48   20.19
   9  -3   9    3.54   12.31
   9  -3   9    2.05   14.24
   9  -3  10   52.22   25.09
   9  -3  10    1.40   28.34
   9  -2 -14    3.64   14.42
   9  -2 -14   22.33   29.53
  -9   2  14   20.36   14.35
  -9   2  14   35.71   18.76
   9  -2 -13  -11.69    8.07
   9  -2 -13    7.39   10.49
  -9   2  13    7.77    8.14
  -9   2  13   11.27   10.22
   9  -2 -12  281.88   33.82
   9  -2 -12  248.50   40.83
  -9   2  12  235.63   50.24
  -9   2  12  216.28   39.66
   9  -2 -11  138.29   23.32
   9  -2 -11  101.23   27.70
  -9   2  11  119.19   23.59
  -9   2  11  151.48   44.13
   9  -2 -10   25.37   13.72
   9  -2 -10   20.48   11.33
  -9   2  10   15.19   11.73
  -9   2  10   18.82   13.49
   9  -2  -9  214.68   29.83
   9  -2  -9  237.37   26.78
  -9   2   9  215.06   29.39
  -9   2   9  195.02   28.43
   9  -2  -8   18.65   11.92
   9  -2  -8   22.10   17.23
  -9   2   8   23.03   11.90
  -9   2   8   23.24   11.64
   9  -2  -7  130.58   22.33
   9  -2  -7  143.86   22.31
  -9   2   7  197.58   23.22
  -9   2   7  226.42   35.66
   9  -2  -6 1484.05   89.68
   9  -2  -6 1520.13   94.21
  -9   2   6 1396.85   86.41
  -9   2   6 1373.18   92.54
   9  -2  -5  302.75   26.40
   9  -2  -5  292.70   28.66
  -9   2   5  280.03   24.83
  -9   2   5  271.00   30.22
   9  -2  -4  115.73   15.47
   9  -2  -4  112.03   19.79
  -9   2   4  178.35   21.31
  -9   2   4  179.89   23.96
   9  -2  -3  541.21   33.02
   9  -2  -3  548.63   42.41
  -9   2   3  535.41   32.35
  -9   2   3  512.00   42.67
   9  -2  -2  644.39   47.16
   9  -2  -2  624.07   34.29
  -9   2   2  597.84   33.01
  -9   2   2  631.74   49.61
   9  -2  -1  484.90   26.19
   9  -2  -1  498.14   42.94
  -9   2   1  538.53   43.67
  -9   2   1  510.45   26.58
   9  -2   0  121.49   20.87
   9  -2   0  117.97    8.91
  -9   2   0   84.95   12.05
  -9   2   0  100.34   20.13
   9  -2   1  118.27   21.49
   9  -2   1   94.44    6.87
  -9   2  -1   57.56   19.97
   9  -2   2  360.40   44.29
   9  -2   2  348.31   13.18
  -9   2  -2  501.43   44.06
  -9   2  -2  447.17   15.21
   9  -2   3  720.41   65.92
   9  -2   3  753.99   68.44
   9  -2   4   -0.05    9.39
   9  -2   4    4.83    8.78
   9  -2   5   32.75   17.80
   9  -2   5   11.63   17.25
   9  -2   6  131.34   34.81
   9  -2   6  114.98   30.98
   9  -2   7   55.76   21.10
   9  -2   7   -2.23   19.10
   9  -2   8   -0.90    8.93
   9  -2   8    0.23   15.98
   9  -2   9   -0.59    9.82
   9  -2   9    2.26   11.22
   9  -2  10   10.31   16.76
   9  -2  10    1.47   19.66
   9  -1 -14   -1.41    9.99
   9  -1 -14   -1.96   11.92
  -9   1  14   -6.78    9.92
  -9   1  14   -2.23   12.00
   9  -1 -13   76.93   24.28
   9  -1 -13    2.17   21.21
  -9   1  13   75.72   21.68
  -9   1  13  111.80   25.19
   9  -1 -12  208.25   38.06
   9  -1 -12  247.09   33.35
  -9   1  12  210.76   50.80
  -9   1  12  235.87   57.49
   9  -1 -11  170.65   32.71
   9  -1 -11  179.66   29.45
  -9   1  11  202.66   30.36
  -9   1  11  208.60   32.39
   9  -1 -10  170.15   45.50
   9  -1 -10  182.17   27.67
  -9   1  10  200.62   29.84
  -9   1  10  204.65   30.87
   9  -1  -9  105.22   19.60
   9  -1  -9   84.34   18.98
  -9   1   9   68.72   19.19
  -9   1   9   48.32   19.85
   9  -1  -8  294.86   33.31
   9  -1  -8  313.50   33.32
  -9   1   8  324.72   33.32
  -9   1   8  338.91   36.33
   9  -1  -7   59.03   15.04
   9  -1  -7   78.91   15.73
  -9   1   7   39.97   14.33
  -9   1   7   49.27   25.88
   9  -1  -6   55.74   15.34
   9  -1  -6   80.04   17.00
  -9   1   6   84.99   14.87
  -9   1   6  104.04   18.90
   9  -1  -5  902.38   55.86
   9  -1  -5  854.78   62.12
  -9   1   5  886.21   54.08
  -9   1   5  890.23   65.51
   9  -1  -4  143.45   17.47
   9  -1  -4  136.06   21.99
  -9   1   4  197.79   25.19
  -9   1   4  203.39   17.72
   9  -1  -3  392.05   27.34
   9  -1  -3  391.20   38.15
  -9   1   3  473.44   28.18
  -9   1   3  467.14   40.60
   9  -1  -2  464.53   27.10
   9  -1  -2  487.60   41.56
  -9   1   2  445.95   33.87
  -9   1   2  476.21   42.37
   9  -1  -1   23.15    5.33
   9  -1  -1   20.87   12.23
  -9   1   1   22.55   12.05
  -9   1   1   18.12    8.06
   9  -1   0   27.11   12.21
   9  -1   0   27.15    4.13
  -9   1   0    7.85    4.04
  -9   1   0    7.20   11.78
   9  -1   1  104.94   22.63
   9  -1   1   88.24    6.25
  -9   1  -1   31.35   20.57
   9  -1   2   20.04   22.50
   9  -1   2   19.77    1.81
  -9   1  -2   17.04   13.33
  -9   1  -2   15.05    1.82
   9  -1   3  130.47   30.16
   9  -1   3  138.28   29.52
   9  -1   4   98.44   29.89
   9  -1   4  124.10   28.82
   9  -1   5  263.43   46.28
   9  -1   5  265.64   44.05
   9  -1   6   26.54   23.37
   9  -1   6    0.69   14.02
   9  -1   7   12.46   16.18
   9  -1   7   -4.09   22.66
   9  -1   8   87.73   28.16
   9  -1   8    0.05   25.07
   9  -1   9   17.79   19.81
   9  -1   9    1.55   17.26
   9   0 -14  131.44   29.20
   9   0 -14   -1.60   25.51
  -9   0  14   77.49   25.45
  -9   0  14   90.85   28.15
   9   0 -13   41.76   31.84
   9   0 -13    1.71   18.38
  -9   0  13   56.17   19.11
  -9   0  13   46.15   32.22
   9   0 -12    4.12   10.59
   9   0 -12   -0.65    9.49
  -9   0  12    3.02   10.03
  -9   0  12    9.68   10.12
   9   0 -11  212.04   31.79
   9   0 -11  200.27   33.38
  -9   0  11  183.57   33.13
  -9   0  11  185.11   32.93
   9   0 -10   82.17   32.27
   9   0 -10   52.41   19.70
  -9   0  10   82.78   20.24
  -9   0  10   74.34   21.89
   9   0  -9  419.58   43.05
   9   0  -9  447.06   44.68
  -9   0   9  419.58   42.42
  -9   0   9  452.90   47.71
   9   0  -8  732.90   55.82
   9   0  -8  736.70   57.82
  -9   0   8  655.10   52.32
  -9   0   8  649.80   60.00
   9   0  -7  113.53   19.55
   9   0  -7  144.56   33.84
  -9   0   7  123.93   30.18
  -9   0   7  124.90   24.03
   9   0  -6  528.08   38.92
   9   0  -6  530.99   44.85
  -9   0   6  411.77   35.61
  -9   0   6  429.16   62.54
   9   0  -5  221.28   21.07
   9   0  -5  222.24   26.68
  -9   0   5  155.67   19.07
  -9   0   5  149.73   26.39
   9   0  -4  528.24   34.25
   9   0  -4  521.77   44.97
  -9   0   4  460.67   45.30
  -9   0   4  470.10   32.42
   9   0  -3  332.68   23.77
   9   0  -3  336.79   35.39
  -9   0   3  344.90   32.28
  -9   0   3  324.57   36.47
   9   0  -2   52.86    8.28
   9   0  -2   47.39   16.33
  -9   0   2   56.37   12.75
  -9   0   2   41.45   16.83
   9   0  -1  151.26   11.02
   9   0  -1  176.77   24.32
  -9   0   1   80.34   22.93
  -9   0   1   78.41    9.83
   9   0   0  226.42   13.52
   9   0   0  233.66   34.43
  -9   0   0  251.44   14.29
  -9   0   0  236.57   33.05
   9   0   1  507.88   21.70
   9   0   1  509.35   53.29
  -9   0  -1  539.50   53.11
   9   0   2   46.24   19.53
   9   0   2   51.27    2.70
  -9   0  -2   40.41   18.83
  -9   0  -2   31.57    2.62
   9   0   3   26.06   15.01
   9   0   3    0.10   14.73
   9   0   4  375.90   54.41
   9   0   4  355.79   51.09
   9   0   5   33.34   17.53
   9   0   5   -0.96   17.23
   9   0   6   51.29   21.42
   9   0   6   -1.70   19.52
   9   0   7   97.41   32.35
   9   0   7   -1.75   45.90
   9   0   8   27.71   20.71
   9   0   8   -0.43   18.37
   9   1 -14   51.19   21.67
   9   1 -14    3.83   20.69
  -9  -1  14   36.17   20.60
  -9  -1  14   35.79   34.07
   9   1 -13   63.86   25.06
   9   1 -13   70.08   23.29
  -9  -1  13   51.13   37.54
  -9  -1  13   47.73   25.03
   9   1 -12  167.64   32.43
   9   1 -12  154.85   32.04
  -9  -1  12  160.08   33.73
  -9  -1  12  134.27   32.58
   9   1 -11    4.20   12.83
   9   1 -11   11.30   12.47
  -9  -1  11   13.98   13.74
  -9  -1  11   15.50   12.58
   9   1 -10    7.67   12.41
   9   1 -10   -1.32   12.98
  -9  -1  10   32.62   12.32
  -9  -1  10   10.46   14.17
   9   1  -9  267.59   34.08
   9   1  -9  276.40   36.15
  -9  -1   9  272.84   34.31
  -9  -1   9  277.90   39.24
   9   1  -8  339.12   36.14
   9   1  -8  342.08   38.96
  -9  -1   8  337.50   35.75
  -9  -1   8  365.82   42.44
   9   1  -7  115.52   20.75
   9   1  -7  119.24   25.27
  -9  -1   7  144.59   20.82
  -9  -1   7  147.95   26.29
   9   1  -6  249.04   24.48
   9   1  -6  214.52   30.37
  -9  -1   6  183.99   23.19
  -9  -1   6  201.34   31.43
   9   1  -5  483.66   46.59
   9   1  -5  481.11   44.15
  -9  -1   5  348.50   31.22
  -9  -1   5  380.00   61.03
   9   1  -4   36.67   15.96
   9   1  -4   29.72   16.78
  -9  -1   4   65.25   17.87
  -9  -1   4   60.57   10.91
   9   1  -3   73.46   16.52
   9   1  -3   56.53   19.48
  -9  -1   3   80.01   11.13
  -9  -1   3   87.56   20.45
   9   1  -2  379.05   23.26
   9   1  -2  368.46   40.18
  -9  -1   2  287.74   29.11
  -9  -1   2  291.10   40.16
   9   1  -1  136.49   13.11
   9   1  -1  172.67   45.89
  -9  -1   1  252.76   31.09
  -9  -1   1  211.74   14.66
   9   1   0   18.67    8.97
   9   1   0   14.09   18.66
  -9  -1   0   63.32   18.14
  -9  -1   0   53.57    6.26
   9   1   1  225.00   11.65
   9   1   1  216.30   36.78
  -9  -1  -1  236.25   34.94
   9   1   2   89.04    4.58
   9   1   2  116.64   27.24
  -9  -1  -2  107.75   25.79
  -9  -1  -2   84.17    4.95
   9   1   3  217.56   42.17
   9   1   3  210.19   40.75
   9   1   4   84.61   24.46
   9   1   4    1.66   22.78
   9   1   5   67.74   23.41
   9   1   5   -1.39   21.82
   9   1   6   52.80   22.90
   9   1   6   -1.08   21.35
   9   1   7    1.83    9.55
   9   1   7   -2.24    8.78
   9   2 -14  123.78   35.62
   9   2 -14  129.58   34.65
  -9  -2  14  124.89   35.44
  -9  -2  14  115.31   36.43
   9   2 -13   79.51   29.11
   9   2 -13   98.59   28.76
  -9  -2  13   69.04   30.52
  -9  -2  13  124.43   30.14
   9   2 -12   19.55   19.70
   9   2 -12   21.74   19.65
  -9  -2  12   56.11   21.69
  -9  -2  12   44.22   19.94
   9   2 -11  268.16   39.30
   9   2 -11  295.30   41.41
  -9  -2  11  230.16   38.57
  -9  -2  11  255.29   65.55
   9   2 -10   66.12   20.57
   9   2 -10   47.07   22.05
  -9  -2  10   54.43   19.85
  -9  -2  10   67.57   23.03
   9   2  -9   26.22   24.00
   9   2  -9   37.13   17.04
  -9  -2   9   26.78   23.26
  -9  -2   9   28.12   17.61
   9   2  -8  449.25   44.21
   9   2  -8  468.23   50.55
  -9  -2   8  528.15   45.92
  -9  -2   8  487.89   52.48
   9   2  -7   82.32   16.74
   9   2  -7   80.05   22.11
  -9  -2   7   83.87   17.52
  -9  -2   7   67.81   23.75
   9   2  -6  181.58   23.79
   9   2  -6  192.62   31.48
  -9  -2   6  206.88   24.01
  -9  -2   6  211.32   32.77
   9   2  -5  173.40   20.10
   9   2  -5  196.58   28.85
  -9  -2   5  158.78   29.68
  -9  -2   5  155.96   20.01
   9   2  -4   37.32   15.72
   9   2  -4   36.84   16.23
  -9  -2   4   36.61   10.47
  -9  -2   4   56.18   27.06
   9   2  -3  320.05   29.71
   9   2  -3  273.45   49.83
  -9  -2   3  174.16   18.64
  -9  -2   3  168.29   48.26
   9   2  -2  130.14   19.76
   9   2  -2  152.54   26.50
  -9  -2   2   99.97   13.11
  -9  -2   2  126.63   27.10
   9   2  -1   19.57   15.63
   9   2  -1   17.26    6.06
  -9  -2   1   39.72   16.26
  -9  -2   1   32.00    6.56
   9   2   0   37.13    6.23
   9   2   0   42.80   18.90
  -9  -2   0   38.91    6.60
  -9  -2   0   35.92   18.72
   9   2   1   46.26    5.39
   9   2   1   31.37   20.97
  -9  -2  -1   24.22   20.97
   9   2   2  145.86    7.63
   9   2   2  195.67   35.53
  -9  -2  -2  155.19   33.80
  -9  -2  -2  156.15    8.35
   9   2   3   40.74   19.11
   9   2   3   -0.17   18.79
   9   2   4    2.43   28.54
   9   2   4  134.32   29.64
   9   2   5  188.46   42.93
   9   2   5  173.61   69.49
   9   2   6   -4.00   12.11
   9   2   6    0.37   11.26
   9   3 -14  177.14   45.62
   9   3 -14  237.21   68.32
  -9  -3  14  207.40   47.39
  -9  -3  14  252.73   46.96
   9   3 -13   16.04   16.79
   9   3 -13   23.90   17.03
  -9  -3  13    6.42   18.58
  -9  -3  13    8.11   16.87
   9   3 -12  445.81   55.55
   9   3 -12  381.93   54.31
  -9  -3  12  366.23   59.06
  -9  -3  12  416.59   54.55
   9   3 -11   32.36   30.38
   9   3 -11   42.56   20.90
  -9  -3  11   44.95   19.50
  -9  -3  11   26.45   22.84
   9   3 -10    6.47   12.09
   9   3 -10   12.47   13.99
  -9  -3  10   11.63   12.09
  -9  -3  10   11.75   14.34
   9   3  -9   36.83   16.29
   9   3  -9   38.37   18.80
  -9  -3   9   24.72   15.74
  -9  -3   9   45.23   19.69
   9   3  -8  250.47   47.05
   9   3  -8  237.14   38.33
  -9  -3   8  269.14   31.82
  -9  -3   8  222.83   40.87
   9   3  -7   99.84   21.73
   9   3  -7  116.45   29.16
  -9  -3   7  155.56   22.72
  -9  -3   7  181.27   30.18
   9   3  -6   32.58   13.94
   9   3  -6   49.04   19.04
  -9  -3   6   48.41   20.11
  -9  -3   6   52.80   13.55
   9   3  -5   26.60   10.52
   9   3  -5   12.26   15.53
  -9  -3   5   18.43   16.32
  -9  -3   5   28.01   10.16
   9   3  -4  493.76   35.93
   9   3  -4  478.22   70.50
  -9  -3   4  448.52   47.24
  -9  -3   4  452.00   52.13
   9   3  -3    7.05   10.86
   9   3  -3    4.89   12.99
  -9  -3   3   20.39   11.26
  -9  -3   3   19.18   13.73
   9   3  -2   35.10   11.60
   9   3  -2   26.38   15.94
  -9  -3   2   32.06   16.78
  -9  -3   2   15.09    7.52
   9   3  -1   82.28   25.62
   9   3  -1  111.97   16.85
  -9  -3   1   82.10   17.12
  -9  -3   1   94.95   41.91
   9   3   0  159.60   50.04
   9   3   0  148.46   12.96
  -9  -3   0  165.67   13.80
  -9  -3   0  193.06   52.47
   9   3   1   59.85    6.88
   9   3   1   62.66   24.71
  -9  -3  -1   86.27   25.32
   9   3   2   34.44   21.78
  -9  -3  -2   37.42   20.99
   9   3   3    2.08   27.11
   9   3   3   97.77   26.96
   9   3   4   -0.98   25.08
   9   3   4  135.39   40.58
   9   3   5    0.36   14.41
   9   3   5    8.50   14.49
   9   4 -14   39.59   23.62
   9   4 -14   22.71   22.88
  -9  -4  14   24.67   24.13
  -9  -4  14   26.36   22.96
   9   4 -13   71.45   33.39
   9   4 -13   91.89   32.07
  -9  -4  13  115.81   36.06
  -9  -4  13  103.80   31.49
   9   4 -12   15.72   46.22
   9   4 -12  128.88   28.00
  -9  -4  12   57.47   27.00
  -9  -4  12   60.52   32.10
   9   4 -11   11.07   15.23
   9   4 -11   15.35   16.83
  -9  -4  11    6.07   14.41
  -9  -4  11   27.66   17.43
   9   4 -10  280.93   56.33
   9   4 -10  250.52   43.51
  -9  -4  10  207.40   53.24
  -9  -4  10  198.47   42.21
   9   4  -9   29.62   17.05
   9   4  -9   29.09   21.03
  -9  -4   9   42.74   17.10
  -9  -4   9   43.10   21.06
   9   4  -8  216.48   29.98
   9   4  -8  195.55   35.60
  -9  -4   8  150.82   27.85
  -9  -4   8  162.34   35.54
   9   4  -7   90.42   29.32
   9   4  -7  103.55   24.92
  -9  -4   7   54.13   25.97
  -9  -4   7   61.73   18.35
   9   4  -6  270.59   30.51
   9   4  -6  264.22   40.18
  -9  -4   6  280.00   43.18
  -9  -4   6  277.94   30.94
   9   4  -5  158.28   23.00
   9   4  -5  179.64   50.69
  -9  -4   5  205.36   37.06
  -9  -4   5  199.06   23.93
   9   4  -4  198.83   22.23
   9   4  -4  183.87   34.60
  -9  -4   4  197.34   23.17
  -9  -4   4  189.43   37.16
   9   4  -3  183.06   20.43
   9   4  -3  219.10   34.74
  -9  -4   3  187.78   20.61
  -9  -4   3  195.02   37.49
   9   4  -2  387.43   27.43
   9   4  -2  392.45   47.80
  -9  -4   2  314.72   48.90
  -9  -4   2  307.83   26.75
   9   4  -1   45.71    8.10
   9   4  -1   32.05   19.49
  -9  -4   1   19.80    8.39
  -9  -4   1   16.77   19.89
   9   4   0  517.43   59.19
   9   4   0  491.26   28.24
  -9  -4   0  385.52   26.38
  -9  -4   0  416.12   57.87
   9   4   1  193.70   13.65
   9   4   1  216.69   40.55
  -9  -4  -1  183.89   37.90
  -9  -4  -1  160.01   14.04
   9   4   2   16.42   17.85
  -9  -4  -2   10.93   16.49
   9   4   3   -1.13   17.46
   9   4   3   19.35   16.94
   9   4   4    1.65   30.20
   9   4   4  125.80   31.43
   9   5 -13   69.81   30.60
   9   5 -13   49.70   29.46
  -9  -5  13   67.71   27.60
  -9  -5  13   63.46   32.50
   9   5 -12    4.39   14.88
   9   5 -12    5.90   16.25
  -9  -5  12   15.64   14.94
  -9  -5  12    8.13   16.75
   9   5 -11  163.76   35.98
   9   5 -11  182.72   39.02
  -9  -5  11  135.73   33.82
  -9  -5  11  129.34   38.49
   9   5 -10   71.81   24.14
   9   5 -10   85.25   28.05
  -9  -5  10   49.13   35.32
  -9  -5  10   43.04   27.46
   9   5  -9  244.15   52.58
   9   5  -9  221.53   40.40
  -9  -5   9  176.71   33.74
  -9  -5   9  163.67   41.67
   9   5  -8   97.36   22.18
   9   5  -8  128.31   28.51
  -9  -5   8   57.95   22.01
  -9  -5   8   58.15   28.81
   9   5  -7   97.88   18.85
   9   5  -7    1.99   25.49
  -9  -5   7   61.81   26.36
  -9  -5   7   69.58   18.77
   9   5  -6  129.71   20.23
   9   5  -6    0.36   44.81
  -9  -5   6   94.65   29.87
  -9  -5   6   79.24   30.81
   9   5  -5  159.78   23.02
   9   5  -5  157.14   33.86
  -9  -5   5  164.24   24.09
  -9  -5   5  166.11   36.59
   9   5  -4   89.02   18.05
   9   5  -4  118.32   28.91
  -9  -5   4  113.34   17.87
  -9  -5   4  115.83   31.25
   9   5  -3   36.59   12.33
   9   5  -3   72.90   22.55
  -9  -5   3   50.77   12.94
  -9  -5   3   79.28   24.20
   9   5  -2   55.67   11.81
   9   5  -2   84.13   23.99
  -9  -5   2   31.28   25.02
  -9  -5   2   44.02   18.50
   9   5  -1  174.78   17.94
   9   5  -1  167.55   38.66
  -9  -5   1  194.06   19.30
  -9  -5   1  208.04   39.39
   9   5   0  243.18   63.05
   9   5   0  202.26   17.62
  -9  -5   0  189.91   17.94
  -9  -5   0  199.03   42.08
   9   5   1  110.28   35.57
  -9  -5  -1  169.51   37.41
   9   5   2   -1.27   19.90
   9   5   2   53.25   30.74
   9   5   3    0.83   16.94
   9   5   3   17.56   16.89
   9   6 -12  176.65   40.88
   9   6 -12  168.03   44.49
  -9  -6  12  197.15   40.37
  -9  -6  12  140.82   69.17
   9   6 -11  119.02   31.32
   9   6 -11  120.92   55.60
  -9  -6  11   93.59   30.68
  -9  -6  11   74.76   34.63
   9   6 -10   41.11   18.92
   9   6 -10   -2.36   23.44
  -9  -6  10   42.09   30.63
  -9  -6  10   55.85   36.48
   9   6  -9  296.79   41.75
   9   6  -9  306.46   49.86
  -9  -6   9  330.28   42.94
  -9  -6   9  231.87   51.83
   9   6  -8  108.15   26.75
   9   6  -8  157.36   35.50
  -9  -6   8  183.89   37.38
  -9  -6   8  111.97   27.72
   9   6  -7   93.31   19.69
   9   6  -7    2.61   41.68
  -9  -6   7   37.14   43.11
  -9  -6   7   54.72   20.09
   9   6  -6   11.61   10.27
   9   6  -6   -1.78   14.89
  -9  -6   6   16.11   16.14
  -9  -6   6   14.97   10.52
   9   6  -5   94.88   18.11
   9   6  -5    0.88   26.40
  -9  -6   5   82.93   27.47
  -9  -6   5   86.06   29.05
   9   6  -4   84.67   18.92
   9   6  -4   90.98   30.45
  -9  -6   4  137.95   30.16
  -9  -6   4  162.32   34.99
   9   6  -3  100.47   23.19
   9   6  -3   78.33   26.54
  -9  -6   3  100.40   29.41
  -9  -6   3    8.03   24.46
   9   6  -2   17.10   11.06
   9   6  -2   22.04   14.33
  -9  -6   2    0.12    7.49
  -9  -6   2    2.06   24.36
   9   6  -1   80.91   45.86
   9   6  -1   61.54   20.11
  -9  -6   1   87.49   13.97
  -9  -6   1   86.16   30.73
   9   6   0    7.82    6.33
   9   6   0   -1.08   11.79
  -9  -6   0    0.68    4.53
  -9  -6   0    0.98   12.22
   9   6   1  107.03   53.61
  -9  -6  -1   97.93   34.48
   9   7 -11   31.52   18.82
   9   7 -11    6.05   23.03
  -9  -7  11   20.96   19.58
  -9  -7  11   26.84   22.97
   9   7 -10  123.77   25.86
   9   7 -10    4.60   32.98
  -9  -7  10   -3.06   42.94
  -9  -7  10  100.14   33.09
   9   7  -9   22.73   13.48
   9   7  -9    3.58   17.44
  -9  -7   9    6.66   29.11
  -9  -7   9    5.37   14.28
   9   7  -8  137.54   28.25
   9   7  -8  163.22   36.63
  -9  -7   8  147.94   37.53
  -9  -7   8    0.43   44.18
   9   7  -7   56.01   14.84
   9   7  -7   -1.44   20.74
  -9  -7   7   30.89   21.75
  -9  -7   7   -3.11   15.36
   9   7  -6   74.99   16.35
   9   7  -6    0.90   23.32
  -9  -7   6   -1.33   16.61
  -9  -7   6   64.95   24.17
   9   7  -5    3.45   21.24
  -9  -7   5   32.27   15.03
  -9  -7   5   54.15   23.09
   9   7  -4   47.78   13.94
   9   7  -4   -4.43   22.52
  -9  -7   4   28.48   22.39
  -9  -7   4   59.52   25.88
   9   7  -3    1.27    9.44
   9   7  -3   31.60   16.53
  -9  -7   3   65.25   18.19
  -9  -7   3   -0.42   10.05
   9   7  -2   11.45    8.26
   9   7  -2    6.13   24.90
  -9  -7   2    0.49    8.76
  -9  -7   2   45.55   17.46
   9   7  -1   18.81    7.95
   9   7  -1   33.88   17.76
  -9  -7   1   -0.02    8.26
  -9  -7   1   28.18   18.93
   9   8  -8   40.00   17.45
   9   8  -8   -4.12   23.19
  -9  -8   8   58.48   24.29
  -9  -8   8    3.56   28.93
   9   8  -7   48.91   16.24
   9   8  -7    1.45   22.33
  -9  -8   7   53.78   22.78
  -9  -8   7    1.65   17.08
   9   8  -6   43.50   22.32
   9   8  -6    1.06   20.51
  -9  -8   6    2.43   15.49
  -9  -8   6   54.62   21.20
   9   8  -5   21.69   11.91
   9   8  -5   -1.69   18.30
  -9  -8   5    0.68   12.38
  -9  -8   5   46.41   20.55
 -10  15   1   51.35   26.50
 -10  15   1   45.24   26.48
 -10  15   0   18.23   15.98
 -10  15   0    2.21   16.04
 -10  15  -1   43.42   22.35
 -10  15  -1   25.30   34.57
 -10  15  -2   54.70   23.52
 -10  15  -2   47.51   22.86
 -10  15  -3   -1.06   12.03
 -10  15  -3   13.00   11.84
 -10  15  -4   39.54   18.64
 -10  15  -4   34.40   19.38
 -10  15  -5  162.01   29.14
 -10  15  -5  151.97   31.87
 -10  15  -6   34.06   24.81
 -10  15  -6   30.29   17.09
  10 -15   7   29.02   15.07
  10 -15   7    0.42   16.28
 -10  15  -7   43.83   23.44
 -10  15  -7   30.36   22.75
 -10  14   3   25.50   33.77
 -10  14   3   22.92   21.53
 -10  14   2   16.40   17.23
 -10  14   2   11.44   17.78
 -10  14   1   34.97   21.22
 -10  14   1   31.34   35.63
 -10  14   0    1.66   13.99
 -10  14   0   17.25   14.47
 -10  14  -1   92.81   26.35
 -10  14  -1   85.37   26.97
 -10  14  -2    9.69   13.06
 -10  14  -2   11.06   12.96
 -10  14  -3   -9.53   10.14
 -10  14  -3    0.17   10.19
 -10  14  -4  186.21   49.20
 -10  14  -4  188.78   46.84
  10 -14   5    0.03    2.61
  10 -14   5   -5.30    3.99
 -10  14  -5    4.97    4.35
 -10  14  -5    1.84    4.67
  10 -14   6   41.23   10.82
  10 -14   6    0.93   11.13
 -10  14  -6   43.86   13.87
 -10  14  -6   37.40   15.01
  10 -14   7   22.60    9.33
  10 -14   7   -0.25    9.97
 -10  14  -7   14.33   16.24
 -10  14  -7    9.01   10.76
  10 -14   8    8.01    8.54
  10 -14   8   -1.17   14.35
 -10  14  -8   -0.48    8.20
 -10  14  -8   15.17   12.66
 -10  13   5   13.86   23.12
 -10  13   5    1.26   14.76
 -10  13   4   79.34   49.24
 -10  13   4   81.29   31.60
 -10  13   3   92.42   32.10
 -10  13   3   88.45   30.80
 -10  13   2   31.78   21.57
 -10  13   2   41.43   21.39
 -10  13   1   13.28   12.48
 -10  13   1    1.97   12.32
 -10  13   0  142.13   30.65
 -10  13   0  156.26   32.00
 -10  13  -1    6.08   11.06
 -10  13  -1    9.24   11.70
 -10  13  -2   82.38   35.99
 -10  13  -2   95.76   23.15
  10 -13   3  450.50   26.98
  10 -13   3  422.94   35.57
 -10  13  -3  547.51   49.40
 -10  13  -3  502.33   48.57
  10 -13   4  155.93   15.35
  10 -13   4  148.11   17.00
 -10  13  -4  156.70   25.63
 -10  13  -4  159.39   26.17
  10 -13   5  209.25   23.77
  10 -13   5  210.67   29.50
 -10  13  -5  232.57   28.50
 -10  13  -5  224.91   30.05
  10 -13   6  123.97   25.99
  10 -13   6  114.11   20.28
 -10  13  -6  112.82   19.83
 -10  13  -6  106.79   21.17
  10 -13   7   11.84   14.22
  10 -13   7   -0.18   10.44
 -10  13  -7   17.62   13.28
 -10  13  -7   11.90    8.93
  10 -13   8  233.09   31.70
  10 -13   8  236.20   43.43
 -10  13  -8  165.08   23.55
 -10  13  -8  166.96   23.43
  10 -13   9    1.53   19.07
  10 -13   9   53.80   17.52
 -10  13  -9   37.54   11.84
 -10  13  -9   43.46   11.95
 -10  12   7   66.39   31.68
 -10  12   7   67.15   34.28
 -10  12   6   62.82   32.03
 -10  12   6   91.50   33.83
 -10  12   5   47.22   24.83
 -10  12   5   40.13   40.08
 -10  12   4   16.88   17.96
 -10  12   4   17.05   17.43
 -10  12   3  248.08   44.41
 -10  12   3  245.28   42.65
 -10  12   2   21.36   20.02
 -10  12   2    3.85   12.08
 -10  12   1  113.90   28.35
 -10  12   1  128.59   28.13
 -10  12   0  311.57   39.54
 -10  12   0  321.88   57.20
  10 -12   1   72.34   11.28
 -10  12  -1  100.69   20.95
 -10  12  -1   94.07   21.50
  10 -12   2  193.19   14.72
  10 -12   2  186.84   21.33
 -10  12  -2  132.97   26.65
 -10  12  -2  143.97   26.78
  10 -12   3   11.54    6.22
  10 -12   3   16.22    6.60
 -10  12  -3   13.47   10.43
 -10  12  -3   11.54   10.39
  10 -12   4    2.99    6.49
  10 -12   4    4.87    5.83
 -10  12  -4   12.01    8.36
 -10  12  -4   14.01    8.37
  10 -12   5  257.34   25.20
  10 -12   5  255.24   28.38
 -10  12  -5  293.70   28.48
 -10  12  -5  251.84   28.45
  10 -12   6   35.10   12.44
  10 -12   6   -0.39   22.58
 -10  12  -6   45.58   11.89
 -10  12  -6   57.34   18.46
  10 -12   7  358.93   35.74
  10 -12   7  347.91   41.88
 -10  12  -7  359.08   30.05
 -10  12  -7  366.73   44.31
  10 -12   8  185.55   32.53
  10 -12   8  194.79   43.85
 -10  12  -8  198.76   21.33
 -10  12  -8  176.73   20.90
  10 -12   9    1.34   12.92
  10 -12   9   15.05   11.73
 -10  12  -9    7.60    5.75
 -10  12  -9    8.24    6.02
  10 -12  10  143.94   38.36
  10 -12  10  183.17   35.26
 -10  11   8    0.61   25.54
 -10  11   8    9.69   17.66
 -10  11   7   88.97   34.07
 -10  11   7  122.75   36.60
 -10  11   6   10.76   15.68
 -10  11   6    9.71   17.35
 -10  11   5   59.34   25.73
 -10  11   5   68.29   27.68
 -10  11   4   61.16   23.97
 -10  11   4   68.40   25.49
 -10  11   3   27.57   16.50
 -10  11   3   16.02   15.77
  10 -11  -2  137.65    8.40
  10 -11  -2  139.49    8.38
 -10  11   2  137.70   29.44
 -10  11   2  164.29   28.75
  10 -11  -1  122.61    8.18
  10 -11  -1  118.05    8.15
 -10  11   1  151.19   26.28
 -10  11   1  136.87   24.99
  10 -11   0   14.48    4.52
 -10  11   0   25.24   11.78
 -10  11   0   10.96   11.72
  10 -11   1  385.70   24.19
  10 -11   1  386.22   24.94
 -10  11  -1  409.60   39.20
 -10  11  -1  432.52   38.77
  10 -11   2   96.79   11.42
  10 -11   2   68.56   12.26
 -10  11  -2   83.30   17.60
 -10  11  -2   81.19   18.02
  10 -11   3   14.46    7.51
  10 -11   3   12.23    7.03
 -10  11  -3    5.97    8.92
 -10  11  -3   19.28    9.24
  10 -11   4  160.68   20.39
  10 -11   4  163.28   18.82
 -10  11  -4  147.55   20.21
 -10  11  -4  123.57   19.96
  10 -11   5  149.88   21.02
  10 -11   5  164.84   23.33
 -10  11  -5  132.82   18.31
 -10  11  -5  123.13   26.98
  10 -11   6  161.91   23.44
  10 -11   6  142.56   39.11
 -10  11  -6  152.32   26.23
 -10  11  -6  148.80   17.72
  10 -11   7   73.84   18.27
  10 -11   7   74.06   21.82
 -10  11  -7   60.68   11.22
 -10  11  -7   82.36   12.14
  10 -11   8   51.00   25.84
  10 -11   8   44.55   22.27
 -10  11  -8   21.12    7.52
 -10  11  -8   24.71    7.22
  10 -11   9  247.16   44.91
  10 -11   9  284.87   38.72
  10 -11  10    0.15   22.85
  10 -11  10   62.59   20.58
  10 -10  -9   -6.58   13.77
 -10  10   9   -1.79   14.09
  10 -10  -8    6.67   11.77
 -10  10   8   -1.12   12.34
 -10  10   7   46.62   23.80
 -10  10   7   42.59   25.27
 -10  10   6   18.00   15.54
 -10  10   6    9.14   17.03
 -10  10   5  389.18   72.79
 -10  10   5  385.34   52.92
  10 -10  -4   31.13    3.40
  10 -10  -4   31.56    3.65
 -10  10   4   43.09   17.41
 -10  10   4   27.33   18.48
  10 -10  -3   60.09    5.90
  10 -10  -3   58.23    5.91
 -10  10   3   63.82   20.05
 -10  10   3   84.58   21.11
  10 -10  -2  130.09   10.10
 -10  10   2  116.12   26.90
 -10  10   2  125.91   24.76
  10 -10  -1  219.69   15.67
  10 -10  -1  218.03   15.69
 -10  10   1  247.12   31.37
 -10  10   1  230.12   29.33
  10 -10   0  122.26   12.52
  10 -10   0  125.43   12.78
 -10  10   0  138.21   22.65
 -10  10   0  127.03   31.84
  10 -10   1   96.87   12.14
  10 -10   1   90.26   12.29
 -10  10  -1   84.41   18.03
 -10  10  -1  106.03   17.57
  10 -10   2    1.42    4.01
  10 -10   2    4.30    4.25
 -10  10  -2   -4.98    4.89
 -10  10  -2    2.77    4.67
  10 -10   3  757.26   53.29
  10 -10   3  834.57   68.09
 -10  10  -3  777.34   52.52
 -10  10  -3  776.01   50.69
  10 -10   4  168.51   24.16
  10 -10   4  187.02   23.74
 -10  10  -4  198.26   20.61
 -10  10  -4  209.06   29.42
  10 -10   5  145.48   33.86
  10 -10   5  166.37   24.58
 -10  10  -5  137.16   15.75
 -10  10  -5  129.17   15.49
  10 -10   6  237.85   31.87
  10 -10   6  257.75   52.44
 -10  10  -6  296.33   22.23
 -10  10  -6  294.88   22.13
  10 -10   7  159.85   24.73
  10 -10   7  143.32   27.71
 -10  10  -7  117.93   11.79
 -10  10  -7  120.11   12.38
  10 -10   8   -0.11    6.86
  10 -10   8    4.88   12.72
  10 -10   9    0.80   15.63
  10 -10   9   20.73   13.59
  10 -10  10   -0.24   16.31
  10 -10  10   28.92   22.35
  10  -9 -10   -0.82   19.24
 -10   9  10   29.10   18.52
  10  -9  -9   66.17   22.53
 -10   9   9   -0.46   22.18
  10  -9  -8   76.00   22.15
 -10   9   8    0.20   22.42
  10  -9  -7   70.83   20.80
 -10   9   7   -0.38   20.89
 -10   9   7   37.51    5.78
  10  -9  -6  149.90   28.93
 -10   9   6  156.65   46.08
 -10   9   6  129.81   10.53
  10  -9  -5   64.68   21.00
 -10   9   5   56.17   20.61
 -10   9   5   57.91    7.37
  10  -9  -4  218.47   31.64
 -10   9   4  220.48   31.23
 -10   9   4  205.42   14.41
  10  -9  -3  216.36   20.57
  10  -9  -3  215.85   15.95
 -10   9   3  237.36   30.68
 -10   9   3  244.87   33.02
  10  -9  -2  115.05   11.55
  10  -9  -2  102.16   11.22
 -10   9   2  133.39   22.34
 -10   9   2  167.20   23.60
  10  -9  -1  582.51   33.89
  10  -9  -1  580.43   33.69
 -10   9   1  449.83   41.53
 -10   9   1  490.08   45.81
  10  -9   0  104.84   18.67
  10  -9   0  101.75   12.68
 -10   9   0   80.38   17.40
 -10   9   0   64.80   16.00
  10  -9   1    5.32    5.83
  10  -9   1   -2.14    5.88
 -10   9  -1   13.16    6.94
 -10   9  -1   12.28    6.53
  10  -9   2   94.70   16.59
  10  -9   2   93.56   16.43
 -10   9  -2  130.89   15.96
 -10   9  -2  127.80   15.81
  10  -9   3   50.01   12.87
  10  -9   3   57.93   12.37
 -10   9  -3   31.39    9.65
 -10   9  -3   34.51    9.27
  10  -9   4   94.02   20.84
  10  -9   4   87.44   19.48
 -10   9  -4  136.67   13.93
 -10   9  -4  132.56   19.38
  10  -9   5  337.77   48.98
  10  -9   5  287.11   36.51
 -10   9  -5  284.68   28.00
 -10   9  -5  289.54   26.72
  10  -9   6  408.70   41.71
  10  -9   6  395.28   62.77
 -10   9  -6  342.85   21.39
 -10   9  -6  339.91   20.60
  10  -9   7  292.84   55.60
  10  -9   7  325.38   40.41
 -10   9  -7  239.15   14.35
  10  -9   8  223.10   35.80
  10  -9   8  210.66   41.16
  10  -9   9   -2.54   37.99
  10  -9   9   80.91   33.59
  10  -9  10    3.40   26.40
  10  -9  10   58.88   22.42
  10  -8 -11    3.77   20.24
 -10   8  11   26.80   19.50
  10  -8 -10  178.89   42.74
 -10   8  10  191.72   41.96
  10  -8  -9   53.38    8.12
  10  -8  -9   56.25   23.15
 -10   8   9   -1.18   22.44
 -10   8   9   31.08   12.79
  10  -8  -8    1.30    5.45
  10  -8  -8   -6.51   10.07
 -10   8   8   -2.07    9.73
 -10   8   8    9.10    5.89
  10  -8  -7  372.37   22.90
  10  -8  -7  393.40   46.90
 -10   8   7  312.68   44.56
 -10   8   7  301.74   22.33
  10  -8  -6   18.19    5.80
  10  -8  -6   32.00   15.06
 -10   8   6   30.72   15.15
 -10   8   6   21.71   10.10
  10  -8  -5   75.31   21.65
  10  -8  -5   76.90    9.92
 -10   8   5  111.06   21.83
 -10   8   5   97.58   16.30
  10  -8  -4  763.39   41.97
  10  -8  -4  730.84   81.62
 -10   8   4  781.60   61.77
 -10   8   4  796.19   53.84
  10  -8  -3  350.63   23.27
  10  -8  -3  359.29   35.92
 -10   8   3  329.50   34.24
 -10   8   3  318.25   31.91
  10  -8  -2  289.22   22.58
  10  -8  -2  269.74   31.07
 -10   8   2  344.42   31.81
 -10   8   2  351.53   23.97
  10  -8  -1  372.22   27.13
  10  -8  -1  391.88   27.88
 -10   8   1  358.96   44.86
 -10   8   1  378.66   34.72
  10  -8   0  264.65   22.73
  10  -8   0  270.95   32.76
 -10   8   0  238.16   23.45
 -10   8   0  249.62   25.44
  10  -8   1  820.44   56.75
  10  -8   1  800.92   56.40
 -10   8  -1  999.20   57.39
 -10   8  -1 1045.86   60.65
  10  -8   2  156.00   21.44
  10  -8   2  129.19   20.64
 -10   8  -2  157.28   15.50
 -10   8  -2  172.18   16.91
  10  -8   3   79.07   17.10
  10  -8   3   89.93   16.31
 -10   8  -3   70.53    9.98
 -10   8  -3   71.83   10.49
  10  -8   4  366.66   40.33
  10  -8   4  374.77   37.85
 -10   8  -4  404.08   23.65
 -10   8  -4  424.67   24.93
  10  -8   5  183.33   26.64
  10  -8   5  185.69   29.85
 -10   8  -5  169.77   16.37
 -10   8  -5  175.68   12.25
  10  -8   6   44.56   19.40
  10  -8   6   51.44   21.27
 -10   8  -6   62.36    5.74
 -10   8  -6   65.82    5.97
  10  -8   7   64.07   22.49
  10  -8   7   84.72   25.60
  10  -8   8   24.38   15.14
  10  -8   8    2.95   17.32
  10  -8   9    4.50   10.73
  10  -8   9    0.79   12.38
  10  -8  10   62.34   24.56
  10  -8  10    1.07   45.93
  10  -7 -11   26.01    9.58
  10  -7 -11    1.83   22.46
 -10   7  11   -1.68   33.72
 -10   7  11   55.37   15.04
  10  -7 -10  175.73   25.95
  10  -7 -10  173.41   38.16
 -10   7  10  170.13   37.61
 -10   7  10  161.81   19.00
  10  -7  -9  151.81   17.18
  10  -7  -9  152.24   34.59
 -10   7   9  170.73   34.49
 -10   7   9  172.61   18.69
  10  -7  -8  123.14   14.39
  10  -7  -8  142.86   29.54
 -10   7   8  106.98   28.13
 -10   7   8  118.34   22.14
  10  -7  -7   64.86    9.84
  10  -7  -7   68.42   20.37
 -10   7   7   47.91   18.87
 -10   7   7   51.50   10.68
  10  -7  -6   63.96   18.26
  10  -7  -6   59.07   10.26
 -10   7   6   51.55   17.79
 -10   7   6   54.53   10.54
  10  -7  -5   11.27    7.58
  10  -7  -5   12.66    8.73
 -10   7   5    5.21    8.69
 -10   7   5    0.98    5.31
  10  -7  -4   11.08    5.54
  10  -7  -4    8.01    8.81
 -10   7   4   10.29    8.37
 -10   7   4    1.73    5.60
  10  -7  -3  318.80   23.81
  10  -7  -3  302.77   30.95
 -10   7   3  265.83   28.40
 -10   7   3  267.38   23.38
  10  -7  -2  121.63   15.59
  10  -7  -2  104.88   18.94
 -10   7   2  154.09   18.48
 -10   7   2  161.24   17.11
  10  -7  -1   46.18   12.32
  10  -7  -1   59.10   12.75
 -10   7   1   98.77   19.62
 -10   7   1   94.85   13.50
  10  -7   0  614.39   41.63
  10  -7   0  578.51   39.73
 -10   7   0  418.89   41.63
 -10   7   0  436.71   34.52
  10  -7   1    0.73    6.84
  10  -7   1    3.95    7.10
 -10   7  -1   10.45    7.56
 -10   7  -1    8.71    5.43
  10  -7   2  327.51   34.84
  10  -7   2  320.17   33.14
 -10   7  -2  368.29   23.91
 -10   7  -2  348.53   29.90
  10  -7   3  103.40   19.65
  10  -7   3  127.38   28.47
 -10   7  -3   77.01    8.84
 -10   7  -3   81.86    9.31
  10  -7   4  192.00   30.19
  10  -7   4  210.29   28.17
 -10   7  -4  196.58   12.73
  10  -7   5  263.67   31.37
  10  -7   5  247.14   50.40
 -10   7  -5  172.84   12.02
 -10   7  -5  197.95   13.40
  10  -7   6  127.13   26.95
  10  -7   6  142.31   29.87
  10  -7   7   86.34   24.43
  10  -7   7   84.05   27.41
  10  -7   8  511.93   62.06
  10  -7   8  491.64   66.91
  10  -7   9  151.71   31.45
  10  -7   9    2.83   35.33
  10  -7  10   24.30   17.65
  10  -7  10   -2.51   20.45
  10  -6 -12   72.17   14.84
  10  -6 -12    3.46   30.35
 -10   6  12   75.89   45.08
 -10   6  12   68.31   15.12
  10  -6 -11   19.75   10.93
  10  -6 -11   39.48   21.95
 -10   6  11   -0.92   20.81
 -10   6  11   46.62   11.49
  10  -6 -10   19.25    9.08
  10  -6 -10   29.12   17.64
 -10   6  10   -2.96   16.43
 -10   6  10   24.99    9.35
  10  -6  -9  241.96   23.34
  10  -6  -9  260.51   39.21
 -10   6   9  217.93   38.20
 -10   6   9  232.59   24.73
  10  -6  -8   65.30   12.18
  10  -6  -8   65.08   21.67
 -10   6   8   45.33   20.96
 -10   6   8   67.60   13.07
  10  -6  -7  290.45   38.77
  10  -6  -7  296.72   25.02
 -10   6   7  348.80   37.51
 -10   6   7  321.20   37.89
  10  -6  -6  207.97   18.93
  10  -6  -6  207.12   28.68
 -10   6   6  141.82   39.88
 -10   6   6  128.13   27.22
  10  -6  -5  125.48   22.19
  10  -6  -5  121.77   20.71
 -10   6   5   97.54   19.44
 -10   6   5   85.16   22.47
  10  -6  -4  142.01   16.06
  10  -6  -4  122.44   20.66
 -10   6   4  150.54   19.96
 -10   6   4  163.23   26.57
  10  -6  -3  125.62   15.71
  10  -6  -3  115.14   17.99
 -10   6   3  104.52   16.78
 -10   6   3  121.97   25.13
  10  -6  -2  283.60   24.31
  10  -6  -2  290.80   24.71
 -10   6   2  209.85   22.16
 -10   6   2  231.00   34.91
  10  -6  -1  547.20   42.45
  10  -6  -1  553.78   38.19
 -10   6   1  666.11   39.02
 -10   6   1  722.61   61.13
  10  -6   0  337.33   23.66
  10  -6   0  335.05   30.69
 -10   6   0  304.45   21.51
 -10   6   0  301.58   29.74
  10  -6   1   52.21   12.37
  10  -6   1   65.27   12.69
 -10   6  -1   19.95    6.37
 -10   6  -1   23.29    7.36
  10  -6   2  766.92   60.11
  10  -6   2  781.94   59.31
 -10   6  -2  701.41   41.64
 -10   6  -2  754.37   38.53
  10  -6   3  592.08   52.41
  10  -6   3  585.38   50.04
 -10   6  -3  519.36   25.72
  10  -6   4   70.24   19.79
  10  -6   4   62.98   18.15
 -10   6  -4   52.91    4.22
 -10   6  -4   55.84    4.62
  10  -6   5   37.63   17.26
  10  -6   5   19.70   16.11
  10  -6   6  531.02   56.69
  10  -6   6  496.01   59.63
  10  -6   7   45.19   17.82
  10  -6   7    1.27   20.15
  10  -6   8   62.74   21.73
  10  -6   8   -1.64   24.32
  10  -6   9   99.50   27.81
  10  -6   9    1.57   31.21
  10  -6  10   57.53   24.01
  10  -6  10    0.39   28.46
  10  -5 -12   26.88   11.58
  10  -5 -12    3.75   30.87
 -10   5  12    1.53   19.38
 -10   5  12   27.09   11.91
  10  -5 -11   33.61   11.78
  10  -5 -11   39.79   19.26
 -10   5  11    2.87   19.15
 -10   5  11   27.19   12.46
  10  -5 -10   44.67   13.30
  10  -5 -10   41.49   22.11
 -10   5  10    2.04   21.26
 -10   5  10   89.32   14.74
  10  -5  -9    8.11   13.53
  10  -5  -9   28.54   13.89
 -10   5   9   -0.09   13.48
 -10   5   9   23.71   14.69
  10  -5  -8   34.34   16.88
  10  -5  -8   38.47   11.27
 -10   5   8   39.65   16.94
 -10   5   8   46.27   12.13
  10  -5  -7  313.08   28.02
  10  -5  -7  294.10   35.45
 -10   5   7  309.59   34.75
 -10   5   7  293.58   28.73
  10  -5  -6  167.74   19.32
  10  -5  -6  158.74   24.43
 -10   5   6  165.09   35.71
 -10   5   6  132.09   19.63
  10  -5  -5  380.88   30.25
  10  -5  -5  394.59   34.79
 -10   5   5  294.75   31.66
 -10   5   5  307.90   29.87
  10  -5  -4  172.93   19.60
  10  -5  -4  145.71   21.33
 -10   5   4  161.06   20.30
 -10   5   4  162.47   20.84
  10  -5  -3  502.61   37.89
  10  -5  -3  502.20   37.99
 -10   5   3  482.35   35.68
 -10   5   3  531.34   41.05
  10  -5  -2   12.85   10.90
  10  -5  -2   13.57    9.16
 -10   5   2   51.51    8.73
 -10   5   2   43.90   11.52
  10  -5  -1   29.48   12.04
  10  -5  -1   24.01    7.91
 -10   5   1   43.11   12.62
 -10   5   1   56.51   12.20
  10  -5   0   51.53    8.85
  10  -5   0   39.42   14.94
 -10   5   0   67.91   15.18
 -10   5   0   66.25    8.56
  10  -5   1  564.11   46.93
  10  -5   1  551.51   47.36
 -10   5  -1  478.74   25.30
 -10   5  -1  504.54   28.28
  10  -5   2  322.53   36.15
  10  -5   2  328.26   49.87
 -10   5  -2  268.43   14.24
 -10   5  -2  289.77   16.33
  10  -5   3  100.93   23.43
  10  -5   3   97.90   22.15
 -10   5  -3  101.01    6.13
 -10   5  -3  106.89    6.61
  10  -5   4  280.52   38.74
  10  -5   4  286.39   38.64
  10  -5   5  527.18   59.50
  10  -5   5  523.51   56.89
  10  -5   6   16.25   17.94
  10  -5   6   26.65   16.76
  10  -5   7   31.45   17.11
  10  -5   7   -1.29   19.30
  10  -5   8   28.09   17.45
  10  -5   8   -2.81   20.17
  10  -5   9  121.11   31.38
  10  -5   9    3.50   35.54
  10  -5  10   51.70   25.87
  10  -5  10    2.46   28.84
  10  -4 -13   72.76   20.67
  10  -4 -13    3.96   30.21
 -10   4  13  105.37   20.34
 -10   4  13   89.30   30.26
  10  -4 -12   25.83   14.62
  10  -4 -12   33.54   21.64
 -10   4  12   40.39   21.49
 -10   4  12   41.08   14.98
  10  -4 -11   80.95   16.17
  10  -4 -11   68.99   24.45
 -10   4  11   -0.26   37.16
 -10   4  11   36.79   17.25
  10  -4 -10   18.12    9.63
  10  -4 -10   18.01   14.38
 -10   4  10   -2.24   14.06
 -10   4  10   15.52   10.35
  10  -4  -9   51.83   16.84
  10  -4  -9   36.87   18.47
 -10   4   9   16.42   15.85
 -10   4   9   25.68   12.88
  10  -4  -8  297.25   29.98
  10  -4  -8  293.50   36.99
 -10   4   8  281.38   35.29
 -10   4   8  292.71   30.84
  10  -4  -7   20.79    9.38
  10  -4  -7   12.39   11.88
 -10   4   7   17.58   11.55
 -10   4   7   17.18   10.33
  10  -4  -6  283.60   40.52
  10  -4  -6  244.70   31.19
 -10   4   6  327.16   30.87
 -10   4   6  352.69   45.12
  10  -4  -5  323.36   30.64
  10  -4  -5  328.43   31.65
 -10   4   5  339.29   42.50
 -10   4   5  350.00   45.81
  10  -4  -4  539.15   41.01
  10  -4  -4  555.71   52.08
 -10   4   4  466.09   48.53
 -10   4   4  447.53   55.70
  10  -4  -3  392.23   47.16
  10  -4  -3  366.80   28.52
 -10   4   3  375.26   27.63
 -10   4   3  349.29   49.39
  10  -4  -2  138.27   19.42
  10  -4  -2  143.94   21.13
 -10   4   2  104.54   13.84
 -10   4   2  123.39   20.73
  10  -4  -1  256.00   27.82
  10  -4  -1  248.88   18.27
 -10   4   1  189.12   16.40
 -10   4   1  195.71   27.39
  10  -4   0   50.81    8.58
  10  -4   0   45.20   17.78
 -10   4   0   96.53    8.88
 -10   4   0  101.93   18.81
  10  -4   1  187.14   29.88
  10  -4   1  184.69   12.64
 -10   4  -1  212.28   28.24
 -10   4  -1  207.07   12.36
  10  -4   2  108.32   25.01
  10  -4   2  127.44   24.83
 -10   4  -2  115.47    8.00
  10  -4   3  495.38   74.72
  10  -4   3  497.94   50.66
 -10   4  -3  451.59   15.95
 -10   4  -3  486.92   15.96
  10  -4   4  373.98   47.13
  10  -4   4  341.72   45.34
  10  -4   5  104.78   30.17
  10  -4   5  111.31   43.61
  10  -4   6  192.65   40.84
  10  -4   6  189.03   36.76
  10  -4   7  229.80   44.50
  10  -4   7  165.65   41.53
  10  -4   8   10.77   14.63
  10  -4   8    1.02   16.86
  10  -4   9  115.20   31.77
  10  -4   9    1.06   36.87
  10  -3 -13    4.71   12.04
  10  -3 -13   16.66   16.76
 -10   3  13   12.69   12.06
 -10   3  13   16.20   16.50
  10  -3 -12   57.25   18.67
  10  -3 -12   60.22   26.15
 -10   3  12   63.13   25.50
 -10   3  12   57.54   19.32
  10  -3 -11   38.06   13.94
  10  -3 -11   51.78   30.65
 -10   3  11   24.45   18.81
 -10   3  11   24.32   15.15
  10  -3 -10  142.11   23.93
  10  -3 -10  157.19   29.88
 -10   3  10  131.77   29.90
 -10   3  10  136.87   25.46
  10  -3  -9   28.26   11.21
  10  -3  -9   21.51   13.69
 -10   3   9   14.27   13.66
 -10   3   9   15.07   12.03
  10  -3  -8    5.71   11.83
  10  -3  -8   10.13    8.84
 -10   3   8    4.45    8.57
 -10   3   8    1.59    8.31
  10  -3  -7  232.66   25.86
  10  -3  -7  214.86   27.44
 -10   3   7  179.15   26.60
 -10   3   7  177.64   26.78
  10  -3  -6  332.70   33.00
  10  -3  -6  346.25   32.56
 -10   3   6  307.29   31.04
 -10   3   6  318.48   34.24
  10  -3  -5  237.15   29.96
  10  -3  -5  271.15   27.85
 -10   3   5  380.08   34.82
 -10   3   5  359.00   29.54
  10  -3  -4  851.24   80.30
  10  -3  -4  835.57   68.35
 -10   3   4  882.18   55.20
 -10   3   4  891.43   64.86
  10  -3  -3  149.59   22.73
  10  -3  -3  151.91   17.08
 -10   3   3  139.19   16.06
 -10   3   3  156.88   23.62
  10  -3  -2 1100.01   75.74
  10  -3  -2 1098.77   59.83
 -10   3   2 1092.03   79.65
 -10   3   2 1050.96   57.59
  10  -3  -1   17.31    9.33
  10  -3  -1   15.86    4.57
 -10   3   1   -2.05    4.35
 -10   3   1   11.85    9.25
  10  -3   0  125.84   25.49
  10  -3   0  161.86   11.99
 -10   3   0  134.92   10.87
 -10   3   0  152.00   25.45
  10  -3   1  429.17   45.03
  10  -3   1  413.32   20.20
 -10   3  -1  322.48   40.91
  10  -3   2  105.48   45.57
  10  -3   2  128.25   30.08
 -10   3  -2  148.68    9.64
 -10   3  -2  167.75    8.14
  10  -3   3  127.91   30.16
  10  -3   3  130.33   28.45
  10  -3   4  287.54   45.91
  10  -3   4  291.24   63.05
  10  -3   5   10.65   15.80
  10  -3   5   13.98   15.27
  10  -3   6  344.43   57.75
  10  -3   6  389.15   54.39
  10  -3   7   23.32   23.81
  10  -3   7   29.00   21.21
  10  -3   8   83.53   37.72
  10  -3   8   98.35   53.85
  10  -3   9   59.22   35.96
  10  -3   9   58.74   30.55
  10  -2 -13    2.71   20.60
  10  -2 -13   82.32   26.85
 -10   2  13   77.48   20.89
 -10   2  13   70.03   26.04
  10  -2 -12    1.97   13.93
  10  -2 -12   25.65   17.13
 -10   2  12   30.68   17.08
 -10   2  12   24.13   14.49
  10  -2 -11  140.58   26.83
  10  -2 -11  141.06   32.33
 -10   2  11  170.40   32.49
 -10   2  11  161.35   28.94
  10  -2 -10  259.29   51.16
  10  -2 -10  205.09   29.43
 -10   2  10  196.21   32.43
 -10   2  10  159.14   46.60
  10  -2  -9   37.23   15.49
  10  -2  -9   28.84   14.20
 -10   2   9   19.18   15.10
 -10   2   9   37.07   15.36
  10  -2  -8  356.74   37.88
  10  -2  -8  378.71   37.14
 -10   2   8  312.96   36.25
 -10   2   8  330.86   39.61
  10  -2  -7  105.01   22.61
  10  -2  -7  121.77   22.34
 -10   2   7  173.35   22.75
 -10   2   7  171.88   39.13
  10  -2  -6  121.26   18.87
  10  -2  -6  120.87   20.97
 -10   2   6   95.43   17.91
 -10   2   6   85.70   21.65
  10  -2  -5  111.03   17.04
  10  -2  -5  127.21   19.89
 -10   2   5   66.66   20.72
 -10   2   5   96.60   16.09
  10  -2  -4   75.18   14.83
  10  -2  -4   84.43   19.71
 -10   2   4  111.81   14.55
 -10   2   4  120.51   21.07
  10  -2  -3  347.20   37.15
  10  -2  -3  328.88   26.19
 -10   2   3  384.16   26.54
 -10   2   3  409.09   40.60
  10  -2  -2  211.30   28.03
  10  -2  -2  219.65   16.78
 -10   2   2  157.58   28.27
 -10   2   2  146.08   22.36
  10  -2  -1  492.17   48.46
  10  -2  -1  503.25   28.05
 -10   2   1  462.26   34.01
 -10   2   1  511.21   48.72
  10  -2   0  583.28   52.67
  10  -2   0  559.61   27.71
 -10   2   0  496.70   25.32
 -10   2   0  525.73   52.24
  10  -2   1   55.31   34.65
  10  -2   1   69.63    8.55
 -10   2  -1   44.26   20.31
  10  -2   2  719.79   66.24
  10  -2   2  756.29   66.66
 -10   2  -2  583.73   20.62
 -10   2  -2  603.39   21.79
  10  -2   3  254.77   42.91
  10  -2   3  250.95   41.34
  10  -2   4  304.06   48.69
  10  -2   4  300.09   46.24
  10  -2   5  339.52   57.10
  10  -2   5  400.16   54.82
  10  -2   6   75.60   32.96
  10  -2   6   87.61   30.36
  10  -2   7  234.00   77.32
  10  -2   7  205.23   47.35
  10  -2   8  175.62   52.82
  10  -2   8  204.09   45.40
  10  -1 -14    1.71   17.00
  10  -1 -14   19.91   20.63
 -10   1  14   27.88   17.22
 -10   1  14   41.36   21.17
  10  -1 -13  125.81   33.39
  10  -1 -13  111.63   28.66
 -10   1  13  109.49   29.81
 -10   1  13  111.75   33.80
  10  -1 -12   97.44   29.40
  10  -1 -12  104.74   25.58
 -10   1  12  110.14   29.46
 -10   1  12  111.82   27.46
  10  -1 -11  148.69   29.50
  10  -1 -11  138.13   27.18
 -10   1  11  116.46   30.09
 -10   1  11  132.52   29.39
  10  -1 -10   58.01   21.92
  10  -1 -10   52.60   19.79
 -10   1  10   73.24   20.88
 -10   1  10   82.05   22.48
  10  -1  -9  376.35   42.48
  10  -1  -9  374.91   42.52
 -10   1   9  386.47   41.59
 -10   1   9  357.39   45.11
  10  -1  -8   52.00   14.12
  10  -1  -8   33.88   22.50
 -10   1   8   14.68   12.97
 -10   1   8    9.79   15.13
  10  -1  -7  222.14   26.83
  10  -1  -7  244.81   43.42
 -10   1   7  159.68   24.10
 -10   1   7  155.06   46.28
  10  -1  -6   12.44    8.11
  10  -1  -6    9.39    9.92
 -10   1   6    3.89    7.84
 -10   1   6   12.10   10.75
  10  -1  -5  605.62   43.50
  10  -1  -5  595.23   51.75
 -10   1   5  561.68   54.97
 -10   1   5  593.19   55.97
  10  -1  -4  322.96   27.22
  10  -1  -4  349.46   37.50
 -10   1   4  339.16   26.73
 -10   1   4  316.75   38.47
  10  -1  -3   10.30    9.70
  10  -1  -3   11.60   10.82
 -10   1   3   10.56    6.12
 -10   1   3   11.23   11.48
  10  -1  -2  256.25   19.53
  10  -1  -2  245.91   33.12
 -10   1   2  275.64   36.06
 -10   1   2  291.27   27.45
  10  -1  -1  772.60   68.03
  10  -1  -1  729.45   46.50
 -10   1   1  776.64   40.20
 -10   1   1  793.55   67.59
  10  -1   0  132.42   43.56
  10  -1   0  112.53   14.05
 -10   1   0  147.82   14.83
 -10   1   0  151.09   27.53
  10  -1   1  296.06   41.59
  10  -1   1  275.36   13.10
 -10   1  -1  265.99   37.70
 -10   1  -1  256.99   12.74
  10  -1   2  170.44   35.39
  10  -1   2  155.14    5.18
 -10   1  -2  146.50   31.70
  10  -1   3   45.36   33.66
  10  -1   3   27.11   21.34
  10  -1   4  139.46   37.52
  10  -1   4  135.06   34.98
  10  -1   5  104.49   27.43
  10  -1   5   -0.68   26.47
  10  -1   6    7.68   14.19
  10  -1   6   -0.44   12.89
  10  -1   7   75.64   32.26
  10  -1   7    0.72   45.34
  10   0 -14   20.13   21.04
  10   0 -14    4.33   18.76
 -10   0  14   33.27   18.55
 -10   0  14   33.26   21.59
  10   0 -13   51.43   22.97
  10   0 -13    4.09   20.70
 -10   0  13   61.04   21.54
 -10   0  13   44.24   23.46
  10   0 -12   -1.30   23.76
  10   0 -12   82.54   25.55
 -10   0  12  111.43   25.91
 -10   0  12   83.75   25.59
  10   0 -11   28.48   16.13
  10   0 -11   -0.40   15.42
 -10   0  11   33.45   16.25
 -10   0  11   22.66   16.76
  10   0 -10  260.71   38.40
  10   0 -10  273.28   39.15
 -10   0  10  271.05   38.27
 -10   0  10  259.41   42.11
  10   0  -9   56.07   19.73
  10   0  -9   44.39   20.17
 -10   0   9   63.07   18.75
 -10   0   9   62.27   22.04
  10   0  -8  105.12   22.68
  10   0  -8  123.10   25.16
 -10   0   8  113.49   21.87
 -10   0   8  117.00   27.00
  10   0  -7  128.58   23.03
  10   0  -7  135.57   27.08
 -10   0   7  158.26   22.16
 -10   0   7  149.96   28.96
  10   0  -6   27.84   10.41
  10   0  -6   20.87   13.50
 -10   0   6   13.84   15.83
 -10   0   6    7.81   14.12
  10   0  -5  313.53   28.78
  10   0  -5  318.53   38.48
 -10   0   5  317.44   39.63
 -10   0   5  303.46   27.47
  10   0  -4  277.76   24.10
  10   0  -4  265.45   34.31
 -10   0   4  256.16   23.63
 -10   0   4  260.78   36.75
  10   0  -3   64.61   11.13
  10   0  -3   69.98   19.70
 -10   0   3   63.32   11.02
 -10   0   3   68.80   21.25
  10   0  -2  157.38   14.61
  10   0  -2  149.62   27.59
 -10   0   2  141.64   29.40
 -10   0   2  155.64   20.99
  10   0  -1  105.82   10.20
  10   0  -1  111.48   37.83
 -10   0   1   80.49    9.87
 -10   0   1   78.34   24.32
  10   0   0  160.13   35.16
  10   0   0  187.42   12.80
 -10   0   0  197.41   13.03
 -10   0   0  195.12   34.22
  10   0   1   93.07   29.43
  10   0   1   89.98    9.91
 -10   0  -1  163.01   44.33
 -10   0  -1  124.50   10.67
  10   0   2    2.27   11.52
  10   0   2    0.10    0.60
 -10   0  -2    5.18    6.60
 -10   0  -2    0.26    0.40
  10   0   3  207.57   43.47
  10   0   3  197.81   42.15
  10   0   4  194.45   42.64
  10   0   4  229.25   68.89
  10   0   5   12.61   16.13
  10   0   5    0.73   15.19
  10   0   6  169.37   45.73
  10   0   6  141.12   41.73
  10   0   7  215.64   63.39
  10   0   7   -3.81   59.38
  10   1 -14  105.22   30.30
  10   1 -14    0.82   28.30
 -10  -1  14   70.16   28.60
 -10  -1  14   95.11   30.59
  10   1 -13  152.68   39.11
  10   1 -13  177.37   37.75
 -10  -1  13  179.88   39.45
 -10  -1  13  134.42   61.72
  10   1 -12    1.81   11.60
  10   1 -12   16.75   19.48
 -10  -1  12    4.78   11.84
 -10  -1  12    1.94   12.93
  10   1 -11  111.93   29.02
  10   1 -11  120.10   29.29
 -10  -1  11  102.53   28.58
 -10  -1  11  108.45   32.56
  10   1 -10   93.30   25.31
  10   1 -10  102.67   27.19
 -10  -1  10   76.53   23.52
 -10  -1  10   88.21   28.36
  10   1  -9  175.70   29.34
  10   1  -9  139.32   31.22
 -10  -1   9  159.26   28.37
 -10  -1   9  164.01   51.41
  10   1  -8  305.92   53.48
  10   1  -8  293.75   42.91
 -10  -1   8  304.42   35.30
 -10  -1   8  319.93   43.79
  10   1  -7  201.79   26.76
  10   1  -7  220.50   32.88
 -10  -1   7  178.55   38.15
 -10  -1   7  173.19   34.72
  10   1  -6  282.87   28.22
  10   1  -6  257.60   36.43
 -10  -1   6  192.90   57.63
 -10  -1   6  227.07   26.66
  10   1  -5  119.16   17.49
  10   1  -5   95.62   25.31
 -10  -1   5   98.04   25.73
 -10  -1   5  101.23   25.67
  10   1  -4   42.66   10.58
  10   1  -4   23.39   17.64
 -10  -1   4   32.61   10.35
 -10  -1   4   38.99   18.00
  10   1  -3  137.50   16.84
  10   1  -3  155.59   30.90
 -10  -1   3  168.36   16.93
 -10  -1   3  157.62   31.90
  10   1  -2   80.29   16.21
  10   1  -2   55.06   23.51
 -10  -1   2   83.54   24.24
 -10  -1   2   69.47   10.84
  10   1  -1  267.61   17.52
  10   1  -1  265.07   37.86
 -10  -1   1  207.25   17.14
 -10  -1   1  196.29   37.66
  10   1   0  174.64   34.17
  10   1   0  147.04   11.18
 -10  -1   0  138.05   11.34
 -10  -1   0  147.58   32.93
  10   1   1   27.21    4.06
  10   1   1   54.92   31.85
 -10  -1  -1   28.60    4.16
 -10  -1  -1   13.82   19.35
  10   1   2  598.43   73.16
 -10  -1  -2  559.48   66.28
  10   1   3  144.44   31.26
  10   1   3   -0.76   30.99
  10   1   4   -0.76   24.81
  10   1   4   75.06   25.73
  10   1   5   -1.07   23.65
  10   1   5   52.59   24.75
  10   1   6   92.02   31.30
  10   1   6   -0.70   27.55
  10   2 -13   60.05   25.16
  10   2 -13   51.95   25.41
 -10  -2  13   32.04   24.87
 -10  -2  13   38.36   27.82
  10   2 -12   63.38   53.21
  10   2 -12  158.98   36.00
 -10  -2  12  120.57   33.42
 -10  -2  12  144.48   38.98
  10   2 -11   63.91   42.02
  10   2 -11   64.98   26.87
 -10  -2  11   81.40   25.39
 -10  -2  11   96.38   30.01
  10   2 -10   38.70   20.46
  10   2 -10   50.74   22.49
 -10  -2  10   45.27   19.39
 -10  -2  10   37.66   23.81
  10   2  -9  221.78   34.32
  10   2  -9  201.57   37.76
 -10  -2   9  208.48   32.39
 -10  -2   9  207.41   40.00
  10   2  -8   44.40   16.08
  10   2  -8   40.94   19.72
 -10  -2   8   30.94   16.01
 -10  -2   8   43.54   21.25
  10   2  -7  186.36   31.11
  10   2  -7  194.88   38.58
 -10  -2   7  310.22   31.35
 -10  -2   7  309.79   42.06
  10   2  -6   55.07   22.51
  10   2  -6   54.72   20.59
 -10  -2   6   53.71   21.64
 -10  -2   6   45.94   14.21
  10   2  -5   27.17   11.64
  10   2  -5   29.50   18.08
 -10  -2   5   42.58   11.66
 -10  -2   5   40.02   30.21
  10   2  -4  373.04   30.08
  10   2  -4  397.26   48.13
 -10  -2   4  338.33   30.40
 -10  -2   4  331.26   48.03
  10   2  -3   81.82   13.32
  10   2  -3  111.81   26.74
 -10  -2   3   83.74   13.61
 -10  -2   3   94.86   28.09
  10   2  -2   77.28   15.71
  10   2  -2   64.06   22.98
 -10  -2   2   39.27   23.45
 -10  -2   2   47.87   10.47
  10   2  -1  132.32   13.13
  10   2  -1  136.13   32.21
 -10  -2   1  134.50   19.30
 -10  -2   1  121.18   32.11
  10   2   0  120.35   49.87
  10   2   0  114.87   14.45
 -10  -2   0   99.87   10.37
 -10  -2   0  125.93   31.57
  10   2   1    7.64    7.44
  10   2   1   -1.54    2.11
 -10  -2  -1    7.74    6.93
  10   2   2   61.86   27.28
 -10  -2  -2   45.26   25.38
  10   2   3   -0.54   21.89
  10   2   3   39.54   21.33
  10   2   4  248.90   51.93
  10   2   4  267.00   84.82
  10   2   5   -0.68   14.06
  10   2   5    6.87   14.84
  10   3 -13   26.37   18.30
  10   3 -13   -6.75   30.27
 -10  -3  13   12.14   28.59
 -10  -3  13   10.11   20.71
  10   3 -12  128.72   35.65
  10   3 -12  132.71   36.22
 -10  -3  12   97.58   50.34
 -10  -3  12   92.97   39.72
  10   3 -11  114.00   29.48
  10   3 -11  103.93   48.37
 -10  -3  11   71.52   27.45
 -10  -3  11   71.12   32.53
  10   3 -10  102.62   31.51
  10   3 -10  139.43   36.27
 -10  -3  10  170.33   30.60
 -10  -3  10  165.69   36.94
  10   3  -9   36.93   15.35
  10   3  -9   42.54   18.38
 -10  -3   9   -5.30   14.87
 -10  -3   9   20.00   19.46
  10   3  -8  165.91   27.40
  10   3  -8  159.23   34.95
 -10  -3   8  178.74   40.73
 -10  -3   8  126.87   36.18
  10   3  -7   58.48   21.60
  10   3  -7  129.68   29.69
 -10  -3   7  136.49   32.06
 -10  -3   7  136.57   22.24
  10   3  -6   17.87   10.05
  10   3  -6   15.90   15.29
 -10  -3   6   15.98   16.10
 -10  -3   6    0.47   15.76
  10   3  -5  314.55   41.82
  10   3  -5  314.13   43.78
 -10  -3   5  247.15   28.36
 -10  -3   5  270.86   44.80
  10   3  -4   33.28   15.13
  10   3  -4   23.77   17.43
 -10  -3   4   14.48    9.41
 -10  -3   4   26.31   18.60
  10   3  -3   47.46   16.55
  10   3  -3   36.28   22.44
 -10  -3   3   44.16   11.32
 -10  -3   3   46.66   23.57
  10   3  -2   67.50   10.64
  10   3  -2   52.44   24.53
 -10  -3   2   53.69   24.84
 -10  -3   2   24.36   16.21
  10   3  -1  141.19   52.89
  10   3  -1  118.97   13.05
 -10  -3   1  130.36   14.38
 -10  -3   1  140.56   34.06
  10   3   0   91.93   29.26
  10   3   0   61.81    8.58
 -10  -3   0   87.91    9.64
 -10  -3   0  112.97   29.55
  10   3   1   64.38   29.99
 -10  -3  -1   63.85   27.86
  10   3   2   27.15   19.91
  10   3   2    2.67   20.34
  10   3   3   -1.43   51.55
  10   3   3   88.88   32.17
  10   4 -12   26.78   22.27
  10   4 -12   22.55   22.70
 -10  -4  12   44.83   32.73
 -10  -4  12   24.06   24.90
  10   4 -11  381.94   52.88
  10   4 -11  373.58   60.38
 -10  -4  11  357.27   52.33
 -10  -4  11  307.16   60.73
  10   4 -10   46.12   20.39
  10   4 -10   17.83   39.55
 -10  -4  10   40.72   19.70
 -10  -4  10   38.31   25.46
  10   4  -9   45.44   18.31
  10   4  -9   61.50   23.15
 -10  -4   9   -0.63   18.59
 -10  -4   9   58.63   24.14
  10   4  -8  148.67   42.17
  10   4  -8  168.51   36.09
 -10  -4   8  140.07   37.26
 -10  -4   8  138.53   27.37
  10   4  -7    7.40   12.80
  10   4  -7   39.92   18.31
 -10  -4   7    0.69   19.08
 -10  -4   7   28.53   12.52
  10   4  -6  135.06   23.78
  10   4  -6  137.87   35.53
 -10  -4   6  166.10   38.25
 -10  -4   6  162.64   24.54
  10   4  -5   36.88   12.30
  10   4  -5   -0.37   31.69
 -10  -4   5   23.30   12.28
 -10  -4   5   37.96   21.21
  10   4  -4   30.85   11.76
  10   4  -4   43.25   20.58
 -10  -4   4   18.45   17.84
 -10  -4   4   37.44   22.37
  10   4  -3   77.84   14.66
  10   4  -3   94.83   28.87
 -10  -4   3  102.23   31.27
 -10  -4   3   78.79   14.73
  10   4  -2   89.79   12.20
  10   4  -2   90.43   44.01
 -10  -4   2   57.47   44.97
 -10  -4   2   40.97   12.66
  10   4  -1   82.86   10.45
  10   4  -1   85.64   28.17
 -10  -4   1   -0.06   16.38
 -10  -4   1   74.56   28.78
  10   4   0   19.23   21.57
 -10  -4   0   30.41   22.12
  10   4   1   44.54   27.92
 -10  -4  -1   56.68   28.10
  10   4   2   35.82   22.16
  10   4   2   -0.95   22.59
  10   5 -11   16.73   15.57
  10   5 -11   15.07   19.30
 -10  -5  11    3.72   16.11
 -10  -5  11   18.02   30.65
  10   5 -10   36.22   27.25
  10   5 -10   -5.34   34.81
 -10  -5  10    1.15   17.42
 -10  -5  10   54.70   22.55
  10   5  -9   72.90   25.48
  10   5  -9   66.38   31.56
 -10  -5   9  102.65   33.70
 -10  -5   9  112.91   25.88
  10   5  -8    6.40    6.84
  10   5  -8    0.12    9.00
 -10  -5   8   -2.82    9.39
 -10  -5   8   -2.83    6.64
  10   5  -7  110.42   23.22
  10   5  -7    5.96   33.06
 -10  -5   7  137.86   34.77
 -10  -5   7  112.95   23.37
  10   5  -6   27.49   21.49
  10   5  -6    3.31   34.22
 -10  -5   6   30.64   14.58
 -10  -5   6   47.91   23.48
  10   5  -5   46.54   13.52
  10   5  -5   -0.02   22.55
 -10  -5   5   37.32   13.70
 -10  -5   5   33.59   24.90
  10   5  -4  280.28   27.82
  10   5  -4  264.83   47.28
 -10  -5   4  200.34   27.57
 -10  -5   4  207.59   49.70
  10   5  -3   90.39   15.75
  10   5  -3  102.90   50.36
 -10  -5   3   86.29   34.05
 -10  -5   3   91.69   16.95
  10   5  -2   25.96    8.86
  10   5  -2   26.92   21.07
 -10  -5   2   19.84    9.69
 -10  -5   2   37.59   22.69
  10   5  -1   27.77    9.83
  10   5  -1   44.36   18.48
 -10  -5   1    0.26    6.79
 -10  -5   1   26.12   19.11
  10   5   0   42.76   26.41
 -10  -5   0   40.89   26.99
  10   6 -10   13.61   14.01
  10   6 -10    3.44   29.44
 -10  -6  10    4.01   14.31
 -10  -6  10   13.33   18.49
  10   6  -9   96.02   24.66
  10   6  -9  141.99   32.52
 -10  -6   9   78.92   32.95
 -10  -6   9   -4.64   25.31
  10   6  -8   43.35   15.57
  10   6  -8    0.00   22.51
 -10  -6   8   56.16   23.84
 -10  -6   8    1.77   16.80
  10   6  -7   77.33   18.38
  10   6  -7   -3.26   27.58
 -10  -6   7   61.39   27.21
 -10  -6   7    3.05   29.53
  10   6  -6    3.85    6.60
  10   6  -6   -0.04   10.77
 -10  -6   6    0.38    6.94
 -10  -6   6   -1.13   11.28
  10   6  -5  141.00   23.89
  10   6  -5  136.26   39.63
 -10  -6   5  144.50   25.23
 -10  -6   5  183.33   42.88
  10   6  -4   85.76   18.79
  10   6  -4   94.98   53.71
 -10  -6   4  120.65   20.72
 -10  -6   4  116.08   59.31
  10   6  -3   49.36   12.67
  10   6  -3   50.12   25.87
 -10  -6   3   54.50   28.81
 -10  -6   3   35.23   13.73
  10   6  -2   40.72    9.62
  10   6  -2   34.50   22.87
 -10  -6   2    0.33   10.46
 -10  -6   2   54.11   24.97
 -11  15  -1   86.96   29.76
 -11  15  -1  107.00   30.69
 -11  15  -2   38.40   21.90
 -11  15  -2   48.89   22.53
 -11  15  -3   19.04   17.19
 -11  15  -3   26.65   17.38
 -11  15  -4  157.09   29.61
 -11  15  -4  151.01   31.65
 -11  14   2   71.17   28.54
 -11  14   2   50.04   28.30
 -11  14   1    8.32   11.89
 -11  14   1   -0.91   11.77
 -11  14   0  203.05   38.02
 -11  14   0  177.37   37.82
 -11  14  -1  138.10   31.21
 -11  14  -1   98.37   48.61
 -11  14  -2   11.28   13.78
 -11  14  -2   14.05   13.63
 -11  14  -3  100.18   25.09
 -11  14  -3   95.77   25.37
 -11  14  -4  212.53   48.46
 -11  14  -4  206.57   49.01
  11 -14   5    3.55    4.82
  11 -14   5   -2.60    5.31
 -11  14  -5    1.90    7.57
 -11  14  -5   15.09    7.97
  11 -14   6   93.54   18.82
  11 -14   6   87.10   17.83
 -11  14  -6  107.06   30.57
 -11  14  -6  127.69   20.96
  11 -14   7   14.68   10.85
  11 -14   7    1.22   11.62
 -11  14  -7    0.84   10.45
 -11  14  -7   37.19   10.34
 -11  13   4    4.17   14.21
 -11  13   4    5.90   14.66
 -11  13   3   41.07   22.82
 -11  13   3   28.25   22.12
 -11  13   2   73.99   27.30
 -11  13   2   70.55   26.96
 -11  13   1   25.81   25.03
 -11  13   1    7.94   24.34
 -11  13   0   23.47   19.23
 -11  13   0   54.02   19.07
 -11  13  -1   20.07   16.85
 -11  13  -1   39.99   16.66
 -11  13  -2  210.14   50.05
 -11  13  -2  244.51   50.77
  11 -13   3   40.44   13.49
  11 -13   3   52.72    9.16
 -11  13  -3   23.18   16.51
 -11  13  -3   18.44   16.36
  11 -13   4  106.53   22.25
  11 -13   4  120.62   16.80
 -11  13  -4  114.76   22.36
 -11  13  -4   90.22   22.18
  11 -13   5   61.79   18.46
  11 -13   5   61.27   21.26
 -11  13  -5   33.76   14.13
 -11  13  -5   37.55   15.38
  11 -13   6  107.54   20.82
  11 -13   6  134.23   26.63
 -11  13  -6   68.97   26.27
 -11  13  -6   68.95   18.16
  11 -13   7   19.19   10.88
  11 -13   7    0.18   12.52
 -11  13  -7   18.49    8.63
 -11  13  -7    8.26   13.48
  11 -13   8    8.44   12.27
  11 -13   8   24.95   21.57
 -11  13  -8   15.09    8.09
 -11  13  -8   10.29   12.06
 -11  12   6    7.69   13.48
 -11  12   6   -1.41   14.73
 -11  12   5    9.79   28.98
 -11  12   5   16.92   19.42
 -11  12   4   50.23   24.60
 -11  12   4   51.57   25.75
 -11  12   3  123.31   32.22
 -11  12   3  119.59   32.98
 -11  12   2  144.44   34.03
 -11  12   2  155.13   32.39
 -11  12   1   52.35   21.79
 -11  12   1   63.41   21.41
 -11  12   0   19.05   22.11
 -11  12   0   17.44   21.38
  11 -12   1  283.33   21.39
  11 -12   1  307.14   27.90
 -11  12  -1  358.37   38.89
 -11  12  -1  323.18   37.38
  11 -12   2  309.65   24.12
  11 -12   2  309.77   25.29
 -11  12  -2  347.41   37.42
 -11  12  -2  339.23   36.67
  11 -12   3  122.27   16.55
  11 -12   3  146.96   25.89
 -11  12  -3  113.54   21.27
 -11  12  -3  108.49   21.42
  11 -12   4  196.64   26.39
  11 -12   4  223.22   24.53
 -11  12  -4  248.99   27.62
 -11  12  -4  243.24   40.14
  11 -12   5  374.46   37.14
  11 -12   5  382.68   35.27
 -11  12  -5  339.48   32.31
 -11  12  -5  328.61   32.45
  11 -12   6    5.58   23.07
  11 -12   6   47.18   13.52
 -11  12  -6   34.00   10.53
 -11  12  -6   22.31   10.73
  11 -12   7   35.19   13.35
  11 -12   7   12.78   15.63
 -11  12  -7   22.99    8.59
 -11  12  -7   24.43    8.77
  11 -12   8   27.60   13.35
  11 -12   8    1.39   15.89
 -11  11   7   90.02   28.40
 -11  11   7   -2.61   26.57
 -11  11   6   55.48   27.48
 -11  11   6   66.36   29.86
 -11  11   5  219.87   41.64
 -11  11   5  206.26   44.51
 -11  11   4   73.30   26.02
 -11  11   4   79.53   27.95
 -11  11   3   96.93   26.40
 -11  11   3   95.76   27.95
  11 -11  -2    1.77    2.21
  11 -11  -2    0.60    2.22
 -11  11   2    7.06    7.94
 -11  11   2    9.98    8.58
  11 -11  -1   86.67    9.75
 -11  11   1  116.37   23.80
 -11  11   1  102.51   23.14
  11 -11   0    9.69    5.99
  11 -11   0    8.09    5.84
 -11  11   0   37.27   11.89
 -11  11   0   38.02   11.57
  11 -11   1   23.75    8.99
  11 -11   1   21.23   13.25
 -11  11  -1   44.35   13.58
 -11  11  -1   47.54   13.50
  11 -11   2   63.74   11.99
  11 -11   2   45.52   11.97
 -11  11  -2   51.48   14.99
 -11  11  -2   44.42   22.76
  11 -11   3  349.21   29.73
  11 -11   3  280.10   29.39
 -11  11  -3  278.18   29.56
 -11  11  -3  275.81   28.22
  11 -11   4  128.32   22.87
  11 -11   4  145.91   31.61
 -11  11  -4  170.24   20.21
 -11  11  -4  148.64   18.96
  11 -11   5   87.41   17.90
  11 -11   5   81.39   16.60
 -11  11  -5   40.67   12.59
 -11  11  -5   54.82   11.80
  11 -11   6  216.33   28.50
  11 -11   6  210.70   46.97
 -11  11  -6  175.99   18.87
 -11  11  -6  172.58   18.38
  11 -11   7  273.12   35.84
  11 -11   7  309.93   42.51
 -11  11  -7  282.45   21.23
 -11  11  -7  263.75   20.56
  11 -11   8   53.34   18.74
  11 -11   8   -1.28   33.49
  11 -11   9   93.59   23.62
  11 -11   9    2.23   26.21
  11 -10  -8    3.39   11.73
 -11  10   8    0.14   19.89
  11 -10  -7   17.08   15.06
 -11  10   7    1.87   14.72
 -11  10   6   -0.63   15.93
 -11  10   6   28.73   17.35
 -11  10   5   -2.57    9.67
 -11  10   5    8.93   10.54
  11 -10  -4  232.02   15.38
 -11  10   4  245.47   37.57
 -11  10   4  278.98   40.75
  11 -10  -3  254.11   17.27
  11 -10  -3  248.63   14.96
 -11  10   3  237.83   35.53
 -11  10   3  265.42   56.45
  11 -10  -2  152.70   13.79
  11 -10  -2  163.69   14.29
 -11  10   2  151.77   27.17
 -11  10   2  142.77   29.28
  11 -10  -1   68.43   10.66
  11 -10  -1   70.31   10.67
 -11  10   1   64.80   18.38
 -11  10   1   65.66   19.09
  11 -10   0  188.12   18.55
  11 -10   0  205.99   26.96
 -11  10   0  163.73   24.49
 -11  10   0  173.67   26.51
  11 -10   1  103.58   15.89
  11 -10   1  118.71   15.83
 -11  10  -1   70.66   26.45
 -11  10  -1   82.45   18.54
  11 -10   2  394.42   45.78
  11 -10   2  370.18   33.18
 -11  10  -2  376.52   32.66
 -11  10  -2  358.66   32.42
  11 -10   3  307.39   30.20
  11 -10   3  284.11   31.06
 -11  10  -3  272.27   25.39
 -11  10  -3  242.99   24.42
  11 -10   4   25.34   14.43
  11 -10   4   29.39   21.34
 -11  10  -4   39.85   10.12
 -11  10  -4   41.44    9.52
  11 -10   5  414.33   44.92
  11 -10   5  427.19   42.94
 -11  10  -5  395.11   36.03
 -11  10  -5  355.23   26.21
  11 -10   6  261.96   34.90
  11 -10   6  223.24   55.69
 -11  10  -6  236.49   25.12
 -11  10  -6  218.97   23.03
  11 -10   7   54.99   16.85
  11 -10   7   -1.09   18.92
  11 -10   8  112.33   25.94
  11 -10   8    1.89   46.40
  11 -10   9   52.76   20.00
  11 -10   9   -1.43   23.72
  11  -9  -9   -2.03   19.15
 -11   9   9   -2.85   11.66
  11  -9  -8   28.13   24.26
 -11   9   8    1.59   15.09
  11  -9  -7   54.44   21.40
 -11   9   7    0.31   32.22
  11  -9  -6    0.26    5.63
  11  -9  -6    5.73   10.92
 -11   9   6    2.87   10.96
 -11   9   6    8.98    6.14
  11  -9  -5    3.27   10.92
  11  -9  -5    2.58    6.31
 -11   9   5   -1.13   10.60
 -11   9   5    8.93    4.50
  11  -9  -4  200.76   23.70
  11  -9  -4  196.98   32.82
 -11   9   4  246.89   49.16
 -11   9   4  222.10   17.68
  11  -9  -3   78.15   16.01
  11  -9  -3   88.63   12.09
 -11   9   3   60.28   19.45
 -11   9   3   65.83   21.55
  11  -9  -2  118.87   20.36
  11  -9  -2  106.65   13.84
 -11   9   2  109.44   21.12
 -11   9   2  122.33   23.25
  11  -9  -1  135.76   16.06
  11  -9  -1  129.15   15.83
 -11   9   1   91.86   20.02
 -11   9   1  137.09   22.26
  11  -9   0  668.53   46.10
  11  -9   0  667.50   46.58
 -11   9   0  633.27   47.24
 -11   9   0  689.58   52.38
  11  -9   1   48.53   12.07
  11  -9   1   60.17   12.38
 -11   9  -1   21.98   17.29
 -11   9  -1   22.42   11.58
  11  -9   2   87.96   16.88
  11  -9   2   99.17   17.46
 -11   9  -2   71.74   12.86
 -11   9  -2   69.33   13.58
  11  -9   3  198.11   26.10
  11  -9   3  175.64   25.00
 -11   9  -3  160.59   24.39
 -11   9  -3  156.81   17.24
  11  -9   4   54.33   15.94
  11  -9   4   47.27   22.91
 -11   9  -4   32.03   11.69
 -11   9  -4   33.06    8.30
  11  -9   5  167.36   33.72
  11  -9   5  188.17   31.81
 -11   9  -5  236.34   16.26
 -11   9  -5  240.64   16.83
  11  -9   6  111.28   44.23
  11  -9   6  135.93   27.66
  11  -9   7  124.80   29.81
  11  -9   7  118.09   31.90
  11  -9   8  195.65   37.67
  11  -9   8  220.96   43.99
  11  -9   9   44.83   21.42
  11  -9   9   -2.95   40.24
  11  -8 -10   16.92   16.08
 -11   8  10   -1.76   15.54
  11  -8  -9   67.70   22.49
 -11   8   9   -2.85   23.03
 -11   8   9   39.00   14.15
  11  -8  -8   59.65    9.87
  11  -8  -8   92.26   23.85
 -11   8   8    0.31   34.98
 -11   8   8   35.77   10.02
  11  -8  -7   13.26    9.01
  11  -8  -7   11.43   14.09
 -11   8   7   -3.40   13.39
 -11   8   7   14.91    6.62
  11  -8  -6  107.79   24.95
  11  -8  -6   81.78   11.90
 -11   8   6   98.94   23.16
 -11   8   6   83.27   13.04
  11  -8  -5  157.29   26.83
  11  -8  -5  142.87   15.13
 -11   8   5  109.65   38.24
 -11   8   5  109.75   15.56
  11  -8  -4  164.81   17.08
  11  -8  -4  140.14   40.60
 -11   8   4  139.55   26.39
 -11   8   4  166.92   17.75
  11  -8  -3  209.30   20.43
  11  -8  -3  213.89   28.35
 -11   8   3  210.89   27.47
 -11   8   3  208.88   28.91
  11  -8  -2   10.65    5.43
  11  -8  -2    8.99    7.19
 -11   8   2   -6.56    6.89
 -11   8   2    1.73    5.63
  11  -8  -1  142.35   18.64
  11  -8  -1  145.23   19.00
 -11   8   1  143.26   19.30
 -11   8   1  138.44   21.09
  11  -8   0  176.25   22.20
  11  -8   0  189.06   21.66
 -11   8   0  161.96   19.21
 -11   8   0  162.53   21.42
  11  -8   1  309.33   30.80
  11  -8   1  273.87   43.86
 -11   8  -1  305.33   24.79
 -11   8  -1  317.67   26.70
  11  -8   2  133.64   21.13
  11  -8   2  124.72   33.35
 -11   8  -2  108.63   13.45
 -11   8  -2  114.09   14.52
  11  -8   3  120.96   24.30
  11  -8   3  121.98   23.36
 -11   8  -3  140.06   13.13
 -11   8  -3  136.93   13.69
  11  -8   4  475.91   49.20
  11  -8   4  490.89   47.61
 -11   8  -4  436.41   30.99
 -11   8  -4  455.07   26.13
  11  -8   5   37.98   19.20
  11  -8   5   44.08   18.26
 -11   8  -5   51.80    6.80
 -11   8  -5   39.96    5.50
  11  -8   6   61.19   23.62
  11  -8   6   62.32   21.87
  11  -8   7  226.60   42.97
  11  -8   8    1.45    9.06
  11  -8   8    0.31    9.86
  11  -8   9   65.00   23.86
  11  -8   9    2.95   28.04
  11  -7 -11   35.94   15.91
  11  -7 -11   74.13   24.27
 -11   7  11    0.50   22.98
 -11   7  11   29.15   16.93
  11  -7 -10   17.64    7.89
  11  -7 -10   31.56   16.89
 -11   7  10    3.32   16.22
 -11   7  10    6.63    8.33
  11  -7  -9  116.23   16.57
  11  -7  -9  125.67   32.24
 -11   7   9  123.30   31.88
 -11   7   9  122.68   17.57
  11  -7  -8   51.04   16.09
  11  -7  -8   54.88   21.10
 -11   7   8    2.56   20.25
 -11   7   8   49.66   11.58
  11  -7  -7  218.46   35.67
  11  -7  -7  213.78   20.57
 -11   7   7  236.97   35.06
 -11   7   7  220.82   23.53
  11  -7  -6  179.69   19.37
  11  -7  -6  160.70   30.67
 -11   7   6  192.43   45.87
 -11   7   6  207.91   21.64
  11  -7  -5  121.90   16.72
  11  -7  -5  120.39   23.89
 -11   7   5  137.90   23.55
 -11   7   5  128.58   17.65
  11  -7  -4   47.95   11.46
  11  -7  -4   75.14   15.94
 -11   7   4   35.32   14.39
 -11   7   4   39.76   11.88
  11  -7  -3   94.70   15.33
  11  -7  -3   93.98   18.95
 -11   7   3  103.60   17.11
 -11   7   3  100.30   16.19
  11  -7  -2  302.44   28.52
  11  -7  -2  322.29   29.42
 -11   7   2  303.45   27.92
 -11   7   2  316.46   40.92
  11  -7  -1  114.72   18.19
  11  -7  -1  119.61   16.58
 -11   7   1  109.36   15.60
 -11   7   1  112.51   18.26
  11  -7   0   54.59   20.91
  11  -7   0   43.53   13.72
 -11   7   0   39.74    9.36
 -11   7   0   37.74   11.01
  11  -7   1  662.63   53.01
  11  -7   1  588.13   70.41
 -11   7  -1  612.39   36.58
 -11   7  -1  688.88   52.56
  11  -7   2   33.49   27.06
  11  -7   2   33.60   16.16
 -11   7  -2   60.33   12.54
 -11   7  -2   56.97    9.05
  11  -7   3  285.46   38.67
  11  -7   3  282.18   36.92
 -11   7  -3  295.45   17.58
 -11   7  -3  304.41   18.96
  11  -7   4   89.82   23.28
  11  -7   4   97.96   21.98
 -11   7  -4   82.65    6.20
 -11   7  -4   76.46    6.83
  11  -7   5   21.39   17.39
  11  -7   5   28.38   16.04
  11  -7   6   27.42   21.31
  11  -7   6   47.96   20.23
  11  -7   7   45.10   46.79
  11  -7   7   88.09   27.02
  11  -7   8    6.53   12.73
  11  -7   8    0.35   14.13
  11  -7   9   77.02   26.82
  11  -7   9   -3.17   30.26
  11  -6 -11  212.16   25.79
  11  -6 -11  243.05   46.20
 -11   6  11  191.04   43.68
 -11   6  11  213.38   27.95
  11  -6 -10   45.31   11.82
  11  -6 -10   31.59   21.65
 -11   6  10    1.30   20.03
 -11   6  10   24.07   18.88
  11  -6  -9    9.21   11.51
  11  -6  -9    6.97   13.72
 -11   6   9    2.47   12.83
 -11   6   9   10.58    8.04
  11  -6  -8  136.41   28.06
  11  -6  -8  111.44   16.93
 -11   6   8  105.85   26.35
 -11   6   8  102.82   18.55
  11  -6  -7  142.11   28.69
  11  -6  -7  140.46   18.28
 -11   6   7  118.02   25.88
 -11   6   7  110.57   28.63
  11  -6  -6   14.08    9.15
  11  -6  -6   17.84   13.62
 -11   6   6   29.35   12.70
 -11   6   6   21.58   10.02
  11  -6  -5  147.67   20.10
  11  -6  -5  154.98   25.24
 -11   6   5  172.14   24.44
 -11   6   5  170.03   21.52
  11  -6  -4   28.88   17.13
  11  -6  -4   32.05   12.36
 -11   6   4   35.22   12.27
 -11   6   4   27.38   11.79
  11  -6  -3  159.32   20.54
  11  -6  -3  179.19   20.79
 -11   6   3  122.60   19.25
 -11   6   3  130.56   20.87
  11  -6  -2  149.95   21.69
  11  -6  -2  160.48   19.64
 -11   6   2  154.59   18.39
 -11   6   2  169.16   22.64
  11  -6  -1  164.75   33.36
  11  -6  -1  173.03   25.79
 -11   6   1  140.69   16.67
 -11   6   1  154.47   22.70
  11  -6   0   40.93    8.72
  11  -6   0   55.41   14.74
 -11   6   0   28.76   12.74
 -11   6   0   36.20   14.19
  11  -6   1  252.60   31.33
  11  -6   1  286.98   31.31
 -11   6  -1  189.44   15.47
 -11   6  -1  200.68   17.21
  11  -6   2  267.72   33.93
  11  -6   2  298.47   51.88
 -11   6  -2  237.06   15.51
 -11   6  -2  255.69   16.86
  11  -6   3  121.64   27.69
  11  -6   3  146.24   27.60
 -11   6  -3  135.26    9.27
  11  -6   4   62.97   21.93
  11  -6   4   65.70   32.07
 -11   6  -4   51.41    3.08
 -11   6  -4   55.17    4.65
  11  -6   5  661.24   72.43
  11  -6   5  709.09   69.77
  11  -6   6   75.42   28.02
  11  -6   6   66.87   26.39
  11  -6   7  159.25   43.47
  11  -6   7  187.66   38.62
  11  -6   8   79.72   53.66
  11  -6   8   75.25   30.17
  11  -6   9  123.75   32.83
  11  -6   9    0.47   37.41
  11  -5 -12   38.48   12.58
  11  -5 -12   28.71   20.85
 -11   5  12   29.58   32.40
 -11   5  12   -0.82   13.05
  11  -5 -11  188.51   26.46
  11  -5 -11  181.55   40.58
 -11   5  11  164.80   40.28
 -11   5  11  199.48   41.07
  11  -5 -10   19.46   10.85
  11  -5 -10   23.35   16.99
 -11   5  10    1.96   15.74
 -11   5  10   21.54   11.46
  11  -5  -9   55.28   19.45
  11  -5  -9   31.01   18.74
 -11   5   9    0.01   18.41
 -11   5   9   44.78   14.07
  11  -5  -8  115.71   19.46
  11  -5  -8  105.92   25.99
 -11   5   8  138.84   25.39
 -11   5   8  121.87   21.09
  11  -5  -7  120.19   18.94
  11  -5  -7  122.47   24.11
 -11   5   7   93.90   34.87
 -11   5   7   89.73   19.26
  11  -5  -6  250.18   27.36
  11  -5  -6  228.66   30.93
 -11   5   6  242.51   29.90
 -11   5   6  259.33   28.86
  11  -5  -5   54.07   12.73
  11  -5  -5   41.11   21.68
 -11   5   5   27.69   13.25
 -11   5   5   36.35   13.66
  11  -5  -4  745.48   55.76
  11  -5  -4  770.48   56.30
 -11   5   4  710.31   50.81
 -11   5   4  834.99   77.44
  11  -5  -3   24.16   11.33
  11  -5  -3   39.14   10.06
 -11   5   3   12.72    9.15
 -11   5   3   16.85   12.22
  11  -5  -2  167.84   36.80
  11  -5  -2  173.33   18.68
 -11   5   2  165.66   26.38
 -11   5   2  202.64   26.05
  11  -5  -1  538.13   47.55
  11  -5  -1  549.86   44.88
 -11   5   1  497.46   32.38
 -11   5   1  517.28   47.28
  11  -5   0  192.45   16.72
  11  -5   0  200.01   29.09
 -11   5   0  200.14   22.41
 -11   5   0  204.18   29.08
  11  -5   1  467.91   47.49
  11  -5   1  435.90   66.83
 -11   5  -1  399.55   22.95
 -11   5  -1  436.98   25.42
  11  -5   2   61.36   21.09
  11  -5   2   59.43   22.31
 -11   5  -2   72.88    7.39
  11  -5   3   40.28   19.17
  11  -5   3   41.78   18.13
 -11   5  -3   32.37    3.01
 -11   5  -3   37.89    3.27
  11  -5   4  224.06   39.41
  11  -5   4  235.17   38.43
  11  -5   5  123.50   36.32
  11  -5   5  172.39   33.93
  11  -5   6   -9.40   18.79
  11  -5   6    3.12   17.66
  11  -5   7  102.95   37.37
  11  -5   7  106.28   34.03
  11  -5   8   40.96   25.54
  11  -5   8   15.17   23.19
  11  -4 -12   49.18   17.62
  11  -4 -12   32.50   26.35
 -11   4  12   67.16   25.48
 -11   4  12   51.53   18.71
  11  -4 -11   41.66   15.53
  11  -4 -11   58.99   22.14
 -11   4  11   47.18   22.68
 -11   4  11   27.27   16.62
  11  -4 -10  263.30   33.27
  11  -4 -10  283.68   43.99
 -11   4  10  298.99   43.88
 -11   4  10  306.82   36.89
  11  -4  -9    9.11   16.05
  11  -4  -9   15.78   12.01
 -11   4   9   36.65   15.81
 -11   4   9   33.13   13.61
  11  -4  -8    4.03   15.24
  11  -4  -8   13.90   12.01
 -11   4   8   13.12   18.01
 -11   4   8    9.53   10.27
  11  -4  -7  266.70   29.22
  11  -4  -7  259.28   32.73
 -11   4   7  215.38   30.50
 -11   4   7  202.24   30.52
  11  -4  -6   54.88   16.00
  11  -4  -6   51.73   16.57
 -11   4   6   57.99   16.24
 -11   4   6   74.06   26.46
  11  -4  -5  252.86   27.35
  11  -4  -5  231.20   40.06
 -11   4   5  170.93   36.45
 -11   4   5  176.98   28.15
  11  -4  -4    9.11    9.07
  11  -4  -4    4.10    7.70
 -11   4   4    8.37   11.90
 -11   4   4   16.13    9.98
  11  -4  -3   29.68   21.74
  11  -4  -3   29.23   10.21
 -11   4   3   40.51    9.94
 -11   4   3   28.14   15.02
  11  -4  -2  426.23   41.26
  11  -4  -2  439.91   31.26
 -11   4   2  404.79   29.43
 -11   4   2  439.05   44.05
  11  -4  -1   26.50   16.29
  11  -4  -1   34.98   12.98
 -11   4   1   42.91    8.16
 -11   4   1   40.62   16.05
  11  -4   0  157.58   13.05
  11  -4   0  157.44   27.53
 -11   4   0  106.44   16.88
 -11   4   0  112.62   25.63
  11  -4   1  267.44   15.60
  11  -4   1  280.27   36.96
 -11   4  -1  218.30   13.85
 -11   4  -1  238.96   34.40
  11  -4   2   49.73   21.19
  11  -4   2   36.68   21.11
 -11   4  -2   48.13    4.50
 -11   4  -2   55.16    5.02
  11  -4   3  633.60   67.69
  11  -4   3  601.97   66.02
  11  -4   4   23.07   19.53
  11  -4   4   26.90   18.49
  11  -4   5   41.76   24.06
  11  -4   5   36.40   34.98
  11  -4   6   74.25   30.11
  11  -4   6   51.04   27.20
  11  -4   7    1.04   31.85
  11  -4   7   17.13   18.67
  11  -4   8  111.08   43.14
  11  -4   8  103.48   38.21
  11  -3 -12    1.25   17.92
  11  -3 -12   71.64   25.19
 -11   3  12   65.93   24.00
 -11   3  12   61.23   19.37
  11  -3 -11   96.21   22.67
  11  -3 -11   94.81   30.44
 -11   3  11   93.25   28.74
 -11   3  11  103.04   25.10
  11  -3 -10  220.81   31.66
  11  -3 -10  174.37   57.26
 -11   3  10  222.71   37.30
 -11   3  10  245.30   34.60
  11  -3  -9   56.87   18.65
  11  -3  -9   58.45   21.27
 -11   3   9   47.49   33.22
 -11   3   9   80.30   19.90
  11  -3  -8   86.45   18.47
  11  -3  -8   74.72   21.37
 -11   3   8   64.56   20.56
 -11   3   8   67.10   21.02
  11  -3  -7   24.71   12.55
  11  -3  -7   22.48   12.66
 -11   3   7   14.98   13.89
 -11   3   7   25.26   19.76
  11  -3  -6  193.92   27.12
  11  -3  -6  166.19   25.18
 -11   3   6  168.68   28.81
 -11   3   6  175.79   36.20
  11  -3  -5  185.12   39.75
  11  -3  -5  185.93   35.60
 -11   3   5  185.14   22.45
 -11   3   5  183.77   29.46
  11  -3  -4   16.92   11.14
  11  -3  -4   16.67    8.11
 -11   3   4    9.30    8.00
 -11   3   4    5.06   11.78
  11  -3  -3  116.34   22.44
  11  -3  -3  122.55   14.84
 -11   3   3   66.96   23.27
 -11   3   3   79.39   13.64
  11  -3  -2   78.40   21.22
  11  -3  -2   91.13   12.46
 -11   3   2   85.47   12.19
 -11   3   2   73.22   22.03
  11  -3  -1  191.40   30.02
  11  -3  -1  207.75   22.87
 -11   3   1  147.20   14.14
 -11   3   1  155.60   45.15
  11  -3   0  256.08   55.80
  11  -3   0  241.97   16.72
 -11   3   0  254.86   16.35
 -11   3   0  288.11   37.61
  11  -3   1   10.93    5.29
  11  -3   1   11.26   13.68
 -11   3  -1    9.04   13.01
  11  -3   2  264.91   43.14
  11  -3   2  305.84   42.46
 -11   3  -2  237.24    9.70
 -11   3  -2  250.98   10.40
  11  -3   3   93.82   49.59
  11  -3   3  108.55   30.53
  11  -3   4   48.88   25.91
  11  -3   4   47.58   24.52
  11  -3   5  177.02   66.53
  11  -3   5  165.17   40.57
  11  -3   6   35.16   27.95
  11  -3   6   41.66   25.08
  11  -3   7   15.30   22.87
  11  -3   7   19.38   21.08
  11  -2 -13   -2.67    9.44
  11  -2 -13    0.54   11.87
 -11   2  13   -1.50   12.25
 -11   2  13   -5.89    9.89
  11  -2 -12    1.07   17.29
  11  -2 -12   51.99   21.22
 -11   2  12   40.10   20.86
 -11   2  12   40.52   18.54
  11  -2 -11    3.04   20.34
  11  -2 -11   56.06   24.32
 -11   2  11   86.47   37.09
 -11   2  11  111.66   23.06
  11  -2 -10    9.89   13.24
  11  -2 -10   13.67   15.36
 -11   2  10   15.74   23.25
 -11   2  10   26.97   14.83
  11  -2  -9  370.42   43.77
  11  -2  -9  340.60   66.29
 -11   2   9  388.46   44.80
 -11   2   9  402.48   48.45
  11  -2  -8  100.19   33.96
  11  -2  -8   93.09   34.08
 -11   2   8   77.48   32.68
 -11   2   8   83.57   24.29
  11  -2  -7  212.01   30.65
  11  -2  -7  230.15   49.57
 -11   2   7  256.81   54.24
 -11   2   7  256.10   44.18
  11  -2  -6  595.05   62.44
  11  -2  -6  581.60   52.32
 -11   2   6  478.29   51.98
 -11   2   6  465.01   42.07
  11  -2  -5   24.03   13.41
  11  -2  -5   22.25   15.79
 -11   2   5   19.97    9.68
 -11   2   5   12.50   14.35
  11  -2  -4  353.78   39.12
  11  -2  -4  349.38   29.21
 -11   2   4  298.76   27.10
 -11   2   4  309.91   41.28
  11  -2  -3   49.19   18.83
  11  -2  -3   54.53   11.25
 -11   2   3   62.27   19.97
 -11   2   3   50.76   10.86
  11  -2  -2   86.11   21.93
  11  -2  -2   73.81   11.21
 -11   2   2   59.50   10.37
 -11   2   2   42.06   33.21
  11  -2  -1  405.88   68.04
  11  -2  -1  398.98   32.95
 -11   2   1  379.89   23.81
 -11   2   1  429.13   48.03
  11  -2   0   22.75   16.94
  11  -2   0   26.82    5.31
 -11   2   0   12.88    7.49
 -11   2   0    9.40   16.08
  11  -2   1  114.17   10.70
  11  -2   1  140.66   30.43
 -11   2  -1  104.58    7.72
 -11   2  -1  112.36   28.91
  11  -2   2  172.95   38.65
  11  -2   2  165.68   38.44
  11  -2   3   54.34   24.44
  11  -2   3   49.06   26.88
  11  -2   4   61.11   29.80
  11  -2   4   53.23   26.61
  11  -2   5   35.48   27.41
  11  -2   5   40.15   25.04
  11  -2   6    4.48   20.79
  11  -2   6   17.22   18.94
  11  -2   7   21.70   27.65
  11  -2   7   31.30   25.60
  11  -1 -13   79.50   41.99
  11  -1 -13    0.99   23.60
 -11   1  13   94.68   42.13
 -11   1  13   77.40   24.59
  11  -1 -12  130.46   32.08
  11  -1 -12  109.04   29.04
 -11   1  12   93.97   48.88
 -11   1  12   89.96   31.04
  11  -1 -11  205.11   39.82
  11  -1 -11  206.23   36.04
 -11   1  11  183.92   38.26
 -11   1  11  229.22   39.85
  11  -1 -10   35.23   19.10
  11  -1 -10   -1.19   18.24
 -11   1  10   51.68   18.31
 -11   1  10   53.99   20.51
  11  -1  -9   66.96   21.22
  11  -1  -9   48.55   21.01
 -11   1   9   60.73   20.22
 -11   1   9   66.94   23.62
  11  -1  -8   18.87   13.20
  11  -1  -8   15.40   13.92
 -11   1   8   29.43   19.97
 -11   1   8    9.56   15.45
  11  -1  -7  129.79   42.43
  11  -1  -7  175.66   32.90
 -11   1   7  227.19   54.30
 -11   1   7  245.29   28.43
  11  -1  -6   41.41   22.67
  11  -1  -6   47.20   17.87
 -11   1   6   41.47   19.99
 -11   1   6   46.36   13.81
  11  -1  -5  334.43   30.52
  11  -1  -5  342.70   39.24
 -11   1   5  248.06   26.84
 -11   1   5  231.56   40.34
  11  -1  -4   79.62   14.41
  11  -1  -4   73.26   22.62
 -11   1   4   72.56   13.73
 -11   1   4   93.72   24.13
  11  -1  -3  182.30   19.32
  11  -1  -3  206.90   32.30
 -11   1   3  175.62   33.29
 -11   1   3  172.02   18.13
  11  -1  -2  336.43   60.34
  11  -1  -2  300.43   29.70
 -11   1   2  259.89   60.59
 -11   1   2  235.49   19.67
  11  -1  -1  284.13   41.97
  11  -1  -1  271.32   18.92
 -11   1   1  264.82   18.81
 -11   1   1  264.68   42.52
  11  -1   0  156.60   35.13
  11  -1   0  155.18   16.97
 -11   1   0  168.50   11.77
 -11   1   0  168.72   34.63
  11  -1   1  203.07   39.08
  11  -1   1  183.65   12.68
 -11   1  -1  180.38   35.78
 -11   1  -1  161.14   12.27
  11  -1   2   80.52   28.15
  11  -1   2   46.84   27.97
  11  -1   3  215.33   69.40
  11  -1   3  234.27   48.40
  11  -1   4   27.73   21.73
  11  -1   4   16.04   23.14
  11  -1   5  108.79   38.67
  11  -1   5   68.60   36.31
  11  -1   6  156.92   38.10
  11  -1   6    3.68   33.96
  11   0 -12   15.28   30.60
  11   0 -12    2.49   17.30
 -11   0  12   31.65   18.16
 -11   0  12   30.33   19.65
  11   0 -11  335.37   50.47
  11   0 -11  348.19   48.28
 -11   0  11  269.90   46.37
 -11   0  11  341.84   52.31
  11   0 -10   22.19   18.61
  11   0 -10   13.93   18.80
 -11   0  10   35.96   17.55
 -11   0  10   39.57   20.23
  11   0  -9  103.13   24.50
  11   0  -9  102.09   26.23
 -11   0   9   61.79   34.73
 -11   0   9   56.83   28.54
  11   0  -8   50.32   17.36
  11   0  -8   47.37   20.78
 -11   0   8   41.70   17.16
 -11   0   8   37.41   21.62
  11   0  -7   83.10   18.34
  11   0  -7   68.43   23.19
 -11   0   7   49.23   23.53
 -11   0   7   60.32   17.60
  11   0  -6  127.95   21.65
  11   0  -6  126.23   28.13
 -11   0   6  121.24   29.52
 -11   0   6  119.48   20.32
  11   0  -5   55.14   13.65
  11   0  -5   45.96   20.67
 -11   0   5   43.70   13.14
 -11   0   5   55.76   21.88
  11   0  -4   34.84   10.73
  11   0  -4   34.10   18.70
 -11   0   4   30.04   15.97
 -11   0   4   33.74   19.52
  11   0  -3  700.58   45.44
  11   0  -3  725.11   96.68
 -11   0   3  679.97   72.66
 -11   0   3  674.22   44.01
  11   0  -2  140.28   21.42
  11   0  -2  117.91   30.96
 -11   0   2  144.66   49.28
 -11   0   2  128.18   20.66
  11   0  -1   -0.94   21.67
 -11   0   1   44.17    7.81
 -11   0   1   50.04   21.77
  11   0   0   -0.61   27.34
  11   0   0   66.04    7.01
 -11   0   0   74.34   26.38
  11   0   1    0.13   25.36
 -11   0  -1   79.72   23.60
  11   0   2   30.25   21.47
  11   0   2   11.12   20.49
  11   0   3   -0.37   27.78
  11   0   3  -13.77   17.91
  11   0   4   -2.59   19.58
  11   0   4   29.23   20.69
  11   0   5   -0.70   29.18
  11   0   5   90.20   31.48
  11   1 -12  160.49   40.08
  11   1 -12  136.75   38.94
 -11  -1  12  189.54   39.40
 -11  -1  12  205.53   44.13
  11   1 -11   67.83   25.82
  11   1 -11   20.74   39.53
 -11  -1  11   55.00   24.33
 -11  -1  11   71.85   28.54
  11   1 -10  120.33   28.85
  11   1 -10  131.04   31.72
 -11  -1  10   86.88   27.61
 -11  -1  10   91.21   34.11
  11   1  -9   87.70   22.47
  11   1  -9   72.44   25.55
 -11  -1   9    2.18   33.73
 -11  -1   9   78.30   43.39
  11   1  -8   51.23   18.70
  11   1  -8   40.76   22.92
 -11  -1   8   54.79   18.09
 -11  -1   8   61.54   24.56
  11   1  -7   89.25   19.44
  11   1  -7   68.73   25.05
 -11  -1   7   84.40   27.19
 -11  -1   7   61.45   18.44
  11   1  -6   13.84   10.05
  11   1  -6    5.47   14.30
 -11  -1   6   13.00   15.38
 -11  -1   6   13.46    9.44
  11   1  -5   16.02    9.07
  11   1  -5    0.18   14.90
 -11  -1   5   17.38    9.05
 -11  -1   5    6.47   15.61
  11   1  -4  123.27   17.78
  11   1  -4  119.08   30.36
 -11  -1   4   96.64   16.87
 -11  -1   4  128.07   31.01
  11   1  -3   17.10    7.78
  11   1  -3    0.18   16.37
 -11  -1   3   22.89   17.30
 -11  -1   3   18.36    7.89
  11   1  -2  182.91   23.71
  11   1  -2  158.86   36.14
 -11  -1   2  139.14   15.98
 -11  -1   2  201.74   56.35
  11   1  -1  131.39   12.17
  11   1  -1  150.75   33.25
 -11  -1   1   85.55   11.54
 -11  -1   1  117.26   33.28
  11   1   0   91.91    8.82
  11   1   0    0.46   50.20
 -11  -1   0  137.83   32.68
  11   1   1   26.45   21.11
 -11  -1  -1   14.93   19.42
  11   1   2   -2.28   23.90
  11   1   2   87.42   37.42
  11   1   3   -1.31   68.80
  11   1   3  225.46   46.36
  11   1   4  156.99   46.95
  11   1   4  169.43   48.98
  11   2 -12   42.22   26.85
  11   2 -12   56.01   26.69
 -11  -2  12   41.58   24.78
 -11  -2  12   52.28   29.46
  11   2 -11  123.64   36.04
  11   2 -11  150.34   39.27
 -11  -2  11  151.80   35.06
 -11  -2  11  155.88   43.55
  11   2 -10  292.41   44.79
  11   2 -10  281.17   73.67
 -11  -2  10  253.74   41.25
 -11  -2  10  245.13   51.39
  11   2  -9  101.68   34.56
  11   2  -9   89.92   25.78
 -11  -2   9   81.31   28.03
 -11  -2   9    1.83   21.02
  11   2  -8  130.74   26.39
  11   2  -8  129.05   33.77
 -11  -2   8   88.62   34.51
 -11  -2   8  124.14   25.11
  11   2  -7   68.35   18.15
  11   2  -7   80.28   25.15
 -11  -2   7   19.43   26.16
 -11  -2   7   47.05   17.53
  11   2  -6  195.61   26.72
  11   2  -6  198.04   37.14
 -11  -2   6  148.92   25.22
 -11  -2   6  186.27   40.17
  11   2  -5  254.69   28.58
  11   2  -5  243.67   44.72
 -11  -2   5  250.88   28.04
 -11  -2   5  269.41   46.80
  11   2  -4   80.51   15.62
  11   2  -4    0.05   43.62
 -11  -2   4   86.52   23.12
 -11  -2   4  106.16   30.79
  11   2  -3   32.49    8.89
  11   2  -3    0.13   19.58
 -11  -2   3   45.60   20.40
 -11  -2   3    3.86   14.26
  11   2  -2  381.17   27.65
  11   2  -2  390.29   57.79
 -11  -2   2  362.76   27.78
 -11  -2   2  395.58   58.26
  11   2  -1   89.18   10.94
  11   2  -1  103.77   52.03
 -11  -2   1   97.11   16.46
 -11  -2   1  122.85   52.71
  11   2   0  133.97   36.89
 -11  -2   0  109.21   36.90
  11   2   1  116.60   37.55
 -11  -2  -1   90.15   35.49
  11   2   2    0.21    7.39
  11   2   2   -0.26    7.39
  11   2   3   31.64   44.95
  11   3 -11  126.14   35.81
  11   3 -11  126.69   40.91
 -11  -3  11  136.67   33.97
 -11  -3  11  150.55   42.63
  11   3 -10   17.50   16.21
  11   3 -10   34.96   19.05
 -11  -3  10    2.23   15.35
 -11  -3  10    8.90   19.85
  11   3  -9   78.99   21.62
  11   3  -9   62.62   41.33
 -11  -3   9   95.50   28.85
 -11  -3   9    0.39   20.86
  11   3  -8   77.77   19.73
  11   3  -8   89.94   26.03
 -11  -3   8   58.68   43.39
 -11  -3   8    4.21   18.64
  11   3  -7   82.58   35.67
  11   3  -7  127.09   33.74
 -11  -3   7  101.86   34.16
 -11  -3   7  104.40   35.78
  11   3  -6   33.28   19.89
  11   3  -6   58.89   20.71
 -11  -3   6   17.41   12.72
 -11  -3   6   16.84   22.15
  11   3  -5   26.89   11.67
  11   3  -5    0.91   33.77
 -11  -3   5   30.12   12.07
 -11  -3   5   44.00   36.16
  11   3  -4   57.48   21.37
  11   3  -4   63.37   28.04
 -11  -3   4   70.44   15.27
 -11  -3   4   58.55   30.48
  11   3  -3    9.19   12.47
  11   3  -3   16.98   17.69
 -11  -3   3   27.34   18.75
 -11  -3   3   12.29    7.86
  11   3  -2    6.19    6.24
  11   3  -2   20.75   16.83
 -11  -3   2   13.43    6.47
 -11  -3   2    6.24   18.04
  11   3  -1   47.31   27.31
 -11  -3   1   44.89   27.52
  11   3   0   72.85   31.80
 -11  -3   0   65.15   32.19
  11   3   1   17.87   21.62
 -11  -3  -1   16.64   21.08
  11   4 -10    0.64   22.58
  11   4 -10   18.11   17.51
 -11  -4  10   13.15   18.41
 -11  -4  10    4.40   13.80
  11   4  -9   52.62   18.93
  11   4  -9   58.58   40.95
 -11  -4   9   56.58   27.23
 -11  -4   9    4.09   19.53
  11   4  -8   31.57   13.24
  11   4  -8    8.82   19.74
 -11  -4   8   21.83   20.22
 -11  -4   8   -2.58   13.65
  11   4  -7  469.07   47.47
  11   4  -7  536.15   68.34
 -11  -4   7  382.05   64.93
 -11  -4   7  414.87   46.98
  11   4  -6   66.85   16.73
  11   4  -6   -1.21   27.49
 -11  -4   6   46.81   25.97
 -11  -4   6   79.66   29.47
  11   4  -5   14.27    7.90
  11   4  -5    2.07   14.07
 -11  -4   5   -4.52    8.00
 -11  -4   5   16.09   16.04
  11   4  -4   44.85   11.38
  11   4  -4   34.81   23.11
 -11  -4   4   29.81   39.41
 -11  -4   4   11.64   11.43
  11   4  -3  171.30   19.90
  11   4  -3  232.72   41.90
 -11  -4   3  176.75   45.46
 -11  -4   3  139.85   20.48
  11   4  -2   25.44    7.71
  11   4  -2   15.37   21.08
 -11  -4   2   13.75    8.19
 -11  -4   2   24.86   22.40
  11   4  -1  152.19   43.98
 -11  -4   1  158.80   45.89
  11   5  -8   22.28   13.83
  11   5  -8   -0.17   20.96
 -11  -5   8   43.51   21.57
 -11  -5   8    3.27   14.61
  11   5  -7   86.07   27.50
  11   5  -7    2.19   28.04
 -11  -5   7    5.06   19.21
 -11  -5   7  129.56   30.02
  11   5  -6  172.30   25.87
  11   5  -6    2.85   65.71
 -11  -5   6  148.97   26.48
 -11  -5   6  126.97   45.03
  11   5  -5   57.28   15.63
  11   5  -5   -0.73   28.54
 -11  -5   5   60.51   24.10
 -11  -5   5   43.82   31.17
  11   5  -4  111.04   19.28
  11   5  -4   97.53   38.64
 -11  -5   4  161.87   42.34
 -11  -5   4  117.20   29.79
 -12  14   0   -9.09   14.27
 -12  14   0    1.71    9.05
 -12  14  -1   18.51   16.51
 -12  14  -1   24.95   25.63
 -12  14  -2  116.34   29.08
 -12  14  -2  145.23   29.06
 -12  14  -3  117.46   26.09
 -12  14  -3  108.14   25.57
 -12  14  -4   -4.66   18.59
 -12  14  -4   22.47   12.11
 -12  13   3  109.16   31.63
 -12  13   3   44.77   49.96
 -12  13   2   30.82   17.47
 -12  13   2    6.76   18.38
 -12  13   1   95.66   28.80
 -12  13   1   99.91   44.47
 -12  13   0   87.87   25.14
 -12  13   0   80.96   25.16
 -12  13  -1   97.88   25.21
 -12  13  -1  103.21   24.41
 -12  13  -2   63.58   29.36
 -12  13  -2   51.42   18.88
  12 -13   3   19.86   13.32
  12 -13   3   18.36    9.07
 -12  13  -3   35.21   13.72
 -12  13  -3   21.48   20.06
  12 -13   4   94.11   22.85
  12 -13   4   60.00   25.83
 -12  13  -4  107.93   20.04
 -12  13  -4   78.95   19.24
  12 -13   5  130.94   20.74
  12 -13   5  108.86   34.71
 -12  13  -5  133.92   31.70
 -12  13  -5  141.34   21.13
  12 -13   6   10.14    7.81
  12 -13   6   -1.06    8.87
 -12  13  -6    0.32    6.28
 -12  13  -6    8.41    6.56
 -12  12   5   26.36   21.25
 -12  12   5   22.09   22.78
 -12  12   4   21.89   18.84
 -12  12   4   15.19   32.01
 -12  12   3   94.77   48.23
 -12  12   3  118.80   31.40
 -12  12   2   17.19   17.29
 -12  12   2   31.35   18.09
 -12  12   1  245.62   37.99
 -12  12   1  246.90   39.60
 -12  12   0   89.58   22.27
 -12  12   0   88.53   36.59
  12 -12   1   63.31   11.33
  12 -12   1   80.77   17.73
 -12  12  -1   63.13   19.19
 -12  12  -1   56.61   18.76
  12 -12   2    8.38    6.75
  12 -12   2    3.44   10.55
 -12  12  -2    2.11    9.61
 -12  12  -2   15.45    9.30
  12 -12   3  178.28   21.94
  12 -12   3  175.89   23.43
 -12  12  -3  163.12   25.22
 -12  12  -3  156.29   24.08
  12 -12   4  140.45   21.23
  12 -12   4  135.75   23.16
 -12  12  -4  117.15   20.40
 -12  12  -4  111.18   19.07
  12 -12   5   72.28   20.52
  12 -12   5   70.94   28.57
 -12  12  -5   93.75   22.47
 -12  12  -5   80.09   14.65
  12 -12   6  202.93   46.95
  12 -12   6  223.04   28.70
 -12  12  -6  162.93   18.89
 -12  12  -6  138.52   18.06
  12 -12   7  139.17   31.01
  12 -12   7  128.96   27.36
 -12  11   6  138.25   37.73
 -12  11   6  149.73   40.86
 -12  11   5    4.61   13.40
 -12  11   5   10.20   22.87
 -12  11   4   64.44   23.42
 -12  11   4   47.68   25.33
 -12  11   3  211.53   36.48
 -12  11   3  224.16   39.28
 -12  11   2  246.76   35.78
 -12  11   2  247.45   39.63
  12 -11  -1   79.61   11.05
  12 -11  -1   70.66   11.29
 -12  11   1   68.96   31.79
 -12  11   1   64.55   22.24
  12 -11   0   93.58   14.18
  12 -11   0   96.78   21.36
 -12  11   0  116.39   21.45
 -12  11   0   94.07   22.54
  12 -11   1  292.92   27.07
  12 -11   1  309.11   26.22
 -12  11  -1  245.89   31.02
 -12  11  -1  244.39   32.01
  12 -11   2   73.48   17.26
  12 -11   2   82.39   17.85
 -12  11  -2  114.78   18.69
 -12  11  -2  142.36   20.02
  12 -11   3  148.70   23.37
  12 -11   3  148.45   24.02
 -12  11  -3  163.99   20.28
 -12  11  -3  168.96   22.20
  12 -11   4  139.66   22.90
  12 -11   4  116.48   23.28
 -12  11  -4  105.25   15.71
 -12  11  -4   98.05   16.88
  12 -11   5   18.39   16.80
  12 -11   5   13.32   16.61
 -12  11  -5   39.11    9.38
 -12  11  -5   52.18    9.85
  12 -11   6  210.14   36.71
  12 -11   6  225.74   33.29
  12 -11   7   16.62   17.44
  12 -11   7   24.08   15.18
  12 -10  -7   28.09   17.90
 -12  10   7    0.98   16.67
  12 -10  -6   23.07   14.74
 -12  10   6   -4.84   14.83
 -12  10   5    0.78   19.03
 -12  10   5   59.97   20.38
  12 -10  -4    2.95    3.55
  12 -10  -4    2.88    3.52
 -12  10   4   -0.23    8.99
 -12  10   4   -3.66    9.75
  12 -10  -3   25.80    7.47
  12 -10  -3   22.03    7.37
 -12  10   3   -0.44   23.78
 -12  10   3   42.50   26.08
  12 -10  -2   99.28   14.22
  12 -10  -2  112.46   14.69
 -12  10   2  112.69   23.73
 -12  10   2  133.68   25.87
  12 -10  -1   11.67   12.11
  12 -10  -1    8.93   11.94
 -12  10   1   17.32   11.23
 -12  10   1   22.41   12.01
  12 -10   0  166.92   21.28
  12 -10   0  180.04   21.81
 -12  10   0  221.78   25.81
 -12  10   0  219.90   28.34
  12 -10   1   23.40   10.64
  12 -10   1   17.93   15.91
 -12  10  -1   21.64   10.33
 -12  10  -1   16.31   10.91
  12 -10   2  265.93   28.86
  12 -10   2  255.00   42.21
 -12  10  -2  201.76   22.89
 -12  10  -2  203.92   24.41
  12 -10   3   29.60   17.84
  12 -10   3   24.74   19.38
 -12  10  -3   15.87    7.93
 -12  10  -3   16.24   12.97
  12 -10   4   88.08   18.90
  12 -10   4   46.86   20.22
 -12  10  -4   64.04   10.58
 -12  10  -4   56.63   11.42
  12 -10   5  221.12   37.27
  12 -10   5  251.36   52.89
  12 -10   6   43.37   21.00
  12 -10   6   45.98   20.26
  12 -10   7   23.59   17.44
  12 -10   7    2.04   25.75
  12  -9  -8  214.18   41.85
 -12   9   8  164.85   40.92
  12  -9  -7  104.60   49.27
 -12   9   7  118.27   31.18
  12  -9  -6   67.38   23.58
  12  -9  -6   65.49    9.48
 -12   9   6   -1.91   22.36
 -12   9   6   51.43   10.65
  12  -9  -5   10.03    8.65
  12  -9  -5    1.82    6.31
 -12   9   5   -0.54    8.14
 -12   9   5   -1.17    6.67
  12  -9  -4  217.10   20.02
  12  -9  -4  213.05   32.43
 -12   9   4  164.29   47.38
 -12   9   4  168.82   19.40
  12  -9  -3   30.05    9.32
  12  -9  -3   33.42    9.95
 -12   9   3   21.78   14.45
 -12   9   3   26.53   15.69
  12  -9  -2   53.18   11.92
  12  -9  -2   20.63   18.53
 -12   9   2   54.78   16.10
 -12   9   2   59.50   17.27
  12  -9  -1  169.81   21.31
  12  -9  -1  171.23   21.28
 -12   9   1  138.14   23.34
 -12   9   1  184.87   25.65
  12  -9   0   44.89   21.17
  12  -9   0   43.58   14.16
 -12   9   0   56.82   13.42
 -12   9   0   51.88   14.79
  12  -9   1  261.80   46.27
  12  -9   1  252.72   31.37
 -12   9  -1  310.31   27.14
 -12   9  -1  320.09   29.45
  12  -9   2  200.57   27.25
  12  -9   2  155.66   27.68
 -12   9  -2  179.36   18.75
 -12   9  -2  191.64   20.19
  12  -9   3   41.59   15.42
  12  -9   3   30.77   16.03
 -12   9  -3   31.20    8.32
 -12   9  -3   40.65   13.60
  12  -9   4  296.01   37.61
  12  -9   4  283.96   39.48
 -12   9  -4  244.13   18.00
 -12   9  -4  267.98   19.81
  12  -9   5   54.42   22.06
  12  -9   5   51.77   20.38
  12  -9   6   26.89   31.83
  12  -9   6   32.27   18.56
  12  -9   7  164.15   39.39
  12  -9   7  175.03   37.75
  12  -8  -9   22.15   18.88
 -12   8   9    3.05   28.90
  12  -8  -8    8.66    6.52
  12  -8  -8   12.58   15.35
 -12   8   8   -0.35   14.62
 -12   8   8   12.67    7.24
  12  -8  -7  284.74   45.96
  12  -8  -7  278.42   24.82
 -12   8   7  318.47   44.96
 -12   8   7  308.50   28.31
  12  -8  -6  137.66   30.54
  12  -8  -6  141.33   17.53
 -12   8   6  105.62   28.97
 -12   8   6  129.71   26.26
  12  -8  -5  202.77   22.65
  12  -8  -5  190.08   35.08
 -12   8   5  233.51   32.92
 -12   8   5  258.01   24.82
  12  -8  -4   76.39   14.64
  12  -8  -4   58.14   32.25
 -12   8   4  101.14   19.89
 -12   8   4   76.89   15.41
  12  -8  -3    5.00    5.99
  12  -8  -3   -7.01    7.95
 -12   8   3    7.97    7.35
 -12   8   3    6.40    6.18
  12  -8  -2  316.74   27.02
  12  -8  -2  121.65   25.22
 -12   8   2  336.54   28.41
 -12   8   2  151.95   24.07
  12  -8  -1    7.04    9.05
  12  -8  -1    9.63    9.94
 -12   8   1   19.12    8.01
 -12   8   1   12.43    9.69
  12  -8   0   32.66   13.43
  12  -8   0   33.33   13.17
 -12   8   0   39.58   10.02
 -12   8   0   22.99   11.49
  12  -8   1  190.49   27.93
  12  -8   1  194.18   28.11
 -12   8  -1  163.55   17.67
 -12   8  -1  191.75   20.64
  12  -8   2    2.27    9.39
  12  -8   2   -2.79    9.77
 -12   8  -2    6.38    4.75
 -12   8  -2    8.74    5.18
  12  -8   3  314.41   41.34
  12  -8   3  329.01   39.02
 -12   8  -3  283.20   19.22
 -12   8  -3  294.21   27.75
  12  -8   4   79.65   36.36
  12  -8   4   73.46   25.21
  12  -8   5   -0.76    9.73
  12  -8   5   -3.32    9.46
  12  -8   6  264.64   45.79
  12  -8   6  244.26   43.31
  12  -8   7   24.90   22.37
  12  -8   7   32.82   21.20
  12  -7 -10   17.42    7.69
  12  -7 -10    8.12   15.90
 -12   7  10    3.52    8.39
 -12   7  10   -1.58   15.96
  12  -7  -9   22.32    8.88
  12  -7  -9   14.79   17.13
 -12   7   9    0.36   16.09
 -12   7   9   11.47    9.63
  12  -7  -8   27.81   19.22
  12  -7  -8   41.18   16.16
 -12   7   8   -0.09   18.13
 -12   7   8   34.41   11.56
  12  -7  -7   15.50   14.94
  12  -7  -7   17.40    9.12
 -12   7   7   -1.23   14.33
 -12   7   7   25.51   10.09
  12  -7  -6  132.88   18.76
  12  -7  -6  131.71   27.50
 -12   7   6  107.75   26.17
 -12   7   6  119.67   19.80
  12  -7  -5  212.08   24.75
  12  -7  -5  199.14   31.68
 -12   7   5  216.36   30.72
 -12   7   5  221.87   37.20
  12  -7  -4  101.66   17.30
  12  -7  -4  113.64   21.49
 -12   7   4   94.11   20.12
 -12   7   4   92.24   18.36
  12  -7  -3  449.49   53.78
  12  -7  -3  443.15   40.46
 -12   7   3  416.92   38.25
 -12   7   3  401.54   39.01
  12  -7  -2   78.45   17.08
  12  -7  -2   67.76   15.50
 -12   7   2   71.40   14.74
 -12   7   2   48.50   16.48
  12  -7  -1   68.31   16.49
  12  -7  -1   47.47   12.93
 -12   7   1   71.35   12.15
 -12   7   1   34.62   16.03
  12  -7   0  258.80   33.25
  12  -7   0  257.28   33.86
 -12   7   0  244.39   30.09
 -12   7   0  281.87   35.55
  12  -7   1   27.30   14.81
  12  -7   1   27.32   14.83
 -12   7  -1   31.36    7.47
 -12   7  -1   26.77    8.86
  12  -7   2  144.37   28.88
  12  -7   2  128.43   29.55
 -12   7  -2  154.82   18.50
 -12   7  -2  166.08   20.99
  12  -7   3  127.39   28.29
  12  -7   3  133.65   27.55
 -12   7  -3  107.10   13.78
  12  -7   4    9.42   12.83
  12  -7   4    5.09   11.95
  12  -7   5  297.90   50.77
  12  -7   5  318.88   48.74
  12  -7   6  161.98   39.50
  12  -7   6  147.06   37.53
  12  -7   7   62.26   29.88
  12  -7   7   50.75   26.90
  12  -6 -10   28.81   10.35
  12  -6 -10   20.44   18.70
 -12   6  10    0.05   18.21
 -12   6  10   -1.28   18.10
  12  -6  -9  155.33   21.27
  12  -6  -9  133.14   34.64
 -12   6   9  125.00   23.55
 -12   6   9  130.34   32.79
  12  -6  -8   -1.98   11.26
  12  -6  -8    0.59   11.17
 -12   6   8   -3.97   16.13
 -12   6   8   10.04    7.57
  12  -6  -7   76.98   17.77
  12  -6  -7   67.01   24.75
 -12   6   7   92.58   22.68
 -12   6   7  106.29   18.83
  12  -6  -6  114.97   19.38
  12  -6  -6  127.69   24.58
 -12   6   6   71.12   22.17
 -12   6   6   96.57   20.41
  12  -6  -5  183.30   36.02
  12  -6  -5  174.90   41.59
 -12   6   5  163.02   25.80
 -12   6   5  173.76   25.45
  12  -6  -4  303.43   32.97
  12  -6  -4  282.61   33.55
 -12   6   4  324.10   32.40
 -12   6   4  377.74   36.40
  12  -6  -3   82.57   16.91
  12  -6  -3   45.55   14.97
 -12   6   3   67.60   14.29
 -12   6   3   60.17   17.93
  12  -6  -2  373.38   38.11
  12  -6  -2  366.26   31.52
 -12   6   2  306.03   39.80
 -12   6   2  327.20   37.95
  12  -6  -1  258.16   33.67
  12  -6  -1  302.73   24.81
 -12   6   1  245.85   33.20
 -12   6   1  230.60   22.00
  12  -6   0   48.15   18.38
  12  -6   0   49.54   19.00
 -12   6   0   53.33    9.59
 -12   6   0   52.33   10.92
  12  -6   1   71.10   16.96
  12  -6   1   51.38   17.24
 -12   6  -1   23.93    6.80
 -12   6  -1   27.65    7.70
  12  -6   2   48.15   18.75
  12  -6   2   51.53   19.97
 -12   6  -2   37.93    6.55
  12  -6   3  177.21   53.02
  12  -6   3  149.10   33.16
  12  -6   4  140.06   34.60
  12  -6   4  121.88   50.20
  12  -6   5   30.56   21.80
  12  -6   5   26.39   20.60
  12  -6   6   52.50   29.54
  12  -6   6   60.07   27.60
  12  -6   7  134.78   40.80
  12  -6   7   81.27   58.58
  12  -5 -11   16.08   10.39
  12  -5 -11   12.87   16.70
 -12   5  11   13.19   15.81
 -12   5  11    0.03   11.36
  12  -5 -10  123.85   22.69
  12  -5 -10  114.54   33.07
 -12   5  10  139.98   32.73
 -12   5  10  119.68   25.60
  12  -5  -9  130.65   30.61
  12  -5  -9  136.31   22.40
 -12   5   9  120.46   24.42
 -12   5   9   -0.44   45.56
  12  -5  -8  128.02   23.40
  12  -5  -8  135.03   29.13
 -12   5   8  118.30   24.03
 -12   5   8  122.99   27.06
  12  -5  -7   63.19   29.90
  12  -5  -7   75.91   22.50
 -12   5   7   94.45   21.97
 -12   5   7  105.52   21.15
  12  -5  -6  125.32   22.87
  12  -5  -6  139.60   24.86
 -12   5   6  129.13   23.66
 -12   5   6  124.19   25.00
  12  -5  -5  191.45   25.97
  12  -5  -5  165.15   26.39
 -12   5   5  144.48   24.22
 -12   5   5  141.27   27.31
  12  -5  -4  102.84   22.46
  12  -5  -4  107.68   20.90
 -12   5   4  135.53   20.10
 -12   5   4  151.41   25.20
  12  -5  -3   19.80   11.36
  12  -5  -3    6.22   13.98
 -12   5   3   24.69   13.17
 -12   5   3    1.66   12.00
  12  -5  -2  578.07   53.94
  12  -5  -2  543.69   40.64
 -12   5   2  586.57   39.89
 -12   5   2  601.80   55.82
  12  -5  -1   57.04   19.38
  12  -5  -1   56.14   11.14
 -12   5   1   66.73   11.00
 -12   5   1   60.82   31.34
  12  -5   0  185.41   32.55
  12  -5   0  177.84   15.91
 -12   5   0  182.90   31.14
 -12   5   0  168.17   14.88
  12  -5   1  129.86   27.75
  12  -5   1  165.30   27.52
 -12   5  -1   87.30    9.27
 -12   5  -1   91.02   10.39
  12  -5   2   80.54   25.09
  12  -5   2   90.01   26.12
 -12   5  -2   67.01    6.12
 -12   5  -2   80.80    6.74
  12  -5   3   90.61   43.74
  12  -5   3   84.40   29.37
  12  -5   4  113.92   33.60
  12  -5   4   96.07   30.80
  12  -5   5  139.95   39.03
  12  -5   5  118.81   36.41
  12  -5   6  202.95   51.02
  12  -5   6  236.39   72.20
  12  -5   7   38.28   29.03
  12  -4 -11  223.54   33.40
  12  -4 -11  278.74   68.55
 -12   4  11  209.38   65.54
 -12   4  11  216.29   36.21
  12  -4 -10   -8.74   12.37
  12  -4 -10   12.40    9.32
 -12   4  10    7.67   12.09
 -12   4  10    3.74   10.24
  12  -4  -9  162.18   28.39
  12  -4  -9  141.89   34.92
 -12   4   9  195.66   32.97
 -12   4   9  166.42   30.79
  12  -4  -8  290.31   34.81
  12  -4  -8  282.30   38.64
 -12   4   8  207.21   35.58
 -12   4   8  209.58   35.87
  12  -4  -7   47.47   16.28
  12  -4  -7   31.43   17.96
 -12   4   7   53.99   17.04
 -12   4   7   43.93   18.26
  12  -4  -6   60.12   17.45
  12  -4  -6   81.22   26.51
 -12   4   6   36.79   15.97
 -12   4   6   50.41   18.98
  12  -4  -5  190.02   28.30
  12  -4  -5  186.27   26.10
 -12   4   5  182.11   24.74
 -12   4   5  167.30   30.62
  12  -4  -4   39.72   16.60
  12  -4  -4   38.39   13.12
 -12   4   4   57.26   18.47
 -12   4   4   44.06   12.80
  12  -4  -3  962.96   79.25
  12  -4  -3  974.18   79.71
 -12   4   3  987.77   62.82
 -12   4   3  985.94   83.40
  12  -4  -2  162.13   30.42
  12  -4  -2  172.45   18.72
 -12   4   2  146.97   25.12
 -12   4   2  149.07   31.04
  12  -4  -1   81.74   25.55
  12  -4  -1   97.57   12.69
 -12   4   1   99.57   12.17
 -12   4   1  119.13   26.55
  12  -4   0  537.42   58.06
  12  -4   0  508.27   29.64
 -12   4   0  499.60   55.83
 -12   4   0  474.22   28.00
  12  -4   1   22.69   20.13
  12  -4   1   25.05   19.27
 -12   4  -1   33.41    5.78
  12  -4   2   63.06   43.52
  12  -4   2   76.83   43.00
  12  -4   3   86.01   29.93
  12  -4   3   92.25   32.11
  12  -4   4  110.05   35.80
  12  -4   4  101.27   34.51
  12  -4   5   80.39   33.67
  12  -4   5   66.04   31.81
  12  -4   6  163.13   48.32
  12  -4   6  162.51   45.02
  12  -3 -11   -0.71   17.20
  12  -3 -11   60.05   22.77
 -12   3  11   48.38   21.04
 -12   3  11   35.28   18.99
  12  -3 -10    7.84   15.11
  12  -3 -10   -0.06   12.06
 -12   3  10   18.17   13.95
 -12   3  10   18.14   13.24
  12  -3  -9  476.38   51.46
  12  -3  -9  440.12   55.67
 -12   3   9  454.98   53.19
 -12   3   9  472.92   54.89
  12  -3  -8  100.93   25.88
  12  -3  -8  126.06   41.74
 -12   3   8  108.55   28.01
 -12   3   8  124.98   25.23
  12  -3  -7  279.87   53.86
  12  -3  -7  253.60   36.03
 -12   3   7  308.72   56.87
 -12   3   7  253.96   33.76
  12  -3  -6  196.88   45.26
  12  -3  -6  193.31   26.78
 -12   3   6  146.39   24.73
 -12   3   6  150.27   32.06
  12  -3  -5  143.57   40.87
  12  -3  -5  142.60   21.83
 -12   3   5  117.26   20.11
 -12   3   5  144.02   29.54
  12  -3  -4  160.37   49.24
  12  -3  -4  193.22   23.03
 -12   3   4  160.58   34.87
 -12   3   4  196.01   21.82
  12  -3  -3   18.71   25.50
  12  -3  -3   23.42   10.09
 -12   3   3   45.50   17.67
 -12   3   3   27.44   14.62
  12  -3  -2    6.48    8.13
  12  -3  -2    2.47    4.01
 -12   3   2   -1.64    3.78
 -12   3   2    5.72    8.43
  12  -3  -1   72.39   26.22
  12  -3  -1   77.99   11.67
 -12   3   1   97.45   11.38
 -12   3   1  120.05   27.11
  12  -3   0   -0.75   17.66
  12  -3   0   37.67    8.41
 -12   3   0    9.66   16.72
 -12   3   0   11.08    7.68
  12  -3   1  239.06   38.10
 -12   3  -1   91.68   32.49
  12  -3   2   78.42   33.94
  12  -3   2  110.47   32.49
  12  -3   3   39.55   24.03
  12  -3   3   39.21   26.01
  12  -3   4  165.99   42.28
  12  -3   4  151.34   43.92
  12  -3   5  106.74   41.63
  12  -3   5  129.91   61.73
  12  -2 -11    2.78   21.07
  12  -2 -11   72.13   24.29
 -12   2  11   54.83   22.92
 -12   2  11   52.20   22.88
  12  -2 -10    2.45   21.10
  12  -2 -10   78.78   22.47
 -12   2  10   34.86   20.52
 -12   2  10   55.00   22.06
  12  -2  -9    2.29   15.30
  12  -2  -9   27.51   15.52
 -12   2   9   -1.17   14.86
 -12   2   9   49.14   17.15
  12  -2  -8  257.52   37.45
  12  -2  -8  230.82   35.58
 -12   2   8  228.99   41.51
 -12   2   8  238.73   33.78
  12  -2  -7   -0.81   13.67
  12  -2  -7   17.92   11.55
 -12   2   7   16.24   14.46
 -12   2   7   15.40   11.08
  12  -2  -6    8.24   10.74
  12  -2  -6    9.08    8.64
 -12   2   6    1.06    8.42
 -12   2   6    8.00   11.98
  12  -2  -5  319.45   43.02
  12  -2  -5  338.87   32.80
 -12   2   5  331.87   31.73
 -12   2   5  287.39   46.73
  12  -2  -4   23.90   16.26
  12  -2  -4   26.08   10.18
 -12   2   4   11.46   27.25
 -12   2   4   19.51   15.17
  12  -2  -3    0.54   15.85
  12  -2  -3   10.98    5.47
 -12   2   3    5.76   10.51
 -12   2   3   -4.06    5.07
  12  -2  -2  306.67   42.09
  12  -2  -2  300.57   22.89
 -12   2   2  197.88   19.69
 -12   2   2  253.79   41.73
  12  -2  -1  138.19   31.92
  12  -2  -1  142.48   13.44
 -12   2   1  116.95   12.53
 -12   2   1  112.22   32.91
  12  -2   0  154.18   33.81
  12  -2   0  110.39   14.40
 -12   2   0  151.04   33.19
  12  -2   1   -1.19   32.40
 -12   2  -1  166.47   30.03
  12  -2   2   48.76   27.10
  12  -2   2   40.40   26.28
  12  -2   3   56.49   30.35
  12  -2   3   61.08   49.56
  12  -2   4  103.35   38.33
  12  -2   4  115.55   41.50
  12  -2   5   31.66   29.27
  12  -2   5   49.51   31.16
  12  -1 -11  317.22   49.18
  12  -1 -11  243.01   44.90
 -12   1  11  292.15   46.89
 -12   1  11  270.87   50.46
  12  -1 -10   55.29   22.04
  12  -1 -10   -0.54   22.21
 -12   1  10   48.27   20.92
 -12   1  10   63.60   24.82
  12  -1  -9   39.19   16.30
  12  -1  -9   -0.46   17.53
 -12   1   9    6.47   15.86
 -12   1   9   47.25   19.21
  12  -1  -8  253.03   36.49
  12  -1  -8  258.65   40.95
 -12   1   8  224.89   44.88
 -12   1   8  230.95   34.28
  12  -1  -7  205.68   30.38
  12  -1  -7  211.39   37.70
 -12   1   7  157.78   39.59
 -12   1   7  229.22   43.75
  12  -1  -6   66.64   19.21
  12  -1  -6   62.99   26.18
 -12   1   6  119.42   19.62
 -12   1   6   88.43   29.19
  12  -1  -5  110.52   20.17
  12  -1  -5  118.77   30.12
 -12   1   5  129.50   19.51
 -12   1   5  134.00   33.09
  12  -1  -4  113.30   23.09
  12  -1  -4    1.00   25.96
 -12   1   4   85.38   14.75
 -12   1   4   87.35   43.04
  12  -1  -3   -0.11   42.37
  12  -1  -3   93.87   14.24
 -12   1   3  113.75   29.47
 -12   1   3   86.61   13.91
  12  -1  -2   -0.19   11.17
  12  -1  -2    0.07    6.89
 -12   1   2    5.93    4.47
 -12   1   2   -4.85   11.34
  12  -1  -1    0.50   20.68
  12  -1  -1   41.30    6.96
 -12   1   1   20.01    6.70
 -12   1   1   36.59   21.08
  12  -1   0    0.43   16.76
 -12   1   0   33.61   25.41
  12  -1   1    0.23   22.73
 -12   1  -1   45.35   21.26
  12  -1   2   66.41   34.22
  12  -1   2   77.25   33.52
  12  -1   3   19.33   24.79
  12  -1   3   34.28   25.86
  12  -1   4   38.03   46.03
  12  -1   4   41.93   31.58
  12   0 -11   31.76   20.53
  12   0 -11    1.77   32.08
 -12   0  11   14.56   19.14
 -12   0  11   35.77   22.52
  12   0 -10  321.72   70.94
  12   0 -10  278.93   50.80
 -12   0  10  326.34   46.37
 -12   0  10  310.32   56.44
  12   0  -9   69.62   21.09
  12   0  -9   79.98   23.42
 -12   0   9   -3.55   19.84
 -12   0   9   54.59   26.03
  12   0  -8   -5.88    7.72
  12   0  -8   -6.06    9.50
 -12   0   8   14.72   10.33
 -12   0   8   -2.73    7.32
  12   0  -7  252.49   34.61
  12   0  -7  272.63   43.87
 -12   0   7  219.24   68.76
 -12   0   7  238.71   32.10
  12   0  -6    7.22    8.23
  12   0  -6   10.97   11.93
 -12   0   6   -2.13    7.65
 -12   0   6   10.32   12.57
  12   0  -5   74.54   14.77
  12   0  -5   -0.71   23.96
 -12   0   5   45.87   14.00
 -12   0   5   61.47   25.60
  12   0  -4   90.63   15.76
  12   0  -4   -1.78   28.35
 -12   0   4   94.52   46.99
 -12   0   4   97.37   15.14
  12   0  -3   71.12   12.67
  12   0  -3   -1.74   26.38
 -12   0   3   67.80   27.78
 -12   0   3   66.16   12.44
  12   0  -2    4.45    9.72
  12   0  -2    0.12   16.28
 -12   0   2   19.77   10.03
 -12   0   2   30.22   17.23
  12   0  -1  260.58   45.66
  12   0  -1  224.29   16.35
 -12   0   1  183.91   15.98
 -12   0   1  200.49   44.98
  12   0   0  304.62   53.87
 -12   0   0  253.42   78.14
  12   0   1   -0.16   29.54
 -12   0  -1   84.20   27.60
  12   0   2    1.25   30.32
  12   0   2   84.25   30.93
  12   0   3   -0.64   36.97
  12   0   3  138.65   37.81
  12   1 -10  159.94   34.75
  12   1 -10  143.16   37.77
 -12  -1  10  131.10   32.33
 -12  -1  10  115.06   41.30
  12   1  -9   64.79   19.70
  12   1  -9   37.33   36.36
 -12  -1   9   -0.90   18.55
 -12  -1   9   47.52   25.45
  12   1  -8  115.43   37.67
  12   1  -8  106.36   30.67
 -12  -1   8  108.44   32.46
 -12  -1   8   -0.05   34.80
  12   1  -7   17.70   30.13
  12   1  -7   79.41   27.13
 -12  -1   7   62.98   18.53
 -12  -1   7   90.45   45.29
  12   1  -6   25.33   22.46
  12   1  -6   37.05   22.06
 -12  -1   6   27.55   14.01
 -12  -1   6   61.42   23.49
  12   1  -5   94.45   18.64
  12   1  -5    0.50   31.33
 -12  -1   5  112.18   18.12
 -12  -1   5  119.09   33.33
  12   1  -4   44.07   12.17
  12   1  -4    0.06   37.44
 -12  -1   4   35.64   25.05
 -12  -1   4   39.75   12.01
  12   1  -3  170.09   18.93
  12   1  -3  182.90   40.70
 -12  -1   3  169.77   42.62
 -12  -1   3  151.55   18.62
  12   1  -2   64.84   11.22
  12   1  -2   -0.21   31.23
 -12  -1   2   88.37   11.88
 -12  -1   2   86.39   31.68
  12   1  -1   -0.11   23.21
 -12  -1   1   53.69   23.23
  12   1   0    0.02   13.00
 -12  -1   0   -4.40   12.66
  12   1   1   17.67   32.80
 -12  -1  -1    9.74   19.02
  12   2 -10   15.60   10.01
  12   2 -10  -16.24   12.17
 -12  -2  10    2.37   13.26
 -12  -2  10    0.55    9.45
  12   2  -9   52.83   18.62
  12   2  -9   62.37   38.43
 -12  -2   9   45.50   40.40
 -12  -2   9    1.12   18.00
  12   2  -8    7.19    8.64
  12   2  -8   -7.25   12.39
 -12  -2   8    9.06   12.79
 -12  -2   8   -0.08    8.33
  12   2  -7    8.00   10.70
  12   2  -7   25.29   16.41
 -12  -2   7   -2.33   10.66
 -12  -2   7   22.20   17.22
  12   2  -6   95.49   20.81
  12   2  -6  123.47   32.95
 -12  -2   6   82.10   20.07
 -12  -2   6   88.05   35.56
  12   2  -5    0.27   11.08
  12   2  -5   -0.04   20.13
 -12  -2   5   37.81   11.07
 -12  -2   5   39.90   21.88
  12   2  -4   10.01    8.90
  12   2  -4    0.55   19.17
 -12  -2   4   37.51   20.38
 -12  -2   4   19.23    9.17
  12   2  -3   30.34    9.19
  12   2  -3   -0.20   22.87
 -12  -2   3   30.37   37.70
 -12  -2   3   19.32   14.72
  12   2  -2    5.76    5.32
  12   2  -2   -1.41   26.25
 -12  -2   2   22.41   17.17
  12   2  -1   -4.86    6.37
 -12  -2   1    4.99    6.46
  12   2   0   11.33   20.14
 -12  -2   0  -33.06   19.47
  12   3  -8   80.35   25.75
  12   3  -8  101.29   36.43
 -12  -3   8  103.83   38.76
 -12  -3   8  121.69   25.47
  12   3  -7   22.84   11.68
  12   3  -7   -1.52   18.74
 -12  -3   7    1.45   11.87
 -12  -3   7   23.13   19.92
  12   3  -6   53.70   16.12
  12   3  -6   21.58   27.97
 -12  -3   6   46.44   16.62
 -12  -3   6   49.93   30.22
  12   3  -5  180.84   24.47
  12   3  -5  170.76   44.63
 -12  -3   5  164.09   25.74
 -12  -3   5  166.81   47.31
  12   3  -4   59.79   22.21
  12   3  -4   -0.76   32.08
 -12  -3   4   82.60   34.29
 -12  -3   4   70.10   14.65
  12   3  -3  122.90   16.84
  12   3  -3  129.88   40.78
 -12  -3   3  118.26   17.20
 -12  -3   3  121.15   43.44
 -13  13   0   45.50   18.60
 -13  13   0   22.85   18.73
 -13  13  -1   20.21   14.96
 -13  13  -1   25.92   15.09
 -13  12   3   48.15   21.58
 -13  12   3   29.48   22.64
 -13  12   2  137.84   32.93
 -13  12   2  176.20   35.34
 -13  12   1   17.22   11.04
 -13  12   1   -4.62   11.34
 -13  12   0   40.47   15.89
 -13  12   0   15.89   25.88
  13 -12   1   63.79   12.86
  13 -12   1   74.65   13.15
 -13  12  -1   37.64   18.71
 -13  12  -1   44.13   18.33
  13 -12   2   21.01   11.69
  13 -12   2   24.91   11.70
 -13  12  -2   17.51   19.45
 -13  12  -2   47.98   13.32
  13 -12   3   92.74   19.38
  13 -12   3   79.45   19.23
 -13  12  -3   78.35   26.12
 -13  12  -3   93.63   18.38
  13 -12   4   11.81   11.42
  13 -12   4    8.87   12.22
 -13  12  -4   16.92   12.91
 -13  12  -4   26.89   14.31
 -13  11   5    0.10   19.30
 -13  11   5   75.14   32.41
 -13  11   4   -0.24   17.90
 -13  11   4   44.84   19.32
 -13  11   3   -0.01   20.70
 -13  11   3   95.27   23.04
 -13  11   2   -0.27   14.62
 -13  11   2   39.79   15.81
  13 -11  -1   42.45   16.79
  13 -11  -1   30.87   16.58
 -13  11   1   -0.35   26.19
 -13  11   1   68.99   18.59
  13 -11   0  132.28   20.10
  13 -11   0  149.42   20.44
 -13  11   0  184.78   37.98
 -13  11   0  162.31   26.69
  13 -11   1    8.67   13.52
  13 -11   1   10.81    8.93
 -13  11  -1   14.57    9.54
 -13  11  -1    8.51    9.69
  13 -11   2  219.27   28.02
  13 -11   2  219.51   28.82
 -13  11  -2  194.41   25.04
 -13  11  -2  217.47   26.75
  13 -11   3  141.25   25.02
  13 -11   3  123.33   26.04
 -13  11  -3  141.00   27.61
 -13  11  -3  161.32   20.14
  13 -11   4   16.31    8.16
  13 -11   4    8.37   12.99
 -13  11  -4   -3.03    4.25
 -13  11  -4    4.19    7.23
  13 -11   5  157.92   29.66
  13 -11   5  116.74   31.20
  13 -10  -6   92.89   23.69
 -13  10   6    0.05   23.06
 -13  10   5   -0.05   14.93
 -13  10   5   32.09   16.68
 -13  10   4   -0.28   17.02
 -13  10   4   68.00   20.04
  13 -10  -3   70.85   12.48
  13 -10  -3   67.85   12.91
 -13  10   3   -0.18   31.33
 -13  10   3   36.55   35.79
  13 -10  -2    0.39    5.67
  13 -10  -2    2.78    5.71
 -13  10   2    2.59    8.10
 -13  10   2    9.67    8.94
  13 -10  -1  204.98   25.19
  13 -10  -1  221.92   25.83
 -13  10   1  228.97   30.47
 -13  10   1  257.88   32.94
  13 -10   0    0.84    6.98
  13 -10   0   -3.36    7.00
 -13  10   0    4.20    7.10
 -13  10   0   32.16   12.00
  13 -10   1   24.83   13.61
  13 -10   1   18.62   13.25
 -13  10  -1   38.63   11.50
 -13  10  -1   38.24   19.58
  13 -10   2  199.58   30.16
  13 -10   2  187.19   30.24
 -13  10  -2  200.41   30.83
 -13  10  -2  202.15   32.94
  13 -10   3   17.12   12.00
  13 -10   3    4.96   12.41
 -13  10  -3   14.65    6.31
 -13  10  -3    8.07    6.82
  13 -10   4  252.92   39.11
  13 -10   4  290.45   41.18
  13 -10   5   81.76   24.91
  13 -10   5   76.61   26.71
  13  -9  -7   28.42   19.78
 -13   9   7   -5.54   12.67
  13  -9  -6    7.53   11.66
  13  -9  -6    5.84    5.70
 -13   9   6   -0.07   11.58
 -13   9   6    4.34    5.90
  13  -9  -5   11.07   14.45
  13  -9  -5    9.15    7.87
 -13   9   5   -0.26   14.02
 -13   9   5   25.61    8.36
  13  -9  -4   30.01   10.51
  13  -9  -4   36.89   16.82
 -13   9   4   -0.03   24.96
 -13   9   4   35.33   10.68
  13  -9  -3   56.63   15.80
  13  -9  -3   92.25   16.99
 -13   9   3  100.13   19.91
 -13   9   3  103.33   23.17
  13  -9  -2  108.48   18.92
  13  -9  -2  111.99   29.01
 -13   9   2   93.86   20.34
 -13   9   2  108.04   23.15
  13  -9  -1   11.64    9.48
  13  -9  -1   13.42    9.47
 -13   9   1    0.01    8.67
 -13   9   1   21.14   10.28
  13  -9   0   49.03   16.05
  13  -9   0   52.24   16.50
 -13   9   0   49.24   13.12
 -13   9   0   52.12   14.81
  13  -9   1  197.98   30.16
  13  -9   1  219.12   29.65
 -13   9  -1  178.07   29.62
 -13   9  -1  175.33   22.42
  13  -9   2    8.99   11.79
  13  -9   2   15.49   11.95
 -13   9  -2   13.27    6.16
 -13   9  -2    6.78    6.87
  13  -9   3  261.11   55.07
  13  -9   3  242.62   39.38
  13  -9   4   43.26   21.21
  13  -9   4   52.86   22.27
  13  -9   5   55.86   24.53
  13  -9   5   73.07   26.80
  13  -8  -8    6.89    5.94
  13  -8  -8   10.03   12.93
 -13   8   8    0.69   12.33
 -13   8   8    1.97    6.85
  13  -8  -7  123.75   33.51
  13  -8  -7  129.76   28.04
 -13   8   7  146.96   31.33
 -13   8   7  128.32   31.06
  13  -8  -6  126.35   29.24
  13  -8  -6  114.27   18.61
 -13   8   6    0.15   42.40
 -13   8   6  122.09   19.82
  13  -8  -5   20.55   10.85
  13  -8  -5   33.29   15.51
 -13   8   5   -0.30   14.75
 -13   8   5   34.41   11.61
  13  -8  -4   49.76   14.01
  13  -8  -4   50.90   18.10
 -13   8   4   47.86   17.01
 -13   8   4   38.29   14.56
  13  -8  -3  328.02   33.92
  13  -8  -3  330.56   37.59
 -13   8   3  313.17   35.95
 -13   8   3  310.25   33.83
  13  -8  -2   22.38   12.12
  13  -8  -2   28.58   12.51
 -13   8   2   14.98   10.93
 -13   8   2   20.15   12.75
  13  -8  -1    6.57   10.88
  13  -8  -1    9.92   11.45
 -13   8   1   19.69    8.68
 -13   8   1    6.60   15.20
  13  -8   0  210.93   47.57
  13  -8   0  231.66   33.20
 -13   8   0  241.38   22.78
 -13   8   0  260.34   38.34
  13  -8   1   30.07   16.88
  13  -8   1   38.78   16.42
 -13   8  -1   29.70    8.79
 -13   8  -1   40.84   15.16
  13  -8   2   52.68   20.96
  13  -8   2   46.91   21.27
 -13   8  -2   50.84   13.15
 -13   8  -2   58.14   10.04
  13  -8   3   88.45   26.76
  13  -8   3  102.88   28.04
  13  -8   4   28.68   20.73
  13  -8   4   29.85   30.20
  13  -8   5   73.49   28.51
  13  -8   5   85.62   31.37
  13  -7  -8   37.25   18.98
  13  -7  -8   29.04   11.28
 -13   7   8   -2.09   28.58
 -13   7   8   16.78   12.77
  13  -7  -7   20.63   13.90
  13  -7  -7   27.15   13.60
 -13   7   7   -0.10   12.68
 -13   7   7    1.10    9.63
  13  -7  -6   99.34   19.89
  13  -7  -6   83.85   25.92
 -13   7   6  112.73   24.25
 -13   7   6  106.17   21.75
  13  -7  -5   54.14   15.57
  13  -7  -5   42.12   29.03
 -13   7   5    0.14   17.40
 -13   7   5   84.29   16.56
  13  -7  -4  114.85   22.95
  13  -7  -4  126.72   25.31
 -13   7   4  143.63   23.46
 -13   7   4  166.57   25.15
  13  -7  -3  117.49   34.16
  13  -7  -3  104.65   21.44
 -13   7   3  111.94   20.10
 -13   7   3  130.07   23.87
  13  -7  -2   32.71   14.40
  13  -7  -2   31.10   11.73
 -13   7   2   22.69   17.15
 -13   7   2   24.26   14.63
  13  -7  -1  180.70   29.22
  13  -7  -1  183.06   31.44
 -13   7   1  176.43   20.39
 -13   7   1  199.57   23.39
  13  -7   0  119.50   27.12
  13  -7   0   99.26   27.52
 -13   7   0  128.74   15.02
 -13   7   0  125.40   16.94
  13  -7   1   33.53   16.00
  13  -7   1   14.71   26.00
 -13   7  -1   21.31    7.20
 -13   7  -1   26.97    8.02
  13  -7   2   66.24   24.08
  13  -7   2   68.19   24.58
  13  -7   3   88.25   26.64
  13  -7   3   76.41   28.59
  13  -7   4  290.38   73.88
  13  -7   4  241.23   45.24
  13  -7   5   12.29   20.11
  13  -7   5   31.63   21.21
  13  -6  -9   13.66   11.46
  13  -6  -9    3.03    7.10
 -13   6   9   -1.16   10.74
 -13   6   9   -0.72    7.89
  13  -6  -8   78.02   25.89
  13  -6  -8   46.42   18.91
 -13   6   8  106.40   24.71
 -13   6   8   65.11   31.41
  13  -6  -7   94.57   21.08
  13  -6  -7  109.19   27.22
 -13   6   7   97.95   25.30
 -13   6   7  101.59   22.89
  13  -6  -6   22.32   18.13
  13  -6  -6   38.01   21.61
 -13   6   6   19.38   12.73
 -13   6   6   -0.23   12.97
  13  -6  -5  318.46   35.23
  13  -6  -5  301.30   37.16
 -13   6   5  288.22   53.71
 -13   6   5  240.33   33.80
  13  -6  -4   20.07   13.28
  13  -6  -4   28.34   12.09
 -13   6   4   15.15   11.58
 -13   6   4   24.02   14.47
  13  -6  -3   22.54   14.88
  13  -6  -3   31.60   12.24
 -13   6   3   26.70   18.10
 -13   6   3   33.31   15.75
  13  -6  -2   92.63   22.19
  13  -6  -2  112.11   15.97
 -13   6   2   47.60   33.54
 -13   6   2   53.57   14.10
  13  -6  -1   26.40   12.72
  13  -6  -1   20.66    7.48
 -13   6   1    5.74   12.83
 -13   6   1    1.98    6.97
  13  -6   0  221.29   36.69
  13  -6   0  218.42   38.57
 -13   6   0  192.87   17.88
 -13   6   0  225.39   20.55
  13  -6   1  455.69   52.25
  13  -6   1  435.45   78.14
 -13   6  -1  358.21   22.83
 -13   6  -1  397.36   26.58
  13  -6   2   40.54   21.85
  13  -6   2   49.83   23.00
  13  -6   3  176.72   39.84
  13  -6   3  171.86   41.72
  13  -6   4  269.85   49.58
  13  -6   4  291.91   54.23
  13  -6   5   76.41   36.69
  13  -6   5   95.93   33.59
  13  -5  -9   -3.80    8.72
  13  -5  -9   14.43   11.37
 -13   5   9    2.46   11.13
 -13   5   9    7.33   14.70
  13  -5  -8  127.78   25.14
  13  -5  -8  112.58   29.61
 -13   5   8  122.83   28.98
 -13   5   8  118.71   27.01
  13  -5  -7   48.98   16.15
  13  -5  -7   66.87   28.01
 -13   5   7    3.40   16.71
 -13   5   7   35.90   17.58
  13  -5  -6  145.63   28.94
  13  -5  -6  139.30   29.55
 -13   5   6  197.22   28.51
 -13   5   6  201.64   32.42
  13  -5  -5  192.40   29.99
  13  -5  -5  212.10   28.86
 -13   5   5  146.15   32.52
 -13   5   5  155.85   25.88
  13  -5  -4  210.68   31.18
  13  -5  -4  208.35   25.98
 -13   5   4  149.96   23.50
 -13   5   4  138.90   32.81
  13  -5  -3  103.77   23.14
  13  -5  -3   71.62   16.13
 -13   5   3   67.26   15.44
 -13   5   3  101.37   37.51
  13  -5  -2   35.75   21.58
  13  -5  -2   41.51   19.84
 -13   5   2   72.83   12.60
 -13   5   2   81.70   23.08
  13  -5  -1   78.06   23.62
  13  -5  -1   54.50   18.63
 -13   5   1   78.54   23.82
 -13   5   1   75.92   11.61
  13  -5   0   67.24   26.66
 -13   5   0   83.03   10.43
 -13   5   0   82.76   11.66
  13  -5   1   70.94   27.85
  13  -5   1   76.87   27.95
  13  -5   2  200.53   40.45
  13  -5   2  149.99   41.01
  13  -5   3   44.36   26.80
  13  -5   3   53.02   27.48
  13  -5   4   85.15   32.67
  13  -5   4   83.06   35.16
  13  -4  -9    1.13   16.11
  13  -4  -9   48.61   18.27
 -13   4   9   47.39   17.55
 -13   4   9    3.56   18.00
  13  -4  -8    0.79   12.06
  13  -4  -8   36.45   13.57
 -13   4   8  -12.02   12.42
 -13   4   8   22.67   13.54
  13  -4  -7  167.07   31.65
  13  -4  -7  155.62   30.93
 -13   4   7  188.81   29.42
 -13   4   7  219.74   52.55
  13  -4  -6   -1.45   16.00
  13  -4  -6   23.20   14.42
 -13   4   6   34.13   13.89
 -13   4   6   56.08   18.47
  13  -4  -5    2.94   22.13
  13  -4  -5   56.73   17.93
 -13   4   5  102.07   25.30
 -13   4   5  109.65   17.57
  13  -4  -4  673.08   63.90
  13  -4  -4  733.37   70.60
 -13   4   4  597.94   92.99
 -13   4   4  552.77   46.12
  13  -4  -3  159.86   31.16
  13  -4  -3  147.77   20.15
 -13   4   3  118.27   18.10
 -13   4   3  135.16   32.19
  13  -4  -2   55.75   22.60
  13  -4  -2   44.13   11.79
 -13   4   2   65.21   11.56
 -13   4   2   67.40   23.44
  13  -4  -1   -0.29   26.59
  13  -4  -1   84.03   12.33
 -13   4   1   89.14   11.59
 -13   4   1   95.17   27.24
  13  -4   0  228.46   37.85
  13  -4   0  146.10   14.15
 -13   4   0  153.01   36.72
  13  -4   1   -0.21   18.64
  13  -4   1   35.71   19.09
  13  -4   2  100.83   33.71
  13  -4   2   88.54   34.43
  13  -4   3   10.85   19.92
  13  -4   3   27.21   32.47
  13  -4   4   50.30   30.64
  13  -4   4   60.70   32.69
  13  -3  -9   -0.88   21.22
  13  -3  -9  114.27   23.14
 -13   3   9   77.60   23.28
 -13   3   9    5.83   21.09
  13  -3  -8   -5.37    9.57
  13  -3  -8    7.05    9.40
 -13   3   8    2.05    8.76
 -13   3   8    7.32   10.40
  13  -3  -7    3.08   23.02
  13  -3  -7  113.57   20.78
 -13   3   7   -1.03   19.29
 -13   3   7  134.96   25.13
  13  -3  -6  177.47   34.28
  13  -3  -6  194.62   29.55
 -13   3   6  175.64   27.45
 -13   3   6  197.28   39.11
  13  -3  -5   49.88   34.19
  13  -3  -5   46.76   16.13
 -13   3   5   88.64   24.18
 -13   3   5   41.48   15.26
  13  -3  -4  190.02   37.24
  13  -3  -4  185.44   25.48
 -13   3   4  228.82   40.91
 -13   3   4  238.24   25.13
  13  -3  -3  156.05   33.47
  13  -3  -3  145.71   19.13
 -13   3   3  141.21   18.38
 -13   3   3  146.68   34.69
  13  -3  -2  182.76   37.04
  13  -3  -2  188.73   19.33
 -13   3   2  132.34   24.61
 -13   3   2  132.62   37.08
  13  -3  -1  259.57   44.43
  13  -3  -1  227.59   19.59
 -13   3   1  225.68   24.62
 -13   3   1  302.62   46.21
  13  -3   0    0.76   38.92
 -13   3   0   54.40   23.54
  13  -3   1    0.18   21.38
  13  -3   1   42.52   22.72
  13  -3   2  236.84   79.48
  13  -3   2  258.83   54.94
  13  -3   3   33.44   27.33
  13  -3   3   34.62   27.85
  13  -2  -9  169.22   34.98
  13  -2  -9  161.74   33.60
 -13   2   9  133.57   38.60
 -13   2   9  117.44   31.84
  13  -2  -8   -1.97    7.91
  13  -2  -8   -7.00    7.12
 -13   2   8   -0.28    6.70
 -13   2   8   18.27    9.04
  13  -2  -7    4.59   15.92
  13  -2  -7   32.99   12.84
 -13   2   7   -8.77   11.92
 -13   2   7   31.28   16.91
  13  -2  -6   -2.61   24.50
  13  -2  -6   84.78   18.05
 -13   2   6   54.84   26.65
 -13   2   6   81.49   26.79
  13  -2  -5   -0.06   12.61
  13  -2  -5   10.54   13.30
 -13   2   5    9.34   21.64
 -13   2   5    5.36    7.65
  13  -2  -4   -0.44   48.76
  13  -2  -4  126.21   19.00
 -13   2   4  130.95   34.89
 -13   2   4  105.14   26.79
  13  -2  -3  204.90   40.44
  13  -2  -3  206.67   32.33
 -13   2   3  192.54   21.08
 -13   2   3  200.39   44.06
  13  -2  -2   -0.71   32.87
  13  -2  -2  105.35   13.56
 -13   2   2   98.91   13.25
 -13   2   2  144.89   33.98
  13  -2  -1  146.13   37.64
 -13   2   1  134.32   38.95
  13  -2   0    0.37   25.97
 -13   2   0   68.07   24.85
  13  -2   1    0.06   30.90
  13  -2   1  111.09   32.10
  13  -2   2   -2.58   26.97
  13  -2   2   98.40   42.05
  13  -1  -9   67.87   27.31
  13  -1  -9   -0.60   19.20
 -13   1   9   47.43   20.85
 -13   1   9    1.14   16.64
  13  -1  -8  139.56   39.84
  13  -1  -8   -0.29   30.96
 -13   1   8   98.88   24.56
 -13   1   8  150.22   34.06
  13  -1  -7   37.34   22.04
  13  -1  -7   23.64   18.69
 -13   1   7    6.72   13.43
 -13   1   7   29.69   20.14
  13  -1  -6   54.18   26.50
  13  -1  -6   57.72   17.89
 -13   1   6   57.42   17.32
 -13   1   6   75.05   28.70
  13  -1  -5   -0.66   26.40
  13  -1  -5   83.41   16.41
 -13   1   5   50.26   15.08
 -13   1   5   49.82   44.05
  13  -1  -4    0.44   43.74
  13  -1  -4   66.32   15.19
 -13   1   4   68.62   29.63
 -13   1   4   74.61   14.46
  13  -1  -3    0.46   28.61
  13  -1  -3   82.70   13.45
 -13   1   3   65.99   12.87
 -13   1   3   86.44   30.44
  13  -1  -2    1.68   22.74
  13  -1  -2   40.59    8.25
 -13   1   2   20.44    7.88
 -13   1   2   44.64   37.37
  13  -1  -1   -1.09   62.76
 -13   1   1  206.55   41.57
  13  -1   0  303.09   60.63
 -13   1   0  366.48   60.16
  13  -1   1    1.21   12.70
  13  -1   1    1.73   13.31
  13   0  -8   83.27   20.85
  13   0  -8   68.97   26.32
 -13   0   8   -6.23   19.26
 -13   0   8   68.74   29.25
  13   0  -7   29.19   15.63
  13   0  -7   46.08   21.87
 -13   0   7    0.88   22.51
 -13   0   7   23.05   23.16
  13   0  -6  207.30   29.99
  13   0  -6  200.15   43.38
 -13   0   6  190.94   27.48
 -13   0   6  221.20   48.76
  13   0  -5    0.41    7.04
  13   0  -5    0.18   12.62
 -13   0   5   -3.01   21.81
 -13   0   5   14.21   10.91
  13   0  -4   12.06    8.12
  13   0  -4    0.17   16.86
 -13   0   4   -7.17   18.29
 -13   0   4   12.00    7.85
  13   0  -3   -1.47   30.83
  13   0  -3   64.67   12.84
 -13   0   3   85.09   12.99
 -13   0   3   71.22   33.17
  13   0  -2    1.48   16.88
 -13   0   2   14.67   17.42
  13   0  -1   -0.07   32.78
 -13   0   1  114.08   32.50
  13   1  -7   59.10   17.98
  13   1  -7   80.82   27.59
 -13  -1   7    1.55   16.86
 -13  -1   7   69.88   28.95
  13   1  -6    1.86   11.98
  13   1  -6   23.71   19.42
 -13  -1   6   21.38   11.66
 -13  -1   6   34.94   21.98
  13   1  -5   -0.24   15.85
  13   1  -5   -0.17   31.07
 -13  -1   5   19.61   21.72
 -13  -1   5   20.94   10.01
  13   1  -4  136.28   18.72
  13   1  -4    0.13   38.89
 -13  -1   4  117.10   41.29
 -13  -1   4  114.23   18.08
  13   1  -3   26.02    9.57
  13   1  -3   -0.39   26.18
 -13  -1   3   36.60   10.04
 -13  -1   3   61.21   27.12
  14 -10  -3    2.47    7.26
  14 -10  -3    8.64    7.20
 -14  10   3   -0.08   10.73
 -14  10   3   19.62   12.09
  14 -10  -2  311.75   32.78
  14 -10  -2  303.68   33.53
 -14  10   2  275.85   53.09
 -14  10   2  310.49   41.59
  14 -10  -1   87.19   19.57
  14 -10  -1  106.47   20.10
 -14  10   1   64.60   29.61
 -14  10   1   69.23   22.16
  14 -10   0   19.40   10.55
  14 -10   0   -0.24   10.35
 -14  10   0   10.96    8.95
 -14  10   0    8.61    9.81
  14 -10   1   23.66   18.36
  14 -10   1   -0.01   11.84
 -14  10  -1   10.98    8.29
 -14  10  -1   18.08    8.77
  14 -10   2   88.61   24.47
  14 -10   2   96.04   24.03
  14  -9  -4   47.16   11.64
  14  -9  -4   15.74   15.44
 -14   9   4   -0.14   24.25
 -14   9   4    7.53   11.62
  14  -9  -3   77.26   27.89
  14  -9  -3   99.99   19.93
 -14   9   3    0.05   32.73
 -14   9   3  100.57   24.13
  14  -9  -2  183.41   27.50
  14  -9  -2  150.42   27.14
 -14   9   2  192.72   39.86
 -14   9   2  181.73   29.99
  14  -9  -1   72.46   21.14
  14  -9  -1   96.06   21.52
 -14   9   1   69.53   25.92
 -14   9   1   84.60   19.83
  14  -9   0  123.00   25.75
  14  -9   0   98.02   26.16
 -14   9   0  120.63   17.86
 -14   9   0  143.08   20.93
  14  -9   1   36.73   21.00
  14  -9   1   65.29   20.51
 -14   9  -1   59.64   11.34
 -14   9  -1   42.81   19.30
  14  -9   2   12.39   13.24
  14  -9   2    4.03   21.06
  14  -8  -5   12.45    9.82
  14  -8  -5   17.62   20.28
 -14   8   5    0.00   11.60
 -14   8   5   12.39   10.40
  14  -8  -4   79.60   18.06
  14  -8  -4  116.21   21.00
 -14   8   4   -0.15   19.20
 -14   8   4   70.77   18.40
  14  -8  -3   15.29   11.93
  14  -8  -3   19.64   11.74
 -14   8   3   13.91   12.00
 -14   8   3   14.63   11.01
  14  -8  -2   15.10   14.52
  14  -8  -2   -0.31   15.49
 -14   8   2   32.97   18.20
 -14   8   2   47.40   13.57
  14  -8  -1   38.96   18.10
  14  -8  -1   52.25   28.19
 -14   8   1   44.39   12.59
 -14   8   1   40.38   14.46
  14  -8   0   59.44   22.64
  14  -8   0   60.94   22.76
 -14   8   0   69.12   12.54
 -14   8   0   73.19   14.25
  14  -8   1   84.56   26.55
  14  -8   1   91.58   26.88
  14  -8   2   62.84   23.20
  14  -8   2   41.86   24.17
  14  -7  -6   96.96   20.38
  14  -7  -6   87.00   36.24
 -14   7   6    0.09   23.11
 -14   7   6  104.83   21.50
  14  -7  -5   18.17   10.90
  14  -7  -5   14.10   12.18
 -14   7   5   -0.34   11.47
 -14   7   5    6.15   18.20
  14  -7  -4   63.71   20.11
  14  -7  -4   61.24   20.11
 -14   7   4   92.10   19.26
 -14   7   4   56.79   22.11
  14  -7  -3   75.46   20.07
  14  -7  -3    0.44   17.00
 -14   7   3   81.56   24.77
 -14   7   3  105.59   20.88
  14  -7  -2  217.53   36.20
  14  -7  -2  215.70   27.32
 -14   7   2  236.46   26.32
 -14   7   2  286.29   38.08
  14  -7  -1  155.07   31.66
  14  -7  -1  171.33   33.44
 -14   7   1  164.06   19.33
 -14   7   1  136.73   21.41
  14  -7   0   -1.71    9.68
  14  -7   0   10.71    9.98
 -14   7   0    3.78    4.33
 -14   7   0    0.52    4.98
  14  -7   1   27.87   20.63
  14  -7   1   37.09   20.42
  14  -7   2  161.89   38.92
  14  -7   2  179.17   40.57
  14  -6  -7   25.16   28.81
  14  -6  -7   45.88   34.23
 -14   6   7  109.60   21.36
 -14   6   7    1.98   21.03
  14  -6  -6    2.47   18.04
  14  -6  -6   99.57   18.97
 -14   6   6   73.73   30.10
 -14   6   6    4.66   17.45
  14  -6  -5   -0.34   17.71
  14  -6  -5   82.11   17.18
 -14   6   5    6.19   16.51
 -14   6   5   72.73   19.57
  14  -6  -4   69.86   22.01
  14  -6  -4   62.68   27.93
 -14   6   4   64.17   17.77
 -14   6   4   76.87   23.87
  14  -6  -3    6.65    9.70
  14  -6  -3    0.19    7.08
 -14   6   3    5.50    6.60
 -14   6   3    0.58   10.37
  14  -6  -2    2.26   11.31
  14  -6  -2   15.09    6.88
 -14   6   2   -0.47    6.38
 -14   6   2   -1.38   11.28
  14  -6  -1   74.98   41.13
 -14   6   1   76.94   12.73
 -14   6   1   90.13   15.16
  14  -6   0   40.94   21.59
  14  -6   0   41.42   23.11
  14  -6   1   73.02   28.37
  14  -6   1   72.38   28.48
  14  -6   2   35.18   41.91
  14  -6   2   60.48   28.72
  14  -5  -7    1.65   24.87
  14  -5  -7  103.09   26.23
 -14   5   7  137.40   24.31
 -14   5   7  102.39   42.76
  14  -5  -6   -2.87   16.92
  14  -5  -6   58.36   16.02
 -14   5   6   49.02   18.74
 -14   5   6    2.41   14.81
  14  -5  -5   -0.54   14.32
  14  -5  -5   29.04   12.21
 -14   5   5    2.20   11.23
 -14   5   5   29.65   15.43
  14  -5  -4  253.90   42.43
  14  -5  -4  277.34   32.68
 -14   5   4  252.80   43.91
 -14   5   4  295.18   44.75
  14  -5  -3  249.96   40.70
  14  -5  -3  237.58   26.89
 -14   5   3  194.49   24.76
 -14   5   3  194.90   40.34
  14  -5  -2   32.03   16.11
  14  -5  -2   16.34    8.47
 -14   5   2    3.79   16.74
 -14   5   2    7.09   12.27
  14  -5  -1   16.48   25.58
  14  -5  -1   15.55    6.81
 -14   5   1    8.63    6.28
 -14   5   1   33.11   16.39
  14  -5   0  136.78   37.32
  14  -5   0  150.34   39.67
  14  -5   1   55.50   27.24
  14  -5   1   40.79   42.20
  14  -4  -7    4.25   15.11
  14  -4  -7   21.84   13.77
 -14   4   7    8.07   13.15
 -14   4   7   26.01   17.19
  14  -4  -6  140.74   30.87
  14  -4  -6  125.51   25.71
 -14   4   6  122.79   33.89
 -14   4   6  100.49   23.87
  14  -4  -5    0.82   12.41
  14  -4  -5   11.69    9.60
 -14   4   5   12.05   21.14
 -14   4   5    3.83    8.43
  14  -4  -4    6.08   12.12
  14  -4  -4    0.66    8.21
 -14   4   4    7.32    7.46
 -14   4   4   11.17   13.14
  14  -4  -3  140.37   32.75
  14  -4  -3  121.21   19.19
 -14   4   3  111.43   18.02
 -14   4   3  133.96   35.06
  14  -4  -2   -5.89   10.13
  14  -4  -2    6.96    4.46
 -14   4   2   -1.61    4.26
 -14   4   2    0.07   10.28
  14  -4  -1   56.58   41.01
 -14   4   1   45.53   25.82
  14  -4   0   -0.48   17.95
  14  -4   0   26.53   18.96
  14  -3  -6   -0.45   28.55
  14  -3  -6   31.76   14.17
 -14   3   6   37.59   20.53
 -14   3   6    7.34   13.42
  14  -3  -5   -4.08   24.75
  14  -3  -5   88.71   16.70
 -14   3   5   59.72   27.22
 -14   3   5   38.99   16.09
  14  -3  -4   -7.79   10.40
  14  -3  -4   -0.65    6.05
 -14   3   4   -2.81    5.58
 -14   3   4    4.58   11.21
  14  -3  -3    0.40   28.38
  14  -3  -3   70.20   14.57
 -14   3   3   68.63   12.81
 -14   3   3   70.39   46.19
  14  -3  -2   -1.26    8.61
  14  -3  -2   -1.17    3.26
 -14   3   2    6.45    8.83
  14  -3  -1   -2.29   17.32
 -14   3   1   19.99   17.32
  14  -2  -5  134.13   23.50
 -14   2   5  112.36   40.01
 -14   2   5  117.42   21.42
  14  -2  -4   -0.32   13.96
  14  -2  -4   -0.04    7.04
 -14   2   4   12.31   10.37
 -14   2   4   15.64   14.97
  14  -2  -3    0.06   17.91
  14  -2  -3   17.03    7.73
 -14   2   3    9.25   11.08
 -14   2   3    8.49   29.41
;
loop_
_symmetry_equiv_pos_site_id
_space_group_symop_operation_xyz
1 +X,+Y,+Z
loop_
_atom_site_label
_atom_site_type_symbol
_atom_site_fract_x
_atom_site_fract_y
_atom_site_fract_z
_atom_site_U_iso_or_equiv
_atom_site_adp_type
_atom_site_occupancy
_atom_site_site_symmetry_multiplicity
_atom_site_calc_flag
_atom_site_refinement_flags
Br1 Br -0.05785(6) 0.66630(5) 1.13116(5) 0.04238(16) Uani 1 1 d .
Br2 Br 0.42088(6) 1.04529(6) 0.52061(5) 0.05042(19) Uani 1 1 d .
Br3 Br 0.60579(6) 1.34618(6) 0.88331(6) 0.0598(2) Uani 1 1 d .
S1 S 0.09444(13) 0.85683(11) 0.62630(10) 0.0272(3) Uani 1 1 d .
S2 S -0.28193(14) 0.92694(13) 0.61350(11) 0.0341(3) Uani 1 1 d .
S3 S 0.94777(13) 0.90703(12) 0.85017(11) 0.0306(3) Uani 1 1 d .
O1 O 0.2810(4) 0.9689(3) 0.8174(3) 0.0296(8) Uani 1 1 d .
O2 O 0.4453(4) 0.7763(3) 0.9724(3) 0.0298(8) Uani 1 1 d .
O3 O -0.0667(4) 1.1230(4) 0.7559(3) 0.0401(10) Uani 1 1 d .
O4 O 0.1832(4) 1.4106(3) 0.6306(3) 0.0302(8) Uani 1 1 d .
O5 O 1.0522(4) 1.1200(3) 1.0156(3) 0.0327(9) Uani 1 1 d .
O6 O 0.7861(3) 1.1559(3) 1.2757(3) 0.0277(8) Uani 1 1 d .
N1 N 0.0803(4) 0.6543(4) 0.6419(3) 0.0228(9) Uani 1 1 d .
N2 N 0.3064(4) 0.6488(4) 0.8011(3) 0.0225(9) Uani 1 1 d .
N3 N -0.2070(4) 1.0150(4) 0.4648(3) 0.0236(9) Uani 1 1 d .
N4 N -0.0120(4) 1.2685(4) 0.5039(3) 0.0249(9) Uani 1 1 d .
N5 N 0.7198(4) 0.8708(4) 0.8971(3) 0.0254(9) Uani 1 1 d .
N6 N 0.6875(4) 1.0027(4) 1.1098(3) 0.0228(9) Uani 1 1 d .
C1 C 0.0114(5) 0.6921(5) 1.0124(5) 0.0312(12) Uani 1 1 d .
C2 C 0.1313(5) 0.7923(5) 1.0350(4) 0.0299(12) Uani 1 1 d .
C3 C -0.0576(5) 0.6088(5) 0.9069(5) 0.0321(12) Uani 1 1 d .
C4 C 0.1822(5) 0.8094(5) 0.9482(4) 0.0279(11) Uani 1 1 d .
C5 C -0.0065(5) 0.6274(5) 0.8212(4) 0.0263(11) Uani 1 1 d .
C6 C 0.1139(5) 0.7270(5) 0.8404(4) 0.0235(11) Uani 1 1 d .
C7 C 0.1732(5) 0.7470(4) 0.7472(4) 0.0214(10) Uani 1 1 d .
C8 C 0.2000(5) 0.8721(5) 0.7474(4) 0.0242(11) Uani 1 1 d .
C9 C 0.0354(5) 0.6964(4) 0.5795(4) 0.0232(10) Uani 1 1 d .
C10 C -0.0666(5) 0.6218(4) 0.4714(4) 0.0235(10) Uani 1 1 d .
C11 C -0.1388(6) 0.6667(5) 0.4207(4) 0.0316(12) Uani 1 1 d .
C12 C -0.2377(6) 0.5948(5) 0.3242(5) 0.0386(14) Uani 1 1 d .
C13 C -0.2668(6) 0.4750(6) 0.2748(5) 0.0416(15) Uani 1 1 d .
C14 C -0.1937(6) 0.4281(5) 0.3224(5) 0.0406(15) Uani 1 1 d .
C15 C -0.0955(5) 0.5005(4) 0.4212(4) 0.0294(12) Uani 1 1 d .
C16 C 0.3123(5) 0.7447(5) 0.7646(4) 0.0233(10) Uani 1 1 d .
C17 C 0.3616(5) 0.7370(5) 0.6639(4) 0.0288(12) Uani 1 1 d .
C18 C 0.3695(5) 0.6724(5) 0.9051(4) 0.0239(11) Uani 1 1 d .
C19 C 0.3426(5) 0.5654(4) 0.9356(4) 0.0230(10) Uani 1 1 d .
C20 C 0.2173(6) 0.4671(5) 0.8995(4) 0.0325(12) Uani 1 1 d .
C21 C 0.1949(7) 0.3724(6) 0.9345(5) 0.0458(16) Uani 1 1 d .
C22 C 0.2998(7) 0.3743(6) 1.0032(5) 0.0438(16) Uani 1 1 d .
C23 C 0.4259(7) 0.4729(6) 1.0413(5) 0.0422(15) Uani 1 1 d .
C24 C 0.4469(6) 0.5678(6) 1.0093(5) 0.0355(13) Uani 1 1 d .
C25 C 0.2647(5) 1.0660(5) 0.5305(5) 0.0327(13) Uani 1 1 d .
C26 C 0.1513(6) 1.0006(6) 0.4416(5) 0.0365(13) Uani 1 1 d .
C27 C 0.2648(5) 1.1409(5) 0.6283(5) 0.0333(13) Uani 1 1 d .
C28 C 0.0348(6) 1.0096(5) 0.4515(4) 0.0297(12) Uani 1 1 d .
C29 C 0.1492(5) 1.1508(4) 0.6380(5) 0.0294(12) Uani 1 1 d .
C30 C 0.0321(5) 1.0845(5) 0.5497(4) 0.0259(11) Uani 1 1 d .
C31 C -0.0946(5) 1.0962(4) 0.5617(4) 0.0228(10) Uani 1 1 d .
C32 C -0.1300(5) 1.0648(5) 0.6610(4) 0.0292(11) Uani 1 1 d .
C33 C -0.3022(5) 0.9332(5) 0.4800(4) 0.0257(11) Uani 1 1 d .
C34 C -0.4339(5) 0.8481(5) 0.3966(4) 0.0248(11) Uani 1 1 d .
C35 C -0.5373(5) 0.7691(5) 0.4204(4) 0.0321(12) Uani 1 1 d .
C36 C -0.6636(6) 0.6990(5) 0.3442(5) 0.0397(14) Uani 1 1 d .
C37 C -0.6831(6) 0.7068(5) 0.2433(5) 0.0387(14) Uani 1 1 d .
C38 C -0.5782(6) 0.7857(5) 0.2178(5) 0.0376(14) Uani 1 1 d .
C39 C -0.4540(6) 0.8551(5) 0.2933(4) 0.0302(12) Uani 1 1 d .
C40 C -0.0706(5) 1.2293(5) 0.5848(4) 0.0275(11) Uani 1 1 d .
C41 C -0.1966(6) 1.2440(5) 0.5882(5) 0.0378(14) Uani 1 1 d .
C42 C 0.1169(5) 1.3553(4) 0.5336(4) 0.0245(11) Uani 1 1 d .
C43 C 0.1793(5) 1.3781(4) 0.4448(4) 0.0247(11) Uani 1 1 d .
C44 C 0.1087(6) 1.3375(5) 0.3356(4) 0.0323(12) Uani 1 1 d .
C45 C 0.1773(6) 1.3603(6) 0.2603(5) 0.0393(14) Uani 1 1 d .
C46 C 0.3151(6) 1.4242(6) 0.2910(5) 0.0393(14) Uani 1 1 d .
C47 C 0.3858(6) 1.4663(6) 0.3998(5) 0.0398(14) Uani 1 1 d .
C48 C 0.3175(5) 1.4447(5) 0.4756(5) 0.0310(12) Uani 1 1 d .
C49 C 0.6738(5) 1.2403(5) 0.9071(5) 0.0312(12) Uani 1 1 d .
C50 C 0.6056(5) 1.1195(5) 0.8390(5) 0.0311(12) Uani 1 1 d .
C51 C 0.7856(5) 1.2845(5) 0.9918(5) 0.0338(13) Uani 1 1 d .
C52 C 0.6513(5) 1.0403(5) 0.8590(4) 0.0259(11) Uani 1 1 d .
C53 C 0.8313(6) 1.2046(5) 1.0108(5) 0.0330(13) Uani 1 1 d .
C54 C 0.7642(5) 1.0822(4) 0.9460(4) 0.0227(10) Uani 1 1 d .
C55 C 0.8091(5) 0.9946(4) 0.9716(4) 0.0229(10) Uani 1 1 d .
C56 C 0.9521(5) 1.0273(5) 0.9590(4) 0.0254(11) Uani 1 1 d .
C57 C 0.7757(5) 0.8215(4) 0.8376(4) 0.0230(10) Uani 1 1 d .
C58 C 0.7042(5) 0.6909(5) 0.7622(4) 0.0235(11) Uani 1 1 d .
C59 C 0.7442(5) 0.6480(5) 0.6703(4) 0.0295(12) Uani 1 1 d .
C60 C 0.6798(6) 0.5248(5) 0.6073(5) 0.0350(13) Uani 1 1 d .
C61 C 0.5791(5) 0.4467(5) 0.6345(5) 0.0328(13) Uani 1 1 d .
C62 C 0.5381(5) 0.4889(5) 0.7242(4) 0.0289(12) Uani 1 1 d .
C63 C 0.6029(5) 0.6127(5) 0.7886(4) 0.0268(11) Uani 1 1 d .
C64 C 0.8124(5) 1.0055(5) 1.0923(4) 0.0265(11) Uani 1 1 d .
C65 C 0.8382(6) 0.9073(5) 1.1179(5) 0.0353(13) Uani 1 1 d .
C66 C 0.6854(5) 1.0869(4) 1.1954(4) 0.0223(10) Uani 1 1 d .
C67 C 0.5603(5) 1.1005(4) 1.1899(4) 0.0225(10) Uani 1 1 d .
C68 C 0.4883(5) 1.0944(4) 1.0923(4) 0.0271(11) Uani 1 1 d .
C69 C 0.3795(6) 1.1188(5) 1.0917(5) 0.0333(13) Uani 1 1 d .
C70 C 0.3387(6) 1.1458(5) 1.1852(5) 0.0391(14) Uani 1 1 d .
C71 C 0.4099(6) 1.1510(6) 1.2811(5) 0.0421(15) Uani 1 1 d .
C72 C 0.5202(6) 1.1295(6) 1.2837(5) 0.0369(13) Uani 1 1 d .
H2 H 0.26067 0.57323 0.75451 0.0270 Uiso 1 1 calc R
H2A H 0.17818 0.84846 1.10814 0.0359 Uiso 1 1 calc R
H3 H -0.13937 0.53955 0.89305 0.0385 Uiso 1 1 calc R
H4A H 0.26474 0.87817 0.96262 0.0335 Uiso 1 1 calc R
H4 H -0.06033 1.23579 0.43504 0.0299 Uiso 1 1 calc R
H5 H -0.05453 0.571 0.74826 0.0315 Uiso 1 1 calc R
H6 H 0.61108 0.94425 1.06292 0.0273 Uiso 1 1 calc R
H11 H -0.11909 0.74916 0.45388 0.0380 Uiso 1 1 calc R
H12 H -0.28652 0.62719 0.29099 0.0464 Uiso 1 1 calc R
H13 H -0.33675 0.42451 0.20827 0.0499 Uiso 1 1 calc R
H14 H -0.21126 0.3466 0.28695 0.0487 Uiso 1 1 calc R
H15 H -0.04772 0.46799 0.45517 0.0353 Uiso 1 1 calc R
H16 H 0.37891 0.82284 0.8247 0.0280 Uiso 1 1 calc R
H17A H 0.4499 0.73903 0.67935 0.0345 Uiso 1 1 calc R
H17B H 0.36874 0.80557 0.644 0.0345 Uiso 1 1 calc R
H17C H 0.2983 0.66128 0.60299 0.0345 Uiso 1 1 calc R
H20 H 0.14595 0.4643 0.85032 0.0390 Uiso 1 1 calc R
H21 H 0.10774 0.30631 0.91135 0.0549 Uiso 1 1 calc R
H22 H 0.2853 0.30755 1.0243 0.0526 Uiso 1 1 calc R
H23 H 0.49728 0.47445 1.08944 0.0506 Uiso 1 1 calc R
H24 H 0.53264 0.63635 1.0369 0.0427 Uiso 1 1 calc R
H26 H 0.15311 0.95005 0.37448 0.0438 Uiso 1 1 calc R
H27 H 0.34363 1.18525 0.68857 0.0400 Uiso 1 1 calc R
H28 H -0.04362 0.96445 0.39097 0.0356 Uiso 1 1 calc R
H29 H 0.14912 1.20309 0.70501 0.0352 Uiso 1 1 calc R
H35 H -0.52303 0.76177 0.48945 0.0386 Uiso 1 1 calc R
H36 H -0.73585 0.64625 0.36212 0.0476 Uiso 1 1 calc R
H37 H -0.76853 0.65813 0.19065 0.0464 Uiso 1 1 calc R
H38 H -0.59227 0.7916 0.14812 0.0451 Uiso 1 1 calc R
H39 H -0.38187 0.90782 0.27534 0.0362 Uiso 1 1 calc R
H40 H -0.00361 1.28181 0.65831 0.0329 Uiso 1 1 calc R
H41A H -0.26413 1.19368 0.51685 0.0454 Uiso 1 1 calc R
H41B H -0.1754 1.32895 0.60483 0.0454 Uiso 1 1 calc R
H41C H -0.23175 1.21899 0.64507 0.0454 Uiso 1 1 calc R
H44 H 0.01361 1.29424 0.31303 0.0387 Uiso 1 1 calc R
H45 H 0.12858 1.3314 0.18568 0.0472 Uiso 1 1 calc R
H46 H 0.36102 1.43915 0.2381 0.0472 Uiso 1 1 calc R
H47 H 0.48092 1.50985 0.42216 0.0478 Uiso 1 1 calc R
H48 H 0.36626 1.47606 0.55056 0.0372 Uiso 1 1 calc R
H50 H 0.52905 1.09103 0.77974 0.0373 Uiso 1 1 calc R
H51 H 0.83142 1.36809 1.03711 0.0406 Uiso 1 1 calc R
H52 H 0.60516 0.95695 0.81294 0.0311 Uiso 1 1 calc R
H53 H 0.90963 1.2346 1.06894 0.0396 Uiso 1 1 calc R
H59 H 0.81403 0.70205 0.65141 0.0354 Uiso 1 1 calc R
H60 H 0.70597 0.49443 0.54474 0.0420 Uiso 1 1 calc R
H61 H 0.53693 0.36263 0.59116 0.0393 Uiso 1 1 calc R
H62 H 0.467 0.43469 0.74187 0.0346 Uiso 1 1 calc R
H63 H 0.57638 0.6426 0.85115 0.0322 Uiso 1 1 calc R
H64 H 0.88725 1.08594 1.14259 0.0318 Uiso 1 1 calc R
H65A H 0.76446 0.82759 1.07111 0.0424 Uiso 1 1 calc R
H65B H 0.84398 0.91974 1.19508 0.0424 Uiso 1 1 calc R
H65C H 0.92266 0.91191 1.10399 0.0424 Uiso 1 1 calc R
H68 H 0.5138 1.07382 1.02696 0.0325 Uiso 1 1 calc R
H69 H 0.33215 1.11685 1.026 0.0400 Uiso 1 1 calc R
H70 H 0.26275 1.1606 1.18366 0.0469 Uiso 1 1 calc R
H71 H 0.38269 1.16957 1.34578 0.0505 Uiso 1 1 calc R
H72 H 0.569 1.13457 1.35043 0.0442 Uiso 1 1 calc R
loop_
_atom_site_aniso_label
_atom_site_aniso_U_11
_atom_site_aniso_U_22
_atom_site_aniso_U_33
_atom_site_aniso_U_12
_atom_site_aniso_U_13
_atom_site_aniso_U_23
Br1 0.0496(4) 0.0528(4) 0.0434(3) 0.0274(3) 0.0282(3) 0.0308(3)
Br2 0.0406(4) 0.0776(5) 0.0621(4) 0.0401(3) 0.0271(3) 0.0413(4)
Br3 0.0341(3) 0.0400(4) 0.1032(6) 0.0161(3) -0.0054(4) 0.0366(4)
S1 0.0342(7) 0.0228(6) 0.0244(6) 0.0121(6) 0.0056(6) 0.0112(5)
S2 0.0324(7) 0.0369(8) 0.0218(6) 0.0038(6) 0.0049(6) 0.0142(6)
S3 0.0234(7) 0.0312(7) 0.0328(7) 0.0127(6) 0.0101(6) 0.0048(6)
O1 0.027(2) 0.0228(18) 0.0287(19) 0.0045(16) 0.0042(17) 0.0078(16)
O2 0.0256(18) 0.0269(19) 0.0231(19) 0.0032(15) 0.0007(16) 0.0064(16)
O3 0.036(2) 0.048(2) 0.021(2) 0.0078(19) 0.0045(18) 0.0104(18)
O4 0.027(2) 0.0286(19) 0.0224(19) 0.0061(15) 0.0000(16) 0.0060(15)
O5 0.0212(18) 0.031(2) 0.036(2) 0.0089(16) 0.0018(17) 0.0057(17)
O6 0.0249(19) 0.0262(18) 0.0224(18) 0.0094(16) -0.0012(16) 0.0028(15)
N1 0.024(2) 0.021(2) 0.021(2) 0.0107(18) 0.0051(18) 0.0062(17)
N2 0.023(2) 0.021(2) 0.020(2) 0.0097(17) 0.0018(18) 0.0064(17)
N3 0.022(2) 0.024(2) 0.023(2) 0.0110(18) 0.0049(18) 0.0083(18)
N4 0.023(2) 0.024(2) 0.022(2) 0.0085(18) 0.0003(19) 0.0078(18)
N5 0.023(2) 0.028(2) 0.022(2) 0.0117(18) 0.0046(18) 0.0061(18)
N6 0.019(2) 0.020(2) 0.022(2) 0.0039(16) 0.0024(18) 0.0050(17)
C1 0.031(3) 0.042(3) 0.035(3) 0.021(3) 0.016(3) 0.026(3)
C2 0.028(3) 0.035(3) 0.028(3) 0.014(2) 0.005(2) 0.014(2)
C3 0.021(3) 0.026(3) 0.041(3) 0.003(2) 0.007(2) 0.014(2)
C4 0.024(3) 0.037(3) 0.026(3) 0.013(2) 0.008(2) 0.018(2)
C5 0.022(3) 0.030(3) 0.027(3) 0.009(2) 0.008(2) 0.015(2)
C6 0.021(3) 0.031(3) 0.025(3) 0.016(2) 0.005(2) 0.015(2)
C7 0.020(2) 0.019(2) 0.021(2) 0.0063(19) 0.001(2) 0.0059(19)
C8 0.022(3) 0.028(3) 0.024(3) 0.010(2) 0.010(2) 0.011(2)
C9 0.026(3) 0.026(2) 0.026(2) 0.015(2) 0.011(2) 0.015(2)
C10 0.021(3) 0.023(2) 0.024(2) 0.008(2) 0.006(2) 0.009(2)
C11 0.033(3) 0.027(3) 0.030(3) 0.011(2) 0.002(2) 0.011(2)
C12 0.042(3) 0.044(3) 0.030(3) 0.023(3) 0.001(3) 0.012(3)
C13 0.040(3) 0.042(3) 0.030(3) 0.018(3) -0.002(3) 0.004(3)
C14 0.046(4) 0.029(3) 0.038(3) 0.019(3) 0.002(3) 0.002(3)
C15 0.035(3) 0.015(2) 0.034(3) 0.014(2) 0.001(2) 0.004(2)
C16 0.021(3) 0.027(3) 0.021(2) 0.009(2) 0.005(2) 0.011(2)
C17 0.029(3) 0.030(3) 0.031(3) 0.016(2) 0.010(2) 0.012(2)
C18 0.017(2) 0.031(3) 0.018(2) 0.009(2) 0.001(2) 0.006(2)
C19 0.022(3) 0.024(2) 0.021(2) 0.007(2) 0.005(2) 0.010(2)
C20 0.035(3) 0.035(3) 0.021(3) 0.013(2) 0.001(2) 0.010(2)
C21 0.057(4) 0.036(3) 0.030(3) 0.007(3) 0.006(3) 0.016(3)
C22 0.073(5) 0.038(3) 0.034(3) 0.029(3) 0.020(3) 0.024(3)
C23 0.041(4) 0.060(4) 0.042(3) 0.027(3) 0.013(3) 0.033(3)
C24 0.027(3) 0.049(4) 0.035(3) 0.016(3) 0.011(3) 0.022(3)
C25 0.025(3) 0.040(3) 0.047(3) 0.018(2) 0.016(3) 0.028(3)
C26 0.040(3) 0.053(4) 0.030(3) 0.026(3) 0.018(3) 0.024(3)
C27 0.024(3) 0.031(3) 0.041(3) 0.010(2) 0.001(3) 0.015(3)
C28 0.032(3) 0.034(3) 0.026(3) 0.014(2) 0.009(2) 0.016(2)
C29 0.029(3) 0.019(2) 0.033(3) 0.007(2) 0.002(2) 0.007(2)
C30 0.028(3) 0.031(3) 0.024(3) 0.015(2) 0.007(2) 0.015(2)
C31 0.025(3) 0.021(2) 0.020(2) 0.008(2) 0.006(2) 0.008(2)
C32 0.027(3) 0.034(3) 0.023(3) 0.013(2) 0.006(2) 0.008(2)
C33 0.025(3) 0.032(3) 0.019(2) 0.013(2) 0.009(2) 0.008(2)
C34 0.023(3) 0.027(3) 0.021(2) 0.008(2) 0.005(2) 0.009(2)
C35 0.033(3) 0.034(3) 0.023(3) 0.009(2) 0.006(2) 0.010(2)
C36 0.031(3) 0.039(3) 0.037(3) 0.004(3) 0.008(3) 0.015(3)
C37 0.034(3) 0.034(3) 0.035(3) 0.010(3) 0.001(3) 0.008(3)
C38 0.037(3) 0.040(3) 0.024(3) 0.010(3) -0.002(3) 0.010(2)
C39 0.032(3) 0.033(3) 0.025(3) 0.012(2) 0.010(2) 0.013(2)
C40 0.027(3) 0.027(3) 0.027(3) 0.012(2) 0.006(2) 0.011(2)
C41 0.034(3) 0.040(3) 0.041(3) 0.021(3) 0.010(3) 0.011(3)
C42 0.027(3) 0.021(2) 0.026(3) 0.013(2) 0.005(2) 0.009(2)
C43 0.024(3) 0.022(2) 0.025(3) 0.008(2) 0.003(2) 0.008(2)
C44 0.032(3) 0.034(3) 0.025(3) 0.014(2) 0.005(2) 0.005(2)
C45 0.037(3) 0.044(3) 0.022(3) 0.009(3) 0.003(3) 0.008(2)
C46 0.039(3) 0.045(3) 0.031(3) 0.015(3) 0.017(3) 0.014(3)
C47 0.027(3) 0.049(4) 0.038(3) 0.013(3) 0.006(3) 0.015(3)
C48 0.027(3) 0.035(3) 0.029(3) 0.015(2) 0.004(2) 0.010(2)
C49 0.025(3) 0.023(3) 0.048(3) 0.010(2) 0.007(3) 0.021(2)
C50 0.019(3) 0.041(3) 0.034(3) 0.009(2) 0.006(2) 0.022(3)
C51 0.020(3) 0.027(3) 0.046(3) 0.005(2) -0.002(3) 0.015(3)
C52 0.024(3) 0.029(3) 0.023(3) 0.011(2) 0.005(2) 0.009(2)
C53 0.029(3) 0.030(3) 0.034(3) 0.014(2) 0.000(3) 0.008(2)
C54 0.014(2) 0.029(3) 0.023(2) 0.007(2) 0.006(2) 0.011(2)
C55 0.020(2) 0.021(2) 0.026(3) 0.010(2) 0.005(2) 0.007(2)
C56 0.028(3) 0.026(3) 0.027(3) 0.015(2) 0.010(2) 0.012(2)
C57 0.024(3) 0.023(2) 0.020(2) 0.012(2) 0.004(2) 0.005(2)
C58 0.021(3) 0.028(3) 0.024(3) 0.016(2) 0.004(2) 0.009(2)
C59 0.026(3) 0.030(3) 0.031(3) 0.013(2) 0.006(2) 0.009(2)
C60 0.035(3) 0.036(3) 0.027(3) 0.018(3) 0.007(3) 0.002(2)
C61 0.027(3) 0.027(3) 0.035(3) 0.012(2) -0.005(3) 0.006(2)
C62 0.028(3) 0.025(3) 0.033(3) 0.013(2) 0.004(2) 0.011(2)
C63 0.024(3) 0.033(3) 0.024(3) 0.014(2) 0.006(2) 0.011(2)
C64 0.026(3) 0.033(3) 0.024(3) 0.014(2) 0.007(2) 0.013(2)
C65 0.047(4) 0.041(3) 0.030(3) 0.030(3) 0.010(3) 0.016(3)
C66 0.033(3) 0.021(2) 0.018(2) 0.015(2) 0.011(2) 0.008(2)
C67 0.024(3) 0.021(2) 0.020(2) 0.008(2) 0.006(2) 0.007(2)
C68 0.028(3) 0.025(3) 0.025(3) 0.009(2) 0.005(2) 0.010(2)
C69 0.039(3) 0.028(3) 0.032(3) 0.019(3) 0.002(3) 0.009(2)
C70 0.026(3) 0.044(3) 0.040(3) 0.019(3) 0.002(3) 0.005(3)
C71 0.046(4) 0.060(4) 0.035(3) 0.037(3) 0.022(3) 0.017(3)
C72 0.035(3) 0.055(4) 0.024(3) 0.024(3) 0.008(2) 0.015(3)
loop_
_atom_type_symbol
_atom_type_description
_atom_type_scat_dispersion_real
_atom_type_scat_dispersion_imag
_atom_type_scat_source
C C 0.0033 0.0016
;
International Tables for Crystallography
(Vol. C, Tables 4.2.6.8 and 6.1.1.4)
;
H H 0.0000 0.0000
;
International Tables for Crystallography
(Vol. C, Table 6.1.1.4)
;
N N 0.0061 0.0033
;
International Tables for Crystallography
(Vol. C, Tables 4.2.6.8 and 6.1.1.4)
;
O O 0.0106 0.0060
;
International Tables for Crystallography
(Vol. C, Tables 4.2.6.8 and 6.1.1.4)
;
S S 0.1246 0.1234
;
International Tables for Crystallography
(Vol. C, Tables 4.2.6.8 and 6.1.1.4)
;
Br Br -0.2901 2.4595
;
International Tables for Crystallography
(Vol. C, Tables 4.2.6.8 and 6.1.1.4)
;
loop_
_geom_angle_atom_site_label_1
_geom_angle_atom_site_label_2
_geom_angle_atom_site_label_3
_geom_angle
_geom_angle_publ_flag
C8 S1 C9 88.5(3) yes
C32 S2 C33 88.5(2) yes
C56 S3 C57 88.7(2) yes
C7 N1 C9 113.5(4) yes
C16 N2 C18 121.6(4) yes
C31 N3 C33 114.4(5) yes
C40 N4 C42 120.6(4) yes
C55 N5 C57 113.8(4) yes
C64 N6 C66 121.7(4) yes
Br1 C1 C2 118.9(4) yes
Br1 C1 C3 119.5(4) yes
C2 C1 C3 121.6(6) yes
C1 C2 C4 118.6(4) yes
C1 C3 C5 119.3(5) yes
C2 C4 C6 121.1(4) yes
C3 C5 C6 121.0(4) yes
C4 C6 C5 118.5(5) yes
C4 C6 C7 119.9(4) yes
C5 C6 C7 121.6(4) yes
N1 C7 C6 110.0(4) yes
N1 C7 C8 109.3(5) yes
N1 C7 C16 110.6(4) yes
C6 C7 C8 110.1(5) yes
C6 C7 C16 110.0(5) yes
C8 C7 C16 106.8(4) yes
S1 C8 O1 123.3(5) yes
S1 C8 C7 110.0(3) yes
O1 C8 C7 126.7(5) yes
S1 C9 N1 118.3(3) yes
S1 C9 C10 117.0(5) yes
N1 C9 C10 124.6(5) yes
C9 C10 C11 122.1(5) yes
C9 C10 C15 119.0(6) yes
C11 C10 C15 118.8(4) yes
C10 C11 C12 121.3(6) yes
C11 C12 C13 119.9(7) yes
C12 C13 C14 120.1(5) yes
C13 C14 C15 119.8(6) yes
C10 C15 C14 120.0(6) yes
N2 C16 C7 110.7(4) yes
N2 C16 C17 111.9(5) yes
C7 C16 C17 112.3(5) yes
O2 C18 N2 122.8(6) yes
O2 C18 C19 121.1(5) yes
N2 C18 C19 116.1(4) yes
C18 C19 C20 122.4(5) yes
C18 C19 C24 118.8(4) yes
C20 C19 C24 118.7(6) yes
C19 C20 C21 120.5(6) yes
C20 C21 C22 119.9(6) yes
C21 C22 C23 120.5(7) yes
C22 C23 C24 119.6(7) yes
C19 C24 C23 120.8(5) yes
Br2 C25 C26 119.4(5) yes
Br2 C25 C27 119.1(4) yes
C26 C25 C27 121.3(6) yes
C25 C26 C28 119.3(6) yes
C25 C27 C29 119.4(5) yes
C26 C28 C30 120.5(5) yes
C27 C29 C30 120.6(5) yes
C28 C30 C29 118.8(6) yes
C28 C30 C31 121.2(4) yes
C29 C30 C31 120.0(5) yes
N3 C31 C30 111.8(4) yes
N3 C31 C32 108.8(4) yes
N3 C31 C40 109.1(5) yes
C30 C31 C32 108.2(5) yes
C30 C31 C40 110.6(4) yes
C32 C31 C40 108.2(4) yes
S2 C32 O3 124.4(5) yes
S2 C32 C31 109.3(3) yes
O3 C32 C31 126.3(4) yes
S2 C33 N3 118.0(3) yes
S2 C33 C34 117.5(4) yes
N3 C33 C34 124.3(5) yes
C33 C34 C35 121.9(5) yes
C33 C34 C39 118.5(5) yes
C35 C34 C39 119.5(4) yes
C34 C35 C36 120.6(6) yes
C35 C36 C37 119.7(6) yes
C36 C37 C38 120.2(5) yes
C37 C38 C39 120.0(6) yes
C34 C39 C38 120.0(5) yes
N4 C40 C31 108.9(5) yes
N4 C40 C41 111.8(6) yes
C31 C40 C41 112.9(4) yes
O4 C42 N4 121.2(5) yes
O4 C42 C43 120.4(4) yes
N4 C42 C43 118.3(4) yes
C42 C43 C44 124.9(5) yes
C42 C43 C48 116.5(5) yes
C44 C43 C48 118.6(5) yes
C43 C44 C45 119.7(5) yes
C44 C45 C46 121.4(5) yes
C45 C46 C47 119.2(6) yes
C46 C47 C48 119.6(5) yes
C43 C48 C47 121.4(5) yes
Br3 C49 C50 118.4(5) yes
Br3 C49 C51 119.6(4) yes
C50 C49 C51 122.0(7) yes
C49 C50 C52 118.8(5) yes
C49 C51 C53 118.9(5) yes
C50 C52 C54 120.7(4) yes
C51 C53 C54 121.0(5) yes
C52 C54 C53 118.6(6) yes
C52 C54 C55 120.6(4) yes
C53 C54 C55 120.7(5) yes
N5 C55 C54 111.2(4) yes
N5 C55 C56 108.7(4) yes
N5 C55 C64 109.4(4) yes
C54 C55 C56 108.9(5) yes
C54 C55 C64 109.7(5) yes
C56 C55 C64 109.0(4) yes
S3 C56 O5 125.0(5) yes
S3 C56 C55 109.6(3) yes
O5 C56 C55 125.4(5) yes
S3 C57 N5 118.8(3) yes
S3 C57 C58 118.9(4) yes
N5 C57 C58 122.1(4) yes
C57 C58 C59 121.3(5) yes
C57 C58 C63 118.3(5) yes
C59 C58 C63 120.4(4) yes
C58 C59 C60 118.8(5) yes
C59 C60 C61 120.7(6) yes
C60 C61 C62 120.7(5) yes
C61 C62 C63 119.1(5) yes
C58 C63 C62 120.4(5) yes
N6 C64 C55 108.1(5) yes
N6 C64 C65 112.4(5) yes
C55 C64 C65 112.1(5) yes
O6 C66 N6 121.8(6) yes
O6 C66 C67 120.2(5) yes
N6 C66 C67 118.0(4) yes
C66 C67 C68 120.4(5) yes
C66 C67 C72 120.2(5) yes
C68 C67 C72 119.1(6) yes
C67 C68 C69 119.5(5) yes
C68 C69 C70 121.1(6) yes
C69 C70 C71 119.0(7) yes
C70 C71 C72 120.7(6) yes
C67 C72 C71 120.6(6) yes
C16 N2 H2 119.195 no
C18 N2 H2 119.183 no
C40 N4 H4 119.693 no
C42 N4 H4 119.695 no
C64 N6 H6 119.136 no
C66 N6 H6 119.149 no
C1 C2 H2A 120.709 no
C4 C2 H2A 120.706 no
C1 C3 H3 120.372 no
C5 C3 H3 120.368 no
C2 C4 H4A 119.476 no
C6 C4 H4A 119.469 no
C3 C5 H5 119.520 no
C6 C5 H5 119.510 no
C10 C11 H11 119.338 no
C12 C11 H11 119.336 no
C11 C12 H12 120.055 no
C13 C12 H12 120.048 no
C12 C13 H13 119.970 no
C14 C13 H13 119.979 no
C13 C14 H14 120.087 no
C15 C14 H14 120.097 no
C10 C15 H15 119.994 no
C14 C15 H15 119.987 no
N2 C16 H16 107.218 no
C7 C16 H16 107.221 no
C17 C16 H16 107.216 no
C16 C17 H17A 109.471 no
C16 C17 H17B 109.474 no
C16 C17 H17C 109.472 no
H17A C17 H17B 109.469 no
H17A C17 H17C 109.467 no
H17B C17 H17C 109.474 no
C19 C20 H20 119.764 no
C21 C20 H20 119.758 no
C20 C21 H21 120.069 no
C22 C21 H21 120.069 no
C21 C22 H22 119.774 no
C23 C22 H22 119.774 no
C22 C23 H23 120.219 no
C24 C23 H23 120.221 no
C19 C24 H24 119.578 no
C23 C24 H24 119.591 no
C25 C26 H26 120.348 no
C28 C26 H26 120.342 no
C25 C27 H27 120.286 no
C29 C27 H27 120.289 no
C26 C28 H28 119.732 no
C30 C28 H28 119.738 no
C27 C29 H29 119.723 no
C30 C29 H29 119.719 no
C34 C35 H35 119.720 no
C36 C35 H35 119.715 no
C35 C36 H36 120.172 no
C37 C36 H36 120.175 no
C36 C37 H37 119.901 no
C38 C37 H37 119.907 no
C37 C38 H38 119.998 no
C39 C38 H38 119.999 no
C34 C39 H39 119.987 no
C38 C39 H39 119.991 no
N4 C40 H40 107.660 no
C31 C40 H40 107.661 no
C41 C40 H40 107.655 no
C40 C41 H41A 109.475 no
C40 C41 H41B 109.474 no
C40 C41 H41C 109.465 no
H41A C41 H41B 109.474 no
H41A C41 H41C 109.468 no
H41B C41 H41C 109.471 no
C43 C44 H44 120.141 no
C45 C44 H44 120.142 no
C44 C45 H45 119.318 no
C46 C45 H45 119.315 no
C45 C46 H46 120.393 no
C47 C46 H46 120.405 no
C46 C47 H47 120.193 no
C48 C47 H47 120.200 no
C43 C48 H48 119.303 no
C47 C48 H48 119.295 no
C49 C50 H50 120.613 no
C52 C50 H50 120.610 no
C49 C51 H51 120.566 no
C53 C51 H51 120.573 no
C50 C52 H52 119.660 no
C54 C52 H52 119.664 no
C51 C53 H53 119.485 no
C54 C53 H53 119.493 no
C58 C59 H59 120.618 no
C60 C59 H59 120.607 no
C59 C60 H60 119.663 no
C61 C60 H60 119.658 no
C60 C61 H61 119.646 no
C62 C61 H61 119.646 no
C61 C62 H62 120.458 no
C63 C62 H62 120.463 no
C58 C63 H63 119.804 no
C62 C63 H63 119.807 no
N6 C64 H64 108.020 no
C55 C64 H64 108.029 no
C65 C64 H64 108.026 no
C64 C65 H65A 109.471 no
C64 C65 H65B 109.472 no
C64 C65 H65C 109.476 no
H65A C65 H65B 109.467 no
H65A C65 H65C 109.470 no
H65B C65 H65C 109.471 no
C67 C68 H68 120.264 no
C69 C68 H68 120.260 no
C68 C69 H69 119.461 no
C70 C69 H69 119.454 no
C69 C70 H70 120.483 no
C71 C70 H70 120.482 no
C70 C71 H71 119.666 no
C72 C71 H71 119.672 no
C67 C72 H72 119.704 no
C71 C72 H72 119.708 no
loop_
_geom_bond_atom_site_label_1
_geom_bond_atom_site_label_2
_geom_bond_distance
_geom_bond_publ_flag
Br1 C1 1.914(6) yes
Br2 C25 1.905(7) yes
Br3 C49 1.900(7) yes
S1 C8 1.781(6) yes
S1 C9 1.794(5) yes
S2 C32 1.785(5) yes
S2 C33 1.790(6) yes
S3 C56 1.771(6) yes
S3 C57 1.776(5) yes
O1 C8 1.212(5) yes
O2 C18 1.239(5) yes
O3 C32 1.204(5) yes
O4 C42 1.232(6) yes
O5 C56 1.212(5) yes
O6 C66 1.246(5) yes
N1 C7 1.463(5) yes
N1 C9 1.272(8) yes
N2 C16 1.447(8) yes
N2 C18 1.354(7) yes
N3 C31 1.448(5) yes
N3 C33 1.271(7) yes
N4 C40 1.451(8) yes
N4 C42 1.358(6) yes
N5 C55 1.453(5) yes
N5 C57 1.263(8) yes
N6 C64 1.451(8) yes
N6 C66 1.338(7) yes
C1 C2 1.377(7) yes
C1 C3 1.380(7) yes
C2 C4 1.394(9) yes
C3 C5 1.386(9) yes
C4 C6 1.398(6) yes
C5 C6 1.387(6) yes
C6 C7 1.526(8) yes
C7 C8 1.533(8) yes
C7 C16 1.572(8) yes
C9 C10 1.482(6) yes
C10 C11 1.386(10) yes
C10 C15 1.399(7) yes
C11 C12 1.365(7) yes
C12 C13 1.381(9) yes
C13 C14 1.392(11) yes
C14 C15 1.382(7) yes
C16 C17 1.512(8) yes
C18 C19 1.491(9) yes
C19 C20 1.380(6) yes
C19 C24 1.413(9) yes
C20 C21 1.385(10) yes
C21 C22 1.385(11) yes
C22 C23 1.386(8) yes
C23 C24 1.367(12) yes
C25 C26 1.383(7) yes
C25 C27 1.378(9) yes
C26 C28 1.388(10) yes
C27 C29 1.384(9) yes
C28 C30 1.395(8) yes
C29 C30 1.403(6) yes
C30 C31 1.525(9) yes
C31 C32 1.550(8) yes
C31 C40 1.568(8) yes
C33 C34 1.488(6) yes
C34 C35 1.368(8) yes
C34 C39 1.397(8) yes
C35 C36 1.395(7) yes
C36 C37 1.371(10) yes
C37 C38 1.389(9) yes
C38 C39 1.374(7) yes
C40 C41 1.516(10) yes
C42 C43 1.500(8) yes
C43 C44 1.390(7) yes
C43 C48 1.385(7) yes
C44 C45 1.376(9) yes
C45 C46 1.378(8) yes
C46 C47 1.384(8) yes
C47 C48 1.377(9) yes
C49 C50 1.381(7) yes
C49 C51 1.366(8) yes
C50 C52 1.393(10) yes
C51 C53 1.398(10) yes
C52 C54 1.399(7) yes
C53 C54 1.386(7) yes
C54 C55 1.519(9) yes
C55 C56 1.549(8) yes
C55 C64 1.565(8) yes
C57 C58 1.499(6) yes
C58 C59 1.399(8) yes
C58 C63 1.368(8) yes
C59 C60 1.390(7) yes
C60 C61 1.370(8) yes
C61 C62 1.380(9) yes
C62 C63 1.399(7) yes
C64 C65 1.534(11) yes
C66 C67 1.489(9) yes
C67 C68 1.401(8) yes
C67 C72 1.384(8) yes
C68 C69 1.386(10) yes
C69 C70 1.383(9) yes
C70 C71 1.382(10) yes
C71 C72 1.381(11) yes
N2 H2 0.880 no
N4 H4 0.880 no
N6 H6 0.880 no
C2 H2A 0.950 no
C3 H3 0.950 no
C4 H4A 0.950 no
C5 H5 0.950 no
C11 H11 0.950 no
C12 H12 0.950 no
C13 H13 0.950 no
C14 H14 0.950 no
C15 H15 0.950 no
C16 H16 1.000 no
C17 H17A 0.980 no
C17 H17B 0.980 no
C17 H17C 0.980 no
C20 H20 0.950 no
C21 H21 0.950 no
C22 H22 0.950 no
C23 H23 0.950 no
C24 H24 0.950 no
C26 H26 0.950 no
C27 H27 0.950 no
C28 H28 0.950 no
C29 H29 0.950 no
C35 H35 0.950 no
C36 H36 0.950 no
C37 H37 0.950 no
C38 H38 0.950 no
C39 H39 0.950 no
C40 H40 1.000 no
C41 H41A 0.980 no
C41 H41B 0.980 no
C41 H41C 0.980 no
C44 H44 0.950 no
C45 H45 0.950 no
C46 H46 0.950 no
C47 H47 0.950 no
C48 H48 0.950 no
C50 H50 0.950 no
C51 H51 0.950 no
C52 H52 0.950 no
C53 H53 0.950 no
C59 H59 0.950 no
C60 H60 0.950 no
C61 H61 0.950 no
C62 H62 0.950 no
C63 H63 0.950 no
C64 H64 1.000 no
C65 H65A 0.980 no
C65 H65B 0.980 no
C65 H65C 0.980 no
C68 H68 0.950 no
C69 H69 0.950 no
C70 H70 0.950 no
C71 H71 0.950 no
C72 H72 0.950 no
loop_
_geom_contact_atom_site_label_1
_geom_contact_atom_site_label_2
_geom_contact_distance
_geom_contact_publ_flag
_geom_contact_site_symmetry_2
S1 C11 3.086(4) no .
S2 C35 3.068(5) no .
S3 C59 3.174(4) no .
O1 C4 3.066(8) no .
O1 C6 3.100(7) no .
O1 C16 2.967(8) no .
O2 C4 3.159(8) no .
O2 C16 2.793(7) no .
O2 C20 3.557(6) no .
O2 C24 2.900(9) no .
O3 N3 3.591(5) no .
O3 C29 3.037(8) no .
O3 C30 3.080(7) no .
O3 C40 2.993(8) no .
O3 C41 3.552(9) no .
O4 C29 3.279(8) no .
O4 C40 2.745(6) no .
O4 C48 2.758(8) no .
O5 N5 3.599(4) no .
O5 C53 3.102(9) no .
O5 C54 3.062(7) no .
O5 C64 3.013(7) no .
O6 C64 2.779(7) no .
O6 C68 3.532(7) no .
O6 C72 2.911(8) no .
N1 N2 3.133(7) no .
N1 C5 2.761(8) no .
N1 C15 2.904(6) no .
N1 C17 2.872(7) no .
N2 C4 3.290(8) no .
N2 C5 3.493(8) no .
N2 C6 2.791(8) no .
N2 C20 2.934(8) no .
N3 N4 2.995(6) no .
N3 C28 2.792(8) no .
N3 C39 2.877(6) no .
N3 C41 2.896(8) no .
N4 C28 3.497(9) no .
N4 C29 3.430(9) no .
N4 C30 2.839(9) no .
N4 C44 2.954(8) no .
N5 N6 3.003(6) no .
N5 C52 2.759(9) no .
N5 C63 2.873(7) no .
N5 C65 2.877(8) no .
N6 C52 3.506(8) no .
N6 C53 3.243(8) no .
N6 C54 2.774(7) no .
N6 C68 2.948(9) no .
C1 C6 2.774(9) no .
C2 C5 2.779(6) no .
C3 C4 2.768(7) no .
C4 C8 3.022(9) no .
C4 C16 3.095(8) no .
C4 C18 3.270(10) no .
C6 C9 3.329(8) no .
C6 C18 3.304(9) no .
C7 C18 3.452(9) no .
C8 C17 3.099(10) no .
C9 C16 3.427(8) no .
C9 C17 3.488(9) no .
C10 C13 2.774(6) no .
C11 C14 2.759(9) no .
C12 C15 2.772(10) no .
C17 C18 3.546(9) no .
C19 C22 2.775(10) no .
C20 C23 2.778(10) no .
C21 C24 2.762(8) no .
C25 C30 2.774(9) no .
C26 C29 2.777(8) no .
C27 C28 2.779(7) no .
C29 C32 3.001(8) no .
C29 C40 3.110(10) no .
C29 C42 3.453(9) no .
C30 C33 3.342(7) no .
C30 C42 3.348(9) no .
C31 C42 3.442(7) no .
C32 C41 3.075(11) no .
C33 C40 3.402(6) no .
C33 C41 3.489(9) no .
C34 C37 2.768(7) no .
C35 C38 2.759(9) no .
C36 C39 2.766(8) no .
C41 C42 3.531(8) no .
C43 C46 2.783(9) no .
C44 C47 2.770(8) no .
C45 C48 2.737(8) no .
C49 C54 2.772(10) no .
C50 C53 2.774(8) no .
C51 C52 2.777(7) no .
C52 C56 3.572(9) no .
C52 C57 3.599(9) no .
C53 C56 3.077(10) no .
C53 C64 3.033(10) no .
C53 C66 3.523(9) no .
C54 C57 3.336(8) no .
C54 C66 3.540(8) no .
C55 C66 3.552(8) no .
C56 C65 3.107(9) no .
C57 C64 3.388(7) no .
C57 C65 3.448(8) no .
C58 C61 2.762(7) no .
C59 C62 2.784(8) no .
C60 C63 2.760(9) no .
C65 C66 3.428(10) no .
C67 C70 2.790(10) no .
C68 C71 2.769(9) no .
C69 C72 2.757(9) no .
Br1 C12 3.594(7) no 1_556
Br3 C62 3.391(7) no 1_565
S1 C25 3.362(7) no .
S1 C26 3.481(7) no .
S1 C27 3.419(6) no .
S1 C29 3.577(6) no .
S2 C52 3.483(6) no 1_455
S3 O3 3.444(6) no 1_655
S3 C6 3.519(7) no 1_655
S3 C8 3.453(6) no 1_655
O1 C50 3.336(6) no .
O1 C68 3.567(6) no .
O1 C69 3.376(6) no .
O2 N5 3.273(6) no .
O2 N6 2.945(4) no .
O2 C38 3.282(7) no 1_656
O3 S3 3.444(6) no 1_455
O3 O5 3.553(6) no 1_455
O3 C21 3.312(6) no 1_565
O3 C52 3.545(7) no 1_455
O3 C54 3.410(7) no 1_455
O3 C56 3.305(8) no 1_455
O4 N2 2.885(5) no 1_565
O4 C20 3.370(7) no 1_565
O5 O3 3.553(6) no 1_655
O5 C21 3.595(8) no 1_665
O5 C22 3.460(7) no 1_665
O5 C45 3.420(6) no 1_656
O5 C70 3.527(8) no 1_655
O6 N3 3.530(7) no 1_656
O6 N4 3.080(5) no 1_656
O6 C14 3.318(8) no 1_666
O6 C44 3.296(6) no 1_656
N2 O4 2.885(5) no 1_545
N2 C63 3.584(8) no .
N3 O6 3.530(7) no 1_454
N4 O6 3.080(5) no 1_454
N5 O2 3.273(6) no .
N6 O2 2.945(4) no .
C4 C69 3.479(7) no .
C5 C59 3.383(9) no 1_455
C6 S3 3.519(7) no 1_455
C8 S3 3.453(6) no 1_455
C9 C59 3.550(8) no 1_455
C12 Br1 3.594(7) no 1_554
C14 O6 3.318(8) no 1_444
C18 C63 3.462(9) no .
C20 O4 3.370(7) no 1_545
C21 O3 3.312(6) no 1_545
C21 O5 3.595(8) no 1_445
C22 O5 3.460(7) no 1_445
C24 C38 3.470(9) no 1_656
C25 S1 3.362(7) no .
C26 S1 3.481(7) no .
C27 S1 3.419(6) no .
C29 S1 3.577(6) no .
C35 C47 3.598(10) no 1_445
C36 C46 3.337(10) no 1_445
C36 C47 3.544(11) no 1_445
C38 O2 3.282(7) no 1_454
C38 C24 3.470(9) no 1_454
C39 C66 3.519(8) no 1_454
C44 O6 3.296(6) no 1_454
C45 O5 3.420(6) no 1_454
C46 C36 3.337(10) no 1_665
C47 C35 3.598(10) no 1_665
C47 C36 3.544(11) no 1_665
C48 C61 3.384(9) no 1_565
C50 O1 3.336(6) no .
C52 S2 3.483(6) no 1_655
C52 O3 3.545(7) no 1_655
C54 O3 3.410(7) no 1_655
C56 O3 3.305(8) no 1_655
C59 C5 3.383(9) no 1_655
C59 C9 3.550(8) no 1_655
C61 C48 3.384(9) no 1_545
C62 Br3 3.391(7) no 1_545
C63 N2 3.584(8) no .
C63 C18 3.462(9) no .
C66 C39 3.519(8) no 1_656
C68 O1 3.567(6) no .
C69 O1 3.376(6) no .
C69 C4 3.479(7) no .
C70 O5 3.527(8) no 1_455
Br1 H2A 2.9162 no .
Br1 H3 2.9265 no .
Br2 H26 2.9231 no .
Br2 H27 2.9099 no .
Br3 H50 2.8980 no .
Br3 H51 2.9097 no .
S1 H11 2.6506 no .
S1 H17B 3.4140 no .
S2 H35 2.6231 no .
S2 H41C 3.4974 no .
S3 H59 2.8303 no .
S3 H65C 3.4114 no .
O1 H4A 2.5348 no .
O1 H16 2.5656 no .
O1 H17B 3.1976 no .
O2 H2 3.0475 no .
O2 H4A 2.8466 no .
O2 H16 2.3341 no .
O2 H24 2.6705 no .
O3 H29 2.5219 no .
O3 H40 2.6687 no .
O3 H41C 3.0651 no .
O4 H4 3.0346 no .
O4 H29 3.0431 no .
O4 H40 2.2793 no .
O4 H48 2.4256 no .
O5 H53 2.6284 no .
O5 H64 2.6776 no .
O5 H65C 3.1719 no .
O6 H6 3.0252 no .
O6 H53 3.4820 no .
O6 H64 2.3862 no .
O6 H65B 3.2950 no .
O6 H72 2.7173 no .
N1 H2 3.0529 no .
N1 H5 2.3834 no .
N1 H15 2.6242 no .
N1 H16 3.3130 no .
N1 H17B 3.0683 no .
N1 H17C 2.5608 no .
N2 H4A 3.3715 no .
N2 H17A 2.6380 no .
N2 H17B 3.2842 no .
N2 H17C 2.6796 no .
N2 H20 2.7008 no .
N3 H4 2.8720 no .
N3 H28 2.4254 no .
N3 H39 2.5775 no .
N3 H40 3.2944 no .
N3 H41A 2.5800 no .
N3 H41C 3.1475 no .
N4 H29 3.5277 no .
N4 H41A 2.6761 no .
N4 H41B 2.6522 no .
N4 H41C 3.2909 no .
N4 H44 2.6959 no .
N5 H6 2.7774 no .
N5 H52 2.3833 no .
N5 H63 2.5877 no .
N5 H64 3.3012 no .
N5 H65A 2.5695 no .
N5 H65C 3.0989 no .
N6 H53 3.3273 no .
N6 H65A 2.6850 no .
N6 H65B 2.6963 no .
N6 H65C 3.3104 no .
N6 H68 2.7155 no .
C1 H4A 3.2400 no .
C1 H5 3.2430 no .
C2 H3 3.2608 no .
C3 H2A 3.2635 no .
C3 H20 3.5286 no .
C4 H5 3.2532 no .
C4 H16 2.9205 no .
C5 H2 3.5280 no .
C5 H4A 3.2513 no .
C5 H20 3.2866 no .
C6 H2 3.1382 no .
C6 H2A 3.2897 no .
C6 H3 3.2695 no .
C6 H16 2.8224 no .
C7 H2 2.8207 no .
C7 H4A 2.6727 no .
C7 H5 2.6953 no .
C7 H17A 3.4038 no .
C7 H17B 2.7323 no .
C7 H17C 2.7655 no .
C8 H4A 2.8282 no .
C8 H16 2.5323 no .
C8 H17B 2.7566 no .
C8 H17C 3.5127 no .
C9 H5 3.1928 no .
C9 H11 2.6736 no .
C9 H15 2.6365 no .
C9 H17B 3.3431 no .
C9 H17C 3.1712 no .
C10 H12 3.2538 no .
C10 H14 3.2676 no .
C11 H13 3.2341 no .
C11 H15 3.2582 no .
C12 H14 3.2596 no .
C13 H11 3.2326 no .
C13 H15 3.2588 no .
C14 H12 3.2612 no .
C15 H11 3.2562 no .
C15 H13 3.2571 no .
C16 H4A 2.9465 no .
C17 H2 2.6934 no .
C18 H4A 3.2703 no .
C18 H16 2.4653 no .
C18 H17A 3.4989 no .
C18 H20 2.6865 no .
C18 H24 2.6442 no .
C19 H2 2.5083 no .
C19 H21 3.2566 no .
C19 H23 3.2769 no .
C20 H2 2.6741 no .
C20 H22 3.2534 no .
C20 H24 3.2595 no .
C21 H23 3.2624 no .
C22 H20 3.2533 no .
C22 H24 3.2369 no .
C23 H21 3.2612 no .
C24 H20 3.2655 no .
C24 H22 3.2354 no .
C25 H28 3.2491 no .
C25 H29 3.2416 no .
C26 H27 3.2619 no .
C27 H26 3.2616 no .
C28 H4 3.5591 no .
C28 H29 3.2671 no .
C29 H28 3.2684 no .
C29 H40 2.8527 no .
C30 H4 3.2004 no .
C30 H26 3.2747 no .
C30 H27 3.2788 no .
C30 H40 2.7639 no .
C31 H4 2.7747 no .
C31 H28 2.6987 no .
C31 H29 2.6814 no .
C31 H41A 2.7727 no .
C31 H41B 3.4098 no .
C31 H41C 2.7498 no .
C32 H29 2.8225 no .
C32 H40 2.6291 no .
C32 H41A 3.4492 no .
C32 H41C 2.7195 no .
C33 H28 3.2256 no .
C33 H35 2.6633 no .
C33 H39 2.6299 no .
C33 H41A 3.1193 no .
C33 H41C 3.4200 no .
C34 H36 3.2536 no .
C34 H38 3.2598 no .
C35 H37 3.2502 no .
C35 H39 3.2454 no .
C36 H38 3.2478 no .
C37 H35 3.2454 no .
C37 H39 3.2519 no .
C38 H36 3.2518 no .
C39 H35 3.2480 no .
C39 H37 3.2493 no .
C40 H29 2.9614 no .
C41 H4 2.7182 no .
C42 H29 3.4984 no .
C42 H40 2.4570 no .
C42 H41B 3.4777 no .
C42 H44 2.7555 no .
C42 H48 2.5713 no .
C43 H4 2.5708 no .
C43 H45 3.2479 no .
C43 H47 3.2632 no .
C44 H4 2.6222 no .
C44 H46 3.2570 no .
C44 H48 3.2444 no .
C45 H47 3.2434 no .
C46 H44 3.2557 no .
C46 H48 3.2415 no .
C47 H45 3.2390 no .
C48 H44 3.2488 no .
C48 H46 3.2474 no .
C49 H52 3.2465 no .
C49 H53 3.2355 no .
C49 H68 3.1975 no .
C50 H51 3.2592 no .
C50 H68 2.9613 no .
C51 H50 3.2572 no .
C51 H68 3.4186 no .
C52 H6 3.3171 no .
C52 H53 3.2545 no .
C52 H68 2.9161 no .
C53 H52 3.2539 no .
C53 H64 2.8129 no .
C53 H68 3.3853 no .
C54 H6 2.9249 no .
C54 H50 3.2852 no .
C54 H51 3.2804 no .
C54 H64 2.7703 no .
C54 H68 3.1380 no .
C55 H6 2.6403 no .
C55 H52 2.6862 no .
C55 H53 2.6749 no .
C55 H65A 2.7804 no .
C55 H65B 3.4104 no .
C55 H65C 2.7386 no .
C56 H53 2.9231 no .
C56 H64 2.6310 no .
C56 H65A 3.5016 no .
C56 H65C 2.7495 no .
C57 H52 3.1274 no .
C57 H59 2.7025 no .
C57 H63 2.5995 no .
C57 H65A 3.1058 no .
C57 H65C 3.3384 no .
C58 H60 3.2601 no .
C58 H62 3.2586 no .
C59 H61 3.2525 no .
C59 H63 3.2588 no .
C60 H62 3.2472 no .
C61 H59 3.2556 no .
C61 H63 3.2534 no .
C62 H60 3.2439 no .
C63 H59 3.2593 no .
C63 H61 3.2553 no .
C64 H53 2.8711 no .
C65 H6 2.8357 no .
C66 H53 3.4876 no .
C66 H64 2.4811 no .
C66 H65B 3.3178 no .
C66 H68 2.6775 no .
C66 H72 2.6460 no .
C67 H6 2.5461 no .
C67 H69 3.2646 no .
C67 H71 3.2555 no .
C68 H6 2.7810 no .
C68 H70 3.2680 no .
C68 H72 3.2614 no .
C69 H71 3.2412 no .
C70 H68 3.2661 no .
C70 H72 3.2544 no .
C71 H69 3.2398 no .
C72 H68 3.2623 no .
C72 H70 3.2591 no .
H2 H5 3.5444 no .
H2 H16 2.7698 no .
H2 H17A 2.9051 no .
H2 H17C 2.5994 no .
H2 H20 2.3180 no .
H2A H4A 2.3469 no .
H3 H5 2.3346 no .
H4A H16 2.4800 no .
H4 H28 3.4897 no .
H4 H40 2.7819 no .
H4 H41A 2.6139 no .
H4 H41B 2.9490 no .
H4 H44 2.1216 no .
H5 H20 3.4158 no .
H6 H52 3.3713 no .
H6 H64 2.7778 no .
H6 H65A 2.7284 no .
H6 H65B 3.1433 no .
H6 H68 2.4639 no .
H11 H12 2.3063 no .
H12 H13 2.3318 no .
H13 H14 2.3436 no .
H14 H15 2.3331 no .
H15 H17C 3.5779 no .
H16 H17A 2.3337 no .
H16 H17B 2.3310 no .
H16 H17C 2.8439 no .
H20 H21 2.3327 no .
H21 H22 2.3330 no .
H22 H23 2.3360 no .
H23 H24 2.3146 no .
H26 H28 2.3394 no .
H27 H29 2.3338 no .
H29 H40 2.4283 no .
H35 H36 2.3431 no .
H36 H37 2.3218 no .
H37 H38 2.3378 no .
H38 H39 2.3243 no .
H40 H41A 2.8512 no .
H40 H41B 2.3412 no .
H40 H41C 2.3441 no .
H44 H45 2.3184 no .
H45 H46 2.3238 no .
H46 H47 2.3429 no .
H47 H48 2.3200 no .
H50 H52 2.3470 no .
H50 H68 3.3844 no .
H51 H53 2.3486 no .
H52 H68 3.3139 no .
H53 H64 2.3567 no .
H59 H60 2.3434 no .
H60 H61 2.3099 no .
H61 H62 2.3314 no .
H62 H63 2.3532 no .
H63 H65A 3.0090 no .
H64 H65A 2.8679 no .
H64 H65B 2.3545 no .
H64 H65C 2.3740 no .
H68 H69 2.3323 no .
H69 H70 2.3317 no .
H70 H71 2.3343 no .
H71 H72 2.3219 no .
Br1 H12 3.5431 no 1_556
Br1 H37 3.3134 no 1_656
Br1 H51 3.3303 no 1_445
Br1 H65A 3.5986 no 1_455
Br1 H65C 3.4050 no 1_455
Br2 H41A 3.3346 no 1_655
Br2 H41C 3.5160 no 1_655
Br2 H50 3.2910 no .
Br2 H61 3.5743 no 1_565
Br2 H71 3.2700 no 1_554
Br2 H72 3.2115 no 1_554
Br3 H3 2.9423 no 1_665
Br3 H23 3.4134 no 1_565
Br3 H27 3.1245 no .
Br3 H62 3.0380 no 1_565
S1 H59 3.1436 no 1_455
S2 H17A 3.4757 no 1_455
S2 H52 3.0862 no 1_455
O1 H27 3.5965 no .
O1 H50 2.8253 no .
O1 H68 3.0892 no .
O1 H69 2.7033 no .
O2 H6 2.0899 no .
O2 H38 2.3979 no 1_656
O2 H63 2.9762 no .
O2 H65A 3.3952 no .
O2 H68 3.4559 no .
O3 H21 2.4837 no 1_565
O4 H2 2.0178 no 1_565
O4 H17C 3.1546 no 1_565
O4 H20 2.9295 no 1_565
O4 H62 3.2023 no 1_565
O5 H21 3.0328 no 1_665
O5 H22 2.7585 no 1_665
O5 H45 2.7180 no 1_656
O5 H69 3.1687 no 1_655
O5 H70 2.7997 no 1_655
O6 H4 2.2117 no 1_656
O6 H14 2.4285 no 1_666
O6 H15 3.5809 no 1_666
O6 H39 3.0311 no 1_656
O6 H41A 3.2634 no 1_656
O6 H44 2.3655 no 1_656
N1 H59 3.3170 no 1_455
N2 H63 3.0753 no .
N4 H15 3.0097 no 1_565
N5 H16 3.5983 no .
N5 H17A 3.3541 no .
N6 H38 3.4974 no 1_656
N6 H39 2.8785 no 1_656
C1 H37 3.4513 no 1_656
C1 H65C 3.3487 no 1_455
C2 H37 3.4146 no 1_656
C2 H38 3.2882 no 1_656
C2 H65C 3.3870 no 1_455
C4 H38 3.5548 no 1_656
C4 H69 3.4212 no .
C5 H59 3.4314 no 1_455
C8 H50 3.5588 no .
C9 H59 2.8185 no 1_455
C9 H60 3.4824 no 1_455
C10 H59 3.0279 no 1_455
C10 H60 2.9304 no 1_455
C11 H59 3.1184 no 1_455
C11 H60 3.2674 no 1_455
C12 H23 3.4808 no 1_454
C12 H47 3.4993 no 1_445
C12 H60 3.5802 no 1_455
C13 H23 3.3777 no 1_454
C13 H51 3.5715 no 1_444
C13 H60 3.5902 no 1_455
C14 H44 3.4228 no 1_545
C14 H60 3.3117 no 1_455
C15 H44 3.4091 no 1_545
C15 H60 2.9460 no 1_455
C16 H52 3.1945 no .
C17 H35 2.8488 no 1_655
C17 H48 3.3099 no 1_545
C17 H52 2.9519 no .
C18 H6 3.2985 no .
C18 H38 3.0338 no 1_656
C18 H63 2.6732 no .
C19 H38 3.1709 no 1_656
C19 H62 3.4368 no .
C19 H63 2.9393 no .
C20 H29 3.3549 no 1_545
C20 H40 3.3054 no 1_545
C21 H29 3.0295 no 1_545
C22 H45 3.3424 no 1_546
C22 H46 2.8942 no 1_546
C23 H46 2.9194 no 1_546
C24 H38 3.1880 no 1_656
C24 H62 3.5541 no .
C24 H63 2.9028 no .
C25 H71 3.3231 no 1_554
C26 H11 3.5574 no .
C26 H71 3.3645 no 1_554
C27 H61 3.5067 no 1_565
C27 H62 3.3058 no 1_565
C28 H11 3.1536 no .
C28 H65B 3.3717 no 1_454
C35 H17A 3.5948 no 1_455
C35 H17B 3.2598 no 1_455
C35 H17C 3.5332 no 1_455
C35 H47 3.4644 no 1_445
C36 H46 3.3988 no 1_445
C37 H2A 3.5425 no 1_454
C38 H2A 3.4324 no 1_454
C38 H24 3.3358 no 1_454
C39 H72 3.3829 no 1_454
C41 H72 3.3468 no 1_454
C42 H2 3.0865 no 1_565
C42 H15 3.0382 no 1_565
C42 H17C 3.4375 no 1_565
C43 H15 3.2162 no 1_565
C43 H17C 3.2560 no 1_565
C44 H15 3.1757 no 1_565
C44 H36 3.5757 no 1_665
C44 H53 3.4855 no 1_454
C44 H64 3.2366 no 1_454
C45 H22 3.5012 no 1_564
C45 H36 3.2322 no 1_665
C45 H53 3.1494 no 1_454
C45 H64 3.4762 no 1_454
C45 H70 3.0681 no 1_554
C46 H22 3.3364 no 1_564
C46 H36 3.0702 no 1_665
C46 H70 3.0743 no 1_554
C47 H35 3.3348 no 1_665
C47 H36 3.2654 no 1_665
C48 H17A 3.5451 no 1_565
C48 H17C 2.9398 no 1_565
C48 H36 3.5828 no 1_665
C48 H61 3.4184 no 1_565
C52 H16 3.1161 no .
C52 H17A 3.5044 no .
C52 H17B 3.5305 no .
C53 H21 3.4874 no 1_665
C53 H45 3.2752 no 1_656
C57 H17A 3.5568 no .
C58 H17A 3.2942 no .
C59 H5 3.0053 no 1_655
C59 H47 3.5597 no 1_545
C60 H5 3.0519 no 1_655
C60 H41B 3.5247 no 1_645
C60 H47 3.0091 no 1_545
C60 H48 3.2843 no 1_545
C61 H47 3.3349 no 1_545
C61 H48 2.7275 no 1_545
C62 H27 3.5286 no 1_545
C62 H48 2.7303 no 1_545
C63 H17A 3.2821 no .
C63 H24 3.4557 no .
C63 H48 3.3223 no 1_545
C64 H44 3.5952 no 1_656
C65 H24 3.5662 no .
C65 H28 3.4450 no 1_656
C65 H39 3.4632 no 1_656
C66 H4 3.4242 no 1_656
C66 H14 2.8919 no 1_666
C66 H39 2.7217 no 1_656
C66 H44 3.4051 no 1_656
C67 H14 2.9606 no 1_666
C67 H38 3.5217 no 1_656
C67 H39 3.2795 no 1_656
C68 H4A 2.7694 no .
C68 H14 3.5922 no 1_666
C69 H2A 3.4463 no .
C69 H4A 2.7356 no .
C69 H22 3.3257 no 1_565
C70 H2A 3.3098 no .
C70 H4A 3.5489 no .
C70 H22 3.5590 no 1_565
C70 H46 3.5689 no 1_556
C71 H2A 3.5505 no .
C72 H14 3.2170 no 1_666
C72 H39 3.4509 no 1_656
C72 H41A 3.3343 no 1_656
H2 O4 2.0178 no 1_545
H2 C42 3.0865 no 1_545
H2 H40 3.4864 no 1_545
H2 H48 3.2312 no 1_545
H2 H62 3.4588 no .
H2 H63 3.2825 no .
H2A C37 3.5425 no 1_656
H2A C38 3.4324 no 1_656
H2A C69 3.4463 no .
H2A C70 3.3098 no .
H2A C71 3.5505 no .
H2A H26 3.4941 no 1_556
H2A H37 3.2071 no 1_656
H2A H38 2.9909 no 1_656
H2A H65C 3.3020 no 1_455
H2A H70 3.5641 no .
H3 Br3 2.9423 no 1_445
H3 H51 3.2941 no 1_445
H4A C68 2.7694 no .
H4A C69 2.7356 no .
H4A C70 3.5489 no .
H4A H38 3.4589 no 1_656
H4A H68 2.7533 no .
H4A H69 2.7130 no .
H4 O6 2.2117 no 1_454
H4 C66 3.4242 no 1_454
H4 H14 3.4016 no 1_565
H4 H15 2.8966 no 1_565
H5 C59 3.0053 no 1_455
H5 C60 3.0519 no 1_455
H5 H41B 2.7954 no 1_545
H5 H59 3.0892 no 1_455
H5 H60 3.1607 no 1_455
H6 O2 2.0899 no .
H6 C18 3.2985 no .
H6 H16 3.3173 no .
H6 H38 2.9909 no 1_656
H6 H39 2.9955 no 1_656
H11 C26 3.5574 no .
H11 C28 3.1536 no .
H11 H28 2.9923 no .
H11 H59 2.9949 no 1_455
H12 Br1 3.5431 no 1_554
H12 H23 2.9004 no 1_454
H12 H46 3.5973 no 1_445
H12 H47 3.4545 no 1_445
H13 H23 2.6852 no 1_454
H13 H46 3.5665 no 1_445
H13 H51 3.2606 no 1_444
H14 O6 2.4285 no 1_444
H14 C66 2.8919 no 1_444
H14 C67 2.9606 no 1_444
H14 C68 3.5922 no 1_444
H14 C72 3.2170 no 1_444
H14 H4 3.4016 no 1_545
H14 H44 2.8847 no 1_545
H14 H51 3.4975 no 1_444
H14 H53 3.5452 no 1_444
H14 H72 3.3216 no 1_444
H15 O6 3.5809 no 1_444
H15 N4 3.0097 no 1_545
H15 C42 3.0382 no 1_545
H15 C43 3.2162 no 1_545
H15 C44 3.1757 no 1_545
H15 H4 2.8966 no 1_545
H15 H41B 3.1859 no 1_545
H15 H44 2.8722 no 1_545
H15 H60 3.2730 no 1_455
H16 N5 3.5983 no .
H16 C52 3.1161 no .
H16 H6 3.3173 no .
H16 H50 3.4990 no .
H16 H52 2.5245 no .
H16 H68 3.1713 no .
H17A S2 3.4757 no 1_655
H17A N5 3.3541 no .
H17A C35 3.5948 no 1_655
H17A C48 3.5451 no 1_545
H17A C52 3.5044 no .
H17A C57 3.5568 no .
H17A C58 3.2942 no .
H17A C63 3.2821 no .
H17A H35 2.6722 no 1_655
H17A H48 3.0190 no 1_545
H17A H52 2.5632 no .
H17A H63 3.3253 no .
H17B C35 3.2598 no 1_655
H17B C52 3.5305 no .
H17B H35 2.5677 no 1_655
H17B H36 3.4765 no 1_655
H17B H50 3.1982 no .
H17B H52 2.7803 no .
H17C O4 3.1546 no 1_545
H17C C35 3.5332 no 1_655
H17C C42 3.4375 no 1_545
H17C C43 3.2560 no 1_545
H17C C48 2.9398 no 1_545
H17C H35 2.8241 no 1_655
H17C H36 3.1145 no 1_655
H17C H48 2.7385 no 1_545
H20 O4 2.9295 no 1_545
H20 H29 3.3985 no 1_545
H20 H40 2.6737 no 1_545
H21 O3 2.4837 no 1_545
H21 O5 3.0328 no 1_445
H21 C53 3.4874 no 1_445
H21 H29 2.8708 no 1_545
H21 H40 3.3075 no 1_545
H21 H45 3.5350 no 1_546
H21 H53 3.3250 no 1_445
H22 O5 2.7585 no 1_445
H22 C45 3.5012 no 1_546
H22 C46 3.3364 no 1_546
H22 C69 3.3257 no 1_545
H22 C70 3.5590 no 1_545
H22 H45 2.9864 no 1_546
H22 H46 2.6637 no 1_546
H22 H69 2.7382 no 1_545
H22 H70 3.2171 no 1_545
H23 Br3 3.4134 no 1_545
H23 C12 3.4808 no 1_656
H23 C13 3.3777 no 1_656
H23 H12 2.9004 no 1_656
H23 H13 2.6852 no 1_656
H23 H46 2.7010 no 1_546
H24 C38 3.3358 no 1_656
H24 C63 3.4557 no .
H24 C65 3.5662 no .
H24 H38 3.0534 no 1_656
H24 H63 2.6029 no .
H24 H65A 2.6748 no .
H26 H2A 3.4941 no 1_554
H26 H71 3.1802 no 1_554
H27 Br3 3.1245 no .
H27 O1 3.5965 no .
H27 C62 3.5286 no 1_565
H27 H50 3.0957 no .
H27 H61 3.2138 no 1_565
H27 H62 2.7927 no 1_565
H28 C65 3.4450 no 1_454
H28 H11 2.9923 no .
H28 H65B 2.5274 no 1_454
H29 C20 3.3549 no 1_565
H29 C21 3.0295 no 1_565
H29 H20 3.3985 no 1_565
H29 H21 2.8708 no 1_565
H29 H62 3.5190 no 1_565
H35 C17 2.8488 no 1_455
H35 C47 3.3348 no 1_445
H35 H17A 2.6722 no 1_455
H35 H17B 2.5677 no 1_455
H35 H17C 2.8241 no 1_455
H35 H47 3.1540 no 1_445
H36 C44 3.5757 no 1_445
H36 C45 3.2322 no 1_445
H36 C46 3.0702 no 1_445
H36 C47 3.2654 no 1_445
H36 C48 3.5828 no 1_445
H36 H17B 3.4765 no 1_455
H36 H17C 3.1145 no 1_455
H36 H46 3.3745 no 1_445
H37 Br1 3.3134 no 1_454
H37 C1 3.4513 no 1_454
H37 C2 3.4146 no 1_454
H37 H2A 3.2071 no 1_454
H38 O2 2.3979 no 1_454
H38 N6 3.4974 no 1_454
H38 C2 3.2882 no 1_454
H38 C4 3.5548 no 1_454
H38 C18 3.0338 no 1_454
H38 C19 3.1709 no 1_454
H38 C24 3.1880 no 1_454
H38 C67 3.5217 no 1_454
H38 H2A 2.9909 no 1_454
H38 H4A 3.4589 no 1_454
H38 H6 2.9909 no 1_454
H38 H24 3.0534 no 1_454
H39 O6 3.0311 no 1_454
H39 N6 2.8785 no 1_454
H39 C65 3.4632 no 1_454
H39 C66 2.7217 no 1_454
H39 C67 3.2795 no 1_454
H39 C72 3.4509 no 1_454
H39 H6 2.9955 no 1_454
H39 H65A 3.4819 no 1_454
H39 H65B 2.8659 no 1_454
H39 H72 3.1176 no 1_454
H40 C20 3.3054 no 1_565
H40 H2 3.4864 no 1_565
H40 H20 2.6737 no 1_565
H40 H21 3.3075 no 1_565
H41A Br2 3.3346 no 1_455
H41A O6 3.2634 no 1_454
H41A C72 3.3343 no 1_454
H41A H72 2.4072 no 1_454
H41B C60 3.5247 no 1_465
H41B H5 2.7954 no 1_565
H41B H15 3.1859 no 1_565
H41B H60 3.1727 no 1_465
H41B H61 3.4391 no 1_465
H41B H72 3.5795 no 1_454
H41C Br2 3.5160 no 1_455
H41C H50 3.5793 no 1_455
H44 O6 2.3655 no 1_454
H44 C14 3.4228 no 1_565
H44 C15 3.4091 no 1_565
H44 C64 3.5952 no 1_454
H44 C66 3.4051 no 1_454
H44 H14 2.8847 no 1_565
H44 H15 2.8722 no 1_565
H44 H53 3.0516 no 1_454
H44 H64 2.6473 no 1_454
H45 O5 2.7180 no 1_454
H45 C22 3.3424 no 1_564
H45 C53 3.2752 no 1_454
H45 H21 3.5350 no 1_564
H45 H22 2.9864 no 1_564
H45 H53 2.3451 no 1_454
H45 H64 3.1021 no 1_454
H45 H70 3.1417 no 1_554
H46 C22 2.8942 no 1_564
H46 C23 2.9194 no 1_564
H46 C36 3.3988 no 1_665
H46 C70 3.5689 no 1_554
H46 H12 3.5973 no 1_665
H46 H13 3.5665 no 1_665
H46 H22 2.6637 no 1_564
H46 H23 2.7010 no 1_564
H46 H36 3.3745 no 1_665
H46 H70 3.1564 no 1_554
H47 C12 3.4993 no 1_665
H47 C35 3.4644 no 1_665
H47 C59 3.5597 no 1_565
H47 C60 3.0091 no 1_565
H47 C61 3.3349 no 1_565
H47 H12 3.4545 no 1_665
H47 H35 3.1540 no 1_665
H47 H60 2.9428 no 1_565
H47 H61 3.4954 no 1_565
H48 C17 3.3099 no 1_565
H48 C60 3.2843 no 1_565
H48 C61 2.7275 no 1_565
H48 C62 2.7303 no 1_565
H48 C63 3.3223 no 1_565
H48 H2 3.2312 no 1_565
H48 H17A 3.0190 no 1_565
H48 H17C 2.7385 no 1_565
H48 H61 2.9369 no 1_565
H48 H62 2.9279 no 1_565
H50 Br2 3.2910 no .
H50 O1 2.8253 no .
H50 C8 3.5588 no .
H50 H16 3.4990 no .
H50 H17B 3.1982 no .
H50 H27 3.0957 no .
H50 H41C 3.5793 no 1_655
H51 Br1 3.3303 no 1_665
H51 C13 3.5715 no 1_666
H51 H3 3.2941 no 1_665
H51 H13 3.2606 no 1_666
H51 H14 3.4975 no 1_666
H52 S2 3.0862 no 1_655
H52 C16 3.1945 no .
H52 C17 2.9519 no .
H52 H16 2.5245 no .
H52 H17A 2.5632 no .
H52 H17B 2.7803 no .
H53 C44 3.4855 no 1_656
H53 C45 3.1494 no 1_656
H53 H14 3.5452 no 1_666
H53 H21 3.3250 no 1_665
H53 H44 3.0516 no 1_656
H53 H45 2.3451 no 1_656
H59 S1 3.1436 no 1_655
H59 N1 3.3170 no 1_655
H59 C5 3.4314 no 1_655
H59 C9 2.8185 no 1_655
H59 C10 3.0279 no 1_655
H59 C11 3.1184 no 1_655
H59 H5 3.0892 no 1_655
H59 H11 2.9949 no 1_655
H60 C9 3.4824 no 1_655
H60 C10 2.9304 no 1_655
H60 C11 3.2674 no 1_655
H60 C12 3.5802 no 1_655
H60 C13 3.5902 no 1_655
H60 C14 3.3117 no 1_655
H60 C15 2.9460 no 1_655
H60 H5 3.1607 no 1_655
H60 H15 3.2730 no 1_655
H60 H41B 3.1727 no 1_645
H60 H47 2.9428 no 1_545
H61 Br2 3.5743 no 1_545
H61 C27 3.5067 no 1_545
H61 C48 3.4184 no 1_545
H61 H27 3.2138 no 1_545
H61 H41B 3.4391 no 1_645
H61 H47 3.4954 no 1_545
H61 H48 2.9369 no 1_545
H61 H71 3.1981 no 1_544
H62 Br3 3.0380 no 1_545
H62 O4 3.2023 no 1_545
H62 C19 3.4368 no .
H62 C24 3.5541 no .
H62 C27 3.3058 no 1_545
H62 H2 3.4588 no .
H62 H27 2.7927 no 1_545
H62 H29 3.5190 no 1_545
H62 H48 2.9279 no 1_545
H63 O2 2.9762 no .
H63 N2 3.0753 no .
H63 C18 2.6732 no .
H63 C19 2.9393 no .
H63 C24 2.9028 no .
H63 H2 3.2825 no .
H63 H17A 3.3253 no .
H63 H24 2.6029 no .
H64 C44 3.2366 no 1_656
H64 C45 3.4762 no 1_656
H64 H44 2.6473 no 1_656
H64 H45 3.1021 no 1_656
H65A Br1 3.5986 no 1_655
H65A O2 3.3952 no .
H65A H24 2.6748 no .
H65A H39 3.4819 no 1_656
H65B C28 3.3717 no 1_656
H65B H28 2.5274 no 1_656
H65B H39 2.8659 no 1_656
H65C Br1 3.4050 no 1_655
H65C C1 3.3487 no 1_655
H65C C2 3.3870 no 1_655
H65C H2A 3.3020 no 1_655
H68 O1 3.0892 no .
H68 O2 3.4559 no .
H68 H4A 2.7533 no .
H68 H16 3.1713 no .
H69 O1 2.7033 no .
H69 O5 3.1687 no 1_455
H69 C4 3.4212 no .
H69 H4A 2.7130 no .
H69 H22 2.7382 no 1_565
H70 O5 2.7997 no 1_455
H70 C45 3.0681 no 1_556
H70 C46 3.0743 no 1_556
H70 H2A 3.5641 no .
H70 H22 3.2171 no 1_565
H70 H45 3.1417 no 1_556
H70 H46 3.1564 no 1_556
H71 Br2 3.2700 no 1_556
H71 C25 3.3231 no 1_556
H71 C26 3.3645 no 1_556
H71 H26 3.1802 no 1_556
H71 H61 3.1981 no 1_566
H72 Br2 3.2115 no 1_556
H72 C39 3.3829 no 1_656
H72 C41 3.3468 no 1_656
H72 H14 3.3216 no 1_666
H72 H39 3.1176 no 1_656
H72 H41A 2.4072 no 1_656
H72 H41B 3.5795 no 1_656
loop_
_geom_hbond_atom_site_label_D
_geom_hbond_atom_site_label_H
_geom_hbond_atom_site_label_A
_geom_hbond_site_symmetry_A
_geom_hbond_distance_DA
_geom_hbond_distance_DH
_geom_hbond_distance_HA
_geom_hbond_angle_DHA
_geom_hbond_publ_flag
N2 H2 O4 1_545 2.885(5) 0.880 2.018 168.2 no
N6 H6 O2 . 2.945(4) 0.880 2.090 163.7 no
loop_
_geom_torsion_atom_site_label_1
_geom_torsion_atom_site_label_2
_geom_torsion_atom_site_label_3
_geom_torsion_atom_site_label_4
_geom_torsion
_geom_torsion_publ_flag
C8 S1 C9 N1 1.8(4) no
C8 S1 C9 C10 179.7(4) no
C9 S1 C8 O1 174.6(5) no
C9 S1 C8 C7 -4.6(4) no
C32 S2 C33 N3 6.7(5) no
C32 S2 C33 C34 -168.5(5) no
C33 S2 C32 O3 171.2(6) no
C33 S2 C32 C31 -8.6(4) no
C56 S3 C57 N5 4.0(5) no
C56 S3 C57 C58 -172.0(4) no
C57 S3 C56 O5 173.9(6) no
C57 S3 C56 C55 -5.2(4) no
C7 N1 C9 S1 1.8(7) no
C7 N1 C9 C10 -175.9(4) no
C9 N1 C7 C6 115.7(5) no
C9 N1 C7 C8 -5.2(6) no
C9 N1 C7 C16 -122.5(5) no
C16 N2 C18 O2 -6.6(8) no
C16 N2 C18 C19 173.2(4) no
C18 N2 C16 C7 -108.4(5) no
C18 N2 C16 C17 125.6(5) no
C31 N3 C33 S2 -2.0(8) no
C31 N3 C33 C34 172.9(5) no
C33 N3 C31 C30 114.6(6) no
C33 N3 C31 C32 -4.9(7) no
C33 N3 C31 C40 -122.7(5) no
C40 N4 C42 O4 -6.7(9) no
C40 N4 C42 C43 170.3(5) no
C42 N4 C40 C31 -111.3(5) no
C42 N4 C40 C41 123.2(5) no
C55 N5 C57 S3 -1.2(7) no
C55 N5 C57 C58 174.7(5) no
C57 N5 C55 C54 116.9(5) no
C57 N5 C55 C56 -2.9(7) no
C57 N5 C55 C64 -121.8(5) no
C64 N6 C66 O6 -15.3(8) no
C64 N6 C66 C67 161.6(5) no
C66 N6 C64 C55 -128.9(5) no
C66 N6 C64 C65 106.9(5) no
Br1 C1 C2 C4 178.9(4) no
Br1 C1 C3 C5 -179.4(4) no
C2 C1 C3 C5 -1.1(11) no
C3 C1 C2 C4 0.6(11) no
C1 C2 C4 C6 -0.1(11) no
C1 C3 C5 C6 1.1(10) no
C2 C4 C6 C5 0.1(10) no
C2 C4 C6 C7 -179.0(6) no
C3 C5 C6 C4 -0.6(10) no
C3 C5 C6 C7 178.5(6) no
C4 C6 C7 N1 -176.2(6) no
C4 C6 C7 C8 -55.7(7) no
C4 C6 C7 C16 61.7(7) no
C5 C6 C7 N1 4.7(8) no
C5 C6 C7 C8 125.2(6) no
C5 C6 C7 C16 -117.4(6) no
N1 C7 C8 S1 6.3(6) no
N1 C7 C8 O1 -172.8(5) no
N1 C7 C16 N2 -79.9(5) no
N1 C7 C16 C17 45.9(5) no
C6 C7 C8 S1 -114.6(4) no
C6 C7 C8 O1 66.3(7) no
C6 C7 C16 N2 41.8(4) no
C6 C7 C16 C17 167.7(3) no
C8 C7 C16 N2 161.3(3) no
C8 C7 C16 C17 -72.9(4) no
C16 C7 C8 S1 126.0(4) no
C16 C7 C8 O1 -53.1(7) no
S1 C9 C10 C11 -16.1(7) no
S1 C9 C10 C15 167.1(3) no
N1 C9 C10 C11 161.7(5) no
N1 C9 C10 C15 -15.1(8) no
C9 C10 C11 C12 -176.2(5) no
C9 C10 C15 C14 177.7(5) no
C11 C10 C15 C14 0.7(8) no
C15 C10 C11 C12 0.7(9) no
C10 C11 C12 C13 -0.4(9) no
C11 C12 C13 C14 -1.2(10) no
C12 C13 C14 C15 2.5(10) no
C13 C14 C15 C10 -2.2(9) no
O2 C18 C19 C20 141.2(5) no
O2 C18 C19 C24 -34.9(8) no
N2 C18 C19 C20 -38.6(7) no
N2 C18 C19 C24 145.3(5) no
C18 C19 C20 C21 -176.5(5) no
C18 C19 C24 C23 178.6(5) no
C20 C19 C24 C23 2.4(9) no
C24 C19 C20 C21 -0.4(8) no
C19 C20 C21 C22 -2.2(9) no
C20 C21 C22 C23 3.0(10) no
C21 C22 C23 C24 -1.1(10) no
C22 C23 C24 C19 -1.6(10) no
Br2 C25 C26 C28 175.6(4) no
Br2 C25 C27 C29 -176.2(4) no
C26 C25 C27 C29 0.0(10) no
C27 C25 C26 C28 -0.7(10) no
C25 C26 C28 C30 0.5(10) no
C25 C27 C29 C30 0.7(10) no
C26 C28 C30 C29 0.3(9) no
C26 C28 C30 C31 179.5(6) no
C27 C29 C30 C28 -0.9(9) no
C27 C29 C30 C31 179.9(5) no
C28 C30 C31 N3 4.7(8) no
C28 C30 C31 C32 124.4(5) no
C28 C30 C31 C40 -117.2(5) no
C29 C30 C31 N3 -176.1(5) no
C29 C30 C31 C32 -56.4(6) no
C29 C30 C31 C40 62.0(7) no
N3 C31 C32 S2 9.4(6) no
N3 C31 C32 O3 -170.4(6) no
N3 C31 C40 N4 -73.0(5) no
N3 C31 C40 C41 51.8(6) no
C30 C31 C32 S2 -112.3(4) no
C30 C31 C32 O3 67.9(8) no
C30 C31 C40 N4 50.4(5) no
C30 C31 C40 C41 175.3(4) no
C32 C31 C40 N4 168.8(4) no
C32 C31 C40 C41 -66.4(5) no
C40 C31 C32 S2 127.7(4) no
C40 C31 C32 O3 -52.0(8) no
S2 C33 C34 C35 1.1(8) no
S2 C33 C34 C39 177.2(4) no
N3 C33 C34 C35 -173.8(6) no
N3 C33 C34 C39 2.2(10) no
C33 C34 C35 C36 173.5(5) no
C33 C34 C39 C38 -174.1(5) no
C35 C34 C39 C38 2.1(10) no
C39 C34 C35 C36 -2.5(10) no
C34 C35 C36 C37 2.1(10) no
C35 C36 C37 C38 -1.2(11) no
C36 C37 C38 C39 0.8(11) no
C37 C38 C39 C34 -1.2(10) no
O4 C42 C43 C44 -168.0(5) no
O4 C42 C43 C48 12.1(9) no
N4 C42 C43 C44 15.0(9) no
N4 C42 C43 C48 -164.9(5) no
C42 C43 C44 C45 -177.6(5) no
C42 C43 C48 C47 177.0(5) no
C44 C43 C48 C47 -2.9(10) no
C48 C43 C44 C45 2.3(9) no
C43 C44 C45 C46 -0.8(11) no
C44 C45 C46 C47 -0.0(11) no
C45 C46 C47 C48 -0.6(11) no
C46 C47 C48 C43 2.1(11) no
Br3 C49 C50 C52 -177.1(4) no
Br3 C49 C51 C53 177.6(4) no
C50 C49 C51 C53 -0.7(9) no
C51 C49 C50 C52 1.2(9) no
C49 C50 C52 C54 -0.2(9) no
C49 C51 C53 C54 -0.8(9) no
C50 C52 C54 C53 -1.2(8) no
C50 C52 C54 C55 176.5(5) no
C51 C53 C54 C52 1.7(9) no
C51 C53 C54 C55 -176.0(5) no
C52 C54 C55 N5 -1.0(7) no
C52 C54 C55 C56 118.7(5) no
C52 C54 C55 C64 -122.1(5) no
C53 C54 C55 N5 176.6(5) no
C53 C54 C55 C56 -63.7(6) no
C53 C54 C55 C64 55.5(6) no
N5 C55 C56 S3 5.6(6) no
N5 C55 C56 O5 -173.5(6) no
N5 C55 C64 N6 -74.5(6) no
N5 C55 C64 C65 50.0(6) no
C54 C55 C56 S3 -115.6(4) no
C54 C55 C56 O5 65.3(7) no
C54 C55 C64 N6 47.7(4) no
C54 C55 C64 C65 172.1(3) no
C56 C55 C64 N6 166.8(4) no
C56 C55 C64 C65 -68.7(5) no
C64 C55 C56 S3 124.7(4) no
C64 C55 C56 O5 -54.3(8) no
S3 C57 C58 C59 -27.9(7) no
S3 C57 C58 C63 148.5(4) no
N5 C57 C58 C59 156.2(5) no
N5 C57 C58 C63 -27.4(9) no
C57 C58 C59 C60 175.9(5) no
C57 C58 C63 C62 -176.4(5) no
C59 C58 C63 C62 -0.0(9) no
C63 C58 C59 C60 -0.4(9) no
C58 C59 C60 C61 0.0(10) no
C59 C60 C61 C62 0.9(10) no
C60 C61 C62 C63 -1.3(10) no
C61 C62 C63 C58 0.9(9) no
O6 C66 C67 C68 136.1(5) no
O6 C66 C67 C72 -38.4(7) no
N6 C66 C67 C68 -40.9(7) no
N6 C66 C67 C72 144.6(4) no
C66 C67 C68 C69 -173.9(4) no
C66 C67 C72 C71 175.2(4) no
C68 C67 C72 C71 0.7(8) no
C72 C67 C68 C69 0.7(7) no
C67 C68 C69 C70 -1.7(7) no
C68 C69 C70 C71 1.4(8) no
C69 C70 C71 C72 -0.1(9) no
C70 C71 C72 C67 -1.0(9) no
