#------------------------------------------------------------------------------
#$Date: 2016-06-18 04:41:44 +0300 (Sat, 18 Jun 2016) $
#$Revision: 183695 $
#$URL: file:///home/coder/svn-repositories/cod/cif/1/54/34/1543483.cif $
#------------------------------------------------------------------------------
#
# This file is available in the Crystallography Open Database (COD),
# http://www.crystallography.net/. The original data for this entry
# were provided by IUCr Journals, http://journals.iucr.org/.
#
# The file may be used within the scientific community so long as
# proper attribution is given to the journal article from which the
# data were obtained.
#
data_1543483
loop_
_publ_author_name
'Sebbar, Nada Kheira'
'Ellouz, Mohamed'
'Mague, Joel T.'
'Ouzidan, Younes'
'Essassi, El Mokhtar'
'Zouihri, Hafid'
_publ_section_title
;
 2-[(2<i>Z</i>)-2-Benzylidene-3-oxo-3,4-dihydro-2<i>H</i>-1,4-benzothiazin-4-yl]acetic
 acid
;
_journal_coeditor_code           HB4054
_journal_issue                   6
_journal_name_full               IUCrData
_journal_page_first              x160863
_journal_paper_doi               10.1107/S2414314616008634
_journal_volume                  1
_journal_year                    2016
_chemical_formula_iupac          'C17 H13 N O3 S'
_chemical_formula_moiety         'C17 H13 N O3 S'
_chemical_formula_sum            'C17 H13 N O3 S'
_chemical_formula_weight         311.34
_chemical_name_systematic
'2-[(2<i>Z</i>)-2-Benzylidene-3-oxo-3,4-dihydro-2<i>H</i>-1,4-benzothiazin-4-yl]acetic acid'
_space_group_crystal_system      triclinic
_space_group_IT_number           2
_space_group_name_Hall           '-P 1'
_space_group_name_H-M_alt        'P -1'
_symmetry_space_group_name_Hall  '-P 1'
_symmetry_space_group_name_H-M   'P -1'
_atom_sites_solution_hydrogens   mixed
_atom_sites_solution_primary     direct
_atom_sites_solution_secondary   difmap
_audit_creation_method           SHELXL-2014/7
_cell_angle_alpha                78.2000(10)
_cell_angle_beta                 73.3110(10)
_cell_angle_gamma                86.2420(10)
_cell_formula_units_Z            2
_cell_length_a                   8.6760(3)
_cell_length_b                   8.7882(3)
_cell_length_c                   9.8142(4)
_cell_measurement_reflns_used    9893
_cell_measurement_temperature    150(2)
_cell_measurement_theta_max      74.65
_cell_measurement_theta_min      4.80
_cell_volume                     701.61(4)
_computing_cell_refinement
;
<i>SAINT</i> (Bruker, 2015)
;
_computing_data_collection
;
<i>APEX2</i> (Bruker, 2015)
;
_computing_data_reduction
;
<i>SAINT</i> (Bruker, 2015)
;
_computing_molecular_graphics
;
PLATON (Spek, 2009)
;
_computing_publication_material
;
publCIF (Westrip, 2010)
;
_computing_structure_refinement
;
SHELXL2014 (Sheldrick, 2015b)
;
_computing_structure_solution
;
SHELXT (Sheldrick, 2015a)
;
_diffrn_ambient_temperature      150(2)
_diffrn_detector_area_resol_mean 10.4167
_diffrn_measured_fraction_theta_full 0.990
_diffrn_measured_fraction_theta_max 0.984
_diffrn_measurement_device_type  'Bruker D8 VENTURE PHOTON 100 CMOS'
_diffrn_measurement_method       '\w scans'
_diffrn_radiation_monochromator  mirror
_diffrn_radiation_type           CuK\a
_diffrn_radiation_wavelength     1.54178
_diffrn_reflns_av_R_equivalents  0.0281
_diffrn_reflns_limit_h_max       10
_diffrn_reflns_limit_h_min       -10
_diffrn_reflns_limit_k_max       10
_diffrn_reflns_limit_k_min       -9
_diffrn_reflns_limit_l_max       12
_diffrn_reflns_limit_l_min       -12
_diffrn_reflns_number            20850
_diffrn_reflns_theta_full        68.000
_diffrn_reflns_theta_max         74.643
_diffrn_reflns_theta_min         4.795
_exptl_absorpt_coefficient_mu    2.164
_exptl_absorpt_correction_T_max  0.83
_exptl_absorpt_correction_T_min  0.68
_exptl_absorpt_correction_type   multi-scan
_exptl_absorpt_process_details
;
(<i>SADABS</i>; Bruker, 2015)
;
_exptl_crystal_colour            colourless
_exptl_crystal_density_diffrn    1.474
_exptl_crystal_density_method    'not measured'
_exptl_crystal_description       block
_exptl_crystal_F_000             324
_exptl_crystal_size_max          0.170
_exptl_crystal_size_mid          0.110
_exptl_crystal_size_min          0.090
_refine_diff_density_max         0.202
_refine_diff_density_min         -0.321
_refine_ls_extinction_method     none
_refine_ls_goodness_of_fit_ref   1.044
_refine_ls_hydrogen_treatment    mixed
_refine_ls_matrix_type           full
_refine_ls_number_parameters     203
_refine_ls_number_reflns         2816
_refine_ls_number_restraints     0
_refine_ls_restrained_S_all      1.044
_refine_ls_R_factor_all          0.0333
_refine_ls_R_factor_gt           0.0321
_refine_ls_shift/su_max          0.001
_refine_ls_shift/su_mean         0.000
_refine_ls_structure_factor_coef Fsqd
_refine_ls_weighting_details
'w=1/[\s^2^(Fo^2^)+(0.0431P)^2^+0.2923P] where P=(Fo^2^+2Fc^2^)/3'
_refine_ls_weighting_scheme      calc
_refine_ls_wR_factor_gt          0.0821
_refine_ls_wR_factor_ref         0.0831
_reflns_number_gt                2698
_reflns_number_total             2816
_reflns_threshold_expression     'I > 2\s(I)'
_cod_data_source_file            hb4054sup1.cif
_cod_data_source_block           I
_cod_database_code               1543483
_shelx_space_group_comment
;
The symmetry employed for this shelxl refinement is uniquely defined
by the following loop, which should always be used as a source of
symmetry information in preference to the above space-group names.
They are only intended as comments.
;
_shelx_estimated_absorpt_t_min   0.710
_shelx_estimated_absorpt_t_max   0.829
_shelx_hkl_file
;
  -1   0   0    0.18    0.02
   1   0   0    0.16    0.01
  -2   0   0   80.71    1.76
   2   0   0   84.63    1.76
  -3   0   0   43.10    1.59
   3   0   0   43.87    1.18
  -4   0   0   20.23    0.78
   4   0   0   19.54    0.57
  -5   0   0   53.57    2.03
   5   0   0   54.81    1.51
  -6   0   0    4.78    0.37
   6   0   0    4.61    0.10
  -7   0   0    4.02    0.21
   7   0   0    4.26    0.10
  -8   0   0   14.66    0.50
   8   0   0   14.74    0.36
  -9   0   0    8.03    0.29
   9   0   0    7.71    0.21
 -10   0   0    0.18    0.04
  10   0   0    0.25    0.06
  10  -1   0   12.02    0.28
 -10   1   0   12.28    0.27
   9  -1   0   22.87    0.53
  -9   1   0   23.04    0.51
   8  -1   0   27.57    0.64
  -8   1   0   27.76    0.87
   7  -1   0    0.87    0.08
  -7   1   0    0.91    0.13
   6  -1   0   35.58    0.72
  -6   1   0   34.91    0.87
   5  -1   0    3.75    0.19
  -5   1   0    4.14    0.28
   4  -1   0   98.89    2.62
  -4   1   0   95.66    3.54
   3  -1   0   68.45    1.78
  -3   1   0   64.31    1.74
   2  -1   0   44.15    0.96
  -2   1   0   45.34    0.96
   1  -1   0  139.44    2.97
  -1   1   0  139.27    2.96
   0  -1   0  182.86    4.80
   0   1   0  190.00    6.64
   1   1   0    0.12    0.03
  -2  -1   0  848.14   17.95
   2   1   0  842.14   17.95
  -3  -1   0  153.12    5.58
   3   1   0  157.91    4.15
  -4  -1   0   28.54    1.08
   4   1   0   28.32    0.81
  -5  -1   0   29.97    1.20
   5   1   0   31.81    1.28
  -6  -1   0    2.99    0.35
   6   1   0    2.61    0.08
   7   1   0    4.82    0.11
  -8  -1   0    0.42    0.09
   8   1   0    0.54    0.05
  -9  -1   0    7.08    0.26
   9   1   0    7.11    0.14
 -10  -1   0    0.69    0.07
  10   1   0    0.72    0.07
  10  -2   0    3.52    0.14
 -10   2   0    3.58    0.14
   9  -2   0    0.06    0.04
  -9   2   0    0.09    0.04
   8  -2   0    4.18    0.14
  -8   2   0    4.03    0.14
   7  -2   0    2.65    0.12
  -7   2   0    2.73    0.17
   6  -2   0   25.52    0.52
  -6   2   0   25.74    0.65
   5  -2   0   26.76    1.08
  -5   2   0   24.44    0.63
   4  -2   0   72.98    1.93
  -4   2   0   68.14    2.61
   3  -2   0   14.26    0.40
  -3   2   0   13.36    0.39
   2  -2   0   57.17    1.51
  -2   2   0   55.70    1.47
   1  -2   0  241.61    6.23
  -1   2   0  240.33    6.24
   0  -2   0    2.08    0.06
   0   2   0    2.05    0.11
  -1  -2   0  847.96   18.56
   1   2   0  915.40   23.15
  -2  -2   0  550.66   19.58
   2   2   0  549.06   14.62
  -3  -2   0   84.09    2.98
   3   2   0   81.93    2.22
  -4  -2   0    1.38    0.15
   4   2   0    1.43    0.12
  -5  -2   0   24.98    1.00
   5   2   0   24.44    0.46
  -6  -2   0   22.56    1.00
   6   2   0   22.65    0.32
   7   2   0   28.22    0.41
  -8  -2   0    3.60    0.19
   8   2   0    3.63    0.09
  -9  -2   0    8.30    0.30
   9   2   0    8.38    0.18
 -10  -2   0    2.03    0.09
  10   2   0    1.82    0.10
   9  -3   0    3.93    0.12
  -9   3   0    3.77    0.12
   8  -3   0   32.21    0.72
  -8   3   0   31.27    0.70
   7  -3   0    4.14    0.15
  -7   3   0    4.24    0.15
   6  -3   0   13.66    0.49
  -6   3   0   13.60    0.35
   5  -3   0   17.54    0.79
  -5   3   0   17.10    0.31
   4  -3   0    2.27    0.21
  -4   3   0    2.41    0.20
   3  -3   0   53.71    2.01
  -3   3   0   50.22    1.92
   2  -3   0   73.96    2.81
  -2   3   0   74.15    2.68
   1  -3   0   29.70    0.65
  -1   3   0   28.52    1.09
   0  -3   0  128.85    2.75
   0   3   0  121.97    4.54
  -1  -3   0   43.48    1.67
  -2  -3   0   20.99    0.81
   2   3   0   21.57    0.61
  -3  -3   0  276.18    9.82
   3   3   0  275.38    7.31
  -4  -3   0   16.49    0.67
   4   3   0   15.60    0.50
  -5  -3   0   10.47    0.54
   5   3   0   10.91    0.17
  -6  -3   0   10.25    0.72
   6   3   0   10.50    0.16
   7   3   0    0.80    0.06
  -8  -3   0    7.66    0.30
   8   3   0    8.07    0.16
   9   3   0    4.16    0.10
   9  -4   0    0.42    0.06
  -9   4   0    0.36    0.06
   8  -4   0   23.87    0.77
  -8   4   0   24.29    0.76
   7  -4   0    0.20    0.06
  -7   4   0    0.34    0.07
   6  -4   0   18.29    0.64
  -6   4   0   18.70    0.32
   5  -4   0   67.22    2.79
  -5   4   0   71.13    1.01
   4  -4   0   16.44    0.74
  -4   4   0   15.92    0.26
   3  -4   0    3.48    0.25
  -3   4   0    3.31    0.24
   2  -4   0    1.17    0.15
  -2   4   0    1.00    0.14
   1  -4   0    9.70    0.42
  -1   4   0    9.10    0.41
   0  -4   0   10.19    0.26
   0   4   0   10.28    0.43
  -1  -4   0    0.05    0.06
  -2  -4   0    6.17    0.30
  -3  -4   0  322.49   11.48
   3   4   0  322.18   12.06
  -4  -4   0    8.41    0.41
   4   4   0    7.31    0.15
   5   4   0    2.14    0.08
   6   4   0   10.42    0.18
   7   4   0   39.96    0.64
   8   4   0    3.18    0.08
   9   4   0    1.75    0.06
   9  -5   0   12.08    0.39
  -9   5   0   12.33    0.38
   8  -5   0    0.21    0.06
  -8   5   0    0.23    0.06
   7  -5   0    0.32    0.09
  -7   5   0    0.38    0.07
  -6   5   0   26.91    0.51
  -5   5   0   62.65    0.97
   4  -5   0    1.97    0.39
  -4   5   0    2.05    0.07
   3  -5   0   13.47    0.66
  -3   5   0   14.07    0.21
   2  -5   0    9.61    0.48
  -2   5   0    9.02    0.46
   1  -5   0   49.13    1.91
  -1   5   0   48.90    1.84
   0  -5   0    7.27    0.25
   0   5   0    6.80    0.36
  -1  -5   0   65.25    1.78
  -2  -5   0   37.09    1.42
  -3  -5   0   19.52    0.81
   3   5   0   18.56    0.37
  -4  -5   0   54.13    2.12
   4   5   0   55.35    0.77
   5   5   0    8.12    0.15
   6   5   0   10.51    0.18
   7   5   0    0.42    0.05
   8   5   0   19.44    0.32
   9   5   0   27.62    0.50
   8  -6   0    0.78    0.07
  -8   6   0    0.83    0.07
   7  -6   0    6.14    0.24
  -7   6   0    6.26    0.17
  -6   6   0   46.82    0.85
  -5   6   0   52.76    0.83
  -4   6   0    0.05    0.04
  -3   6   0   51.71    0.72
   2  -6   0  109.01    4.22
  -2   6   0  109.63    1.40
   1  -6   0   25.13    1.17
  -1   6   0   28.27    0.38
   0  -6   0   19.80    0.88
   0   6   0   19.23    0.33
  -1  -6   0    3.65    0.37
   1   6   0    3.42    0.11
  -2  -6   0   29.48    0.86
   2   6   0   27.84    0.53
  -3  -6   0    3.36    0.39
   3   6   0    3.82    0.11
   4   6   0   46.50    0.73
   5   6   0   29.54    0.48
   6   6   0    2.54    0.08
   7   6   0    0.02    0.03
   8   6   0    2.43    0.06
   7  -7   0    9.62    0.33
  -7   7   0    9.99    0.23
   6  -7   0    6.12    0.24
  -6   7   0    6.06    0.12
  -5   7   0    2.65    0.08
  -4   7   0    2.71    0.08
  -3   7   0    6.76    0.13
  -2   7   0   18.69    0.28
  -1   7   0   42.99    0.61
   0   7   0   13.97    0.25
   1   7   0    8.62    0.17
   2   7   0    6.44    0.17
   3   7   0   11.67    0.25
   4   7   0    5.60    0.15
   5   7   0    0.10    0.04
   6   7   0   11.05    0.19
   7   7   0    0.58    0.05
   6  -8   0   20.73    0.64
  -6   8   0   20.24    0.45
  -5   8   0    8.07    0.15
  -4   8   0    4.67    0.10
  -3   8   0    3.96    0.10
  -2   8   0   56.82    0.79
  -1   8   0    9.54    0.16
   0   8   0    2.32    0.08
   1   8   0    4.40    0.11
   2   8   0    0.45    0.07
   4   8   0    1.64    0.11
   5   8   0    1.75    0.07
   6   8   0   11.64    0.27
   5  -9   0    0.15    0.06
  -5   9   0    0.07    0.02
   4  -9   0    5.58    0.21
  -4   9   0    5.71    0.11
  -3   9   0   17.55    0.29
  -2   9   0    1.05    0.05
  -1   9   0    2.59    0.07
   0   9   0    2.76    0.08
   1   9   0    7.65    0.17
  -3  10   0   12.91    0.30
  -2  10   0    0.19    0.03
  -1  10   0    0.23    0.04
   0  10   0    2.26    0.07
   1  10   0   17.85    0.57
   0  10  -1   33.90    0.74
  -1  10  -1    0.32    0.04
  -2  10  -1   11.74    0.22
  -3  10  -1    0.17    0.03
   2   9  -1    8.85    0.22
   1   9  -1    0.98    0.06
   0   9  -1   10.18    0.18
  -1   9  -1   48.56    0.75
  -2   9  -1   10.96    0.19
  -3   9  -1    8.03    0.14
  -4   9  -1    0.93    0.04
  -5   9  -1    5.25    0.11
   6   8  -1    0.08    0.04
   5   8  -1    0.00    0.04
   4   8  -1    3.44    0.12
   3   8  -1    6.54    0.19
   2   8  -1   15.05    0.30
   1   8  -1   63.43    1.13
   0   8  -1    4.19    0.10
  -1   8  -1  123.04    1.88
  -2   8  -1   16.18    0.28
  -3   8  -1    4.77    0.11
  -4   8  -1    6.90    0.13
  -5   8  -1    5.86    0.11
   5  -8   1    5.86    0.22
  -6   8  -1   25.27    0.46
   6  -8   1   26.08    0.79
   7   7  -1    4.35    0.10
   6   7  -1    1.82    0.07
   5   7  -1   10.19    0.18
   4   7  -1    3.19    0.09
   3   7  -1    8.01    0.19
   2   7  -1   21.85    0.42
   1   7  -1    0.98    0.07
   0   7  -1   64.85    1.01
  -1   7  -1  126.25    1.93
  -2   7  -1   47.12    0.74
  -3   7  -1   90.02    1.39
  -4   7  -1    0.08    0.03
  -5   7  -1    8.84    0.17
  -6   7  -1    5.98    0.13
   6  -7   1    5.68    0.23
  -7   7  -1    0.20    0.05
   7  -7   1    0.29    0.06
   8   6  -1    1.83    0.05
   7   6  -1    3.91    0.09
   6   6  -1    0.20    0.03
   5   6  -1    8.86    0.15
   4   6  -1    2.63    0.09
   3   6  -1    4.60    0.12
   2   6  -1    0.06    0.05
  -2  -6   1    0.36    0.27
   1   6  -1    3.89    0.11
   0   6  -1    6.37    0.13
  -1   6  -1   13.74    0.21
  -2   6  -1   52.94    0.76
  -3   6  -1  105.86    1.45
  -4   6  -1   56.75    0.89
  -5   6  -1    1.89    0.07
  -6   6  -1    8.55    0.16
   6  -6   1    8.46    0.32
  -7   6  -1    9.12    0.23
   7  -6   1    8.80    0.32
  -8   6  -1   13.46    0.44
   8  -6   1   13.88    0.44
   8   5  -1    0.28    0.03
   7   5  -1   10.41    0.19
   6   5  -1   14.31    0.22
   5   5  -1   15.42    0.24
   4   5  -1   63.05    0.86
  -4  -5   1   56.22    2.39
   3   5  -1    2.14    0.09
  -3  -5   1    2.28    0.34
   2   5  -1    2.10    0.19
  -2  -5   1    1.94    0.19
  -1  -5   1    0.90    0.20
   0  -5   1   45.09    1.24
  -1   5  -1   14.39    0.64
   1  -5   1   14.54    0.63
  -2   5  -1    3.82    0.10
   2  -5   1    4.05    0.29
  -3   5  -1    3.14    0.08
   3  -5   1    2.97    0.32
  -4   5  -1  194.17    2.47
   4  -5   1  200.01    7.41
  -5   5  -1   38.20    0.54
  -6   5  -1    0.59    0.06
  -7   5  -1    5.73    0.17
   7  -5   1    5.79    0.24
  -8   5  -1    4.41    0.18
   8  -5   1    4.44    0.13
  -9   5  -1   16.81    0.51
   9  -5   1   16.30    0.52
   9   4  -1    1.82    0.06
   8   4  -1    0.02    0.03
   7   4  -1    4.52    0.11
   6   4  -1    1.37    0.06
   5   4  -1    0.33    0.05
  -5  -4   1    0.61    0.33
   4   4  -1   10.11    0.16
  -4  -4   1    9.86    0.53
   3   4  -1   39.98    1.14
  -3  -4   1   40.54    1.54
   2   4  -1   22.40    0.93
  -2  -4   1   22.36    0.89
  -1  -4   1    8.58    0.38
   0   4  -1   30.56    1.13
   0  -4   1   28.92    0.82
  -1   4  -1   13.01    0.56
   1  -4   1   13.46    0.55
  -2   4  -1   19.24    0.79
   2  -4   1   19.80    0.80
  -3   4  -1   55.60    2.05
   3  -4   1   53.55    2.11
  -4   4  -1  112.54    1.79
  -5   4  -1    6.64    0.12
   5  -4   1    5.64    0.49
  -6   4  -1    7.83    0.16
  -7   4  -1    8.89    0.24
   7  -4   1    8.64    0.33
  -8   4  -1    1.93    0.10
   8  -4   1    2.09    0.12
  -9   4  -1   24.35    0.74
   9  -4   1   23.72    0.76
   9   3  -1    1.49    0.06
  -9  -3   1    1.47    0.11
   8   3  -1   12.17    0.21
   7   3  -1    0.78    0.06
   6   3  -1    6.36    0.12
   5   3  -1   80.68    0.99
  -5  -3   1   79.55    3.01
   4   3  -1   76.91    2.11
  -4  -3   1   76.56    2.84
   3   3  -1    4.56    0.19
  -3  -3   1    4.80    0.26
   2   3  -1    1.29    0.09
  -2  -3   1    1.24    0.13
   1   3  -1   51.33    1.92
  -1  -3   1   48.56    1.90
   0   3  -1    0.48    0.06
   0  -3   1    0.51    0.08
  -1   3  -1   38.57    1.48
   1  -3   1   41.76    1.53
  -2   3  -1   80.58    2.93
   2  -3   1   80.90    3.05
  -3   3  -1   65.77    2.38
   3  -3   1   63.66    2.47
  -4   3  -1    3.40    0.24
   4  -3   1    3.66    0.25
  -5   3  -1   51.01    0.83
   5  -3   1   52.65    2.04
  -6   3  -1   22.21    0.41
   6  -3   1   20.91    0.58
  -7   3  -1    3.80    0.14
   7  -3   1    3.79    0.15
  -8   3  -1    9.50    0.24
   8  -3   1    9.35    0.35
  -9   3  -1    0.45    0.06
   9  -3   1    0.35    0.07
 -10   3  -1    3.41    0.13
  10  -3   1    3.49    0.14
   9   2  -1    1.24    0.06
  -9  -2   1    1.21    0.10
   8   2  -1   13.72    0.24
  -8  -2   1   14.18    0.47
   7   2  -1    4.85    0.12
   6   2  -1    1.47    0.07
   5   2  -1   25.53    0.33
  -5  -2   1   24.22    1.04
   4   2  -1   70.69    1.97
  -4  -2   1   74.73    2.65
   3   2  -1    0.14    0.05
  -3  -2   1    0.18    0.07
   2   2  -1   25.49    0.70
  -2  -2   1   25.10    0.69
   1   2  -1  166.86    4.36
  -1  -2   1  162.73    4.36
   0   2  -1    2.09    0.11
   0  -2   1    2.03    0.06
  -1   2  -1   23.53    0.63
   1  -2   1   23.93    0.64
  -3   2  -1  132.18    4.77
   3  -2   1  133.92    4.99
  -4   2  -1  157.24    4.04
   4  -2   1  152.63    5.87
  -5   2  -1   23.24    0.97
   5  -2   1   24.56    1.01
  -6   2  -1   39.10    0.94
   6  -2   1   38.37    0.76
  -7   2  -1   56.16    1.67
   7  -2   1   54.45    1.22
  -8   2  -1   25.16    0.57
   8  -2   1   24.83    0.58
  -9   2  -1   14.57    0.34
   9  -2   1   14.54    0.35
 -10   2  -1   11.83    0.27
  10  -2   1   11.56    0.38
  10   1  -1    1.77    0.09
 -10  -1   1    1.82    0.09
   9   1  -1    2.56    0.10
  -9  -1   1    2.48    0.13
   8   1  -1    4.42    0.10
  -8  -1   1    4.77    0.21
   7   1  -1    0.14    0.04
   6   1  -1   84.00    1.03
  -6  -1   1   80.21    3.12
   5   1  -1   53.93    0.82
  -5  -1   1   56.02    2.06
   4   1  -1   64.12    1.74
  -4  -1   1   63.16    2.35
   3   1  -1   46.82    1.28
  -3  -1   1   46.88    1.72
   2   1  -1  348.68    8.84
  -2  -1   1  314.89    8.54
   1   1  -1  685.38   17.49
  -1  -1   1  645.23   14.03
   0   1  -1    4.80    0.14
   0  -1   1    4.73    0.11
  -1   1  -1   22.81    0.49
   1  -1   1   23.09    0.49
  -2   1  -1    6.49    0.13
   2  -1   1    6.28    0.19
  -3   1  -1   73.72    1.89
   3  -1   1   70.24    2.74
  -4   1  -1   23.39    0.88
   4  -1   1   22.17    0.92
  -5   1  -1   11.33    0.51
   5  -1   1   10.99    0.52
  -6   1  -1   34.94    0.86
   6  -1   1   35.18    0.70
  -7   1  -1   13.71    0.48
   7  -1   1   14.19    0.35
  -8   1  -1    2.91    0.17
   8  -1   1    2.83    0.12
  -9   1  -1    0.00    0.04
   9  -1   1    0.02    0.04
 -10   1  -1    1.22    0.06
  10  -1   1    1.14    0.06
  10   0  -1    1.31    0.07
 -10   0   1    0.95    0.09
   9   0  -1    5.90    0.17
  -9   0   1    5.84    0.22
   8   0  -1    0.74    0.07
  -8   0   1    0.85    0.11
   7   0  -1    0.10    0.04
   6   0  -1    2.78    0.08
  -6   0   1    2.45    0.39
   5   0  -1  106.12    2.91
  -5   0   1  110.43    3.93
   4   0  -1    5.81    0.22
  -4   0   1    5.86    0.30
   3   0  -1    2.63    0.11
  -3   0   1    2.53    0.15
   2   0  -1   31.33    0.70
  -2   0   1   32.34    0.70
   1   0  -1  243.10    5.19
  -1   0   1  244.47    6.47
   0   0  -1   20.18    0.54
   0   0   1   20.41    0.45
  -1   0  -1   74.72    1.63
   1   0   1   78.75    1.97
  -2   0  -1    1.42    0.05
   2   0   1    1.49    0.06
  -3   0  -1   24.82    0.67
   3   0   1   24.82    0.97
  -4   0  -1   80.66    2.90
   4   0   1   79.48    3.04
  -5   0  -1   47.97    1.78
   5   0   1   47.22    1.87
  -6   0  -1   34.20    0.83
   6   0   1   33.52    0.51
  -7   0  -1    5.49    0.25
   7   0   1    5.39    0.15
  -8   0  -1    5.53    0.25
   8   0   1    5.62    0.15
  -9   0  -1    2.15    0.14
   9   0   1    2.31    0.10
 -10   0  -1    0.35    0.06
  10   0   1    0.40    0.05
  10  -1  -1    5.75    0.20
 -10   1   1    5.55    0.19
   9  -1  -1    5.16    0.15
  -9   1   1    5.24    0.15
   8  -1  -1    0.52    0.08
  -8   1   1    0.51    0.10
   7  -1  -1   18.38    0.44
  -7   1   1   18.61    0.61
   6  -1  -1    0.00    0.11
  -6   1   1    0.00    0.51
   5  -1  -1  153.22    4.06
  -5   1   1  147.57    5.47
   4  -1  -1    4.70    0.19
  -4   1   1    4.93    0.27
   3  -1  -1   20.71    0.59
  -3   1   1   20.53    0.79
   2  -1  -1  345.88    8.94
  -2   1   1  324.20    8.67
   1  -1  -1    3.30    0.09
  -1   1   1    3.19    0.09
   0  -1  -1    3.85    0.09
   0   1   1    4.03    0.11
  -1  -1  -1  324.29    8.47
   1   1   1  338.61   12.34
  -2  -1  -1  284.70    6.00
   2   1   1  279.77    7.28
  -3  -1  -1  353.59   11.80
   3   1   1  317.68    8.52
  -4  -1  -1   63.81    2.32
   4   1   1   64.09    2.45
  -5  -1  -1   31.15    1.18
   5   1   1   30.42    1.26
  -6  -1  -1   39.89    1.58
   6   1   1   40.82    0.54
  -7  -1  -1   34.31    1.08
   7   1   1   34.97    0.56
  -8  -1  -1    8.61    0.33
   8   1   1    8.50    0.17
  -9  -1  -1    3.44    0.18
   9   1   1    3.61    0.10
 -10  -1  -1    1.30    0.08
  10   1   1    1.18    0.07
   9  -2  -1    3.98    0.12
  -9   2   1    3.97    0.12
   8  -2  -1   13.73    0.34
  -8   2   1   13.45    0.33
   7  -2  -1    4.71    0.16
  -7   2   1    4.69    0.22
   6  -2  -1    4.52    0.15
  -6   2   1    4.28    0.21
   5  -2  -1    6.79    0.21
  -5   2   1    6.71    0.23
   4  -2  -1   25.89    0.74
  -4   2   1   26.14    1.02
   3  -2  -1   87.73    2.36
  -3   2   1   88.59    2.31
   2  -2  -1  211.23    5.56
  -2   2   1  208.93    5.42
   1  -2  -1   29.91    0.78
  -1   2   1   29.34    0.64
   0  -2  -1   30.63    0.66
   0   2   1   30.51    1.11
  -1  -2  -1    0.09    0.03
   1   2   1    0.07    0.04
  -2  -2  -1  339.59    8.33
   2   2   1  313.81   12.40
  -3  -2  -1   67.57    2.41
   3   2   1   66.04    2.54
  -4  -2  -1   45.10    1.63
   4   2   1   43.36    1.73
  -5  -2  -1   60.32    2.24
   5   2   1   60.86    2.37
  -6  -2  -1    1.68    0.34
   6   2   1    1.94    0.07
   7   2   1   23.10    0.34
  -8  -2  -1    0.17    0.10
   8   2   1    0.10    0.03
   9   2   1    0.22    0.04
  10   2   1    0.01    0.04
   9  -3  -1   15.42    0.36
  -9   3   1   15.53    0.49
   8  -3  -1    2.53    0.10
  -8   3   1    2.60    0.14
   7  -3  -1    4.48    0.15
  -7   3   1    4.37    0.15
  -6   3   1   35.04    0.64
   5  -3  -1    2.42    0.16
  -5   3   1    2.60    0.12
   4  -3  -1   93.18    3.52
  -4   3   1   89.95    3.35
   3  -3  -1   12.58    0.37
  -3   3   1   12.12    0.53
   2  -3  -1  178.95    4.71
  -2   3   1  177.11    4.60
   1  -3  -1   15.47    0.43
  -1   3   1   14.90    0.59
   0  -3  -1    6.80    0.15
  -1  -3  -1   17.36    0.48
  -2  -3  -1    1.33    0.08
   2   3   1    1.19    0.12
  -3  -3  -1   24.19    0.90
   3   3   1   23.74    0.97
  -4  -3  -1   80.36    2.90
   4   3   1   79.57    3.07
  -5  -3  -1   47.50    1.82
   5   3   1   48.74    0.71
   6   3   1    0.90    0.06
   7   3   1   33.37    0.48
   8   3   1   11.72    0.19
   9   3   1    3.59    0.09
  10   3   1    0.28    0.08
   9  -4  -1    5.36    0.19
  -9   4   1    5.12    0.19
   8  -4  -1   18.97    0.44
  -8   4   1   18.98    0.61
   7  -4  -1   18.96    0.44
  -7   4   1   18.39    0.44
   6  -4  -1    7.38    0.31
  -6   4   1    7.37    0.18
   5  -4  -1    6.87    0.27
  -5   4   1    7.23    0.17
   4  -4  -1    2.13    0.28
  -4   4   1    2.25    0.08
   3  -4  -1    4.88    0.31
  -3   4   1    4.60    0.29
   2  -4  -1  202.93    7.54
  -2   4   1  198.70    7.18
   1  -4  -1    8.42    0.22
  -1   4   1    8.79    0.38
   0  -4  -1   28.67    0.66
   0   4   1   29.42    1.08
  -1  -4  -1  164.73    4.38
  -2  -4  -1   16.87    0.66
  -3  -4  -1  185.11    6.50
   3   4   1  178.79    6.85
  -4  -4  -1    0.22    0.13
   4   4   1    0.11    0.15
  -5  -4  -1    8.40    0.51
   5   4   1    8.44    0.15
   6   4   1    2.42    0.08
   7   4   1   69.57    0.96
   8   4   1   26.91    0.39
   9   4   1    5.17    0.12
   8  -5  -1   14.54    0.48
  -8   5   1   15.00    0.48
   7  -5  -1   65.34    1.95
  -7   5   1   62.39    1.37
   6  -5  -1   21.78    0.75
  -6   5   1   22.84    0.43
   5  -5  -1   11.94    0.46
  -5   5   1   12.54    0.23
   4  -5  -1    1.58    0.20
  -4   5   1    1.43    0.06
   3  -5  -1   18.97    0.88
  -3   5   1   19.37    0.28
   2  -5  -1   39.74    1.42
  -2   5   1   29.83    1.34
   1  -5  -1   14.32    0.63
  -1   5   1   13.78    0.60
   0  -5  -1   18.64    0.55
   0   5   1   18.63    0.75
  -1  -5  -1   99.62    2.68
  -2  -5  -1   27.96    0.79
  -3  -5  -1    0.54    0.11
   4   5   1    0.50    0.06
   5   5   1   55.25    0.77
   6   5   1   14.67    0.23
   7   5   1   15.52    0.27
   8   5   1    1.06    0.05
   9   5   1    0.19    0.03
   8  -6  -1    0.10    0.04
  -8   6   1    0.19    0.05
   7  -6  -1   17.44    0.58
  -7   6   1   17.67    0.40
  -6   6   1    1.16    0.07
  -5   6   1   10.65    0.20
  -4   6   1   20.94    0.31
   3  -6  -1    5.55    0.58
  -3   6   1    6.43    0.12
   2  -6  -1    0.70    0.28
  -2   6   1    0.68    0.06
   1  -6  -1   75.20    2.94
  -1   6   1   75.26    0.97
   0  -6  -1   16.38    0.76
   0   6   1   16.57    0.27
  -1  -6  -1   32.63    1.34
   1   6   1   32.05    0.52
  -2  -6  -1    2.19    0.19
   2   6   1    2.28    0.11
  -3  -6  -1    1.85    0.30
   3   6   1    1.77    0.10
   4   6   1    2.01    0.09
   5   6   1    0.57    0.06
   6   6   1   12.14    0.22
   7   6   1    0.02    0.03
   8   6   1    2.10    0.06
   7  -7  -1   19.84    0.64
  -7   7   1   20.60    0.45
   6  -7  -1    0.13    0.05
  -6   7   1    0.05    0.03
  -5   7   1    0.82    0.05
  -4   7   1   29.14    0.47
  -3   7   1    0.08    0.03
  -2   7   1   11.36    0.19
  -1   7   1    0.19    0.04
   0   7   1   29.99    0.44
   1   7   1   58.45    0.92
   2   7   1    6.25    0.17
   3   7   1    1.76    0.13
   4   7   1    5.86    0.16
   5   7   1    1.58    0.08
   6   7   1   28.92    0.46
   7   7   1    1.16    0.05
   8   7   1    4.64    0.10
   6  -8  -1    0.26    0.06
  -6   8   1    0.37    0.04
  -5   8   1   11.81    0.20
  -4   8   1    1.45    0.06
  -3   8   1   12.73    0.20
  -2   8   1    0.32    0.05
  -1   8   1   25.67    0.38
   0   8   1   17.58    0.27
   1   8   1    2.89    0.09
   2   8   1   14.23    0.36
   4   8   1    0.00    0.10
   5   8   1    1.67    0.09
   6   8   1    4.85    0.14
   7   8   1    1.75    0.07
   5  -9  -1    5.44    0.18
  -5   9   1    4.96    0.09
  -4   9   1    9.98    0.17
  -3   9   1    2.34    0.06
  -2   9   1    0.12    0.03
  -1   9   1    0.08    0.04
   0   9   1    8.09    0.16
   1   9   1    2.35    0.08
   2   9   1   38.03    1.19
  -3  10   1    3.58    0.08
  -2  10   1    0.71    0.04
  -1  10   1    4.75    0.11
   0  10   1    3.72    0.09
   1  10   1   13.89    0.32
   0  10  -2    8.25    0.28
  -1  10  -2    0.99    0.04
  -2  10  -2    5.11    0.11
   2   9  -2    0.06    0.05
   1   9  -2   12.26    0.24
   0   9  -2   23.76    0.44
  -1   9  -2    0.02    0.02
  -2   9  -2    0.79    0.04
  -3   9  -2    2.80    0.08
  -4   9  -2   20.18    0.37
  -5   9  -2   11.93    0.22
   5   8  -2    2.04    0.08
   4   8  -2   20.83    0.38
   3   8  -2    1.80    0.08
   2   8  -2    3.63    0.11
   1   8  -2   23.37    0.38
   0   8  -2    9.57    0.18
  -1   8  -2    0.71    0.05
  -2   8  -2    5.45    0.12
  -3   8  -2    4.59    0.10
  -4   8  -2    0.12    0.03
  -5   8  -2   21.18    0.39
  -6   8  -2    0.30    0.03
   6   7  -2    0.41    0.04
   5   7  -2    0.55    0.05
   4   7  -2   14.68    0.25
   3   7  -2    0.13    0.04
   2   7  -2   22.40    0.37
   1   7  -2   56.38    0.87
   0   7  -2   43.84    0.62
  -1   7  -2   17.04    0.26
  -2   7  -2   37.55    0.54
  -3   7  -2   31.11    0.45
  -4   7  -2    0.27    0.04
  -5   7  -2   51.79    0.80
   5  -7   2   48.44    1.57
  -6   7  -2    3.73    0.10
   6  -7   2    3.81    0.17
  -7   7  -2    5.57    0.20
   7  -7   2    5.36    0.20
   7   6  -2    0.67    0.04
   6   6  -2    7.17    0.14
   5   6  -2    3.22    0.09
   4   6  -2    0.17    0.04
   3   6  -2   11.58    0.19
   2   6  -2   34.07    0.54
   1   6  -2    4.19    0.10
  -1  -6   2    3.66    0.46
   0   6  -2    3.31    0.09
  -1   6  -2    0.78    0.06
  -2   6  -2   47.11    0.66
  -3   6  -2   27.05    0.40
  -4   6  -2   11.62    0.19
  -5   6  -2    2.14    0.07
  -6   6  -2    0.59    0.06
   6  -6   2    0.60    0.10
  -7   6  -2   25.18    0.57
   7  -6   2   26.17    0.81
  -8   6  -2    7.46    0.26
   8  -6   2    7.83    0.19
   8   5  -2    0.38    0.03
   7   5  -2    6.57    0.13
   6   5  -2    0.12    0.03
   5   5  -2    5.44    0.11
   4   5  -2    1.48    0.07
   3   5  -2    9.63    0.17
  -3  -5   2    9.09    0.62
   2   5  -2    9.23    0.18
  -2  -5   2    9.40    0.52
   1   5  -2  109.09    1.90
   0   5  -2    5.05    0.17
  -1   5  -2    0.07    0.05
  -2   5  -2   24.27    0.34
  -3   5  -2   51.95    0.68
  -4   5  -2    8.28    0.15
  -5   5  -2   15.79    0.25
  -6   5  -2   20.26    0.30
   6  -5   2   19.86    0.67
  -7   5  -2    9.85    0.25
   7  -5   2    9.77    0.35
  -8   5  -2   14.88    0.34
   8  -5   2   14.73    0.35
  -9   5  -2    2.47    0.11
   9  -5   2    2.40    0.11
   8   4  -2    5.56    0.11
  -8  -4   2    5.65    0.21
   7   4  -2   11.93    0.21
   6   4  -2    4.74    0.10
   5   4  -2   17.44    0.27
   4   4  -2    4.61    0.10
  -4  -4   2    4.60    0.43
   3   4  -2    4.11    0.11
  -3  -4   2    3.99    0.33
   2   4  -2   31.36    1.30
  -2  -4   2   32.14    1.25
   1   4  -2  137.07    5.43
  -1  -4   2  149.96    5.37
   0   4  -2   28.32    1.13
   0  -4   2   29.25    1.10
  -1   4  -2    0.00    0.09
   1  -4   2    0.00    0.08
  -2   4  -2    5.67    0.33
   2  -4   2    6.69    0.31
  -3   4  -2    5.96    0.36
   3  -4   2    6.49    0.34
  -4   4  -2   41.99    0.56
   4  -4   2   42.51    1.68
  -5   4  -2   13.76    0.21
  -6   4  -2    3.05    0.10
   6  -4   2    3.11    0.18
  -7   4  -2   13.05    0.32
   7  -4   2   13.23    0.46
  -8   4  -2   74.30    1.55
   8  -4   2   71.43    1.60
  -9   4  -2    0.14    0.04
   9  -4   2    0.19    0.05
   9   3  -2    7.46    0.18
  -9  -3   2    6.95    0.24
   8   3  -2    0.20    0.03
   7   3  -2    0.04    0.03
   6   3  -2   63.54    0.88
   5   3  -2    0.03    0.04
   4   3  -2    0.31    0.06
  -4  -3   2    0.22    0.19
   3   3  -2    0.41    0.10
  -3  -3   2    0.55    0.16
   2   3  -2   54.00    1.47
  -2  -3   2   53.22    1.99
   1   3  -2    1.93    0.16
  -1  -3   2    1.85    0.15
   0   3  -2   87.07    3.29
  -1   3  -2  372.58    9.75
   1  -3   2  381.31    8.14
  -2   3  -2  232.11    8.69
   2  -3   2  255.16    9.08
  -3   3  -2   19.06    0.76
   3  -3   2   18.54    0.76
  -4   3  -2   37.02    1.45
   4  -3   2   38.18    1.49
  -5   3  -2    3.17    0.10
   5  -3   2    2.84    0.30
  -6   3  -2   48.08    1.03
   6  -3   2   46.66    1.23
  -7   3  -2    3.62    0.13
   7  -3   2    3.38    0.18
  -8   3  -2   16.81    0.39
   8  -3   2   16.57    0.40
  -9   3  -2    0.59    0.06
   9  -3   2    0.71    0.08
 -10   3  -2    2.24    0.13
  10  -3   2    2.69    0.11
   9   2  -2    0.41    0.05
  -9  -2   2    0.35    0.07
   8   2  -2    7.73    0.15
   7   2  -2   10.02    0.19
   6   2  -2   91.21    1.25
   5   2  -2    0.94    0.06
  -5  -2   2    0.80    0.23
   4   2  -2    0.25    0.08
  -4  -2   2    0.28    0.13
   3   2  -2   81.90    2.21
  -3  -2   2   81.50    2.99
   2   2  -2    2.34    0.11
  -2  -2   2    2.37    0.17
   1   2  -2   28.17    0.76
  -1  -2   2   27.57    0.75
   0   2  -2   33.75    1.23
   0  -2   2   29.92    1.24
  -1   2  -2  108.14    2.78
   1  -2   2  106.44    2.84
  -2   2  -2   51.28    1.38
   2  -2   2   54.98    1.98
  -3   2  -2    2.07    0.15
   3  -2   2    2.07    0.14
  -4   2  -2   14.53    0.62
   4  -2   2   15.66    0.64
  -5   2  -2    1.58    0.21
   5  -2   2    1.35    0.20
  -6   2  -2   10.27    0.24
   6  -2   2   10.64    0.32
  -7   2  -2   56.38    1.21
   7  -2   2   55.46    1.74
  -8   2  -2    0.07    0.05
   8  -2   2    0.08    0.07
  -9   2  -2   50.69    1.08
   9  -2   2   48.87    1.55
 -10   2  -2    1.00    0.06
  10  -2   2    0.82    0.07
   9   1  -2    1.69    0.08
  -9  -1   2    1.56    0.10
   8   1  -2    0.35    0.04
  -8  -1   2    0.33    0.09
   7   1  -2   31.48    0.51
   6   1  -2   10.48    0.23
   5   1  -2    0.25    0.04
  -5  -1   2    0.10    0.18
   4   1  -2   60.51    1.65
  -4  -1   2   58.18    2.22
   3   1  -2  220.11    5.79
  -3  -1   2  214.80    7.80
   2   1  -2  106.21    2.70
  -2  -1   2   95.98    2.63
   1   1  -2  141.45    3.70
  -1  -1   2  138.14    3.60
   0   1  -2  122.44    4.47
   0  -1   2  117.34    3.08
  -1   1  -2   80.97    1.67
   1  -1   2   76.23    1.67
  -2   1  -2  250.34    6.46
   2  -1   2  237.93    6.30
  -3   1  -2    1.67    0.07
   3  -1   2    1.59    0.11
  -4   1  -2    4.50    0.16
   4  -1   2    4.59    0.24
  -5   1  -2   29.20    0.81
   5  -1   2   28.47    1.18
  -6   1  -2    2.89    0.17
   6  -1   2    3.03    0.13
  -7   1  -2   26.14    0.84
   7  -1   2   26.34    0.61
  -8   1  -2   21.91    0.72
   8  -1   2   22.81    0.53
  -9   1  -2    0.49    0.07
   9  -1   2    0.61    0.07
 -10   1  -2    7.77    0.27
  10  -1   2    7.69    0.27
   9   0  -2    0.15    0.05
  -9   0   2    0.13    0.05
   8   0  -2    1.39    0.09
  -8   0   2    1.65    0.12
   7   0  -2   24.65    0.47
   6   0  -2   11.56    0.22
   5   0  -2    1.75    0.10
  -5   0   2    1.57    0.28
   4   0  -2   37.97    1.08
  -4   0   2   38.88    1.46
   3   0  -2    8.12    0.27
  -3   0   2    8.24    0.37
   2   0  -2   67.19    1.80
  -2   0   2   66.70    2.42
   1   0  -2 1000.00   25.38
  -1   0   2  978.08   20.94
   0   0  -2   12.24    0.34
   0   0   2   12.13    0.33
  -1   0  -2  316.26    6.61
   1   0   2  305.98    6.61
  -2   0  -2    9.83    0.23
   2   0   2   10.15    0.28
  -3   0  -2   15.36    0.45
   3   0   2   15.36    0.43
  -4   0  -2   79.99    2.07
   4   0   2   76.98    3.00
  -5   0  -2    5.26    0.21
   5   0   2    5.33    0.32
  -6   0  -2    0.21    0.11
   6   0   2    0.23    0.06
  -7   0  -2    7.13    0.27
   7   0   2    7.40    0.17
  -8   0  -2    4.69    0.23
   8   0   2    5.00    0.14
  -9   0  -2    0.16    0.09
   9   0   2    0.34    0.06
 -10   0  -2    0.65    0.07
  10   0   2    0.47    0.06
   9  -1  -2    1.59    0.10
  -9   1   2    1.27    0.09
   8  -1  -2    0.29    0.06
  -8   1   2    0.24    0.07
   7  -1  -2   13.27    0.38
  -7   1   2   12.03    0.51
   6  -1  -2   23.30    0.39
   5  -1  -2    0.89    0.07
  -5   1   2    1.16    0.25
   4  -1  -2   19.49    0.58
  -4   1   2   19.02    0.79
   3  -1  -2  179.70    4.80
  -3   1   2  182.23    6.46
   2  -1  -2    1.81    0.09
  -2   1   2    1.76    0.12
   1  -1  -2  337.52    7.00
  -1   1   2  320.66    6.99
   0  -1  -2   30.74    0.66
   0   1   2   30.18    0.80
  -1  -1  -2   34.80    0.93
   1   1   2   34.39    0.93
  -2  -1  -2   13.34    0.30
   2   1   2   13.21    0.36
  -3  -1  -2  317.02    7.99
   3   1   2  303.69    7.95
  -4  -1  -2   88.89    3.15
   4   1   2   86.25    3.33
  -5  -1  -2    0.96    0.15
   5   1   2    1.08    0.17
  -6  -1  -2   23.65    0.71
   6   1   2   23.13    0.33
  -7  -1  -2    3.58    0.23
   7   1   2    3.79    0.11
  -8  -1  -2   12.84    0.47
   8   1   2   13.67    0.24
   9   1   2    0.30    0.05
 -10  -1  -2    0.29    0.07
  10   1   2    0.32    0.05
   9  -2  -2    2.13    0.11
  -9   2   2    2.28    0.11
   8  -2  -2    0.80    0.07
  -8   2   2    0.74    0.08
   7  -2  -2   29.68    0.69
  -7   2   2   30.98    0.95
   6  -2  -2    1.48    0.10
  -6   2   2    1.51    0.11
   5  -2  -2    0.15    0.07
  -5   2   2    0.04    0.10
   4  -2  -2   61.75    1.65
  -4   2   2   56.16    2.22
   3  -2  -2  203.60    5.34
  -3   2   2  195.90    7.19
   2  -2  -2  130.05    3.41
  -2   2   2  124.20    4.58
   1  -2  -2  110.98    2.34
  -1   2   2  105.66    4.14
   0  -2  -2  217.94    4.62
   0   2   2  215.39    5.61
  -1  -2  -2  101.24    2.61
  -2  -2  -2  209.34    4.32
   2   2   2  202.40    7.75
  -3  -2  -2    2.50    0.12
   3   2   2    2.17    0.16
  -4  -2  -2    3.68    0.19
   4   2   2    3.52    0.23
  -6  -2  -2    8.18    0.37
   6   2   2    8.61    0.14
   7   2   2    0.05    0.04
   8   2   2    1.02    0.07
   9   2   2    1.47    0.06
 -10  -2  -2   24.36    0.76
  10   2   2   24.25    0.54
   9  -3  -2   13.96    0.32
  -9   3   2   14.16    0.44
   8  -3  -2    4.50    0.14
  -8   3   2    4.41    0.19
   7  -3  -2    8.58    0.23
  -7   3   2    7.98    0.23
   6  -3  -2    8.05    0.32
  -6   3   2    7.83    0.22
   5  -3  -2    5.66    0.23
  -5   3   2    5.74    0.17
   4  -3  -2   41.86    1.16
  -4   3   2   39.74    0.77
   3  -3  -2   10.53    0.34
  -3   3   2   10.77    0.47
   2  -3  -2    2.84    0.13
  -2   3   2    2.76    0.17
   1  -3  -2  204.59    5.32
  -1   3   2  197.01    5.18
   0  -3  -2    5.71    0.16
   0   3   2    6.55    0.25
  -1  -3  -2   46.70    1.25
   1   3   2   49.17    1.71
  -2  -3  -2  187.46    3.86
   2   3   2  178.61    6.93
  -3  -3  -2    3.54    0.11
   3   3   2    3.49    0.22
  -4  -3  -2    0.44    0.12
   4   3   2    0.67    0.15
  -5  -3  -2   38.58    1.44
   5   3   2   37.69    0.64
  -6  -3  -2   32.39    1.46
   6   3   2   33.03    0.45
   7   3   2    0.05    0.04
   8   3   2    0.46    0.05
   9   3   2    1.05    0.05
 -10  -3  -2    9.00    0.30
  10   3   2    9.10    0.16
  -9   4   2   10.37    0.33
   8  -4  -2   29.29    0.65
  -8   4   2   28.27    0.89
   7  -4  -2    1.52    0.09
  -7   4   2    1.51    0.09
   6  -4  -2    0.31    0.09
  -6   4   2    0.30    0.07
   5  -4  -2   16.90    0.59
  -5   4   2   16.73    0.40
   4  -4  -2  103.85    3.95
  -4   4   2  101.76    1.31
   3  -4  -2   19.49    0.84
  -3   4   2   18.32    0.78
   2  -4  -2   62.37    1.67
  -2   4   2   59.07    2.25
   1  -4  -2  183.35    4.81
  -1   4   2  176.06    6.46
   0  -4  -2   10.71    0.34
   0   4   2   11.18    0.44
  -1  -4  -2    3.41    0.13
  -2  -4  -2    0.07    0.07
  -3  -4  -2   69.70    1.84
  -4  -4  -2  109.08    2.84
   4   4   2  105.60    4.14
  -5  -4  -2    5.54    0.46
   5   4   2    5.09    0.11
   6   4   2   78.42    1.08
   7   4   2    2.72    0.08
   8   4   2    1.10    0.06
   9   4   2    2.55    0.07
 -10  -4  -2    0.73    0.07
  10   4   2    0.76    0.04
   8  -5  -2   16.09    0.53
  -8   5   2   16.77    0.52
   7  -5  -2    0.43    0.06
  -7   5   2    0.40    0.06
   6  -5  -2    5.43    0.24
  -6   5   2    5.44    0.17
   5  -5  -2    0.54    0.14
  -5   5   2    0.35    0.06
   4  -5  -2   37.20    1.17
  -4   5   2   35.81    0.51
   3  -5  -2   11.66    0.64
  -3   5   2   11.86    0.18
   2  -5  -2    5.10    0.35
  -2   5   2    4.98    0.11
   1  -5  -2   10.51    0.36
  -1   5   2   11.58    0.49
   0  -5  -2  132.83    3.55
   0   5   2  131.38    4.76
  -1  -5  -2   35.23    1.00
  -2  -5  -2   25.86    0.73
  -3  -5  -2    3.42    0.30
  -4  -5  -2    0.95    0.23
   4   5   2    0.88    0.07
   5   5   2   48.00    0.68
   6   5   2    7.41    0.14
   7   5   2   10.71    0.18
   8   5   2   19.16    0.28
   9   5   2   33.53    0.61
   8  -6  -2    2.36    0.10
  -8   6   2    2.32    0.10
   7  -6  -2    0.39    0.07
  -7   6   2    0.58    0.05
   6  -6  -2   10.03    0.37
  -6   6   2   10.03    0.21
   5  -6  -2    0.95    0.15
  -5   6   2    1.07    0.07
   4  -6  -2    1.07    0.16
  -4   6   2    0.78    0.06
  -3   6   2    2.33    0.08
   2  -6  -2   14.00    0.75
  -2   6   2   13.91    0.20
   1  -6  -2   31.80    1.35
  -1   6   2   31.88    0.44
   0  -6  -2   52.42    2.06
   0   6   2   51.26    0.75
  -1  -6  -2    0.99    0.16
   1   6   2    0.75    0.08
  -2  -6  -2    1.13    0.19
   2   6   2    0.87    0.09
  -3  -6  -2    1.00    0.22
   3   6   2    0.69    0.08
   4   6   2   36.00    0.58
   5   6   2  160.28    2.18
   6   6   2    0.06    0.04
   7   6   2   10.24    0.17
   8   6   2    1.81    0.06
   9   6   2    0.27    0.03
   7  -7  -2    0.32    0.05
  -7   7   2    0.42    0.05
  -6   7   2    0.49    0.05
  -5   7   2   18.60    0.31
  -4   7   2    4.40    0.09
  -3   7   2   57.25    0.80
  -2   7   2   45.08    0.64
  -1   7   2    0.02    0.03
   0  -7  -2    0.43    0.38
   0   7   2    0.38    0.05
  -1  -7  -2   38.96    1.79
   1   7   2   42.03    0.60
   2   7   2   19.77    0.34
   3   7   2    4.52    0.12
   4   7   2    0.82    0.07
   5   7   2   26.05    0.43
   6   7   2   24.93    0.47
   7   7   2   10.08    0.21
   8   7   2    4.10    0.09
   6  -8  -2    4.69    0.17
  -6   8   2    4.59    0.12
  -5   8   2    6.96    0.13
  -4   8   2    1.27    0.05
  -3   8   2    0.10    0.03
  -2   8   2    7.85    0.14
  -1   8   2   21.37    0.36
   0   8   2   26.32    0.44
   1   8   2   40.83    0.65
   2   8   2    6.03    0.14
   3   8   2    0.58    0.07
   4   8   2    4.70    0.13
   5   8   2    0.18    0.05
   6   8   2   21.49    0.40
   7   8   2   10.09    0.19
   5  -9  -2    0.78    0.06
  -5   9   2    0.61    0.05
  -4   9   2    1.58    0.05
  -3   9   2    2.91    0.08
  -2   9   2    0.42    0.04
  -1   9   2    5.45    0.12
   0   9   2   10.80    0.20
   1   9   2   11.67    0.21
   2   9   2    1.24    0.07
  -3  10   2    3.75    0.08
  -2  10   2    1.36    0.05
  -1  10   2    4.46    0.10
   0  10   2    6.88    0.13
   1  10   2    0.76    0.06
   2   9  -3    0.92    0.07
   1   9  -3    3.33    0.08
   0   9  -3    0.60    0.04
  -1   9  -3    0.49    0.04
  -2   9  -3   16.61    0.31
  -3   9  -3    8.85    0.17
  -4   9  -3    3.83    0.08
   5   8  -3    0.25    0.07
   4   8  -3    4.63    0.10
   3   8  -3   25.92    0.47
   2   8  -3   47.52    0.84
   1   8  -3   15.26    0.26
   0   8  -3    0.07    0.03
  -1   8  -3    0.03    0.03
  -2   8  -3   43.96    0.61
  -3   8  -3    0.85    0.05
  -4   8  -3    7.02    0.15
  -5   8  -3   21.69    0.40
  -6   8  -3    0.34    0.04
   6   7  -3    7.68    0.18
   5   7  -3    0.98    0.05
   4   7  -3    0.12    0.03
   3   7  -3    0.35    0.05
   2   7  -3    0.16    0.04
   1   7  -3   29.41    0.42
   0   7  -3    0.12    0.04
  -1   7  -3   41.04    0.58
  -2   7  -3    0.23    0.03
  -3   7  -3   29.19    0.42
  -4   7  -3    0.08    0.03
  -5   7  -3    3.43    0.08
  -6   7  -3    1.13    0.05
  -7   7  -3    5.86    0.21
   7   6  -3    0.27    0.03
   6   6  -3    8.64    0.18
   5   6  -3    3.27    0.08
   4   6  -3    0.12    0.04
   3   6  -3   48.87    0.68
   2   6  -3   25.64    0.42
   1   6  -3    0.38    0.05
   0   6  -3    3.26    0.09
  -1   6  -3   17.58    0.27
  -2   6  -3    0.51    0.05
  -3   6  -3   30.53    0.44
  -4   6  -3   13.03    0.21
  -5   6  -3    1.74    0.06
   5  -6   3    2.00    0.16
  -6   6  -3   33.88    0.53
   6  -6   3   32.75    1.05
  -7   6  -3    3.12    0.11
   7  -6   3    3.21    0.15
  -8   6  -3    5.77    0.20
   8  -6   3    5.69    0.15
   7   5  -3    0.51    0.04
   6   5  -3    0.08    0.03
   5   5  -3    1.56    0.07
   4   5  -3    9.61    0.17
   3   5  -3   35.61    0.51
   2   5  -3   15.71    0.25
   1   5  -3    1.45    0.07
  -1  -5   3    2.31    0.34
   0   5  -3   35.16    0.50
  -1   5  -3    8.30    0.15
  -2   5  -3   50.54    0.66
  -3   5  -3    7.26    0.13
  -4   5  -3    9.15    0.16
  -5   5  -3    8.98    0.16
   5  -5   3    8.85    0.34
  -6   5  -3    0.79    0.06
   6  -5   3    1.02    0.12
  -7   5  -3   10.71    0.27
   7  -5   3   11.44    0.39
  -8   5  -3    0.59    0.06
   8  -5   3    0.68    0.06
  -9   5  -3    0.77    0.07
   9  -5   3    0.92    0.07
   8   4  -3    6.86    0.14
  -8  -4   3    6.72    0.23
   7   4  -3   10.39    0.18
   6   4  -3    2.96    0.07
   5   4  -3   17.74    0.27
   4   4  -3    0.13    0.04
   3   4  -3   37.63    0.50
  -3  -4   3   36.55    1.52
   2   4  -3    3.27    0.09
  -2  -4   3    3.52    0.33
   1   4  -3    2.70    0.12
  -1  -4   3    3.03    0.26
   0   4  -3  129.68    4.91
  -2   4  -3    0.27    0.14
  -3   4  -3   30.33    0.41
  -4   4  -3    1.28    0.06
  -5   4  -3   31.43    0.45
   5  -4   3   30.19    0.99
  -6   4  -3    0.52    0.06
   6  -4   3    0.36    0.09
  -7   4  -3   15.28    0.37
   7  -4   3   15.05    0.52
  -8   4  -3    1.82    0.09
   8  -4   3    2.01    0.09
  -9   4  -3    0.07    0.04
   9  -4   3    0.10    0.04
   8   3  -3    7.05    0.13
  -8  -3   3    7.11    0.25
   7   3  -3   17.95    0.30
   6   3  -3    6.82    0.13
   5   3  -3    5.39    0.11
   4   3  -3    9.79    0.15
  -4  -3   3   10.67    0.62
   3   3  -3  115.82    1.49
  -3  -3   3  118.56    4.26
   2   3  -3    1.79    0.22
  -2  -3   3    1.43    0.20
   1   3  -3    9.04    0.43
  -1  -3   3    8.74    0.42
   0   3  -3  119.41    4.52
  -1   3  -3   84.51    2.22
  -2   3  -3   33.23    1.27
  -3   3  -3   87.37    3.30
   3  -3   3   93.07    3.40
  -4   3  -3   15.34    0.34
   4  -3   3   16.83    0.69
  -5   3  -3   24.13    0.42
   5  -3   3   22.97    0.78
  -6   3  -3  193.70    4.05
   6  -3   3  190.26    5.80
  -7   3  -3    0.85    0.09
   7  -3   3    0.86    0.11
  -8   3  -3   36.33    0.80
   8  -3   3   36.63    0.83
  -9   3  -3    5.75    0.16
   9  -3   3    5.65    0.22
 -10   3  -3   11.80    0.37
  10  -3   3   11.20    0.37
   9   2  -3    3.41    0.13
  -9  -2   3    3.26    0.13
   8   2  -3   11.69    0.20
  -8  -2   3   11.67    0.39
   7   2  -3   17.72    0.30
   6   2  -3    1.88    0.07
   5   2  -3    9.98    0.17
   4   2  -3   54.48    0.72
  -4  -2   3   54.86    2.09
   3   2  -3    5.46    0.23
  -3  -2   3    5.11    0.32
   2   2  -3   62.88    1.69
  -2  -2   3   61.01    2.30
   1   2  -3   47.72    1.85
   0   2  -3   58.46    2.24
  -1   2  -3   20.95    0.56
   1  -2   3   19.12    0.82
  -2   2  -3    2.96    0.09
   2  -2   3    3.05    0.12
  -3   2  -3   93.62    2.42
   3  -2   3   91.02    3.49
  -4   2  -3   38.77    1.47
   4  -2   3   38.60    1.51
  -5   2  -3    0.44    0.09
   5  -2   3    0.63    0.11
  -6   2  -3   35.17    0.68
   6  -2   3   34.40    0.88
  -7   2  -3   74.86    1.61
   7  -2   3   75.34    2.30
  -8   2  -3    9.79    0.26
   8  -2   3    9.82    0.26
  -9   2  -3   15.24    0.35
   9  -2   3   14.64    0.51
 -10   2  -3   13.07    0.43
  10  -2   3   13.15    0.43
   9   1  -3    0.08    0.04
  -9  -1   3    0.11    0.04
   8   1  -3    6.48    0.18
  -8  -1   3    6.33    0.24
   7   1  -3    3.46    0.10
   6   1  -3    0.37    0.05
   5   1  -3    2.30    0.07
  -5  -1   3    2.40    0.19
   4   1  -3    2.83    0.08
  -4  -1   3    3.01    0.28
   3   1  -3   86.53    2.33
  -3  -1   3   85.33    3.15
   2   1  -3    9.19    0.28
  -2  -1   3    8.29    0.39
   1   1  -3   85.78    2.33
  -1  -1   3   89.14    2.27
   0   1  -3   16.37    0.66
  -1   1  -3    4.29    0.15
   1  -1   3    4.43    0.23
  -2   1  -3   74.94    1.60
   2  -1   3   74.22    1.99
  -3   1  -3  102.53    2.21
   3  -1   3  104.86    3.88
  -4   1  -3   58.80    1.57
   4  -1   3   60.80    2.28
  -5   1  -3   14.93    0.64
   5  -1   3   15.40    0.68
  -6   1  -3   49.57    1.20
   6  -1   3   50.31    0.97
  -7   1  -3   64.91    1.40
   7  -1   3   65.79    1.45
  -8   1  -3   19.42    0.45
   8  -1   3   19.01    0.38
  -9   1  -3    2.49    0.11
   9  -1   3    2.49    0.14
 -10   1  -3    4.60    0.18
  10  -1   3    4.94    0.19
   9   0  -3    1.20    0.08
  -9   0   3    1.36    0.08
   8   0  -3   23.92    0.55
  -8   0   3   24.89    0.76
   7   0  -3    4.15    0.12
   6   0  -3    0.74    0.07
  -6   0   3    0.62    0.14
   5   0  -3   16.53    0.26
  -5   0   3   16.14    0.47
   4   0  -3   28.55    0.52
  -4   0   3   28.97    1.14
   3   0  -3   79.29    2.15
  -3   0   3   79.98    2.91
   2   0  -3    9.95    0.31
  -2   0   3    9.86    0.42
   1   0  -3    9.01    0.27
  -1   0   3    8.84    0.27
   0   0  -3   96.05    2.58
   0   0   3   98.26    2.46
  -1   0  -3   12.34    0.35
   1   0   3   12.13    0.35
  -2   0  -3   10.09    0.24
   2   0   3   10.12    0.24
  -3   0  -3   76.53    1.98
   3   0   3   75.02    1.98
  -4   0  -3   21.00    0.58
   4   0   3   20.71    0.85
  -5   0  -3    8.50    0.41
   5   0   3    8.19    0.45
  -6   0  -3   29.66    1.16
   6   0   3   29.00    0.44
   7   0   3   35.14    0.57
   8   0   3   15.80    0.32
  -9   0  -3   24.97    0.79
   9   0   3   23.97    0.56
 -10   0  -3    0.28    0.07
  10   0   3    0.48    0.06
   9  -1  -3    2.82    0.13
  -9   1   3    2.98    0.12
   8  -1  -3    3.11    0.16
  -8   1   3    3.05    0.15
   7  -1  -3    1.76    0.13
  -7   1   3    1.70    0.15
   6  -1  -3   15.74    0.32
  -6   1   3   15.83    0.56
   5  -1  -3   14.50    0.26
  -5   1   3   15.08    0.43
   4  -1  -3    1.83    0.11
  -4   1   3    1.89    0.23
   3  -1  -3    0.04    0.06
  -3   1   3    0.30    0.10
   2  -1  -3   10.96    0.34
  -2   1   3   10.53    0.45
   1  -1  -3   24.71    0.69
  -1   1   3   25.13    1.02
   0  -1  -3    3.57    0.13
   0   1   3    3.91    0.16
  -1  -1  -3   64.64    1.77
   1   1   3   67.56    1.66
  -2  -1  -3  129.83    4.82
   2   1   3  125.86    4.79
  -3  -1  -3    0.48    0.05
   3   1   3    0.47    0.06
  -4  -1  -3    6.56    0.21
   4   1   3    6.38    0.33
  -5  -1  -3    0.82    0.11
   5   1   3    1.05    0.19
  -6  -1  -3    2.68    0.27
   6   1   3    2.85    0.09
   7   1   3    4.88    0.12
   8   1   3    0.91    0.07
   9   1   3   91.44    1.62
 -10  -1  -3    0.31    0.06
  10   1   3    0.46    0.05
   9  -2  -3    6.23    0.22
  -9   2   3    6.13    0.21
   8  -2  -3    3.34    0.16
  -8   2   3    3.44    0.15
   7  -2  -3    6.04    0.18
  -7   2   3    5.48    0.18
   6  -2  -3    0.78    0.09
  -6   2   3    0.82    0.09
   5  -2  -3   35.02    0.71
  -5   2   3   35.51    0.89
   4  -2  -3    0.67    0.10
  -4   2   3    0.46    0.09
   3  -2  -3    0.13    0.07
  -3   2   3    0.02    0.09
   2  -2  -3   27.82    0.79
  -2   2   3   27.65    1.05
   1  -2  -3  147.31    3.94
  -1   2   3  149.85    5.28
   0  -2  -3    0.27    0.05
   0   2   3    0.25    0.05
  -1  -2  -3  153.58    5.78
  -2  -2  -3   34.22    1.39
   2   2   3   36.86    1.39
  -3  -2  -3    7.08    0.33
   3   2   3    6.45    0.33
  -4  -2  -3  162.09    4.15
   4   2   3  157.39    6.04
  -5  -2  -3   68.70    1.81
   5   2   3   67.60    2.66
  -6  -2  -3    0.35    0.20
   6   2   3    0.19    0.04
   7   2   3   22.37    0.37
   8   2   3   14.97    0.26
   9   2   3   26.77    0.43
 -10  -2  -3   10.31    0.35
  10   2   3   10.55    0.25
   9  -3  -3   11.61    0.38
  -9   3   3   11.52    0.36
   8  -3  -3    0.38    0.06
  -8   3   3    0.28    0.07
   7  -3  -3    7.14    0.19
  -7   3   3    6.58    0.20
   6  -3  -3   13.23    0.33
  -6   3   3   13.27    0.33
   5  -3  -3  107.61    3.29
  -5   3   3  105.07    2.27
   4  -3  -3    0.17    0.08
  -4   3   3    0.10    0.05
   3  -3  -3   11.34    0.39
  -3   3   3   11.65    0.52
   2  -3  -3   41.83    1.17
  -2   3   3   42.66    1.57
   1  -3  -3    0.82    0.09
  -1   3   3    0.86    0.10
   0  -3  -3  124.21    2.71
   0   3   3  133.41    4.51
  -1  -3  -3  154.89    4.12
  -2  -3  -3   28.96    1.16
  -3  -3  -3   14.27    0.62
   3   3   3   13.55    0.61
  -4  -3  -3  116.42    4.36
   4   3   3  111.17    4.34
  -5  -3  -3   23.27    1.01
   5   3   3   23.12    0.36
  -6  -3  -3    1.40    0.39
   6   3   3    0.97    0.06
   7   3   3    0.28    0.04
   8   3   3   13.74    0.24
   9   3   3    6.38    0.13
 -10  -3  -3    9.13    0.30
  10   3   3    8.81    0.18
   8  -4  -3    0.06    0.04
  -8   4   3    0.09    0.04
   7  -4  -3    0.62    0.07
  -7   4   3    0.62    0.07
   6  -4  -3    1.70    0.14
  -6   4   3    1.68    0.10
   5  -4  -3    6.59    0.28
  -5   4   3    6.65    0.20
   4  -4  -3    0.80    0.27
  -4   4   3    0.87    0.07
   3  -4  -3    0.31    0.18
  -3   4   3    0.48    0.06
   2  -4  -3   23.10    0.70
  -2   4   3   25.36    0.94
   1  -4  -3   12.00    0.39
  -1   4   3   12.14    0.50
   0  -4  -3   11.40    0.37
   0   4   3   11.73    0.46
  -1  -4  -3    3.45    0.16
  -2  -4  -3   15.26    0.67
  -3  -4  -3   47.31    1.88
  -4  -4  -3    4.04    0.32
   4   4   3    4.31    0.33
  -5  -4  -3    0.48    0.20
   5   4   3    0.84    0.06
   6   4   3    6.77    0.13
   7   4   3   31.57    0.46
   8   4   3    2.93    0.08
   9   4   3    5.42    0.11
 -10  -4  -3    3.09    0.13
  10   4   3    2.99    0.07
   8  -5  -3    3.82    0.11
  -8   5   3    3.88    0.15
   7  -5  -3    4.83    0.14
  -7   5   3    4.85    0.14
   6  -5  -3    8.60    0.33
  -6   5   3    8.39    0.23
   5  -5  -3    0.17    0.10
  -5   5   3    0.20    0.05
  -4   5   3    9.09    0.16
   3  -5  -3    7.40    0.53
  -3   5   3    7.34    0.13
   2  -5  -3    0.53    0.19
  -2   5   3    0.24    0.04
   1  -5  -3   12.63    0.43
  -1   5   3   12.64    0.56
   0  -5  -3   18.16    0.57
   0   5   3   18.63    0.73
  -1  -5  -3   48.98    1.37
  -2  -5  -3   23.48    0.71
  -3  -5  -3   21.50    0.92
   3   5   3   19.86    0.49
  -4  -5  -3   26.32    1.15
   4   5   3   25.72    0.38
   5   5   3   15.81    0.28
   6   5   3    4.70    0.10
   7   5   3    1.30    0.06
   8   5   3    5.98    0.12
   9   5   3    0.10    0.03
   7  -6  -3    0.02    0.04
  -7   6   3    0.05    0.04
   6  -6  -3   14.93    0.52
  -6   6   3   15.35    0.36
   5  -6  -3    0.26    0.09
  -5   6   3    0.11    0.04
   4  -6  -3   18.20    0.63
  -4   6   3   18.02    0.28
  -3   6   3    0.06    0.04
   2  -6  -3   20.57    1.06
  -2   6   3   22.08    0.33
   1  -6  -3    3.46    0.41
  -1   6   3    3.80    0.09
   0  -6  -3   49.29    1.98
   0   6   3   48.62    0.69
  -1  -6  -3    0.34    0.14
   1   6   3    0.49    0.05
  -2  -6  -3    3.27    0.27
   2   6   3    3.66    0.10
  -3  -6  -3    9.40    0.45
   3   6   3   10.39    0.20
   4   6   3   73.21    1.02
   5   6   3    1.42    0.07
   6   6   3    0.18    0.04
   7   6   3   11.64    0.21
   8   6   3    5.14    0.11
   9   6   3    0.27    0.03
   7  -7  -3    3.63    0.14
   6  -7  -3   13.00    0.43
  -6   7   3   12.79    0.30
   5  -7  -3    2.23    0.15
  -5   7   3    1.93    0.07
   4  -7  -3    1.14    0.15
  -4   7   3    1.45    0.06
  -3   7   3    7.70    0.14
  -2   7   3    5.77    0.13
  -1   7   3    0.54    0.05
   0   7   3   23.40    0.35
   1   7   3    0.07    0.04
   2   7   3    0.71    0.07
   3   7   3   11.06    0.21
   4   7   3   15.35    0.27
   5   7   3    1.92    0.08
   6   7   3    2.10    0.07
   7   7   3   27.05    0.43
   8   7   3    0.07    0.03
   6  -8  -3    3.78    0.14
  -6   8   3    3.72    0.14
  -5   8   3   17.21    0.28
  -4   8   3    2.48    0.07
  -3   8   3    6.91    0.14
  -2   8   3   18.81    0.32
  -1   8   3   75.27    1.17
   0   8   3    3.10    0.08
   1   8   3    0.21    0.04
   2   8   3   21.25    0.36
   3   8   3   65.02    1.18
   4   8   3    1.53    0.08
   5   8   3    9.63    0.21
   6   8   3    8.18    0.15
   7   8   3   17.53    0.32
   5  -9  -3    3.39    0.13
  -5   9   3    3.57    0.13
  -4   9   3    0.14    0.02
  -3   9   3   15.49    0.30
  -2   9   3    0.11    0.03
  -1   9   3   17.84    0.30
   0   9   3    0.03    0.03
   1   9   3    0.15    0.04
   2   9   3    4.16    0.10
   3   9   3   10.82    0.22
   4   9   3    0.80    0.08
   5   9   3    0.64    0.10
  -3  10   3    6.24    0.13
  -2  10   3    0.66    0.04
  -1  10   3    0.10    0.02
   0  10   3    0.77    0.04
   1  10   3    7.21    0.15
   2  10   3   10.88    0.26
   1   9  -4    0.16    0.03
   0   9  -4    4.66    0.10
  -1   9  -4    4.70    0.10
  -2   9  -4    0.34    0.03
  -3   9  -4    0.03    0.02
   4   8  -4    1.10    0.07
   3   8  -4    4.35    0.10
   2   8  -4    0.62    0.05
   1   8  -4    0.04    0.03
   0   8  -4    0.55    0.04
  -1   8  -4   17.34    0.29
  -2   8  -4    2.06    0.06
  -3   8  -4    3.43    0.08
  -4   8  -4    7.80    0.14
  -5   8  -4    2.12    0.06
   5   7  -4    4.94    0.10
   4   7  -4    3.90    0.09
   3   7  -4    0.22    0.04
   2   7  -4    0.09    0.04
   1   7  -4    4.89    0.10
   0   7  -4   21.44    0.35
  -1   7  -4    0.12    0.03
  -2   7  -4    7.79    0.15
  -3   7  -4   12.98    0.23
  -4   7  -4    6.87    0.13
  -5   7  -4    6.00    0.12
  -6   7  -4    3.68    0.08
  -7   7  -4    0.00    0.04
   7  -7   4    0.00    0.03
   6   6  -4    2.12    0.06
   5   6  -4    1.77    0.05
   4   6  -4   21.73    0.35
   3   6  -4    0.03    0.03
   2   6  -4   14.47    0.29
   1   6  -4    0.09    0.04
   0   6  -4    5.52    0.11
  -1   6  -4    2.95    0.09
  -2   6  -4   34.86    0.50
  -3   6  -4    0.37    0.04
  -4   6  -4    3.24    0.09
  -5   6  -4   15.93    0.27
  -6   6  -4    0.37    0.04
  -7   6  -4    1.09    0.06
  -8   6  -4    1.59    0.09
   8  -6   4    1.66    0.09
   7   5  -4    1.63    0.05
   6   5  -4    0.10    0.02
   5   5  -4    0.58    0.05
   4   5  -4   34.06    0.49
   3   5  -4    1.40    0.06
   2   5  -4    0.07    0.03
   1   5  -4    8.58    0.15
   0   5  -4    0.41    0.05
  -1   5  -4   31.26    0.45
  -2   5  -4    1.14    0.06
  -3   5  -4    2.41    0.07
  -4   5  -4   10.15    0.17
  -5   5  -4   40.11    0.63
  -6   5  -4    2.40    0.08
   6  -5   4    2.08    0.17
  -7   5  -4    1.24    0.08
   7  -5   4    1.55    0.12
  -8   5  -4    3.82    0.11
   8  -5   4    3.66    0.11
   7   4  -4    0.68    0.04
   6   4  -4    5.23    0.11
   5   4  -4    7.13    0.14
   4   4  -4    8.68    0.15
   3   4  -4    3.87    0.09
   2   4  -4   20.67    0.29
  -2  -4   4   19.57    0.96
   1   4  -4   42.52    0.57
  -1  -4   4   42.35    1.68
   0   4  -4   22.81    0.34
   0  -4   4   23.89    0.98
  -1   4  -4   65.15    0.90
  -2   4  -4    8.01    0.13
  -3   4  -4    7.45    0.13
  -4   4  -4   30.83    0.42
  -5   4  -4   19.46    0.33
   5  -4   4   19.10    0.65
  -6   4  -4   15.38    0.30
   6  -4   4   14.70    0.52
  -7   4  -4    4.80    0.16
   7  -4   4    5.05    0.22
  -8   4  -4    4.20    0.13
   8  -4   4    4.07    0.13
  -9   4  -4    7.30    0.18
   9  -4   4    7.38    0.18
   8   3  -4   23.37    0.74
  -8  -3   4   24.29    0.72
   7   3  -4    7.08    0.13
   6   3  -4    2.01    0.06
   5   3  -4   22.03    0.33
   4   3  -4    0.28    0.05
   3   3  -4   15.27    0.23
  -3  -3   4   13.85    0.77
   2   3  -4    8.70    0.15
  -2  -3   4    8.53    0.49
   1   3  -4    3.49    0.28
  -1  -3   4    3.63    0.29
   0   3  -4   12.33    0.57
  -1   3  -4    2.79    0.23
  -2   3  -4    4.83    0.31
  -3   3  -4    3.08    0.16
  -4   3  -4   14.21    0.26
  -5   3  -4    7.38    0.16
   5  -3   4    6.81    0.30
  -6   3  -4    0.04    0.05
   6  -3   4    0.00    0.08
  -7   3  -4    0.05    0.05
   7  -3   4    0.19    0.08
  -8   3  -4    5.30    0.16
   8  -3   4    5.22    0.16
  -9   3  -4    6.95    0.18
   9  -3   4    6.85    0.18
 -10   3  -4    0.70    0.07
  10  -3   4    0.79    0.07
   8   2  -4    1.07    0.06
  -8  -2   4    1.01    0.07
   7   2  -4    0.07    0.03
   6   2  -4   16.91    0.29
   5   2  -4   15.57    0.24
   4   2  -4    6.77    0.13
   3   2  -4   29.84    0.41
  -3  -2   4   29.51    1.22
   2   2  -4   10.09    0.52
  -2  -2   4    9.60    0.48
   1   2  -4   13.53    0.60
  -1  -2   4   13.15    0.58
   0   2  -4    6.87    0.35
   0  -2   4    7.43    0.35
  -1   2  -4   77.99    2.97
  -2   2  -4   14.40    0.42
  -3   2  -4   15.58    0.45
   3  -2   4   15.25    0.61
  -4   2  -4   51.55    1.95
   4  -2   4   51.93    2.00
  -5   2  -4   42.17    0.80
   5  -2   4   40.93    1.31
  -6   2  -4   10.54    0.26
   6  -2   4   10.64    0.39
  -7   2  -4    0.89    0.09
   7  -2   4    0.81    0.09
  -8   2  -4   56.62    1.23
   8  -2   4   57.01    1.26
  -9   2  -4    3.49    0.17
   9  -2   4    3.44    0.12
 -10   2  -4    4.70    0.18
  10  -2   4    4.88    0.18
   8   1  -4    7.19    0.18
  -8  -1   4    6.81    0.25
   7   1  -4   29.33    0.47
   6   1  -4   37.33    0.59
  -6  -1   4   36.60    1.19
   5   1  -4    0.91    0.06
  -5  -1   4    1.42    0.16
   4   1  -4    6.17    0.12
  -4  -1   4    5.43    0.46
   3   1  -4   32.10    0.57
  -3  -1   4   32.95    1.28
   2   1  -4   19.18    0.56
  -2  -1   4   19.15    0.79
   1   1  -4   40.01    1.08
  -1  -1   4   39.06    1.48
   0   1  -4   15.41    0.66
   0  -1   4   15.88    0.63
  -1   1  -4    2.86    0.19
  -2   1  -4    1.19    0.09
  -3   1  -4   10.58    0.33
   3  -1   4   12.23    0.48
  -4   1  -4   19.36    0.56
   4  -1   4   19.70    0.81
  -5   1  -4   30.59    0.76
   5  -1   4   30.72    1.26
  -6   1  -4   21.66    0.58
   6  -1   4   21.60    0.46
  -7   1  -4    4.25    0.20
   7  -1   4    3.95    0.14
  -8   1  -4    4.37    0.21
   8  -1   4    4.49    0.15
  -9   1  -4    0.11    0.05
   9  -1   4    0.11    0.05
 -10   1  -4   15.05    0.49
  10  -1   4   15.08    0.49
   8   0  -4    1.56    0.07
  -8   0   4    1.53    0.09
   7   0  -4    0.55    0.06
   6   0  -4    3.48    0.11
  -6   0   4    3.59    0.22
   5   0  -4   30.09    0.49
  -5   0   4   28.79    0.98
   4   0  -4   66.21    0.82
  -4   0   4   65.50    2.49
   3   0  -4    3.24    0.19
  -3   0   4    3.32    0.26
   2   0  -4   94.60    2.51
  -2   0   4   89.92    3.38
   1   0  -4   19.23    0.56
  -1   0   4   20.19    0.76
   0   0  -4  111.82    2.91
   0   0   4  106.23    3.94
  -1   0  -4    2.07    0.08
   1   0   4    1.97    0.10
  -2   0  -4   82.11    2.19
   2   0   4   80.77    2.94
  -3   0  -4   46.05    1.21
   3   0   4   44.37    1.74
  -4   0  -4   52.95    1.41
   4   0   4   52.66    2.04
  -5   0  -4    1.63    0.22
   5   0   4    1.10    0.28
   6   0   4   31.32    0.54
  -7   0  -4   56.53    1.77
   7   0   4   57.88    1.05
  -8   0  -4   26.44    0.85
   8   0   4   26.16    0.50
  -9   0  -4    6.95    0.28
   9   0   4    7.44    0.28
 -10   0  -4    0.55    0.07
  10   0   4    0.47    0.07
   8  -1  -4    3.28    0.15
  -8   1   4    3.41    0.15
   7  -1  -4   20.47    0.49
  -7   1   4   21.40    0.68
   6  -1  -4    0.17    0.06
  -6   1   4    0.06    0.10
   5  -1  -4   27.54    0.64
  -5   1   4   26.81    0.90
   4  -1  -4    0.09    0.06
  -4   1   4    0.15    0.09
   3  -1  -4   34.81    1.00
  -3   1   4   34.61    1.34
   2  -1  -4  208.18    5.52
  -2   1   4  206.57    7.42
   1  -1  -4    0.53    0.09
  -1   1   4    0.51    0.13
   0  -1  -4  184.22    4.87
   0   1   4  182.17    6.53
  -1  -1  -4    8.03    0.26
   1   1   4    8.30    0.23
  -2  -1  -4   32.83    1.36
   2   1   4   36.66    1.24
  -3  -1  -4   50.28    1.95
   3   1   4   50.00    1.31
  -4  -1  -4  179.38    4.50
   4   1   4  162.92    6.52
  -5  -1  -4    5.79    0.37
   5   1   4    6.31    0.37
  -6  -1  -4    0.00    0.22
   6   1   4    0.13    0.05
   7   1   4   34.57    0.50
   8   1   4   49.05    0.78
  -9  -1  -4   19.46    0.63
   9   1   4   18.96    0.45
 -10  -1  -4    4.70    0.19
  10   1   4    4.80    0.14
   8  -2  -4    1.85    0.10
  -8   2   4    1.78    0.10
   7  -2  -4    2.39    0.14
  -7   2   4    2.11    0.10
   6  -2  -4    8.97    0.26
  -6   2   4    9.43    0.25
   5  -2  -4    0.11    0.07
  -5   2   4    0.00    0.09
   4  -2  -4    5.44    0.16
  -4   2   4    5.66    0.22
   3  -2  -4    5.83    0.26
  -3   2   4    5.42    0.20
   2  -2  -4   67.02    1.84
  -2   2   4   67.53    2.46
   1  -2  -4    3.32    0.15
  -1   2   4    3.41    0.19
   0  -2  -4   40.05    1.14
   0   2   4   44.31    1.50
  -1  -2  -4    3.60    0.15
  -2  -2  -4    2.22    0.17
  -3  -2  -4   83.15    3.14
   3   2   4   80.29    3.12
  -4  -2  -4   40.61    1.60
   4   2   4   39.26    1.59
  -5  -2  -4    2.04    0.25
   5   2   4    1.98    0.10
  -6  -2  -4   14.75    0.77
   6   2   4   15.00    0.23
   7   2   4   10.09    0.17
   8   2   4    5.64    0.13
  -9  -2  -4    0.78    0.10
   9   2   4    0.60    0.05
 -10  -2  -4   16.38    0.53
  10   2   4   16.35    0.38
   8  -3  -4    3.15    0.14
  -8   3   4    3.31    0.14
   7  -3  -4    1.80    0.12
  -7   3   4    2.08    0.09
   6  -3  -4   18.84    0.46
  -6   3   4   19.54    0.45
  -5   3   4    0.14    0.06
   4  -3  -4   34.84    0.90
  -4   3   4   34.98    0.68
   3  -3  -4   27.52    0.85
  -3   3   4   28.85    0.56
   2  -3  -4   19.42    0.60
  -2   3   4   19.86    0.79
   1  -3  -4   56.46    1.57
  -1   3   4   58.41    2.08
   0  -3  -4   70.75    1.60
   0   3   4   82.89    2.65
  -1  -3  -4    2.98    0.15
  -2  -3  -4    0.71    0.14
  -3  -3  -4  113.14    4.32
  -4  -3  -4    0.20    0.11
   4   3   4    0.00    0.11
  -5  -3  -4   14.20    0.70
   5   3   4   13.94    0.21
  -6  -3  -4   47.24    2.06
   6   3   4   50.25    0.67
   7   3   4    4.37    0.11
   8   3   4    2.43    0.08
   9   3   4    5.31    0.11
 -10  -3  -4    0.73    0.07
  10   3   4    0.71    0.05
   8  -4  -4    0.10    0.05
  -8   4   4    0.02    0.04
   7  -4  -4    7.14    0.19
  -7   4   4    7.55    0.19
   6  -4  -4    5.26    0.16
  -6   4   4    5.21    0.16
   5  -4  -4    5.34    0.24
  -5   4   4    5.25    0.17
   4  -4  -4    0.18    0.09
  -4   4   4    0.33    0.06
   3  -4  -4   13.56    0.71
  -3   4   4   13.21    0.22
   2  -4  -4    7.95    0.32
  -2   4   4    7.64    0.15
   1  -4  -4  136.24    5.15
  -1   4   4  134.43    4.85
   0  -4  -4    1.71    0.14
   0   4   4    1.98    0.16
  -1  -4  -4    5.69    0.23
  -2  -4  -4   14.73    0.47
  -3  -4  -4   13.13    0.63
  -4  -4  -4    6.24    0.41
   4   4   4    5.93    0.14
  -5  -4  -4    1.03    0.34
   5   4   4    0.71    0.07
   6   4   4   71.34    1.00
   7   4   4   28.99    0.47
   8   4   4    1.16    0.06
   9   4   4    1.83    0.06
 -10  -4  -4    4.39    0.16
  10   4   4    4.21    0.10
   7  -5  -4    3.46    0.11
  -7   5   4    3.41    0.11
   6  -5  -4    0.03    0.04
  -6   5   4    0.06    0.04
   5  -5  -4    7.57    0.31
  -5   5   4    7.34    0.21
   4  -5  -4    5.21    0.25
  -4   5   4    5.03    0.12
  -3   5   4    0.33    0.04
   2  -5  -4   69.81    2.78
  -2   5   4   69.91    0.98
   1  -5  -4    0.22    0.17
  -1   5   4    0.49    0.05
   0  -5  -4    4.09    0.24
   0   5   4    4.34    0.11
  -1  -5  -4   16.61    0.52
   1   5   4   13.34    0.55
  -2  -5  -4   34.86    1.01
   2   5   4   34.01    0.64
  -3  -5  -4   16.15    0.81
   3   5   4   17.10    0.30
  -4  -5  -4   19.30    0.97
   4   5   4   20.38    0.31
   5   5   4   12.46    0.21
   6   5   4    0.13    0.04
   7   5   4    2.04    0.07
   8   5   4    6.63    0.13
  -9  -5  -4    0.12    0.06
   9   5   4    0.11    0.03
   7  -6  -4    2.46    0.08
  -7   6   4    2.58    0.08
   6  -6  -4   10.71    0.26
  -6   6   4   10.76    0.26
   5  -6  -4   13.39    0.46
  -5   6   4   12.81    0.32
   4  -6  -4   20.88    0.71
  -4   6   4   20.94    0.31
  -3   6   4    1.30    0.07
  -2   6   4   14.19    0.23
   1  -6  -4   10.24    0.71
  -1   6   4   12.50    0.20
   0  -6  -4    0.20    0.24
   0   6   4    0.22    0.04
  -1  -6  -4    8.74    0.40
   1   6   4    8.53    0.17
  -2  -6  -4   30.02    0.94
   2   6   4   29.86    0.44
  -3  -6  -4   29.48    0.97
   3   6   4   30.62    0.44
   4   6   4    2.44    0.08
   5   6   4    6.93    0.13
   6   6   4   58.99    0.92
   7   6   4   37.84    0.60
   8   6   4   11.08    0.19
   9   6   4    5.17    0.10
   6  -7  -4    0.31    0.05
  -6   7   4    0.30    0.05
   5  -7  -4    5.33    0.21
  -5   7   4    5.03    0.15
   4  -7  -4   27.91    0.88
  -4   7   4   26.76    0.39
  -3   7   4   52.83    0.83
  -2   7   4   71.55    1.12
  -1   7   4   31.45    0.46
   0   7   4   15.63    0.25
   1   7   4    8.17    0.15
   2   7   4   48.97    0.78
   3   7   4    0.10    0.04
   4   7   4    1.80    0.08
   5   7   4   20.97    0.32
   6   7   4    7.71    0.15
   7   7   4    0.48    0.04
   8   7   4    2.84    0.07
  -5   8   4    0.06    0.04
   4  -8  -4    0.68    0.11
  -4   8   4    0.54    0.05
   3  -8  -4    3.39    0.18
  -3   8   4    3.45    0.08
  -2   8   4   14.91    0.26
  -1   8   4    0.99    0.06
   0   8   4    5.76    0.12
   1   8   4   23.40    0.35
   2   8   4   29.57    0.48
   3   8   4    1.29    0.06
   4   8   4    4.70    0.11
   5   8   4   14.55    0.29
   6   8   4    0.33    0.04
   7   8   4    0.25    0.05
  -4   9   4    6.24    0.13
  -3   9   4    4.24    0.10
  -2   9   4    3.03    0.07
  -1   9   4    0.98    0.05
   0   9   4    4.99    0.11
   1   9   4   23.86    0.39
   2   9   4    0.08    0.03
   3   9   4    0.15    0.04
   4   9   4   14.06    0.28
   5   9   4    2.51    0.08
   6   9   4    4.19    0.12
  -2  10   4    0.12    0.02
  -1  10   4    3.16    0.07
   0  10   4    1.04    0.05
   1  10   4   22.70    0.42
   2  10   4    0.07    0.03
   3  10   4    1.01    0.07
   2   8  -5    8.42    0.20
   1   8  -5    0.26    0.03
   0   8  -5    1.50    0.05
  -1   8  -5    1.25    0.05
  -2   8  -5    0.23    0.03
  -3   8  -5    0.04    0.02
  -4   8  -5    4.29    0.08
   4  -8   5    4.15    0.17
  -5   8  -5    4.66    0.16
   5  -8   5    4.57    0.17
   4   7  -5   21.50    0.38
   3   7  -5    7.92    0.16
   2   7  -5    0.08    0.03
   1   7  -5    1.30    0.05
   0   7  -5    0.64    0.04
  -1   7  -5   24.68    0.40
  -2   7  -5    2.04    0.07
  -3   7  -5    0.51    0.04
  -4   7  -5   12.84    0.22
  -5   7  -5   18.03    0.29
  -6   7  -5    0.88    0.05
   6  -7   5    0.91    0.07
   5   6  -5    6.22    0.11
   4   6  -5    1.19    0.05
   3   6  -5    1.18    0.05
   2   6  -5   33.58    0.53
   1   6  -5    7.12    0.15
   0   6  -5    4.15    0.09
  -1   6  -5    1.53    0.06
  -2   6  -5    0.05    0.03
  -3   6  -5    0.80    0.06
  -4   6  -5   22.25    0.36
  -5   6  -5    0.18    0.03
  -6   6  -5    0.59    0.05
  -7   6  -5   26.13    0.57
   7  -6   5   26.62    0.85
   6   5  -5    0.41    0.03
   5   5  -5    0.40    0.04
   4   5  -5    1.52    0.06
   3   5  -5    1.63    0.06
   2   5  -5   18.70    0.28
   1   5  -5    2.66    0.08
   0   5  -5   42.77    0.60
  -1   5  -5   28.37    0.41
  -2   5  -5    3.84    0.09
  -3   5  -5   27.11    0.44
  -4   5  -5   31.50    0.51
  -5   5  -5    2.81    0.08
  -6   5  -5    3.92    0.11
  -7   5  -5   24.75    0.55
   7  -5   5   23.86    0.81
  -8   5  -5    0.33    0.05
   8  -5   5    0.33    0.06
   6   4  -5    9.29    0.19
   5   4  -5    0.07    0.03
   4   4  -5   22.30    0.37
   3   4  -5    5.19    0.11
   2   4  -5    0.64    0.06
   1   4  -5    4.15    0.10
   0   4  -5    2.10    0.07
   0  -4   5    1.97    0.38
  -1   4  -5    2.86    0.08
  -2   4  -5    1.83    0.07
  -3   4  -5    9.98    0.17
  -4   4  -5   12.53    0.23
  -5   4  -5   29.89    0.48
  -6   4  -5    2.60    0.10
  -7   4  -5    7.87    0.21
   7  -4   5    7.59    0.21
  -8   4  -5   19.97    0.45
   8  -4   5   19.84    0.46
  -9   4  -5    0.00    0.04
   9  -4   5    0.06    0.04
   7   3  -5    7.62    0.15
   6   3  -5    0.06    0.03
   5   3  -5    0.76    0.06
   4   3  -5    0.07    0.04
   3   3  -5    0.01    0.03
   2   3  -5   15.15    0.23
   1   3  -5   25.84    0.39
  -1  -3   5   26.00    1.11
   0   3  -5    1.61    0.07
   0  -3   5    1.37    0.27
  -1   3  -5    2.46    0.08
  -2   3  -5   24.80    0.36
  -3   3  -5    0.54    0.05
  -4   3  -5    0.10    0.04
  -5   3  -5    6.67    0.14
  -6   3  -5   22.21    0.42
   6  -3   5   21.87    0.73
  -7   3  -5   70.58    1.52
   7  -3   5   70.98    1.56
  -8   3  -5   14.64    0.35
   8  -3   5   14.32    0.35
  -9   3  -5    0.08    0.04
   9  -3   5    0.07    0.03
   7   2  -5    5.35    0.10
   6   2  -5    0.40    0.04
  -6  -2   5    0.27    0.10
   5   2  -5    5.75    0.11
  -5  -2   5    6.07    0.26
   4   2  -5    0.63    0.06
   3   2  -5    0.01    0.04
   2   2  -5    1.34    0.07
  -2  -2   5    1.77    0.31
   1   2  -5   49.80    0.66
  -1  -2   5   52.68    1.92
   0  -2   5    3.54    0.27
  -1   2  -5    3.20    0.26
  -2   2  -5    4.31    0.29
  -3   2  -5  102.11    3.73
  -4   2  -5   30.44    0.51
  -5   2  -5   39.74    0.58
   5  -2   5   37.46    1.24
  -6   2  -5   25.64    0.49
   6  -2   5   27.77    0.85
  -7   2  -5   12.76    0.33
   7  -2   5   13.24    0.33
  -8   2  -5    0.82    0.11
   8  -2   5    0.85    0.08
  -9   2  -5    4.13    0.18
   9  -2   5    4.29    0.13
 -10   2  -5   10.70    0.35
  10  -2   5   10.73    0.35
  -8  -1   5    0.21    0.05
   7   1  -5    0.77    0.06
   6   1  -5   38.42    0.60
  -6  -1   5   36.62    1.21
   5   1  -5    8.68    0.15
  -5  -1   5    8.58    0.35
   4   1  -5   15.16    0.24
   3   1  -5    3.88    0.10
  -3  -1   5    2.89    0.40
   2   1  -5    4.39    0.11
  -2  -1   5    4.32    0.33
   1   1  -5  154.75    5.98
  -1  -1   5  159.74    5.67
   0   1  -5    0.03    0.10
   0  -1   5    0.11    0.10
  -1   1  -5   18.75    0.79
   1  -1   5   18.33    0.74
  -2   1  -5   24.48    1.00
  -3   1  -5   79.04    3.03
  -4   1  -5    0.87    0.16
  -5   1  -5    3.10    0.18
   5  -1   5    3.18    0.14
  -6   1  -5  120.74    3.58
   6  -1   5  116.91    2.58
  -7   1  -5   18.98    0.64
   7  -1   5   18.80    0.46
  -8   1  -5   43.58    0.97
   8  -1   5   43.64    0.98
  -9   1  -5    0.12    0.05
   9  -1   5    0.01    0.04
 -10   1  -5   15.14    0.49
  10  -1   5   15.44    0.49
   8   0  -5   13.06    0.44
  -8   0   5   14.10    0.43
   7   0  -5    0.16    0.04
  -7   0   5    0.27    0.07
   6   0  -5    1.50    0.08
  -6   0   5    1.53    0.15
   5   0  -5    2.23    0.09
  -5   0   5    2.44    0.17
   4   0  -5  107.76    1.64
  -4   0   5  109.18    3.34
   3   0  -5    0.80    0.07
  -3   0   5    0.92    0.24
   2   0  -5   14.92    0.42
  -2   0   5   15.21    0.66
   1   0  -5   75.26    2.04
  -1   0   5   75.01    2.75
   0   0  -5    4.79    0.18
   0   0   5    4.98    0.25
  -1   0  -5    3.51    0.14
   1   0   5    3.46    0.20
  -2   0  -5  104.97    2.78
   2   0   5  102.37    3.73
  -3   0  -5    1.20    0.17
  -4   0  -5    0.30    0.09
   4   0   5    0.42    0.15
  -5   0  -5    0.87    0.12
   5   0   5    0.64    0.10
  -6   0  -5   55.64    1.69
   6   0   5   54.97    1.07
  -7   0  -5   13.34    0.47
   7   0   5   13.34    0.34
  -8   0  -5   18.34    0.63
   8   0   5   18.99    0.45
  -9   0  -5    4.67    0.20
   9   0   5    4.66    0.15
 -10   0  -5    7.17    0.26
  10   0   5    7.15    0.26
   8  -1  -5    8.28    0.28
  -8   1   5    7.85    0.27
   7  -1  -5    0.70    0.07
  -7   1   5    0.67    0.08
   6  -1  -5    1.36    0.09
  -6   1   5    1.53    0.14
   5  -1  -5   41.57    0.94
  -5   1   5   41.31    1.33
   4  -1  -5   22.25    0.53
  -4   1   5   22.61    0.76
   3  -1  -5    2.74    0.10
  -3   1   5    2.48    0.34
   2  -1  -5    9.00    0.33
  -2   1   5    9.16    0.45
   1  -1  -5    4.99    0.21
  -1   1   5    5.04    0.27
   0  -1  -5   49.05    1.35
   0   1   5   49.49    1.80
  -1  -1  -5  164.05    4.37
  -2  -1  -5  230.42    6.32
   2   1   5  253.57    8.44
  -3  -1  -5   42.03    1.67
  -4  -1  -5   18.32    0.81
   4   1   5   18.83    0.81
  -5  -1  -5   23.78    1.03
   5   1   5   23.48    0.41
  -6  -1  -5    0.58    0.12
   6   1   5    0.66    0.06
  -7  -1  -5   31.65    1.00
   7   1   5   31.03    0.46
  -8  -1  -5    0.14    0.07
   8   1   5    0.12    0.05
  -9  -1  -5    9.23    0.33
   9   1   5    8.76    0.33
 -10  -1  -5    6.38    0.17
  10   1   5    6.69    0.24
   8  -2  -5    9.72    0.32
  -8   2   5    9.52    0.31
   7  -2  -5   17.99    0.61
  -7   2   5   18.77    0.42
   6  -2  -5    0.29    0.06
  -6   2   5    0.41    0.06
   5  -2  -5    0.44    0.08
  -5   2   5    0.64    0.13
   4  -2  -5    2.76    0.13
  -4   2   5    2.69    0.18
   3  -2  -5   56.22    1.19
  -3   2   5   57.03    1.37
   2  -2  -5    0.34    0.08
  -2   2   5    0.58    0.11
   1  -2  -5    0.81    0.13
  -1   2   5    0.59    0.16
   0  -2  -5    9.36    0.32
   0   2   5    9.30    0.39
  -1  -2  -5    0.35    0.08
  -2  -2  -5  165.03    4.41
  -3  -2  -5   19.47    0.84
  -4  -2  -5    9.91    0.50
   4   2   5    8.98    0.49
  -5  -2  -5   45.79    1.88
   5   2   5   46.29    0.62
  -6  -2  -5   13.70    0.83
   6   2   5   14.64    0.22
   7   2   5    1.46    0.07
  -8  -2  -5    7.09    0.29
   8   2   5    7.20    0.13
  -9  -2  -5   11.62    0.41
   9   2   5   11.79    0.29
 -10  -2  -5    6.95    0.25
  10   2   5    7.24    0.19
   7  -3  -5    0.81    0.08
  -7   3   5    0.81    0.06
   6  -3  -5    0.14    0.07
  -6   3   5    0.08    0.05
   5  -3  -5   14.25    0.36
  -5   3   5   14.82    0.36
   4  -3  -5    1.90    0.11
  -4   3   5    2.03    0.11
   3  -3  -5   11.80    0.33
  -3   3   5   11.70    0.21
   2  -3  -5   41.34    0.88
  -2   3   5   41.04    0.80
   1  -3  -5   19.24    0.61
  -1   3   5   20.48    0.79
   0  -3  -5    2.47    0.16
   0   3   5    2.05    0.17
  -1  -3  -5    0.45    0.10
  -2  -3  -5  199.22    5.32
  -3  -3  -5    3.39    0.28
  -4  -3  -5   14.13    0.67
   4   3   5   12.98    0.28
  -5  -3  -5   37.73    1.60
   5   3   5   37.71    0.51
   6   3   5   14.91    0.24
   7   3   5    0.10    0.04
  -8  -3  -5    4.56    0.21
   8   3   5    4.57    0.10
  -9  -3  -5    3.22    0.16
   9   3   5    3.13    0.08
 -10  -3  -5    1.56    0.09
  10   3   5    1.45    0.07
   7  -4  -5    6.70    0.24
  -7   4   5    6.41    0.17
   6  -4  -5   13.00    0.46
  -6   4   5   12.96    0.31
   5  -4  -5    4.86    0.22
  -5   4   5    4.65    0.15
   4  -4  -5    3.85    0.20
  -4   4   5    3.84    0.15
   3  -4  -5    0.43    0.14
  -3   4   5    0.52    0.07
   2  -4  -5  110.50    2.29
  -2   4   5  113.44    1.98
   1  -4  -5    3.71    0.24
  -1   4   5    3.50    0.11
   0  -4  -5   17.39    0.75
   0   4   5   15.06    0.39
  -1  -4  -5   48.54    1.37
  -2  -4  -5    3.19    0.21
  -3  -4  -5  149.07    5.61
   3   4   5  145.52    2.24
  -4  -4  -5   13.90    0.71
   4   4   5   13.46    0.22
  -5  -4  -5    2.58    0.48
   5   4   5    2.44    0.08
   6   4   5    1.60    0.07
   7   4   5    5.53    0.11
  -8  -4  -5    4.97    0.22
   8   4   5    4.99    0.11
  -9  -4  -5    0.09    0.06
   9   4   5    0.05    0.03
  10   4   5    6.44    0.16
   7  -5  -5    8.37    0.29
  -7   5   5    8.59    0.20
   6  -5  -5   12.54    0.30
  -6   5   5   12.73    0.30
   5  -5  -5    2.33    0.14
  -5   5   5    2.07    0.10
   4  -5  -5    7.23    0.30
  -4   5   5    6.91    0.17
  -3   5   5   19.98    0.35
  -2   5   5    2.06    0.08
   1  -5  -5    0.34    0.19
  -1   5   5    0.38    0.05
   0  -5  -5   52.34    1.47
   0   5   5   50.37    0.72
  -1  -5  -5  103.88    2.87
   1   5   5  105.22    1.45
  -2  -5  -5    0.14    0.14
   2   5   5    0.25    0.04
  -3  -5  -5   20.26    0.68
   3   5   5   19.72    0.30
  -4  -5  -5   82.39    3.36
   4   5   5   84.75    1.17
   5   5   5   83.20    1.16
   6   5   5   11.96    0.20
   7   5   5    7.34    0.14
   8   5   5    4.23    0.10
   9   5   5    0.07    0.02
   6  -6  -5    0.29    0.05
  -6   6   5    0.41    0.06
   5  -6  -5   14.24    0.48
  -5   6   5   13.84    0.33
   4  -6  -5   18.83    0.64
  -4   6   5   19.02    0.45
  -3   6   5   25.20    0.42
  -2   6   5    4.99    0.12
  -1   6   5    3.45    0.09
   0   6   5   37.58    0.54
  -1  -6  -5    5.00    0.60
   1   6   5    4.45    0.10
  -2  -6  -5   19.55    1.08
   2   6   5   22.05    0.33
   3   6   5   11.75    0.20
   4   6   5    0.12    0.04
   5   6   5   35.79    0.52
   6   6   5    0.21    0.04
   7   6   5    0.52    0.05
   8   6   5    4.53    0.10
   9   6   5    2.70    0.07
  -6   7   5    0.03    0.04
   5  -7  -5    1.15    0.09
  -5   7   5    1.08    0.08
   4  -7  -5   33.34    1.04
  -4   7   5   32.19    0.60
  -3   7   5   13.46    0.24
  -2   7   5    0.26    0.04
  -1   7   5    6.73    0.13
   0   7   5   18.56    0.29
   1   7   5   26.09    0.44
   2   7   5    5.20    0.11
   3   7   5    0.61    0.06
   4   7   5   19.98    0.34
   5   7   5    4.88    0.10
   6   7   5    1.32    0.06
   7   7   5    1.87    0.06
   8   7   5    3.27    0.08
   5  -8  -5    0.83    0.06
  -5   8   5    0.73    0.06
   4  -8  -5    9.72    0.33
  -4   8   5    9.64    0.19
   3  -8  -5    0.26    0.07
  -3   8   5    0.35    0.04
  -2   8   5    7.90    0.15
  -1   8   5    9.84    0.19
   0   8   5    3.02    0.08
   1   8   5    2.04    0.08
   2   8   5   10.98    0.21
   3   8   5    0.04    0.03
   4   8   5   46.90    0.74
   5   8   5    0.17    0.04
   6   8   5    4.90    0.12
   7   8   5    6.70    0.14
  -4   9   5    6.74    0.23
  -3   9   5    6.24    0.13
   2  -9  -5    2.14    0.13
  -2   9   5    2.15    0.06
  -1   9   5    5.43    0.11
   0   9   5   19.76    0.33
   1   9   5    0.88    0.05
   2   9   5    8.70    0.16
   3   9   5    2.58    0.07
   4   9   5    0.50    0.05
   5   9   5    3.76    0.09
   6   9   5    1.54    0.06
  -2  10   5    0.04    0.02
  -1  10   5    2.13    0.05
   0  10   5    3.20    0.08
   1  10   5    0.79    0.04
   2  10   5    1.66    0.06
   3  10   5    5.41    0.12
   4  10   5    0.00    0.05
   0   8  -6    0.38    0.03
  -1   8  -6    0.66    0.04
  -2   8  -6   16.17    0.29
  -3   8  -6    3.49    0.08
   3   7  -6    3.80    0.08
   2   7  -6    0.24    0.03
   1   7  -6    0.13    0.02
   0   7  -6   11.11    0.19
  -1   7  -6    2.83    0.08
  -2   7  -6    3.13    0.07
  -3   7  -6   10.73    0.18
  -4   7  -6    0.04    0.02
   4  -7   6    0.00    0.05
  -5   7  -6    0.06    0.03
   5  -7   6    0.06    0.04
  -6   7  -6    2.39    0.08
   6  -7   6    2.66    0.11
   4   6  -6    0.16    0.03
   3   6  -6    1.36    0.05
   2   6  -6   26.64    0.42
   1   6  -6    0.72    0.05
   0   6  -6    0.92    0.05
  -1   6  -6    2.33    0.07
  -2   6  -6   20.06    0.30
  -3   6  -6   75.17    1.15
   3  -6   6   74.08    2.36
  -4   6  -6    0.70    0.05
   4  -6   6    0.61    0.10
  -5   6  -6    0.94    0.05
   5  -6   6    1.11    0.09
  -6   6  -6   16.40    0.37
   6  -6   6   16.52    0.55
  -7   6  -6    3.02    0.09
   7  -6   6    2.96    0.13
   5   5  -6    0.22    0.04
   4   5  -6    8.51    0.15
   3   5  -6    1.18    0.05
   2   5  -6    7.73    0.15
   1   5  -6   13.04    0.23
   0   5  -6   14.06    0.25
  -1   5  -6   20.86    0.31
  -2   5  -6   26.18    0.38
  -3   5  -6   13.90    0.22
  -4   5  -6    0.45    0.05
  -5   5  -6   10.20    0.18
  -6   5  -6   13.57    0.32
   6  -5   6   12.67    0.46
  -7   5  -6    2.39    0.09
   7  -5   6    2.49    0.12
  -8   5  -6    0.28    0.06
   8  -5   6    0.19    0.05
   6   4  -6    0.94    0.04
   5   4  -6    1.21    0.05
  -5  -4   6    1.09    0.12
   4   4  -6    6.90    0.13
   3   4  -6    0.85    0.06
   2   4  -6    0.98    0.06
   1   4  -6    3.47    0.09
   0   4  -6   17.40    0.30
  -1   4  -6    0.07    0.03
  -2   4  -6   18.07    0.28
  -3   4  -6    0.12    0.04
  -4   4  -6   16.62    0.26
  -5   4  -6   73.19    1.12
  -6   4  -6    1.36    0.09
   6  -4   6    1.38    0.12
  -7   4  -6    9.00    0.23
   7  -4   6    8.83    0.34
  -8   4  -6    1.47    0.10
   8  -4   6    1.58    0.10
  -9   4  -6    0.62    0.06
   9  -4   6    0.44    0.06
   6   3  -6    0.97    0.05
   5   3  -6    1.00    0.05
  -5  -3   6    0.94    0.11
   4   3  -6    3.51    0.09
   3   3  -6    9.62    0.18
   2   3  -6   19.21    0.29
   1   3  -6    3.35    0.09
   0   3  -6   45.40    0.71
  -1   3  -6   32.89    0.47
   1  -3   6   31.51    1.37
  -2   3  -6    8.94    0.16
   2  -3   6    8.78    0.32
  -3   3  -6   50.14    0.70
  -4   3  -6   18.04    0.27
  -5   3  -6   13.10    0.23
  -6   3  -6   41.89    0.76
   6  -3   6   43.21    1.37
  -7   3  -6    2.42    0.15
   7  -3   6    2.47    0.15
  -8   3  -6    2.53    0.14
   8  -3   6    2.43    0.10
  -9   3  -6    6.06    0.22
   9  -3   6    5.86    0.22
   7   2  -6    0.85    0.06
  -7  -2   6    0.72    0.06
   6   2  -6    7.45    0.15
  -6  -2   6    6.84    0.32
   5   2  -6    0.09    0.04
  -5  -2   6    0.12    0.08
   4   2  -6    4.36    0.11
   3   2  -6   14.10    0.29
   2   2  -6   15.81    0.28
   1   2  -6   12.26    0.19
  -1  -2   6   11.60    0.67
   0   2  -6    0.09    0.04
   0  -2   6    0.57    0.23
  -1   2  -6   31.25    0.47
   1  -2   6   32.97    1.28
  -2   2  -6   25.21    0.37
   2  -2   6   24.38    0.66
  -3   2  -6    9.61    0.17
   3  -2   6    9.93    0.38
  -4   2  -6    7.81    0.18
   4  -2   6    8.03    0.32
  -5   2  -6    6.50    0.20
   5  -2   6    6.56    0.28
  -6   2  -6   60.44    1.33
   6  -2   6   60.78    1.35
  -7   2  -6    0.72    0.09
   7  -2   6    0.77    0.08
  -8   2  -6    0.36    0.09
   8  -2   6    0.16    0.04
  -9   2  -6    3.59    0.16
   9  -2   6    3.52    0.11
 -10   2  -6    0.41    0.05
   7   1  -6    1.45    0.09
  -7  -1   6    1.33    0.08
   6   1  -6   20.98    0.48
  -6  -1   6   21.13    0.68
   5   1  -6    0.22    0.05
  -5  -1   6    0.03    0.07
   4   1  -6    1.38    0.07
   3   1  -6   18.12    0.31
   2   1  -6    3.99    0.11
  -2  -1   6    3.00    0.47
   1   1  -6    0.06    0.04
  -1  -1   6    0.00    0.21
   0   1  -6    4.97    0.13
   0  -1   6    5.06    0.34
  -1   1  -6    7.59    0.25
   1  -1   6    7.56    0.42
  -2   1  -6   31.28    0.79
   2  -1   6   31.14    1.21
  -3   1  -6    5.30    0.16
   3  -1   6    5.23    0.25
  -4   1  -6    0.87    0.11
   4  -1   6    1.06    0.13
  -5   1  -6  126.86    2.72
   5  -1   6  125.47    3.96
  -6   1  -6   12.51    0.32
   6  -1   6   12.16    0.32
  -7   1  -6   39.96    0.89
   7  -1   6   39.76    0.90
  -8   1  -6   21.48    0.50
   8  -1   6   21.24    0.50
  -9   1  -6   10.92    0.37
   9  -1   6   10.66    0.27
 -10   1  -6    9.54    0.33
  10  -1   6   10.41    0.33
   7   0  -6    0.21    0.04
  -7   0   6    0.28    0.06
   6   0  -6    2.06    0.09
  -6   0   6    1.91    0.13
   5   0  -6   11.16    0.29
  -5   0   6   10.93    0.41
   4   0  -6   27.93    0.45
  -4   0   6   27.21    0.92
   3   0  -6  107.77    1.64
   2   0  -6    9.45    0.20
  -2   0   6    8.85    0.32
   1   0  -6    6.87    0.19
  -1   0   6    6.28    0.24
   0   0  -6   43.54    1.14
   0   0   6   49.26    1.73
  -1   0  -6   92.14    3.90
   1   0   6  110.72    3.67
  -2   0  -6    0.94    0.22
   2   0   6    1.43    0.19
  -3   0  -6   12.41    0.36
  -4   0  -6    8.04    0.28
   4   0   6    8.15    0.32
  -5   0  -6   85.17    2.53
   5   0   6   81.56    1.82
  -6   0  -6    0.87    0.14
   6   0   6    0.76    0.09
  -7   0  -6    4.59    0.23
   7   0   6    4.90    0.16
  -8   0  -6   30.53    0.97
   8   0   6   30.07    0.70
  -9   0  -6    0.06    0.04
   9   0   6    0.04    0.04
 -10   0  -6    3.39    0.14
  10   0   6    3.48    0.15
   7  -1  -6    0.53    0.05
  -7   1   6    0.64    0.07
   6  -1  -6    1.93    0.09
  -6   1   6    2.09    0.09
   5  -1  -6   27.25    0.63
  -5   1   6   27.37    0.90
   4  -1  -6   14.06    0.35
  -4   1   6   14.05    0.51
   3  -1  -6    0.53    0.07
  -3   1   6    0.45    0.10
   2  -1  -6    0.15    0.16
  -2   1   6    0.28    0.21
   1  -1  -6    4.50    0.19
  -1   1   6    4.42    0.19
   0  -1  -6   13.93    0.67
   0   1   6   13.57    0.58
  -1  -1  -6   14.13    0.45
  -2  -1  -6   16.67    0.51
  -3  -1  -6    1.07    0.16
  -4  -1  -6   33.55    1.47
   4   1   6   30.15    0.71
  -5  -1  -6    1.08    0.16
   5   1   6    0.99    0.12
  -6  -1  -6   42.86    1.34
   6   1   6   42.58    0.79
  -7  -1  -6   22.28    0.74
   7   1   6   22.57    0.54
  -8  -1  -6   16.47    0.56
   8   1   6   16.83    0.41
  -9  -1  -6    6.90    0.26
   9   1   6    6.62    0.19
 -10  -1  -6    4.06    0.12
  10   1   6    4.08    0.17
   7  -2  -6    0.35    0.06
  -7   2   6    0.26    0.05
   6  -2  -6    1.46    0.08
  -6   2   6    1.52    0.08
   5  -2  -6   14.83    0.36
  -5   2   6   14.64    0.36
   4  -2  -6   15.27    0.38
  -4   2   6   14.95    0.54
   3  -2  -6   34.28    0.80
  -3   2   6   36.88    1.15
   2  -2  -6    2.81    0.16
  -2   2   6    2.80    0.13
   1  -2  -6    8.52    0.24
  -1   2   6    8.55    0.24
   0  -2  -6   70.96    1.95
  -1  -2  -6   17.07    0.54
  -2  -2  -6    1.21    0.16
  -3  -2  -6    6.57    0.29
  -4  -2  -6   14.99    0.74
   4   2   6   15.41    0.27
  -5  -2  -6    2.53    0.44
   5   2   6    3.00    0.10
  -6  -2  -6   37.28    1.21
   6   2   6   38.93    0.62
  -7  -2  -6    0.28    0.09
   7   2   6    0.26    0.05
  -8  -2  -6    0.42    0.11
   8   2   6    0.35    0.05
  -9  -2  -6    1.17    0.11
   9   2   6    1.39    0.08
 -10  -2  -6    0.79    0.05
  10   2   6    0.81    0.08
   7  -3  -6    0.65    0.06
  -7   3   6    0.62    0.06
   6  -3  -6    2.85    0.14
  -6   3   6    2.81    0.10
   5  -3  -6    6.40    0.19
  -5   3   6    6.42    0.19
   4  -3  -6    1.01    0.09
  -4   3   6    1.31    0.10
   3  -3  -6  197.66    5.75
  -3   3   6  186.81    3.29
   2  -3  -6    0.26    0.10
  -2   3   6    0.14    0.06
   1  -3  -6    0.13    0.08
  -1   3   6    0.01    0.05
   0  -3  -6   50.33    1.40
   0   3   6   48.02    0.89
  -1  -3  -6    2.94    0.21
   1   3   6    2.85    0.18
  -2  -3  -6    9.58    0.52
   2   3   6    9.33    0.25
  -3  -3  -6   15.36    0.52
   3   3   6   14.67    0.30
  -4  -3  -6    7.89    0.51
   4   3   6    7.09    0.14
  -5  -3  -6   11.45    0.74
   5   3   6   11.95    0.20
   6   3   6   12.99    0.21
  -7  -3  -6    0.00    0.09
   7   3   6    0.08    0.04
  -8  -3  -6   17.50    0.60
   8   3   6   18.35    0.31
  -9  -3  -6   11.46    0.38
   9   3   6   11.15    0.23
 -10  -3  -6    2.81    0.14
  10   3   6    3.00    0.13
   7  -4  -6    8.27    0.28
   6  -4  -6    9.41    0.33
  -6   4   6    9.26    0.23
   5  -4  -6    3.55    0.18
  -5   4   6    3.56    0.13
   4  -4  -6    0.22    0.07
  -4   4   6    0.21    0.06
   3  -4  -6    7.06    0.30
  -3   4   6    6.66    0.17
   2  -4  -6    4.66    0.24
  -2   4   6    4.14    0.13
   1  -4  -6  135.65    2.76
  -1   4   6  135.96    1.87
   0  -4  -6   90.08    2.43
   0   4   6   86.27    1.21
  -1  -4  -6    0.25    0.13
   1   4   6    0.12    0.05
  -2  -4  -6    3.82    0.27
   2   4   6    3.95    0.10
  -3  -4  -6   19.82    0.67
   3   4   6   20.17    0.31
  -4  -4  -6    5.86    0.56
   4   4   6    6.96    0.13
   5   4   6    0.87    0.06
   6   4   6    3.47    0.09
   7   4   6    6.43    0.12
   8   4   6    4.84    0.11
   9   4   6    4.31    0.11
  10   4   6    1.41    0.08
   6  -5  -6    8.33    0.30
  -6   5   6    8.59    0.30
   5  -5  -6    2.50    0.14
  -5   5   6    2.49    0.10
   4  -5  -6   14.13    0.51
  -4   5   6   14.43    0.36
  -3   5   6   28.38    0.53
   2  -5  -6   89.82    2.87
  -2   5   6   94.22    1.45
   1  -5  -6  100.08    3.07
  -1   5   6   99.91    1.55
   0  -5  -6   37.16    1.25
   0   5   6   42.24    0.59
  -1  -5  -6    0.47    0.20
   1   5   6    0.66    0.06
  -2  -5  -6    9.89    0.47
   2   5   6   10.06    0.17
  -3  -5  -6   27.25    0.95
   3   5   6   30.53    0.44
   4   5   6   41.47    0.67
   5   5   6   32.13    0.47
   6   5   6    7.08    0.13
   7   5   6    0.35    0.04
   8   5   6    6.90    0.16
   9   5   6   14.20    0.27
   6  -6  -6    8.43    0.30
  -6   6   6    9.28    0.30
   5  -6  -6   55.34    1.22
  -5   6   6   57.65    1.75
   4  -6  -6   10.04    0.37
  -4   6   6   10.05    0.26
  -3   6   6    1.29    0.07
  -2   6   6    0.06    0.04
  -1   6   6    5.11    0.11
   0   6   6   89.91    1.25
   1   6   6    0.08    0.04
   2   6   6   46.34    0.66
   3   6   6    2.07    0.07
   4   6   6    2.68    0.08
   5   6   6    0.45    0.06
   6   6   6   28.72    0.42
   7   6   6    0.77    0.05
   8   6   6    3.19    0.09
   9   6   6    4.91    0.11
   5  -7  -6    2.20    0.08
  -5   7   6    2.54    0.11
   4  -7  -6   13.27    0.45
  -4   7   6   13.26    0.32
   3  -7  -6    3.96    0.19
  -3   7   6    4.06    0.09
  -2   7   6   31.07    0.50
  -1   7   6    7.19    0.15
   0   7   6   36.26    0.52
   1   7   6    3.12    0.09
   2   7   6   29.58    0.43
   3   7   6   17.83    0.28
   4   7   6    4.05    0.10
   5   7   6    5.61    0.12
   6   7   6    0.10    0.04
   7   7   6    1.48    0.06
   8   7   6    0.37    0.04
   4  -8  -6   10.28    0.34
  -4   8   6   10.44    0.35
   3  -8  -6    2.11    0.12
  -3   8   6    2.13    0.07
  -2   8   6    1.29    0.05
  -1   8   6    5.03    0.11
   0   8   6    0.06    0.03
   1   8   6   22.06    0.37
   2   8   6   22.89    0.38
   3   8   6   27.34    0.40
   4   8   6    0.23    0.04
   5   8   6    0.25    0.04
   6   8   6    5.80    0.11
   7   8   6    0.48    0.04
  -3   9   6    2.54    0.08
   2  -9  -6    3.45    0.15
  -2   9   6    3.66    0.08
  -1   9   6    4.15    0.09
   0   9   6    0.79    0.05
   1   9   6   17.31    0.29
   2   9   6    8.29    0.15
   3   9   6    5.88    0.12
   4   9   6    4.46    0.11
   5   9   6    5.66    0.12
   6   9   6    0.93    0.05
  -1  10   6    0.37    0.03
   0  10   6    0.94    0.04
   1  10   6    0.20    0.03
   2  10   6    0.32    0.04
   3  10   6   11.01    0.21
   4  10   6    2.60    0.08
   1   7  -7    0.03    0.03
   0   7  -7    3.98    0.09
  -1   7  -7    5.92    0.12
  -2   7  -7    7.39    0.15
  -3   7  -7    0.14    0.02
  -4   7  -7    0.73    0.04
   3   6  -7    0.57    0.03
  -3  -6   7    0.59    0.09
   2   6  -7   10.66    0.20
   1   6  -7    3.86    0.08
   0   6  -7    0.28    0.03
  -1   6  -7   10.99    0.19
  -2   6  -7    4.42    0.10
  -3   6  -7    1.35    0.06
  -4   6  -7    2.11    0.07
   4  -6   7    1.83    0.13
  -5   6  -7    1.85    0.07
   5  -6   7    1.98    0.11
  -6   6  -7    0.45    0.06
   6  -6   7    0.47    0.06
   4   5  -7    2.69    0.07
   3   5  -7    0.37    0.04
   2   5  -7   25.08    0.46
   1   5  -7    8.81    0.16
  -1  -5   7    8.64    0.33
   0   5  -7    1.99    0.07
  -1   5  -7   15.84    0.27
  -2   5  -7    0.10    0.03
  -3   5  -7    1.86    0.07
   3  -5   7    2.03    0.18
  -4   5  -7   12.64    0.22
   4  -5   7   12.17    0.44
  -5   5  -7   10.63    0.22
   5  -5   7   10.87    0.38
  -6   5  -7    4.54    0.13
   6  -5   7    4.39    0.18
  -7   5  -7   11.75    0.38
   7  -5   7   11.58    0.39
   5   4  -7   14.35    0.32
   4   4  -7    0.16    0.03
  -4  -4   7    0.21    0.05
   3   4  -7    4.05    0.09
   2   4  -7   10.59    0.17
   1   4  -7   29.14    0.47
   0   4  -7   90.79    1.39
  -1   4  -7    2.86    0.09
  -2   4  -7    1.99    0.08
  -3   4  -7    0.23    0.04
   3  -4   7    0.55    0.14
  -4   4  -7   41.95    0.66
   4  -4   7   42.76    1.36
  -5   4  -7    9.91    0.21
   5  -4   7   10.47    0.38
  -6   4  -7   11.10    0.28
   6  -4   7   11.19    0.40
  -7   4  -7    0.02    0.04
   7  -4   7    0.06    0.04
  -8   4  -7    3.51    0.14
   8  -4   7    3.40    0.14
   5   3  -7    1.30    0.05
  -5  -3   7    1.39    0.10
   4   3  -7    5.64    0.11
  -4  -3   7    5.44    0.23
   3   3  -7    0.18    0.04
   2   3  -7    1.45    0.07
   1   3  -7   50.00    0.70
  -1  -3   7   49.95    1.57
   0   3  -7  120.12    1.63
  -1   3  -7   20.68    0.35
  -2   3  -7    4.12    0.11
  -3   3  -7    1.00    0.07
   3  -3   7    1.14    0.15
  -4   3  -7    0.08    0.04
   4  -3   7    0.19    0.07
  -5   3  -7    0.48    0.07
   5  -3   7    0.36    0.08
  -6   3  -7    0.89    0.09
   6  -3   7    1.09    0.11
  -7   3  -7    2.12    0.13
   7  -3   7    2.10    0.13
  -8   3  -7    0.04    0.04
   8  -3   7    0.02    0.04
  -9   3  -7   12.13    0.39
   9  -3   7   11.91    0.40
   6   2  -7    0.05    0.04
  -6  -2   7    0.04    0.04
   5   2  -7    0.02    0.04
  -5  -2   7    0.10    0.06
   4   2  -7   21.14    0.34
  -4  -2   7   20.76    0.70
   3   2  -7    0.55    0.06
   2   2  -7    0.03    0.04
   1   2  -7    0.71    0.06
  -1  -2   7    0.84    0.15
   0   2  -7    6.80    0.14
  -1   2  -7  162.25    2.19
  -2   2  -7   20.37    0.34
  -3   2  -7   87.58    1.55
   3  -2   7   86.63    2.75
  -4   2  -7   56.28    1.24
   4  -2   7   55.81    1.80
  -5   2  -7   75.54    1.65
   5  -2   7   76.15    2.40
  -6   2  -7   15.50    0.38
   6  -2   7   15.01    0.54
  -7   2  -7    3.27    0.13
   7  -2   7    3.39    0.17
  -8   2  -7    5.57    0.16
   8  -2   7    5.58    0.23
  -9   2  -7   13.56    0.44
   9  -2   7   13.16    0.45
   6   1  -7    7.83    0.27
  -6  -1   7    7.74    0.19
   5   1  -7   28.09    0.64
  -5  -1   7   28.62    0.91
   4   1  -7   28.18    0.53
  -4  -1   7   29.40    0.94
   3   1  -7    0.10    0.04
   2   1  -7    3.73    0.11
  -2  -1   7    3.41    0.28
   1   1  -7   11.33    0.19
  -1  -1   7   11.90    0.43
   0   1  -7    0.22    0.05
  -1   1  -7   51.00    0.75
  -2   1  -7    2.33    0.09
   2  -1   7    2.31    0.22
  -3   1  -7   83.72    1.50
   3  -1   7   86.64    2.67
  -4   1  -7    5.26    0.18
   4  -1   7    5.19    0.24
  -5   1  -7   12.09    0.31
   5  -1   7   11.62    0.44
  -6   1  -7    0.52    0.09
   6  -1   7    0.40    0.10
  -7   1  -7   15.00    0.36
   7  -1   7   14.18    0.36
  -8   1  -7    4.91    0.15
   8  -1   7    4.96    0.15
  -9   1  -7    0.80    0.07
   9  -1   7    0.90    0.06
 -10   1  -7    6.37    0.22
   6   0  -7    2.37    0.09
  -6   0   7    2.52    0.09
   5   0  -7    0.58    0.07
  -5   0   7    0.66    0.10
   4   0  -7    5.29    0.14
  -4   0   7    5.47    0.24
   3   0  -7    3.33    0.10
   2   0  -7    7.30    0.18
  -2   0   7    7.03    0.32
   1   0  -7    6.14    0.16
  -1   0   7    5.89    0.28
   0   0  -7   16.87    0.37
   0   0   7   17.07    0.58
  -1   0  -7    0.65    0.07
   1   0   7    0.61    0.13
  -2   0  -7   86.32    1.63
   2   0   7   80.66    2.69
  -3   0  -7  123.42    2.34
   3   0   7  126.59    3.90
  -4   0  -7   17.00    0.41
   4   0   7   16.19    0.59
  -5   0  -7    1.59    0.11
   5   0   7    1.65    0.10
  -6   0  -7    4.21    0.15
   6   0   7    4.07    0.16
  -7   0  -7    2.69    0.12
   7   0   7    2.57    0.12
  -8   0  -7    2.55    0.15
   8   0   7    2.39    0.11
  -9   0  -7    7.86    0.20
   9   0   7    8.13    0.21
 -10   0  -7    1.55    0.09
  10   0   7    1.54    0.09
   6  -1  -7    1.17    0.06
  -6   1   7    1.26    0.06
   5  -1  -7   13.98    0.34
  -5   1   7   14.06    0.34
   4  -1  -7   18.15    0.44
  -4   1   7   18.13    0.62
   3  -1  -7    2.65    0.12
  -3   1   7    2.73    0.18
   2  -1  -7    6.77    0.15
  -2   1   7    5.86    0.29
   1  -1  -7   24.50    0.57
  -1   1   7   23.45    0.80
   0  -1  -7    6.37    0.18
   0   1   7    6.46    0.28
  -1  -1  -7    0.00    0.21
   1   1   7    0.02    0.08
  -2  -1  -7    0.38    0.12
   2   1   7    0.35    0.07
  -3  -1  -7   58.97    1.43
   3   1   7   56.77    1.29
  -4  -1  -7   52.29    1.46
   4   1   7   52.99    1.31
  -5  -1  -7   11.51    0.45
   5   1   7   12.32    0.23
  -6  -1  -7   25.81    0.85
   6   1   7   26.13    0.50
  -7  -1  -7    6.50    0.27
   7   1   7    6.60    0.20
  -8  -1  -7    0.00    0.06
   8   1   7    0.22    0.07
  -9  -1  -7   14.34    0.34
   9   1   7   14.37    0.34
 -10  -1  -7    0.04    0.04
  10   1   7    0.05    0.04
   6  -2  -7    0.21    0.05
  -6   2   7    0.14    0.04
   5  -2  -7   27.54    0.63
  -5   2   7   27.59    0.62
   4  -2  -7    8.85    0.24
  -4   2   7    8.93    0.24
   3  -2  -7    1.49    0.10
  -3   2   7    1.59    0.14
   2  -2  -7   24.99    0.62
  -2   2   7   23.53    0.62
   1  -2  -7   30.12    0.95
  -1   2   7   28.72    0.67
   0  -2  -7    0.17    0.07
   0   2   7    0.09    0.06
  -1  -2  -7   22.21    0.61
   1   2   7   21.87    0.44
  -2  -2  -7    1.08    0.14
   2   2   7    1.06    0.10
  -3  -2  -7    0.36    0.10
   3   2   7    0.40    0.06
  -4  -2  -7   70.10    2.87
   4   2   7   71.75    1.11
   5   2   7    1.81    0.08
   6   2   7   22.45    0.44
  -7  -2  -7    2.93    0.19
   7   2   7    2.75    0.10
  -8  -2  -7    1.69    0.14
   8   2   7    2.01    0.09
  -9  -2  -7    2.42    0.13
   9   2   7    2.41    0.10
 -10  -2  -7   10.14    0.34
  10   2   7   10.15    0.34
   6  -3  -7    0.13    0.05
  -6   3   7    0.05    0.04
   5  -3  -7   13.80    0.33
  -5   3   7   13.66    0.32
   4  -3  -7    5.20    0.16
  -4   3   7    4.98    0.16
   3  -3  -7    0.02    0.06
  -3   3   7    0.03    0.06
   2  -3  -7   56.62    1.75
  -2   3   7   55.23    1.24
   1  -3  -7    8.58    0.34
  -1   3   7    8.47    0.24
   0  -3  -7    0.22    0.31
   0   3   7    0.66    0.08
  -1  -3  -7    0.27    0.19
   1   3   7    0.27    0.06
  -2  -3  -7    0.27    0.11
   2   3   7    0.24    0.06
  -3  -3  -7    1.40    0.24
   3   3   7    1.32    0.07
  -4  -3  -7   25.54    1.28
   4   3   7   27.39    0.45
   5   3   7    2.27    0.08
   6   3   7   18.81    0.32
   7   3   7   10.41    0.20
   8   3   7    4.88    0.11
   9   3   7    0.13    0.04
 -10  -3  -7    4.18    0.15
  10   3   7    3.80    0.15
   6  -4  -7    7.83    0.27
  -6   4   7    7.59    0.27
   5  -4  -7    3.21    0.15
  -5   4   7    3.30    0.15
   4  -4  -7    3.49    0.13
  -4   4   7    3.66    0.18
   3  -4  -7    4.43    0.15
  -3   4   7    4.33    0.16
   2  -4  -7   63.31    1.95
  -2   4   7   62.15    1.39
   1  -4  -7   57.81    1.80
  -1   4   7   57.54    1.28
   0   4   7    9.61    0.17
  -1  -4  -7    3.45    0.42
   1   4   7    4.09    0.10
  -2  -4  -7   44.07    1.96
   2   4   7   47.11    0.66
  -3  -4  -7   24.02    1.25
   3   4   7   26.27    0.39
   4   4   7   74.46    1.04
   5   4   7   16.57    0.29
   6   4   7   18.68    0.32
   7   4   7    9.16    0.18
   8   4   7    3.60    0.09
   9   4   7    0.54    0.05
   5  -5  -7    3.87    0.17
  -5   5   7    3.89    0.16
   4  -5  -7    0.68    0.09
  -4   5   7    0.82    0.09
   3  -5  -7    0.34    0.08
  -3   5   7    0.36    0.06
   2  -5  -7   17.63    0.60
  -2   5   7   17.33    0.35
   1  -5  -7   15.66    0.55
  -1   5   7   15.44    0.28
   0   5   7   16.02    0.25
   1   5   7   10.65    0.21
   2   5   7    0.21    0.04
   3   5   7   18.52    0.32
   4   5   7    2.35    0.08
   5   5   7    8.91    0.18
   6   5   7    7.15    0.15
   7   5   7   24.82    0.41
   8   5   7    1.06    0.05
   9   5   7    0.41    0.04
   5  -6  -7    0.99    0.07
  -5   6   7    1.07    0.07
   4  -6  -7    0.99    0.09
  -4   6   7    1.06    0.09
   3  -6  -7    3.57    0.18
  -3   6   7    3.51    0.12
  -2   6   7   14.38    0.26
   1  -6  -7    4.85    0.24
  -1   6   7    4.88    0.12
   0  -6  -7   18.70    0.62
   0   6   7   17.96    0.28
   1   6   7   97.80    1.52
   2   6   7    5.91    0.14
   3   6   7    7.41    0.14
   4   6   7   11.66    0.19
   5   6   7    3.00    0.09
   6   6   7    0.39    0.04
   7   6   7   15.62    0.27
   8   6   7    0.13    0.03
  -9  -6  -7    2.78    0.12
   9   6   7    2.72    0.07
   4  -7  -7    0.28    0.06
  -4   7   7    0.35    0.06
   3  -7  -7   17.19    0.58
  -3   7   7   17.55    0.40
  -2   7   7    2.64    0.08
  -1   7   7    0.05    0.03
   0  -7  -7    3.47    0.21
   0   7   7    3.37    0.08
   1   7   7   47.50    0.76
   2   7   7    7.53    0.16
   3   7   7    1.03    0.06
   4   7   7    3.36    0.08
   5   7   7   11.22    0.20
   6   7   7    4.73    0.10
   7   7   7   11.97    0.20
  -8  -7  -7    3.79    0.17
   8   7   7    4.13    0.09
   3  -8  -7    6.76    0.24
  -3   8   7    6.67    0.17
   2  -8  -7    6.65    0.26
  -2   8   7    6.91    0.13
  -1   8   7    6.93    0.13
   0   8   7    0.01    0.03
   1   8   7    4.77    0.11
   2   8   7   42.32    0.67
   3   8   7    8.60    0.16
   4   8   7    0.20    0.03
   5   8   7    1.77    0.06
   6   8   7    0.72    0.04
   7   8   7   27.59    0.50
   2  -9  -7    6.47    0.23
  -2   9   7    6.63    0.22
  -1   9   7    0.03    0.02
   0   9   7    8.46    0.17
   1   9   7    4.21    0.10
   2   9   7   11.91    0.20
   3   9   7   10.53    0.18
   4   9   7   11.76    0.23
   5   9   7    0.43    0.04
   1  10   7   10.20    0.19
   2  10   7    0.01    0.02
   3  10   7   19.75    0.44
   1   6  -8   12.20    0.22
   0   6  -8    1.12    0.05
  -1   6  -8    0.05    0.02
   1  -6   8    0.12    0.05
  -2   6  -8    0.01    0.02
  -3   6  -8    2.89    0.07
  -4   6  -8    9.10    0.18
  -5   6  -8   13.86    0.43
   5  -6   8   13.33    0.43
   2   5  -8    0.54    0.04
   1   5  -8   16.71    0.31
   0   5  -8    9.66    0.17
   0  -5   8    9.17    0.33
  -1   5  -8    0.82    0.05
  -2   5  -8    1.34    0.05
  -3   5  -8    1.18    0.05
  -4   5  -8   11.57    0.20
  -5   5  -8    8.27    0.29
   5  -5   8    8.21    0.29
  -6   5  -8    0.61    0.06
   6  -5   8    0.63    0.05
   3   4  -8    9.39    0.16
  -3  -4   8    9.07    0.32
   2   4  -8    0.02    0.03
   1   4  -8   20.07    0.38
   0   4  -8   17.16    0.29
   0  -4   8   17.72    0.58
  -1   4  -8    1.97    0.07
  -2   4  -8    3.30    0.09
  -3   4  -8    3.49    0.09
  -4   4  -8    0.35    0.04
   4  -4   8    0.27    0.07
  -5   4  -8   36.14    0.80
   5  -4   8   36.82    1.17
  -6   4  -8    6.54    0.25
   6  -4   8    6.83    0.26
  -7   4  -8    7.75    0.27
   7  -4   8    7.51    0.27
   4   3  -8    0.07    0.03
  -4  -3   8    0.03    0.05
   3   3  -8    0.52    0.04
   2   3  -8    3.19    0.08
   1   3  -8   68.91    1.04
  -1  -3   8   65.56    2.10
   0   3  -8    5.61    0.11
   0  -3   8    5.74    0.25
  -1   3  -8    4.83    0.11
  -2   3  -8   87.36    1.33
  -3   3  -8    2.57    0.08
   3  -3   8    2.66    0.19
  -4   3  -8   19.22    0.38
   4  -3   8   19.80    0.66
  -5   3  -8   12.22    0.31
   5  -3   8   12.10    0.44
  -6   3  -8    6.07    0.17
   6  -3   8    6.04    0.25
  -7   3  -8   10.45    0.36
   7  -3   8   10.34    0.37
  -8   3  -8   11.70    0.38
   8  -3   8   11.52    0.39
   5   2  -8    1.79    0.09
  -5  -2   8    1.80    0.09
   4   2  -8    1.39    0.07
  -4  -2   8    1.44    0.10
   3   2  -8    0.08    0.03
   2   2  -8    2.74    0.08
   1   2  -8    5.48    0.12
  -1  -2   8    5.23    0.25
   0   2  -8   11.74    0.19
   0  -2   8   11.47    0.43
  -1   2  -8    0.29    0.04
  -2   2  -8   96.09    1.71
  -3   2  -8   24.13    0.46
   3  -2   8   23.71    0.81
  -4   2  -8   11.74    0.31
   4  -2   8   12.37    0.45
  -5   2  -8    0.02    0.05
   5  -2   8    0.03    0.06
  -6   2  -8    2.56    0.11
   6  -2   8    2.48    0.11
  -7   2  -8   27.38    0.61
   7  -2   8   26.29    0.89
  -8   2  -8   13.10    0.31
   8  -2   8   12.97    0.45
  -9   2  -8    0.86    0.07
   9  -2   8    0.74    0.07
   5   1  -8    0.22    0.06
  -5  -1   8    0.15    0.04
   4   1  -8    2.93    0.11
  -4  -1   8    2.96    0.15
   3   1  -8    0.12    0.04
  -3  -1   8    0.14    0.06
   2   1  -8   40.24    0.73
   1   1  -8    2.65    0.10
  -1  -1   8    2.52    0.18
   0   1  -8   19.58    0.33
   0  -1   8   19.75    0.67
  -1   1  -8    1.89    0.08
   1  -1   8    1.70    0.15
  -2   1  -8   49.70    0.78
  -3   1  -8   14.34    0.30
   3  -1   8   14.76    0.53
  -4   1  -8   37.02    0.84
   4  -1   8   38.09    1.22
  -5   1  -8    5.48    0.18
   5  -1   8    5.71    0.25
  -6   1  -8    1.47    0.10
   6  -1   8    1.49    0.09
  -7   1  -8    7.62    0.21
   7  -1   8    7.80    0.30
  -8   1  -8    5.63    0.16
   8  -1   8    5.66    0.23
  -9   1  -8    3.17    0.13
   9  -1   8    3.08    0.14
   5   0  -8    2.96    0.13
  -5   0   8    3.04    0.10
   4   0  -8    3.36    0.16
  -4   0   8    3.56    0.17
   3   0  -8    0.21    0.06
  -3   0   8    0.37    0.10
   2   0  -8   11.92    0.25
  -2   0   8   11.82    0.44
   1   0  -8    0.92    0.09
  -1   0   8    0.56    0.14
   0   0  -8    1.36    0.10
   0   0   8    1.32    0.15
  -1   0  -8    6.15    0.19
   1   0   8    6.30    0.27
  -2   0  -8   12.39    0.33
   2   0   8   13.38    0.35
  -3   0  -8   64.75    1.43
   3   0   8   65.25    1.45
  -4   0  -8   29.20    0.68
   4   0   8   29.76    0.69
  -5   0  -8    2.06    0.11
   5   0   8    1.92    0.11
  -6   0  -8    4.21    0.15
   6   0   8    4.11    0.15
  -7   0  -8    6.42    0.19
   7   0   8    6.15    0.27
  -8   0  -8   52.00    1.13
   8   0   8   51.96    1.15
  -9   0  -8    0.48    0.05
   9   0   8    0.51    0.07
   5  -1  -8    1.07    0.07
  -5   1   8    1.05    0.06
   4  -1  -8    0.32    0.06
  -4   1   8    0.24    0.05
   3  -1  -8    0.35    0.06
  -3   1   8    0.28    0.07
   2  -1  -8   10.36    0.28
  -2   1   8   10.38    0.28
   1  -1  -8   30.08    0.70
  -1   1   8   30.84    0.99
   0  -1  -8    8.67    0.25
   0   1   8    8.92    0.35
  -1  -1  -8    4.19    0.16
   1   1   8    4.44    0.22
  -2  -1  -8    6.75    0.28
   2   1   8    5.75    0.20
  -3  -1  -8   15.73    0.56
   3   1   8   15.88    0.40
  -4  -1  -8   22.06    0.77
   4   1   8   21.61    0.76
  -5  -1  -8   74.88    2.34
   5   1   8   75.74    1.67
  -6  -1  -8   63.09    1.37
   6   1   8   62.50    1.13
  -7  -1  -8   13.27    0.33
   7   1   8   13.23    0.34
  -8  -1  -8   13.79    0.33
   8   1   8   13.71    0.34
  -9  -1  -8    1.90    0.08
   9   1   8    1.83    0.08
   5  -2  -8    0.22    0.05
  -5   2   8    0.06    0.05
   4  -2  -8    2.01    0.09
  -4   2   8    1.93    0.13
   3  -2  -8    5.74    0.18
  -3   2   8    5.62    0.28
   2  -2  -8    0.17    0.07
  -2   2   8    0.05    0.10
   1  -2  -8    7.33    0.22
  -1   2   8    7.36    0.22
   0  -2  -8    1.97    0.12
   0   2   8    1.79    0.11
  -1  -2  -8   34.32    0.79
   1   2   8   35.06    0.79
  -2  -2  -8    7.48    0.32
   2   2   8    7.46    0.33
  -3  -2  -8    9.26    0.37
   3   2   8    9.86    0.27
  -4  -2  -8    9.95    0.38
   4   2   8    9.60    0.27
  -5  -2  -8   57.88    1.83
   5   2   8   58.57    0.92
   6   2   8    1.54    0.09
   7   2   8   13.29    0.27
  -8  -2  -8   11.24    0.40
   8   2   8   11.22    0.28
  -9  -2  -8   19.70    0.64
   9   2   8   20.24    0.46
   5  -3  -8    0.21    0.05
  -5   3   8    0.10    0.04
   4  -3  -8   34.12    0.76
  -4   3   8   34.18    1.09
   3  -3  -8   20.71    0.48
  -3   3   8   19.87    0.69
   2  -3  -8    3.17    0.13
  -2   3   8    3.30    0.13
   1  -3  -8    6.48    0.27
  -1   3   8    6.17    0.19
   0  -3  -8    0.11    0.09
   0   3   8    0.15    0.06
   1   3   8   36.85    0.60
  -2  -3  -8   18.69    0.62
   2   3   8   17.55    0.36
  -3  -3  -8   18.14    0.64
   3   3   8   18.55    0.37
  -4  -3  -8   12.10    0.45
   4   3   8   12.08    0.20
   5   3   8    0.93    0.06
   6   3   8   60.05    0.94
   7   3   8   14.90    0.30
   8   3   8    2.79    0.09
  -9  -3  -8    1.92    0.11
   9   3   8    2.07    0.08
   5  -4  -8    0.20    0.05
   4  -4  -8    5.36    0.15
  -4   4   8    5.31    0.22
   3  -4  -8    5.71    0.17
  -3   4   8    5.62    0.17
   2  -4  -8    9.90    0.27
  -2   4   8    9.95    0.26
   1  -4  -8    0.00    0.08
  -1   4   8    0.19    0.05
   0  -4  -8    0.07    0.09
   0   4   8    0.13    0.05
   1   4   8    5.98    0.14
   2   4   8   16.93    0.30
  -3  -4  -8    8.85    0.36
   3   4   8    8.79    0.18
  -4  -4  -8    3.75    0.21
   4   4   8    3.37    0.09
   5   4   8    0.64    0.06
   6   4   8   25.16    0.48
   7   4   8    0.53    0.05
   8   4   8    0.93    0.05
  -9  -4  -8    1.10    0.08
   9   4   8    1.17    0.06
   5  -5  -8    2.24    0.10
  -5   5   8    2.05    0.10
   4  -5  -8    3.12    0.14
  -4   5   8    2.89    0.14
   3  -5  -8   27.08    0.62
  -3   5   8   27.15    0.62
   2  -5  -8    2.32    0.16
  -2   5   8    2.26    0.10
   1  -5  -8    0.16    0.09
  -1   5   8    0.23    0.05
   0  -5  -8    0.81    0.13
   0   5   8    0.77    0.06
   1   5   8    0.16    0.04
   2   5   8   17.76    0.31
   3   5   8    0.71    0.06
  -4  -5  -8   11.53    0.44
   4   5   8   11.92    0.20
   5   5   8   19.00    0.29
   6   5   8    4.16    0.10
   7   5   8    5.90    0.12
   8   5   8    8.19    0.15
  -9  -5  -8    0.81    0.07
   9   5   8    0.70    0.07
   4  -6  -8   18.55    0.64
  -4   6   8   21.13    0.64
   3  -6  -8    0.64    0.08
  -3   6   8    0.65    0.06
  -2   6   8    0.19    0.04
   1  -6  -8    2.97    0.17
  -1   6   8    2.95    0.09
   0  -6  -8    1.76    0.15
   0   6   8    1.49    0.07
   1   6   8    0.78    0.06
   2   6   8   36.81    0.60
   3   6   8   16.61    0.29
   4   6   8    0.60    0.05
  -5  -6  -8    1.15    0.15
   5   6   8    1.01    0.06
   6   6   8    7.14    0.14
   7   6   8    3.42    0.08
  -8  -6  -8    1.67    0.10
   8   6   8    1.62    0.05
   3  -7  -8    0.39    0.06
  -3   7   8    0.47    0.05
   2  -7  -8    5.40    0.22
  -2   7   8    5.51    0.15
  -1   7   8    4.74    0.10
   0  -7  -8    0.33    0.10
   0   7   8    0.21    0.03
  -1  -7  -8    4.64    0.22
   1   7   8    4.99    0.11
   2   7   8    6.19    0.13
   3   7   8    7.77    0.15
   4   7   8    1.44    0.06
   5   7   8   17.84    0.30
   6   7   8    7.66    0.14
   7   7   8    0.33    0.03
   2  -8  -8    2.17    0.11
  -2   8   8    2.28    0.08
  -1   8   8    6.32    0.12
   0   8   8    0.78    0.05
   1   8   8    2.80    0.07
  -2  -8  -8    3.95    0.18
   2   8   8    4.00    0.09
   3   8   8    0.32    0.04
   4   8   8    1.25    0.06
   5   8   8   37.12    0.67
   6   8   8   12.75    0.24
   0   9   8    5.74    0.12
   1   9   8    0.34    0.03
   2   9   8   11.83    0.23
   3   9   8    0.48    0.03
   4   9   8    0.23    0.03
   5   9   8    3.86    0.08
   0   5  -9    0.76    0.05
  -1   5  -9    0.26    0.04
   1  -5   9    0.14    0.05
  -2   5  -9   10.51    0.24
   2  -5   9   10.13    0.35
  -3   5  -9    6.50    0.16
   3  -5   9    6.57    0.23
  -4   5  -9    0.85    0.07
   4  -5   9    0.88    0.07
  -5   5  -9    5.62    0.19
   5  -5   9    5.26    0.19
   2   4  -9    9.41    0.32
  -2  -4   9    9.88    0.32
   1   4  -9    0.67    0.05
   0   4  -9    0.77    0.05
   0  -4   9    0.90    0.09
  -1   4  -9    4.03    0.10
   1  -4   9    4.33    0.18
  -2   4  -9    3.65    0.10
   2  -4   9    3.67    0.16
  -3   4  -9    5.20    0.12
   3  -4   9    5.07    0.21
  -4   4  -9    0.18    0.04
   4  -4   9    0.16    0.05
  -5   4  -9    9.39    0.23
   5  -4   9    9.53    0.23
  -6   4  -9    0.63    0.07
   6  -4   9    0.88    0.06
   3   3  -9    5.83    0.20
  -3  -3   9    5.72    0.21
   2   3  -9    9.16    0.18
   1   3  -9    3.56    0.08
   0   3  -9    0.03    0.04
   0  -3   9    0.00    0.06
  -1   3  -9   16.01    0.31
   1  -3   9   15.72    0.54
  -2   3  -9    6.37    0.15
   2  -3   9    6.66    0.26
  -3   3  -9   43.60    0.79
  -4   3  -9    1.21    0.08
   4  -3   9    0.94    0.14
  -5   3  -9    1.18    0.07
   5  -3   9    1.24    0.07
  -6   3  -9   10.68    0.26
   6  -3   9   10.83    0.26
  -7   3  -9    3.98    0.16
   7  -3   9    4.14    0.16
   3   2  -9   25.10    0.56
  -3  -2   9   25.49    0.81
   2   2  -9    0.34    0.05
   1   2  -9    1.82    0.07
  -1  -2   9    2.07    0.15
   0   2  -9   18.58    0.31
   0  -2   9   17.61    0.61
  -1   2  -9    1.62    0.09
   1  -2   9    1.60    0.13
  -2   2  -9    2.07    0.11
   2  -2   9    2.17    0.14
  -3   2  -9    0.06    0.05
   3  -2   9    0.11    0.06
  -4   2  -9   14.90    0.36
   4  -2   9   14.30    0.36
  -5   2  -9    4.31    0.14
   5  -2   9    4.32    0.14
  -6   2  -9   12.11    0.30
   6  -2   9   12.24    0.30
  -7   2  -9    0.39    0.06
   7  -2   9    0.32    0.07
  -8   2  -9    2.30    0.11
   8  -2   9    1.93    0.10
   4   1  -9    0.12    0.05
  -4  -1   9    0.10    0.04
   3   1  -9   17.32    0.40
  -3  -1   9   17.40    0.58
   2   1  -9    0.06    0.04
  -2  -1   9    0.00    0.05
   1   1  -9    1.16    0.08
  -1  -1   9    1.48    0.14
   0   1  -9   12.90    0.33
   0  -1   9   13.10    0.46
  -1   1  -9    0.21    0.06
   1  -1   9    0.11    0.07
  -2   1  -9   13.00    0.33
   2  -1   9   13.17    0.47
  -3   1  -9    7.25    0.21
   3  -1   9    7.36    0.22
  -4   1  -9   11.12    0.29
   4  -1   9   11.50    0.30
  -5   1  -9    0.81    0.09
   5  -1   9    0.75    0.08
  -6   1  -9   16.01    0.38
   6  -1   9   15.85    0.39
  -7   1  -9    6.31    0.17
   7  -1   9    6.65    0.26
  -8   1  -9    0.53    0.05
   8  -1   9    0.51    0.07
   4   0  -9    1.99    0.10
  -4   0   9    1.89    0.10
   3   0  -9    4.81    0.20
  -3   0   9    4.79    0.20
   2   0  -9   24.40    0.56
  -2   0   9   24.26    0.80
   1   0  -9   16.90    0.41
  -1   0   9   17.11    0.41
   0   0  -9    3.52    0.14
   0   0   9    3.75    0.20
  -1   0  -9    9.60    0.26
   1   0   9    9.52    0.37
  -2   0  -9    2.90    0.13
   2   0   9    3.11    0.18
  -3   0  -9   10.46    0.28
   3   0   9   10.33    0.28
  -4   0  -9    0.03    0.06
   4   0   9    0.05    0.05
  -5   0  -9    0.08    0.05
   5   0   9    0.12    0.05
  -6   0  -9   21.64    0.50
   6   0   9   21.71    0.51
  -7   0  -9    5.59    0.16
   7   0   9    5.74    0.24
  -8   0  -9    0.09    0.04
   8   0   9    0.00    0.04
  -9   0  -9    1.24    0.09
   9   0   9    1.07    0.08
   4  -1  -9    6.14    0.22
  -4   1   9    5.86    0.22
   3  -1  -9    1.10    0.10
  -3   1   9    1.00    0.09
   2  -1  -9   23.35    0.75
  -2   1   9   22.37    0.53
   1  -1  -9    1.30    0.10
  -1   1   9    1.39    0.09
   0  -1  -9   17.01    0.42
   0   1   9   17.16    0.42
  -1  -1  -9    0.30    0.06
   1   1   9    0.47    0.07
  -2  -1  -9    0.02    0.06
   2   1   9    0.10    0.06
  -3  -1  -9    5.17    0.17
   3   1   9    5.50    0.18
  -4  -1  -9   10.55    0.28
   4   1   9   10.67    0.28
  -5  -1  -9   10.36    0.39
   5   1   9   10.51    0.28
  -6  -1  -9   38.18    1.22
   6   1   9   38.20    0.87
  -7  -1  -9   11.46    0.39
   7   1   9   10.50    0.40
  -8  -1  -9    0.28    0.07
   8   1   9    0.44    0.07
  -9  -1  -9   14.26    0.46
   9   1   9   14.47    0.47
   4  -2  -9    6.65    0.24
  -4   2   9    6.57    0.24
   3  -2  -9    3.38    0.13
  -3   2   9    3.69    0.18
   2  -2  -9    1.54    0.12
  -2   2   9    1.34    0.09
   1  -2  -9    0.10    0.07
  -1   2   9    0.02    0.05
   0  -2  -9   76.65    1.72
   0   2   9   80.93    1.73
  -1  -2  -9    0.67    0.09
   1   2   9    0.70    0.09
  -2  -2  -9    3.16    0.14
   2   2   9    3.07    0.14
  -3  -2  -9    1.56    0.16
   3   2   9    1.61    0.11
  -4  -2  -9   10.00    0.38
   4   2   9    9.99    0.27
  -5  -2  -9   44.05    1.37
   5   2   9   42.91    0.98
  -6  -2  -9    1.59    0.13
   6   2   9    1.31    0.09
  -7  -2  -9    1.25    0.11
   7   2   9    1.30    0.09
  -8  -2  -9    0.34    0.07
   8   2   9    0.38    0.06
  -9  -2  -9   35.39    1.11
   9   2   9   36.41    1.13
   4  -3  -9    0.64    0.06
  -4   3   9    0.72    0.07
   3  -3  -9    2.12    0.09
  -3   3   9    2.16    0.12
   2  -3  -9    1.22    0.08
  -2   3   9    1.33    0.08
   1  -3  -9    1.42    0.10
  -1   3   9    1.42    0.09
   0  -3  -9   16.94    0.59
   0   3   9   16.85    0.41
  -1  -3  -9   34.36    1.11
   1   3   9   34.22    0.78
  -2  -3  -9    0.21    0.12
   2   3   9    0.08    0.05
  -3  -3  -9    2.10    0.17
   3   3   9    1.90    0.11
  -4  -3  -9   19.08    0.63
   4   3   9   18.10    0.45
  -5  -3  -9   37.98    1.22
   5   3   9   38.30    0.71
  -6  -3  -9    9.74    0.36
   6   3   9    9.37    0.26
  -7  -3  -9    0.35    0.09
   7   3   9    0.42    0.07
  -8  -3  -9    0.09    0.05
   8   3   9    0.08    0.04
  -9  -3  -9   12.30    0.39
   9   3   9   11.78    0.29
   4  -4  -9    0.69    0.07
  -4   4   9    0.73    0.06
   3  -4  -9    0.15    0.04
  -3   4   9    0.07    0.04
   2  -4  -9    0.94    0.07
  -2   4   9    0.87    0.08
   1  -4  -9    1.01    0.09
  -1   4   9    1.13    0.08
   0  -4  -9    0.33    0.09
   0   4   9    0.38    0.07
  -1  -4  -9   12.84    0.46
   1   4   9   12.56    0.27
   2   4   9   33.61    0.63
  -3  -4  -9   15.86    0.57
   3   4   9   16.91    0.34
  -4  -4  -9    3.07    0.20
   4   4   9    3.52    0.10
  -5  -4  -9    0.44    0.09
   5   4   9    0.39    0.06
  -6  -4  -9   36.96    1.18
   6   4   9   37.28    0.69
  -7  -4  -9    0.06    0.06
   7   4   9    0.05    0.04
  -8  -4  -9    7.49    0.27
   8   4   9    7.38    0.19
   3  -5  -9    0.06    0.05
  -3   5   9    0.11    0.04
   2  -5  -9    3.56    0.12
  -2   5   9    3.66    0.12
   1  -5  -9    0.00    0.07
  -1   5   9    0.00    0.04
   0  -5  -9    8.06    0.31
   0   5   9    8.00    0.22
  -1  -5  -9   56.46    1.79
   1   5   9   57.50    1.28
   2   5   9   14.54    0.26
   3   5   9    0.11    0.05
  -4  -5  -9    0.05    0.12
   4   5   9    0.13    0.04
  -5  -5  -9    0.08    0.08
   5   5   9    0.09    0.04
  -6  -5  -9   13.21    0.46
   6   5   9   13.56    0.27
  -7  -5  -9    9.05    0.31
   7   5   9    8.80    0.18
  -8  -5  -9   27.33    0.87
   8   5   9   28.37    0.62
   3  -6  -9    0.09    0.04
  -3   6   9    0.04    0.04
   2  -6  -9    0.29    0.06
  -2   6   9    0.18    0.04
   1  -6  -9    2.18    0.13
  -1   6   9    2.08    0.09
   0  -6  -9    2.96    0.16
   0   6   9    3.00    0.09
  -1  -6  -9   17.54    0.61
   1   6   9   18.38    0.35
   2   6   9    0.05    0.03
   3   6   9   21.56    0.36
   4   6   9   16.53    0.28
   5   6   9    3.18    0.10
  -6  -6  -9    0.42    0.12
   6   6   9    0.44    0.05
  -7  -6  -9   11.92    0.40
   7   6   9   12.14    0.23
   2  -7  -9    0.80    0.07
  -2   7   9    0.80    0.05
   1  -7  -9    0.22    0.06
  -1   7   9    0.25    0.04
   0  -7  -9    6.18    0.24
   0   7   9    6.21    0.14
  -1  -7  -9    2.89    0.15
   1   7   9    3.09    0.09
  -2  -7  -9    0.44    0.09
   2   7   9    0.39    0.04
   3   7   9   11.22    0.20
   4   7   9   42.80    0.67
   5   7   9    0.04    0.03
   6   7   9    0.23    0.04
   7   7   9    0.28    0.04
   1  -8  -9    0.50    0.06
  -1   8   9    0.62    0.06
   0   8   9   20.37    0.37
   1   8   9    0.61    0.04
  -2  -8  -9    1.71    0.12
   2   8   9    1.62    0.06
  -3  -8  -9    5.90    0.22
   3   8   9    5.73    0.11
   4   8   9   18.21    0.34
   5   8   9    0.05    0.02
  -1   4 -10    9.04    0.29
   1  -4  10    8.40    0.32
  -2   4 -10   13.87    0.32
   2  -4  10   15.13    0.46
  -3   4 -10    3.28    0.10
   3  -4  10    3.38    0.14
  -4   4 -10    5.08    0.13
   4  -4  10    5.47    0.19
   1   3 -10    1.86    0.09
  -1  -3  10    1.79    0.09
   0   3 -10    0.12    0.04
  -1   3 -10    0.73    0.07
   1  -3  10    0.75    0.08
  -2   3 -10    0.79    0.06
   2  -3  10    0.93    0.08
  -3   3 -10    4.49    0.13
   3  -3  10    5.00    0.19
  -4   3 -10    7.97    0.20
   4  -3  10    7.73    0.28
  -5   3 -10    0.10    0.04
   5  -3  10    0.08    0.04
   6  -3  10    0.10    0.05
   2   2 -10    1.17    0.09
  -2  -2  10    0.98    0.07
   1   2 -10    2.72    0.09
  -1  -2  10    2.56    0.12
   0   2 -10    0.06    0.04
   0  -2  10    0.20    0.06
  -1   2 -10   11.51    0.41
   1  -2  10   12.16    0.41
  -2   2 -10   17.73    0.60
   2  -2  10   18.44    0.60
  -3   2 -10    1.03    0.08
   3  -2  10    0.99    0.09
  -4   2 -10    2.60    0.10
   4  -2  10    2.51    0.13
  -5   2 -10   13.94    0.33
   5  -2  10   14.25    0.33
  -6   2 -10    2.08    0.08
   6  -2  10    2.14    0.08
  -7   2 -10    2.27    0.12
   7  -2  10    2.47    0.11
   2   1 -10    0.06    0.04
  -2  -1  10    0.05    0.04
   1   1 -10    8.21    0.20
  -1  -1  10    7.87    0.29
   0   1 -10    0.83    0.07
   0  -1  10    0.88    0.07
  -1   1 -10   15.83    0.38
   1  -1  10   16.26    0.54
  -2   1 -10    0.38    0.06
   2  -1  10    0.44    0.09
  -3   1 -10    5.57    0.23
   3  -1  10    5.50    0.23
  -4   1 -10   13.77    0.48
   4  -1  10   13.99    0.34
  -5   1 -10   12.85    0.45
   5  -1  10   13.39    0.32
  -6   1 -10    0.04    0.05
   6  -1  10    0.01    0.03
  -7   1 -10    8.32    0.28
   7  -1  10    7.57    0.28
   3   0 -10    2.83    0.12
  -3   0  10    2.94    0.12
   2   0 -10    1.57    0.10
  -2   0  10    1.63    0.10
   1   0 -10    0.42    0.06
  -1   0  10    0.66    0.07
   0   0 -10    0.67    0.07
   0   0  10    0.66    0.07
  -1   0 -10    7.56    0.20
   1   0  10    7.19    0.20
  -2   0 -10    0.10    0.05
   2   0  10    0.15    0.06
  -3   0 -10    0.62    0.08
   3   0  10    0.75    0.10
  -4   0 -10   40.92    1.24
   4   0  10   38.29    0.88
  -5   0 -10   12.71    0.45
   5   0  10   12.84    0.32
  -6   0 -10    0.47    0.08
   6   0  10    0.47    0.06
  -7   0 -10    6.28    0.23
   7   0  10    6.40    0.24
  -8   0 -10    2.00    0.10
   8   0  10    2.09    0.10
   3  -1 -10    0.13    0.05
  -3   1  10    0.02    0.04
   2  -1 -10   15.69    0.51
  -2   1  10   15.03    0.51
   1  -1 -10    3.47    0.17
  -1   1  10    3.71    0.12
   0  -1 -10    5.60    0.17
   0   1  10    5.85    0.17
  -1  -1 -10    0.90    0.08
   1   1  10    0.87    0.08
  -2  -1 -10    6.53    0.19
   2   1  10    6.41    0.27
  -3  -1 -10   11.75    0.30
   3   1  10   11.54    0.30
  -4  -1 -10    9.03    0.24
   4   1  10    8.47    0.24
  -5  -1 -10   35.05    0.80
   5   1  10   36.39    0.81
  -6  -1 -10    0.00    0.05
   6   1  10    0.10    0.04
  -7  -1 -10    4.19    0.18
   7   1  10    4.25    0.18
  -8  -1 -10    6.65    0.24
   8   1  10    6.97    0.25
   3  -2 -10    0.15    0.07
  -3   2  10    0.03    0.05
   2  -2 -10    3.24    0.15
  -2   2  10    3.15    0.15
   1  -2 -10    3.32    0.16
  -1   2  10    3.53    0.12
   0  -2 -10    1.35    0.11
   0   2  10    1.36    0.08
  -1  -2 -10    0.28    0.06
   1   2  10    0.26    0.05
  -2  -2 -10    2.14    0.11
   2   2  10    2.06    0.14
  -3  -2 -10    0.57    0.07
   3   2  10    0.73    0.08
  -4  -2 -10   15.24    0.37
   4   2  10   14.68    0.37
  -5  -2 -10    4.04    0.14
   5   2  10    4.01    0.14
  -6  -2 -10    2.70    0.11
   6   2  10    2.77    0.11
  -7  -2 -10    5.11    0.20
   7   2  10    4.79    0.20
  -8  -2 -10   14.78    0.47
   8   2  10   13.91    0.48
   3  -3 -10    0.82    0.07
  -3   3  10    0.73    0.06
   2  -3 -10    5.99    0.22
  -2   3  10    5.69    0.22
   1  -3 -10    0.01    0.05
  -1   3  10    0.00    0.04
   0  -3 -10    0.59    0.10
   0   3  10    0.86    0.08
  -1  -3 -10    0.39    0.10
   1   3  10    0.55    0.07
  -2  -3 -10    1.51    0.10
   2   3  10    1.38    0.10
  -3  -3 -10    3.41    0.13
   3   3  10    3.30    0.13
  -4  -3 -10   52.83    1.69
   4   3  10   55.30    1.22
  -5  -3 -10    1.37    0.12
   5   3  10    1.45    0.08
  -6  -3 -10    9.29    0.33
   6   3  10    9.00    0.34
  -7  -3 -10   17.32    0.40
   7   3  10   18.00    0.59
  -8  -3 -10    1.47    0.09
   8   3  10    1.51    0.09
  -3   4  10    6.26    0.22
   2  -4 -10    2.02    0.08
  -2   4  10    2.02    0.08
   1  -4 -10    8.95    0.23
  -1   4  10    9.36    0.23
   0  -4 -10    7.49    0.21
   0   4  10    8.04    0.21
  -1  -4 -10    1.04    0.11
   1   4  10    1.09    0.11
  -2  -4 -10    0.27    0.08
   2   4  10    0.19    0.05
  -3  -4 -10    6.80    0.27
   3   4  10    6.70    0.20
  -4  -4 -10    9.53    0.36
   4   4  10    9.93    0.26
  -5  -4 -10   13.74    0.47
   5   4  10   13.84    0.34
  -6  -4 -10    0.02    0.06
   6   4  10    0.08    0.05
  -7  -4 -10   44.26    1.35
   7   4  10   43.53    1.39
  -8  -4 -10    0.52    0.06
   8   4  10    0.47    0.06
   2  -5 -10    0.18    0.05
  -2   5  10    0.04    0.04
   1  -5 -10   20.99    0.48
  -1   5  10   21.09    0.48
   0  -5 -10    1.88    0.09
   0   5  10    1.95    0.09
  -1  -5 -10    0.15    0.06
   1   5  10    0.12    0.05
  -2  -5 -10    0.63    0.10
   2   5  10    0.66    0.07
   3   5  10   17.27    0.34
   4   5  10    0.62    0.06
  -5  -5 -10   22.89    0.74
   5   5  10   23.06    0.37
  -6  -5 -10    0.68    0.10
   6   5  10    0.56    0.06
  -7  -5 -10    7.07    0.25
   7   5  10    7.09    0.18
   1  -6 -10    9.31    0.22
  -1   6  10    9.15    0.22
   0  -6 -10    4.09    0.12
   0   6  10    4.21    0.17
  -1  -6 -10    5.46    0.22
   1   6  10    5.81    0.17
  -2  -6 -10    7.13    0.27
   2   6  10    6.98    0.19
  -3  -6 -10   28.30    0.94
   3   6  10   30.12    0.55
   4   6  10    4.88    0.10
   5   6  10    0.03    0.03
   6   6  10    3.45    0.09
   7   6  10   16.22    0.53
   0  -7 -10    1.26    0.08
   0   7  10    1.32    0.08
  -1  -7 -10    1.48    0.10
   1   7  10    1.25    0.08
  -2  -7 -10    8.48    0.29
   2   7  10    8.50    0.21
  -3  -7 -10    3.88    0.16
   3   7  10    4.06    0.10
  -4  -7 -10    3.30    0.14
   4   7  10    3.09    0.07
   5   7  10    0.99    0.05
   2   8  10    7.04    0.24
   3   8  10    0.09    0.04
  -1   2 -11    7.42    0.25
   1  -2  11    7.39    0.25
  -2   2 -11    0.16    0.04
   2  -2  11    0.11    0.04
  -3   2 -11    1.01    0.07
   3  -2  11    1.17    0.08
  -4   2 -11   10.90    0.34
   4  -2  11    9.70    0.34
  -5   2 -11    1.39    0.08
   5  -2  11    1.32    0.08
   0   1 -11    2.28    0.11
   0  -1  11    2.23    0.11
  -1   1 -11    0.13    0.05
   1  -1  11    0.20    0.04
  -2   1 -11    2.21    0.11
   2  -1  11    2.24    0.11
  -3   1 -11   22.79    0.75
   3  -1  11   24.43    0.75
  -4   1 -11    2.19    0.11
   4  -1  11    1.97    0.11
  -5   1 -11    4.55    0.18
   5  -1  11    4.56    0.17
  -6   1 -11    4.69    0.17
   1   0 -11    8.67    0.29
  -1   0  11    8.95    0.30
   0   0 -11    0.11    0.04
   0   0  11    0.14    0.04
  -1   0 -11    0.66    0.06
   1   0  11    0.61    0.06
  -2   0 -11    0.54    0.06
   2   0  11    0.58    0.07
  -3   0 -11   27.16    0.87
   3   0  11   27.90    0.88
  -4   0 -11    1.27    0.09
   4   0  11    1.14    0.09
  -5   0 -11    6.49    0.24
   5   0  11    6.43    0.17
  -6   0 -11    4.52    0.18
   6   0  11    4.61    0.13
   1  -1 -11    4.91    0.18
  -1   1  11    4.83    0.18
   0  -1 -11    3.52    0.15
   0   1  11    3.38    0.11
  -1  -1 -11    0.38    0.06
   1   1  11    0.41    0.06
  -2  -1 -11    4.06    0.12
   2   1  11    4.04    0.18
  -3  -1 -11    0.74    0.07
   3   1  11    0.69    0.08
  -4  -1 -11    1.16    0.07
   4   1  11    1.14    0.09
  -5  -1 -11    0.88    0.08
   5   1  11    0.86    0.06
  -6  -1 -11    3.33    0.14
   6   1  11    3.42    0.11
  -7  -1 -11    8.23    0.29
   7   1  11    8.81    0.29
   1  -2 -11    0.04    0.04
  -1   2  11    0.08    0.04
   0  -2 -11    2.28    0.12
   0   2  11    2.28    0.08
  -1  -2 -11    0.00    0.05
   1   2  11    0.03    0.04
  -2  -2 -11    9.92    0.25
   2   2  11    9.90    0.35
  -3  -2 -11   11.36    0.31
   3   2  11   10.23    0.44
  -4  -2 -11    3.15    0.11
   4   2  11    3.37    0.11
  -5  -2 -11    0.67    0.06
   5   2  11    0.71    0.06
  -6  -2 -11    2.35    0.12
   6   2  11    2.24    0.09
  -7  -2 -11    9.48    0.31
   7   2  11    9.04    0.32
   1  -3 -11    2.46    0.12
  -1   3  11    2.85    0.09
   0  -3 -11    0.11    0.05
   0   3  11    0.16    0.04
  -1  -3 -11    0.48    0.07
   1   3  11    0.50    0.07
  -2  -3 -11   13.34    0.46
   2   3  11   13.88    0.46
  -3  -3 -11   20.04    0.46
   3   3  11   20.04    0.65
  -4  -3 -11    0.00    0.04
   4   3  11    0.04    0.04
  -5  -3 -11    0.07    0.04
   5   3  11    0.10    0.04
  -6  -3 -11   10.44    0.25
   6   3  11   10.79    0.37
  -7  -3 -11    2.92    0.12
   7   3  11    2.96    0.13
   1  -4 -11   12.84    0.41
  -1   4  11   12.13    0.42
   0  -4 -11    2.28    0.12
   0   4  11    2.62    0.12
  -1  -4 -11    2.81    0.14
   1   4  11    3.05    0.14
  -2  -4 -11    9.05    0.32
   2   4  11    8.62    0.31
  -3  -4 -11    1.63    0.11
   3   4  11    1.51    0.08
  -4  -4 -11    5.43    0.21
   4   4  11    5.18    0.15
  -5  -4 -11    7.45    0.19
   5   4  11    7.70    0.19
  -6  -4 -11    8.66    0.21
   6   4  11    8.46    0.30
   7   4  11    1.32    0.08
   0  -5 -11    4.86    0.18
   0   5  11    4.88    0.18
  -1  -5 -11   18.62    0.59
   1   5  11   18.14    0.59
  -2  -5 -11   30.64    0.95
   2   5  11   30.11    0.95
  -3  -5 -11    4.79    0.19
   3   5  11    4.50    0.13
  -4  -5 -11    0.97    0.08
   4   5  11    1.02    0.06
  -5  -5 -11   15.28    0.50
   5   5  11   15.40    0.35
  -6  -5 -11    7.50    0.24
   6   5  11    6.60    0.25
  -1  -6 -11    8.46    0.28
   1   6  11    8.08    0.28
  -2  -6 -11    0.52    0.06
   2   6  11    0.48    0.06
  -3  -6 -11    3.96    0.16
   3   6  11    4.22    0.12
  -4  -6 -11    3.31    0.14
   4   6  11    3.47    0.10
  -5  -6 -11    4.80    0.18
   5   6  11    4.88    0.18
  -3   0 -12    2.97    0.12
   3   0  12    3.10    0.12
   2   1  12    0.63    0.07
  -3  -1 -12   16.46    0.53
   3   1  12   16.94    0.53
  -4  -1 -12    2.38    0.11
   4   1  12    2.38    0.11
  -1  -2 -12    7.25    0.24
   1   2  12    7.14    0.24
  -2  -2 -12    2.73    0.12
   2   2  12    2.91    0.15
  -3  -2 -12    2.71    0.12
   3   2  12    2.62    0.13
  -4  -2 -12    1.94    0.11
   4   2  12    1.85    0.10
  -5  -2 -12    9.44    0.29
   5   2  12    8.10    0.29
   1   3  12    3.91    0.15
  -2  -3 -12    8.24    0.28
   2   3  12    8.49    0.28
  -3  -3 -12    2.60    0.11
   3   3  12    2.41    0.11
  -4  -3 -12    0.00    0.05
   4   3  12    0.08    0.04
  -2  -4 -12    0.07    0.04
   2   4  12    0.01    0.04
  -3  -4 -12    0.46    0.06
   3   4  12    0.49    0.06
  -4  -4 -12   12.87    0.41
   4   4  12   12.91    0.41
   0   0   0    0.00    0.00
;
_shelx_hkl_checksum              41140
_shelx_res_file
;
    JTM599_0m_4.res created by SHELXL-2014/7
TITL JTM599_0m_4_a.res in P-1
REM Old TITL JTM599_0m_4 in P-1
REM SHELXT solution in P-1
REM R1 0.100,  Rweak 0.006,  Alpha 0.039,  Orientation as input
REM Formula found by SHELXT:  C17 N O3 S
CELL  1.54178   8.6760   8.7882   9.8142   78.200   73.311   86.242
ZERR    2.000   0.0003   0.0003   0.0004    0.001    0.001    0.001
LATT  1
SFAC C H N O S
UNIT 34 26 2 6 2
TEMP -123
SIZE 0.09 0.11 0.17
L.S. 5
BOND $H
LIST 4
FMAP 2
PLAN 5
CONF
MPLA C1 > C6
MPLA C10 > C15
EQIV $1 -x+2, -y+1, -z+2
HTAB O2 O1_$1
EQIV $2 -x+2, -y, -z+2
HTAB C16 O3_$2
ACTA 136
WGHT    0.043100    0.292300
FVAR       0.33578
S1    5    0.613294    0.528535    0.649914    11.00000    0.02793    0.02328 =
         0.02754   -0.00721   -0.01553    0.00799
O1    4    0.734588    0.461000    1.012978    11.00000    0.02683    0.02507 =
         0.02221   -0.00412   -0.00935    0.00023
O2    4    1.084836    0.384456    0.884027    11.00000    0.02764    0.02753 =
         0.02563   -0.00072   -0.01243   -0.00217
H2A   2    1.158529    0.417318    0.922278    11.00000    0.05594
O3    4    1.069083    0.174798    1.061815    11.00000    0.04171    0.02709 =
         0.03347   -0.00194   -0.02320    0.00416
N1    3    0.809298    0.324457    0.833373    11.00000    0.02257    0.01909 =
         0.02182   -0.00292   -0.01008    0.00352
C1    1    0.855105    0.316208    0.683587    11.00000    0.02131    0.01957 =
         0.02247   -0.00415   -0.00819   -0.00086
C2    1    0.980189    0.217909    0.627973    11.00000    0.02323    0.02373 =
         0.03057   -0.00592   -0.01039    0.00366
AFIX  43
H2    2    1.036673    0.157241    0.690251    11.00000   -1.20000
AFIX   0
C3    1    1.022512    0.208204    0.482721    11.00000    0.02593    0.02826 =
         0.03341   -0.01155   -0.00547    0.00293
AFIX  43
H3    2    1.106962    0.139993    0.446504    11.00000   -1.20000
AFIX   0
C4    1    0.942865    0.297008    0.389813    11.00000    0.03279    0.03074 =
         0.02514   -0.00892   -0.00624   -0.00199
AFIX  43
H4    2    0.971735    0.289434    0.290433    11.00000   -1.20000
AFIX   0
C5    1    0.820790    0.396886    0.443278    11.00000    0.03076    0.02609 =
         0.02438   -0.00363   -0.01157   -0.00065
AFIX  43
H5    2    0.767139    0.459635    0.379703    11.00000   -1.20000
AFIX   0
C6    1    0.775884    0.406243    0.589414    11.00000    0.02297    0.01896 =
         0.02460   -0.00396   -0.00914    0.00014
C7    1    0.660200    0.573110    0.799366    11.00000    0.01832    0.02048 =
         0.02364   -0.00314   -0.00732    0.00090
C8    1    0.737707    0.451554    0.888113    11.00000    0.01869    0.02001 =
         0.02253   -0.00320   -0.00721   -0.00065
C9    1    0.618080    0.707407    0.846384    11.00000    0.02008    0.02296 =
         0.02724   -0.00528   -0.00878    0.00160
AFIX  43
H9    2    0.647122    0.715044    0.930983    11.00000   -1.20000
AFIX   0
C10   1    0.534399    0.843501    0.787190    11.00000    0.01973    0.02070 =
         0.02652   -0.00459   -0.00460    0.00263
C11   1    0.425713    0.839324    0.706962    11.00000    0.02638    0.02462 =
         0.02887   -0.00687   -0.00954    0.00612
AFIX  43
H11   2    0.403853    0.743405    0.686076    11.00000   -1.20000
AFIX   0
C12   1    0.349357    0.974616    0.657505    11.00000    0.02967    0.03395 =
         0.03053   -0.00384   -0.01047    0.01041
AFIX  43
H12   2    0.276498    0.970801    0.602206    11.00000   -1.20000
AFIX   0
C13   1    0.378981    1.114811    0.688447    11.00000    0.02958    0.02424 =
         0.04110    0.00347   -0.00425    0.00685
AFIX  43
H13   2    0.327750    1.207209    0.653234    11.00000   -1.20000
AFIX   0
C14   1    0.483355    1.120248    0.770768    11.00000    0.03061    0.02023 =
         0.05951   -0.00710   -0.00958    0.00045
AFIX  43
H14   2    0.502134    1.216058    0.793678    11.00000   -1.20000
AFIX   0
C15   1    0.560532    0.985800    0.819814    11.00000    0.02543    0.02567 =
         0.04726   -0.01000   -0.01251    0.00132
AFIX  43
H15   2    0.632011    0.990346    0.876246    11.00000   -1.20000
AFIX   0
C16   1    0.869629    0.207049    0.935054    11.00000    0.02589    0.01954 =
         0.02363   -0.00068   -0.01067    0.00272
AFIX  23
H16A  2    0.893619    0.110634    0.895182    11.00000   -1.20000
H16B  2    0.783218    0.183058    1.027391    11.00000   -1.20000
AFIX   0
C17   1    1.018874    0.252913    0.967372    11.00000    0.02552    0.02191 =
         0.02067   -0.00608   -0.00861    0.00606
HKLF 4
REM  JTM599_0m_4_a.res in P-1
REM R1 =  0.0321 for    2698 Fo > 4sig(Fo)  and  0.0333 for all    2816 data
REM    203 parameters refined using      0 restraints
END
WGHT      0.0431      0.2922
REM Highest difference peak  0.202,  deepest hole -0.321,  1-sigma level  0.051
Q1    1   0.9455  0.2340  0.9435  11.00000  0.05    0.20
Q2    1   0.7075  0.6443  0.5647  11.00000  0.05    0.18
Q3    1   0.7795  0.2309  1.0577  11.00000  0.05    0.17
Q4    1   0.7597  0.5715  0.5687  11.00000  0.05    0.16
Q5    1   0.3442  0.7095  0.7464  11.00000  0.05    0.14
;
_shelx_res_checksum              71407
loop_
_space_group_symop_operation_xyz
'x, y, z'
'-x, -y, -z'
loop_
_atom_site_type_symbol
_atom_site_label
_atom_site_fract_x
_atom_site_fract_y
_atom_site_fract_z
_atom_site_U_iso_or_equiv
_atom_site_adp_type
_atom_site_calc_flag
_atom_site_occupancy
S S1 0.61329(4) 0.52854(4) 0.64991(3) 0.02465(11) Uani d 1
O O1 0.73459(11) 0.46100(11) 1.01298(10) 0.0243(2) Uani d 1
O O2 1.08484(12) 0.38446(11) 0.88403(10) 0.0264(2) Uani d 1
H H2A 1.159(3) 0.417(3) 0.922(2) 0.056(6) Uiso d 1
O O3 1.06908(13) 0.17480(12) 1.06181(11) 0.0322(2) Uani d 1
N N1 0.80930(13) 0.32446(12) 0.83337(11) 0.0207(2) Uani d 1
C C1 0.85510(15) 0.31621(15) 0.68359(14) 0.0206(3) Uani d 1
C C2 0.98019(16) 0.21791(16) 0.62797(15) 0.0253(3) Uani d 1
H H2 1.0367 0.1572 0.6903 0.030 Uiso calc 1
C C3 1.02251(17) 0.20820(17) 0.48272(16) 0.0291(3) Uani d 1
H H3 1.1070 0.1400 0.4465 0.035 Uiso calc 1
C C4 0.94287(18) 0.29701(17) 0.38981(15) 0.0294(3) Uani d 1
H H4 0.9717 0.2894 0.2904 0.035 Uiso calc 1
C C5 0.82079(17) 0.39689(16) 0.44328(15) 0.0264(3) Uani d 1
H H5 0.7671 0.4596 0.3797 0.032 Uiso calc 1
C C6 0.77588(15) 0.40624(15) 0.58941(14) 0.0217(3) Uani d 1
C C7 0.66020(15) 0.57311(15) 0.79937(14) 0.0207(3) Uani d 1
C C8 0.73771(15) 0.45155(15) 0.88811(13) 0.0202(3) Uani d 1
C C9 0.61808(15) 0.70741(15) 0.84638(15) 0.0230(3) Uani d 1
H H9 0.6471 0.7150 0.9310 0.028 Uiso calc 1
C C10 0.53440(15) 0.84350(15) 0.78719(14) 0.0228(3) Uani d 1
C C11 0.42571(16) 0.83932(16) 0.70696(15) 0.0263(3) Uani d 1
H H11 0.4039 0.7434 0.6861 0.032 Uiso calc 1
C C12 0.34936(18) 0.97462(18) 0.65750(16) 0.0318(3) Uani d 1
H H12 0.2765 0.9708 0.6022 0.038 Uiso calc 1
C C13 0.37898(18) 1.11481(17) 0.68845(17) 0.0346(3) Uani d 1
H H13 0.3277 1.2072 0.6532 0.042 Uiso calc 1
C C14 0.48335(19) 1.12025(18) 0.7708(2) 0.0376(4) Uani d 1
H H14 0.5021 1.2161 0.7937 0.045 Uiso calc 1
C C15 0.56053(17) 0.98580(17) 0.81981(18) 0.0319(3) Uani d 1
H H15 0.6320 0.9903 0.8762 0.038 Uiso calc 1
C C16 0.86963(16) 0.20705(15) 0.93505(14) 0.0229(3) Uani d 1
H H16A 0.8936 0.1106 0.8952 0.027 Uiso calc 1
H H16B 0.7832 0.1831 1.0274 0.027 Uiso calc 1
C C17 1.01887(16) 0.25291(15) 0.96737(14) 0.0222(3) Uani d 1
loop_
_atom_site_aniso_label
_atom_site_aniso_U_11
_atom_site_aniso_U_22
_atom_site_aniso_U_33
_atom_site_aniso_U_12
_atom_site_aniso_U_13
_atom_site_aniso_U_23
S1 0.02793(18) 0.02328(18) 0.02754(18) 0.00799(12) -0.01553(13) -0.00721(12)
O1 0.0268(5) 0.0251(5) 0.0222(4) 0.0002(4) -0.0094(4) -0.0041(3)
O2 0.0276(5) 0.0275(5) 0.0256(5) -0.0022(4) -0.0124(4) -0.0007(4)
O3 0.0417(6) 0.0271(5) 0.0335(5) 0.0042(4) -0.0232(5) -0.0019(4)
N1 0.0226(5) 0.0191(5) 0.0218(5) 0.0035(4) -0.0101(4) -0.0029(4)
C1 0.0213(6) 0.0196(6) 0.0225(6) -0.0009(5) -0.0082(5) -0.0041(5)
C2 0.0232(6) 0.0237(6) 0.0306(7) 0.0037(5) -0.0104(5) -0.0059(5)
C3 0.0259(7) 0.0283(7) 0.0334(7) 0.0029(5) -0.0055(6) -0.0116(6)
C4 0.0328(7) 0.0307(7) 0.0251(7) -0.0020(6) -0.0062(6) -0.0089(5)
C5 0.0308(7) 0.0261(7) 0.0244(6) -0.0006(5) -0.0116(5) -0.0036(5)
C6 0.0230(6) 0.0190(6) 0.0246(6) 0.0001(5) -0.0091(5) -0.0040(5)
C7 0.0183(6) 0.0205(6) 0.0236(6) 0.0009(5) -0.0073(5) -0.0031(5)
C8 0.0187(6) 0.0200(6) 0.0225(6) -0.0007(5) -0.0072(5) -0.0032(5)
C9 0.0201(6) 0.0230(7) 0.0272(6) 0.0016(5) -0.0088(5) -0.0053(5)
C10 0.0197(6) 0.0207(6) 0.0265(6) 0.0026(5) -0.0046(5) -0.0046(5)
C11 0.0264(6) 0.0246(7) 0.0289(7) 0.0061(5) -0.0095(5) -0.0069(5)
C12 0.0297(7) 0.0339(8) 0.0305(7) 0.0104(6) -0.0105(6) -0.0038(6)
C13 0.0296(7) 0.0242(7) 0.0411(8) 0.0068(6) -0.0042(6) 0.0035(6)
C14 0.0306(7) 0.0202(7) 0.0595(10) 0.0005(6) -0.0096(7) -0.0071(6)
C15 0.0254(7) 0.0257(7) 0.0473(9) 0.0013(5) -0.0125(6) -0.0100(6)
C16 0.0259(6) 0.0195(6) 0.0236(6) 0.0027(5) -0.0107(5) -0.0007(5)
C17 0.0255(6) 0.0219(6) 0.0207(6) 0.0061(5) -0.0086(5) -0.0061(5)
loop_
_atom_type_symbol
_atom_type_description
_atom_type_scat_dispersion_real
_atom_type_scat_dispersion_imag
_atom_type_scat_source
C C 0.0181 0.0091 'International Tables Vol C Tables 4.2.6.8 and 6.1.1.4'
H H 0.0000 0.0000 'International Tables Vol C Tables 4.2.6.8 and 6.1.1.4'
N N 0.0311 0.0180 'International Tables Vol C Tables 4.2.6.8 and 6.1.1.4'
O O 0.0492 0.0322 'International Tables Vol C Tables 4.2.6.8 and 6.1.1.4'
S S 0.3331 0.5567 'International Tables Vol C Tables 4.2.6.8 and 6.1.1.4'
loop_
_geom_angle_atom_site_label_1
_geom_angle_atom_site_label_2
_geom_angle_atom_site_label_3
_geom_angle
C7 S1 C6 100.41(6)
C17 O2 H2A 109.4(14)
C8 N1 C1 124.44(10)
C8 N1 C16 114.83(10)
C1 N1 C16 119.46(10)
C6 C1 C2 118.67(12)
C6 C1 N1 120.63(11)
C2 C1 N1 120.71(11)
C3 C2 C1 120.52(12)
C3 C2 H2 119.7
C1 C2 H2 119.7
C4 C3 C2 120.62(13)
C4 C3 H3 119.7
C2 C3 H3 119.7
C5 C4 C3 119.30(13)
C5 C4 H4 120.4
C3 C4 H4 120.4
C4 C5 C6 120.59(13)
C4 C5 H5 119.7
C6 C5 H5 119.7
C5 C6 C1 120.28(12)
C5 C6 S1 117.61(10)
C1 C6 S1 122.06(10)
C9 C7 C8 117.37(12)
C9 C7 S1 123.59(10)
C8 C7 S1 118.80(9)
O1 C8 N1 119.20(11)
O1 C8 C7 120.81(11)
N1 C8 C7 119.97(11)
C7 C9 C10 129.89(13)
C7 C9 H9 115.1
C10 C9 H9 115.1
C11 C10 C15 118.42(12)
C11 C10 C9 124.55(12)
C15 C10 C9 116.96(12)
C12 C11 C10 120.45(13)
C12 C11 H11 119.8
C10 C11 H11 119.8
C13 C12 C11 120.32(14)
C13 C12 H12 119.8
C11 C12 H12 119.8
C12 C13 C14 119.93(13)
C12 C13 H13 120.0
C14 C13 H13 120.0
C13 C14 C15 120.01(14)
C13 C14 H14 120.0
C15 C14 H14 120.0
C14 C15 C10 120.83(14)
C14 C15 H15 119.6
C10 C15 H15 119.6
N1 C16 C17 115.04(11)
N1 C16 H16A 108.5
C17 C16 H16A 108.5
N1 C16 H16B 108.5
C17 C16 H16B 108.5
H16A C16 H16B 107.5
O3 C17 O2 124.70(13)
O3 C17 C16 121.37(12)
O2 C17 C16 113.93(11)
loop_
_geom_bond_atom_site_label_1
_geom_bond_atom_site_label_2
_geom_bond_distance
S1 C7 1.7519(13)
S1 C6 1.7546(13)
O1 C8 1.2376(16)
O2 C17 1.3282(17)
O2 H2A 0.92(2)
O3 C17 1.2052(16)
N1 C8 1.3729(16)
N1 C1 1.4242(16)
N1 C16 1.4637(15)
C1 C6 1.3954(18)
C1 C2 1.3970(18)
C2 C3 1.385(2)
C2 H2 0.9500
C3 C4 1.385(2)
C3 H3 0.9500
C4 C5 1.384(2)
C4 H4 0.9500
C5 C6 1.3923(19)
C5 H5 0.9500
C7 C9 1.3449(18)
C7 C8 1.4878(17)
C9 C10 1.4626(18)
C9 H9 0.9500
C10 C11 1.3976(19)
C10 C15 1.400(2)
C11 C12 1.3905(19)
C11 H11 0.9500
C12 C13 1.384(2)
C12 H12 0.9500
C13 C14 1.384(2)
C13 H13 0.9500
C14 C15 1.387(2)
C14 H14 0.9500
C15 H15 0.9500
C16 C17 1.5154(18)
C16 H16A 0.9900
C16 H16B 0.9900
loop_
_geom_hbond_atom_site_label_D
_geom_hbond_atom_site_label_H
_geom_hbond_atom_site_label_A
_geom_hbond_site_symmetry_A
_geom_hbond_distance_DH
_geom_hbond_distance_HA
_geom_hbond_distance_DA
_geom_hbond_angle_DHA
O2 H2A O1 2_767 0.92(2) 1.78(2) 2.6591(13) 161(2)
C16 H16A O3 2_757 0.99 2.47 3.3583(16) 149
loop_
_geom_torsion_atom_site_label_1
_geom_torsion_atom_site_label_2
_geom_torsion_atom_site_label_3
_geom_torsion_atom_site_label_4
_geom_torsion
C8 N1 C1 C6 -26.36(19)
C16 N1 C1 C6 167.24(12)
C8 N1 C1 C2 153.63(12)
C16 N1 C1 C2 -12.77(18)
C6 C1 C2 C3 -1.1(2)
N1 C1 C2 C3 178.87(12)
C1 C2 C3 C4 0.7(2)
C2 C3 C4 C5 0.5(2)
C3 C4 C5 C6 -1.2(2)
C4 C5 C6 C1 0.8(2)
C4 C5 C6 S1 -176.86(11)
C2 C1 C6 C5 0.36(19)
N1 C1 C6 C5 -179.65(12)
C2 C1 C6 S1 177.95(10)
N1 C1 C6 S1 -2.06(17)
C7 S1 C6 C5 -153.85(11)
C7 S1 C6 C1 28.50(12)
C6 S1 C7 C9 150.49(12)
C6 S1 C7 C8 -35.26(11)
C1 N1 C8 O1 -164.28(11)
C16 N1 C8 O1 2.69(17)
C1 N1 C8 C7 17.81(18)
C16 N1 C8 C7 -175.22(11)
C9 C7 C8 O1 13.88(18)
S1 C7 C8 O1 -160.73(10)
C9 C7 C8 N1 -168.25(12)
S1 C7 C8 N1 17.15(16)
C8 C7 C9 C10 -176.82(12)
S1 C7 C9 C10 -2.5(2)
C7 C9 C10 C11 27.5(2)
C7 C9 C10 C15 -155.58(14)
C15 C10 C11 C12 1.8(2)
C9 C10 C11 C12 178.69(13)
C10 C11 C12 C13 -0.6(2)
C11 C12 C13 C14 -0.9(2)
C12 C13 C14 C15 1.2(2)
C13 C14 C15 C10 0.0(2)
C11 C10 C15 C14 -1.5(2)
C9 C10 C15 C14 -178.61(14)
C8 N1 C16 C17 -72.15(14)
C1 N1 C16 C17 95.52(14)
N1 C16 C17 O3 171.05(12)
N1 C16 C17 O2 -8.42(16)

_cod_database_fobs_code 1543483
