#------------------------------------------------------------------------------
#$Date: 2018-09-26 20:45:16 +0300 (Wed, 26 Sep 2018) $
#$Revision: 211179 $
#$URL: file:///home/coder/svn-repositories/cod/cif/1/54/36/1543670.cif $
#------------------------------------------------------------------------------
#
# This file is available in the Crystallography Open Database (COD),
# http://www.crystallography.net/. The original data for this entry
# were provided by IUCr Journals, http://journals.iucr.org/.
#
# The file may be used within the scientific community so long as
# proper attribution is given to the journal article from which the
# data were obtained.
#
data_1543670
loop_
_publ_author_name
'Kassim, Karimah'
'Hashim, Nor Zakiah Nor'
'M.Yamin, Bohari'
'Zaki, Hamizah Mohd'
_publ_section_title
;
 (<i>E</i>)-1-(4-Hydroxybenzylidene)-4-methylthiosemicarbazide
;
_journal_coeditor_code           HG4008
_journal_issue                   7
_journal_name_full               IUCrData
_journal_page_first              x161048
_journal_paper_doi               10.1107/S2414314616010488
_journal_volume                  1
_journal_year                    2016
_chemical_formula_iupac          'C9 H11 N3 O S'
_chemical_formula_moiety         'C9 H11 N3 O S'
_chemical_formula_sum            'C9 H11 N3 O S'
_chemical_formula_weight         209.27
_chemical_name_systematic
;
(<i>E</i>)-1-(4-Hydroxybenzylidene)-4-methylthiosemicarbazide
;
_space_group_crystal_system      monoclinic
_space_group_IT_number           14
_space_group_name_Hall           '-P 2ybc'
_space_group_name_H-M_alt        'P 1 21/c 1'
_symmetry_space_group_name_Hall  '-P 2ybc'
_symmetry_space_group_name_H-M   'P 1 21/c 1'
_atom_sites_solution_hydrogens   mixed
_atom_sites_solution_primary     direct
_atom_sites_solution_secondary   geom
_audit_creation_method           SHELXL-2013
_cell_angle_alpha                90
_cell_angle_beta                 97.5196(18)
_cell_angle_gamma                90
_cell_formula_units_Z            4
_cell_length_a                   5.2320(4)
_cell_length_b                   9.9727(9)
_cell_length_c                   19.9900(18)
_cell_measurement_reflns_used    8733
_cell_measurement_temperature    302(2)
_cell_measurement_theta_max      28.25
_cell_measurement_theta_min      2.90
_cell_volume                     1034.05(15)
_computing_cell_refinement
;
SAINT (Bruker, 2013)
;
_computing_data_collection
;
APEX2 (Bruker, 2013)
;
_computing_data_reduction
;
SAINT (Bruker, 2013)
;
_computing_molecular_graphics
;
SHELXTL (Sheldrick, 2008)
;
_computing_publication_material
;
SHELXTL (Sheldrick, 2008), PARST (Nardelli, 1995) and PLATON
(Spek, 2009)
;
_computing_structure_refinement
;
SHELXL2013 (Sheldrick, 2015)
;
_computing_structure_solution
;
SHELXS97 (Sheldrick, 2008)
;
_diffrn_ambient_temperature      302(2)
_diffrn_detector_area_resol_mean 83.66
_diffrn_measured_fraction_theta_full 0.998
_diffrn_measured_fraction_theta_max 0.993
_diffrn_measurement_device_type  'Bruker APEXII CCD'
_diffrn_measurement_method       '\f and \w scans'
_diffrn_radiation_type           MoK\a
_diffrn_radiation_wavelength     0.71073
_diffrn_reflns_av_R_equivalents  0.0624
_diffrn_reflns_limit_h_max       6
_diffrn_reflns_limit_h_min       -7
_diffrn_reflns_limit_k_max       13
_diffrn_reflns_limit_k_min       -13
_diffrn_reflns_limit_l_max       26
_diffrn_reflns_limit_l_min       -26
_diffrn_reflns_number            19497
_diffrn_reflns_theta_full        25.242
_diffrn_reflns_theta_max         28.429
_diffrn_reflns_theta_min         2.898
_exptl_absorpt_coefficient_mu    0.284
_exptl_absorpt_correction_T_max  0.934
_exptl_absorpt_correction_T_min  0.903
_exptl_absorpt_correction_type   multi-scan
_exptl_absorpt_process_details
;
(SADABS; Bruker, 2013)
;
_exptl_crystal_colour            colorless
_exptl_crystal_density_diffrn    1.344
_exptl_crystal_density_method    'not measured'
_exptl_crystal_description       block
_exptl_crystal_F_000             440
_exptl_crystal_size_max          0.500
_exptl_crystal_size_mid          0.300
_exptl_crystal_size_min          0.240
_refine_diff_density_max         0.257
_refine_diff_density_min         -0.315
_refine_ls_extinction_coef       0.022(3)
_refine_ls_extinction_expression Fc^*^=kFc[1+0.001xFc^2^\l^3^/sin(2\q)]^-1/4^
_refine_ls_extinction_method
;
SHELXL2013 (Sheldrick, 2015)
;
_refine_ls_goodness_of_fit_ref   1.056
_refine_ls_hydrogen_treatment    mixed
_refine_ls_matrix_type           full
_refine_ls_number_parameters     140
_refine_ls_number_reflns         2572
_refine_ls_number_restraints     3
_refine_ls_restrained_S_all      1.056
_refine_ls_R_factor_all          0.0680
_refine_ls_R_factor_gt           0.0480
_refine_ls_shift/su_max          0.000
_refine_ls_shift/su_mean         0.000
_refine_ls_structure_factor_coef Fsqd
_refine_ls_weighting_details
'w=1/[\s^2^(Fo^2^)+(0.0508P)^2^+0.5068P] where P=(Fo^2^+2Fc^2^)/3'
_refine_ls_weighting_scheme      calc
_refine_ls_wR_factor_gt          0.1164
_refine_ls_wR_factor_ref         0.1295
_reflns_number_gt                1977
_reflns_number_total             2572
_reflns_threshold_expression     'I > 2\s(I)'
_cod_data_source_file            hg4008sup1.cif
_cod_data_source_block           I
_cod_database_code               1543670
_cod_database_fobs_code          1543670
_shelx_space_group_comment
;
The symmetry employed for this shelxl refinement is uniquely defined
by the following loop, which should always be used as a source of
symmetry information in preference to the above space-group names.
They are only intended as comments.
;
_shelx_estimated_absorpt_t_min   0.871
_shelx_estimated_absorpt_t_max   0.935
_shelx_hkl_file
;
   0   2   0  123.92    0.68
   0   2   0  120.66    0.67
   0   2   0  116.71    0.57
   0  -2   0  121.98    0.67
   0  -2   0  111.80    0.56
   0   3   0   -0.13    0.06
   0   3   0   -0.01    0.07
   0   3   0    0.12    0.07
   0  -3   0   -0.02    0.08
   0  -3   0   -0.18    0.07
   0  -3   0    0.23    0.08
   0   4   0  111.76    0.93
   0   4   0  110.49    0.92
   0   4   0  104.73    0.77
   0  -4   0  116.71    0.93
   0  -4   0   71.42    0.73
   0  -4   0  107.40    0.79
   0   5   0   -0.14    0.13
   0   5   0    0.04    0.11
   0  -5   0    0.05    0.11
   0  -5   0   -0.26    0.13
   0  -5   0    0.16    0.15
   0   6   0  110.33    1.15
   0   6   0  107.70    1.14
   0   6   0  103.58    0.96
   0  -6   0  115.00    1.14
   0  -6   0  104.60    1.10
   0  -6   0  106.89    0.98
   0   7   0    0.13    0.20
   0   7   0    0.02    0.18
   0   7   0    0.25    0.17
   0  -7   0   -0.32    0.19
   0  -7   0    0.55    0.21
   0  -7   0   -0.36    0.17
   0   8   0   72.66    1.15
   0   8   0   70.54    1.12
   0   8   0   64.62    0.91
   0  -8   0   73.96    1.12
   0  -8   0   68.38    1.09
   0  -8   0   68.77    0.95
   0   9   0   -0.13    0.29
   0   9   0   -0.26    0.27
   0   9   0    0.10    0.28
   0  -9   0   -0.24    0.26
   0  -9   0   -0.43    0.27
   0  -9   0   -0.22    0.27
   0  10   0   37.35    1.05
   0  10   0   36.95    0.86
   0 -10   0   41.92    1.05
   0 -10   0   41.04    1.09
   0 -10   0   41.44    0.92
   0  11   0    0.28    0.46
   0  11   0    0.50    0.59
   0  11   0    0.48    0.45
   0 -11   0    0.04    0.48
   0 -11   0    0.03    0.38
   0  12   0   22.25    1.23
   0  12   0   12.19    0.99
   0 -12   0   16.87    1.01
   0  13   0    0.15    0.62
   0   2   1 1153.00    3.16
   0   2   1 1142.00    2.94
   0   2   1 1217.00    2.42
   0  -2   1 1178.00    3.10
   0   2  -1 1154.00    3.16
   0   2  -1 1125.00    2.87
   0   2  -1 1200.00    2.80
   0  -2  -1 1140.00    3.18
   0  -2  -1 1225.00    2.41
   0   3   1  543.77    1.77
   0   3   1  535.53    1.75
   0   3   1  536.80    1.38
   0  -3   1  561.06    1.75
   0  -3   1  556.42    1.65
   0   3  -1  538.31    1.74
   0   3  -1  536.50    1.73
   0   3  -1  542.84    1.62
   0  -3  -1  564.76    1.78
   0  -3  -1  344.61    1.39
   0   4   1    2.83    0.21
   0   4   1    2.30    0.20
   0   4   1    3.07    0.17
   0  -4   1    3.06    0.19
   0  -4   1    1.45    0.17
   0  -4   1    2.49    0.20
   0   4  -1    2.81    0.20
   0   4  -1    2.40    0.21
   0   4  -1    2.83    0.20
   0  -4  -1    2.76    0.21
   0  -4  -1    2.11    0.19
   0  -4  -1    2.47    0.17
   0   5   1  338.63    1.82
   0   5   1  325.25    1.78
   0   5   1  308.80    1.41
   0  -5   1  334.79    1.75
   0  -5   1  237.74    1.48
   0  -5   1  324.41    1.60
   0   5  -1  323.41    1.77
   0   5  -1  324.05    1.76
   0   5  -1  310.25    1.56
   0  -5  -1  343.43    1.79
   0  -5  -1  322.24    1.75
   0  -5  -1  320.08    1.44
   0   6   1    1.18    0.17
   0   6   1    1.28    0.22
   0   6   1    1.68    0.19
   0  -6   1    1.75    0.20
   0  -6   1    1.57    0.21
   0  -6   1    1.57    0.21
   0   6  -1    1.32    0.18
   0   6  -1    1.72    0.21
   0   6  -1    1.57    0.21
   0  -6  -1    2.42    0.27
   0  -6  -1    1.17    0.21
   0  -6  -1    1.68    0.21
   0   7   1    0.81    0.19
   0   7   1    0.57    0.22
   0   7   1    0.58    0.18
   0  -7   1    0.55    0.20
   0  -7   1    0.76    0.21
   0  -7   1    0.72    0.22
   0   7  -1    0.53    0.21
   0   7  -1    0.69    0.22
   0   7  -1    0.57    0.19
   0  -7  -1    0.48    0.23
   0  -7  -1    0.20    0.20
   0  -7  -1    0.43    0.20
   0   8   1   28.72    0.80
   0   8   1   26.46    0.74
   0   8   1   25.96    0.60
   0  -8   1   27.44    0.74
   0  -8   1   27.55    0.75
   0  -8   1   28.10    0.70
   0   8  -1   26.96    0.74
   0   8  -1   26.15    0.74
   0  -8  -1   29.44    0.77
   0  -8  -1   27.29    0.78
   0  -8  -1   27.42    0.63
   0   9   1    0.91    0.26
   0   9   1    0.04    0.28
   0   9   1    0.80    0.31
   0  -9   1    0.14    0.30
   0  -9   1    1.20    0.35
   0  -9   1    0.28    0.26
   0   9  -1    0.30    0.34
   0   9  -1    0.40    0.34
   0   9  -1    0.26    0.30
   0  -9  -1    0.47    0.29
   0  -9  -1    1.40    0.33
   0  -9  -1    0.45    0.27
   0  10   1    1.31    0.39
   0  10   1    0.52    0.37
   0  10   1    1.04    0.31
   0 -10   1   -0.98    0.34
   0 -10   1   -0.30    0.39
   0 -10   1   -0.06    0.34
   0  10  -1   -0.41    0.38
   0  10  -1    0.23    0.35
   0 -10  -1   -0.92    0.36
   0 -10  -1   -0.61    0.40
   0 -10  -1    0.71    0.34
   0  11   1    8.87    0.93
   0 -11   1    0.96    0.46
   0 -11   1   11.97    0.82
   0  11  -1    8.83    0.88
   0  11  -1   12.49    1.11
   0  11  -1   10.00    0.76
   0 -11  -1    0.59    0.49
   0 -11  -1   11.57    0.76
   0  12   1   11.36    1.20
   0  12   1    7.95    0.68
   0 -12   1    8.62    0.98
   0  12  -1    8.93    0.78
   0  12  -1    8.15    0.92
   0 -12  -1    7.75    0.91
   0  13   1    3.59    0.79
   0 -13   1    1.25    0.74
   0  13  -1    1.82    0.72
   0 -13  -1   -0.15    0.69
   0   1   2  196.78    1.04
   0   1  -2  183.49    0.82
   0  -1  -2  264.60    1.08
   0   2   2  754.86    2.40
   0   2   2  657.66    1.68
   0   2   2  693.40    1.36
   0  -2   2  726.78    2.15
   0  -2   2  728.58    2.13
   0   2  -2  673.63    1.97
   0   2  -2  649.81    1.63
   0   2  -2  737.64    2.22
   0  -2  -2  493.61    1.45
   0   3   2   30.48    0.44
   0   3   2   28.59    0.43
   0   3   2   27.33    0.30
   0  -3   2   30.01    0.43
   0  -3   2   28.98    0.43
   0   3  -2   27.91    0.42
   0   3  -2   28.14    0.42
   0   3  -2   28.28    0.41
   0  -3  -2   31.04    0.44
   0  -3  -2   26.79    0.42
   0  -3  -2   26.41    0.31
   0   4   2   57.43    0.69
   0   4   2   50.40    0.64
   0   4   2   48.43    0.47
   0  -4   2   55.39    0.65
   0  -4   2   21.44    0.42
   0  -4   2   53.10    0.64
   0   4  -2   51.07    0.64
   0   4  -2   51.43    0.64
   0   4  -2   50.21    0.61
   0  -4  -2   56.07    0.67
   0  -4  -2   54.37    0.66
   0  -4  -2   52.20    0.50
   0   5   2   32.97    0.61
   0   5   2   29.34    0.57
   0   5   2   28.42    0.42
   0  -5   2   32.53    0.58
   0  -5   2   21.00    0.47
   0  -5   2   31.98    0.56
   0   5  -2   29.97    0.57
   0   5  -2   29.71    0.53
   0  -5  -2   32.99    0.59
   0  -5  -2   31.13    0.60
   0  -5  -2   30.29    0.45
   0   6   2   33.73    0.68
   0   6   2   31.87    0.67
   0   6   2   29.36    0.48
   0  -6   2   33.91    0.66
   0  -6   2   31.68    0.63
   0  -6   2   31.78    0.61
   0   6  -2   30.93    0.65
   0   6  -2   30.82    0.65
   0   6  -2   30.86    0.60
   0  -6  -2   34.56    0.66
   0  -6  -2   32.67    0.67
   0  -6  -2   30.46    0.52
   0   7   2   -0.08    0.19
   0   7   2    0.06    0.17
   0   7   2    0.03    0.15
   0  -7   2    0.28    0.21
   0  -7   2    0.62    0.22
   0  -7   2    0.37    0.20
   0   7  -2    0.06    0.19
   0   7  -2   -0.18    0.21
   0  -7  -2    0.33    0.20
   0  -7  -2    0.20    0.21
   0  -7  -2   -0.09    0.18
   0   8   2   43.08    0.93
   0   8   2   39.67    0.89
   0   8   2   38.06    0.67
   0  -8   2   42.52    0.87
   0  -8   2   37.82    0.84
   0  -8   2   41.79    0.82
   0   8  -2   38.59    0.87
   0   8  -2   40.82    0.90
   0   8  -2   37.11    0.81
   0  -8  -2   42.56    0.88
   0  -8  -2   39.08    0.89
   0  -8  -2   38.60    0.70
   0   9   2    9.13    0.66
   0   9   2    9.01    0.64
   0   9   2    6.43    0.44
   0  -9   2    7.13    0.58
   0  -9   2    6.44    0.58
   0  -9   2    8.66    0.58
   0   9  -2    8.71    0.65
   0   9  -2    9.75    0.69
   0   9  -2   10.41    0.58
   0  -9  -2    8.03    0.57
   0  -9  -2    7.82    0.64
   0  -9  -2    7.87    0.49
   0  10   2   25.62    1.10
   0  10   2   26.34    0.95
   0  10   2   22.36    0.70
   0 -10   2   26.54    0.93
   0 -10   2   24.57    0.89
   0 -10   2   26.86    0.87
   0  10  -2   23.68    0.96
   0  10  -2   23.27    1.65
   0  10  -2   24.04    0.85
   0 -10  -2   24.64    0.88
   0 -10  -2   27.77    0.95
   0 -10  -2   26.74    0.75
   0  11   2    1.19    0.44
   0  11   2    2.19    0.55
   0  11   2   -0.10    0.45
   0 -11   2   -0.02    0.43
   0 -11   2    2.12    0.49
   0  11  -2    0.34    0.57
   0  11  -2    1.58    0.47
   0  11  -2    0.44    0.52
   0 -11  -2    0.57    0.47
   0 -11  -2    0.86    0.42
   0  12   2   -0.82    0.53
   0  12  -2    0.03    0.55
   0  12  -2    0.58    0.61
   0 -12  -2    0.03    0.50
   0  13   2    0.63    0.83
   0 -13   2   -0.80    0.70
   0  13  -2   -1.43    0.72
   0   0   3    0.02    0.03
   0   0   3   -0.06    0.03
   0   0  -3   -0.01    0.03
   0   0  -3   -0.06    0.06
   0   1   3   -0.04    0.04
   0   1   3    0.00    0.04
   0   1   3    0.11    0.03
   0  -1   3   -0.01    0.02
   0  -1   3    0.02    0.04
   0   1  -3    0.05    0.04
   0   1  -3   -0.01    0.04
   0  -1  -3    0.02    0.04
   0  -1  -3    0.08    0.04
   0  -1  -3    0.08    0.03
   0   2   3  222.26    1.05
   0   2   3  208.58    1.01
   0  -2   3  204.05    0.96
   0  -2   3  210.13    1.03
   0   2  -3  193.07    0.94
   0   2  -3  194.58    0.95
   0   2  -3  208.59    1.03
   0  -2  -3  209.60    1.01
   0  -2  -3  209.08    1.01
   0  -2  -3  201.13    0.63
   0   3   3  518.33    1.85
   0   3   3  477.76    1.77
   0   3   3  464.28    1.14
   0  -3   3  483.46    1.77
   0   3  -3  469.29    1.70
   0   3  -3  462.84    1.70
   0   3  -3  479.20    1.75
   0  -3  -3  482.50    1.76
   0  -3  -3  484.43    1.77
   0  -3  -3  470.25    1.16
   0   4   3   75.30    0.81
   0   4   3   68.33    0.77
   0   4   3   66.50    0.52
   0  -4   3   73.29    0.76
   0  -4   3   27.95    0.48
   0  -4   3   71.43    0.77
   0   4  -3   68.69    0.76
   0   4  -3   70.07    0.76
   0   4  -3   69.39    0.75
   0  -4  -3   72.70    0.78
   0  -4  -3   71.97    0.78
   0  -4  -3   66.12    0.55
   0   5   3   41.42    0.68
   0   5   3   37.00    0.64
   0   5   3   35.28    0.45
   0  -5   3   41.16    0.64
   0  -5   3   21.91    0.49
   0  -5   3   38.67    0.64
   0   5  -3   36.36    0.63
   0   5  -3   37.86    0.65
   0   5  -3   37.11    0.61
   0  -5  -3   37.50    0.65
   0  -5  -3   37.70    0.47
   0   6   3   44.14    0.78
   0   6   3   41.34    0.74
   0   6   3   38.92    0.53
   0  -6   3   42.83    0.73
   0  -6   3   39.52    0.70
   0  -6   3   41.48    0.72
   0   6  -3   38.72    0.71
   0   6  -3   41.37    0.75
   0   6  -3   40.92    0.70
   0  -6  -3   44.69    0.75
   0  -6  -3   41.32    0.76
   0  -6  -3   40.00    0.55
   0   7   3   32.69    0.75
   0   7   3   30.13    0.71
   0   7   3   27.59    0.51
   0  -7   3   32.40    0.72
   0  -7   3   29.15    0.68
   0  -7   3   31.03    0.69
   0   7  -3   29.03    0.71
   0   7  -3   31.35    0.73
   0   7  -3   28.07    0.66
   0  -7  -3   31.56    0.71
   0  -7  -3   28.92    0.77
   0  -7  -3   29.73    0.55
   0   8   3    0.28    0.24
   0   8   3    1.32    0.30
   0   8   3    0.94    0.22
   0  -8   3    2.57    0.33
   0  -8   3    0.64    0.28
   0  -8   3    1.03    0.27
   0   8  -3    0.94    0.27
   0   8  -3    1.60    0.31
   0   8  -3    1.05    0.29
   0  -8  -3    0.59    0.24
   0  -8  -3   -0.15    0.29
   0  -8  -3    0.99    0.24
   0   9   3    9.71    0.68
   0   9   3   10.47    0.68
   0   9   3    7.04    0.48
   0  -9   3    8.44    0.57
   0  -9   3    7.43    0.57
   0  -9   3    9.35    0.61
   0   9  -3    8.35    0.65
   0   9  -3   10.49    0.67
   0   9  -3    9.27    0.61
   0  -9  -3    8.22    0.59
   0  -9  -3   10.14    0.83
   0  -9  -3    9.25    0.49
   0  10   3    5.02    0.61
   0  10   3    5.34    0.54
   0  10   3    4.88    0.47
   0 -10   3    3.99    0.50
   0 -10   3    4.42    0.49
   0 -10   3    5.21    0.53
   0  10  -3    6.45    0.60
   0  10  -3    4.55    0.55
   0  10  -3    6.28    0.66
   0 -10  -3    7.23    0.65
   0 -10  -3    4.72    0.59
   0 -10  -3    5.38    0.54
   0  11   3    1.54    0.51
   0  11   3    1.67    0.51
   0  11   3   -0.01    0.38
   0 -11   3    0.11    0.53
   0 -11   3    0.00    0.42
   0  11  -3    0.00    0.54
   0  11  -3    0.23    0.43
   0  11  -3   -0.29    0.48
   0 -11  -3    1.69    0.49
   0 -11  -3    0.26    0.37
   0  12   3    3.92    0.67
   0 -12   3    0.98    0.63
   0  12  -3    1.26    0.62
   0  12  -3    2.03    0.67
   0 -12  -3    0.39    0.47
   0  13   3    0.51    0.81
   0 -13   3   -0.34    0.73
   0  13  -3   -1.53    0.77
   0   0   4  221.87    0.94
   0   0   4  206.05    0.91
   0   0  -4  223.01    0.95
   0   0  -4  215.51    0.87
   0   1   4  343.02    1.25
   0   1   4  366.26    0.99
   0  -1   4  193.80    0.91
   0  -1   4  342.90    1.21
   0  -1   4  375.92    1.32
   0   1  -4  346.28    1.22
   0   1  -4  353.41    1.24
   0   1  -4  352.10    1.27
   0  -1  -4  362.59    1.28
   0  -1  -4  338.91    1.26
   0  -1  -4  354.85    0.97
   0   2   4  202.78    1.08
   0   2   4  186.60    1.03
   0  -2   4  182.27    0.97
   0  -2   4  192.77    1.07
   0   2  -4  180.31    0.98
   0   2  -4  177.04    0.97
   0   2  -4  195.66    1.07
   0  -2  -4  200.63    1.06
   0  -2  -4  188.75    1.03
   0  -2  -4  193.98    0.68
   0  -2  -4  195.37    0.68
   0   3   4  149.39    1.05
   0   3   4  128.95    0.97
   0  -3   4  136.03    0.95
   0  -3   4  138.68    1.01
   0   3  -4  129.15    0.93
   0   3  -4  128.07    0.94
   0   3  -4  132.82    0.98
   0  -3  -4  144.37    1.01
   0  -3  -4  134.33    0.98
   0  -3  -4  133.40    0.62
   0   4   4  244.97    1.49
   0   4   4  219.51    1.40
   0   4   4  214.39    0.89
   0  -4   4  228.09    1.36
   0  -4   4  106.63    0.93
   0  -4   4  229.55    1.42
   0   4  -4  216.87    1.35
   0   4  -4  213.59    1.35
   0   4  -4  218.99    1.37
   0  -4  -4  237.57    1.44
   0  -4  -4  217.30    1.54
   0   5   4   -0.11    0.10
   0   5   4    0.03    0.13
   0   5   4    0.07    0.09
   0  -5   4   -0.02    0.11
   0  -5   4   -0.11    0.11
   0  -5   4   -0.02    0.14
   0   5  -4   -0.02    0.13
   0   5  -4   -0.17    0.12
   0   5  -4   -0.07    0.13
   0  -5  -4    0.43    0.11
   0  -5  -4   -0.17    0.19
   0  -5  -4    0.14    0.11
   0   6   4  100.73    1.17
   0   6   4   94.24    1.12
   0   6   4   88.02    0.74
   0  -6   4   97.06    1.08
   0  -6   4   87.24    1.03
   0  -6   4   93.38    1.08
   0   6  -4   91.65    1.08
   0   6  -4   90.77    1.08
   0   6  -4   89.05    1.04
   0  -6  -4   89.13    0.76
   0   7   4    7.30    0.47
   0   7   4    7.23    0.47
   0   7   4    6.13    0.30
   0  -7   4    6.77    0.45
   0  -7   4    6.05    0.42
   0  -7   4    6.47    0.44
   0   7  -4    6.93    0.46
   0   7  -4    5.35    0.44
   0   7  -4    5.81    0.44
   0  -7  -4    7.57    0.42
   0  -7  -4    6.43    0.33
   0   8   4    2.69    0.34
   0   8   4    5.23    0.51
   0   8   4    3.57    0.33
   0  -8   4    2.96    0.32
   0  -8   4    3.57    0.40
   0  -8   4    4.41    0.49
   0   8  -4    3.12    0.36
   0   8  -4    3.05    0.37
   0   8  -4    3.13    0.34
   0  -8  -4    3.69    0.38
   0  -8  -4    4.08    0.38
   0   9   4    6.55    0.62
   0   9   4    8.47    0.69
   0   9   4    5.37    0.41
   0  -9   4    7.01    0.60
   0  -9   4    6.17    0.56
   0  -9   4    6.03    0.57
   0   9  -4    5.29    0.63
   0   9  -4    5.32    0.61
   0   9  -4    5.10    0.58
   0  -9  -4    6.68    0.60
   0  -9  -4    6.22    0.44
   0  10   4    1.82    0.48
   0  10   4    2.32    0.52
   0  10   4    3.19    0.34
   0 -10   4    2.79    0.41
   0 -10   4    1.56    0.40
   0 -10   4    4.40    0.48
   0  10  -4    2.34    0.47
   0  10  -4    1.31    0.45
   0  10  -4    2.26    0.45
   0 -10  -4    3.22    0.45
   0 -10  -4    2.52    0.34
   0  11   4   17.77    1.05
   0  11   4   17.97    1.06
   0 -11   4    0.24    0.68
   0 -11   4   19.95    1.02
   0  11  -4   17.02    0.99
   0  11  -4   18.28    1.09
   0  11  -4   16.56    0.98
   0 -11  -4   18.16    0.74
   0  12   4   -1.36    0.53
   0 -12   4   -0.71    0.58
   0  12  -4   -1.42    0.64
   0  12  -4   -0.17    0.70
   0 -12  -4   -0.29    0.43
   0 -13   4   -1.02    0.77
   0  13  -4    0.58    0.77
   0   0   5    0.48    0.07
   0   0   5    0.23    0.06
   0   0   5   -0.04    0.07
   0   0  -5   -0.01    0.05
   0   0  -5    0.02    0.07
   0   0  -5   -0.08    0.06
   0   1   5   58.18    0.73
   0   1   5   56.88    0.56
   0  -1   5   54.82    0.54
   0  -1   5   58.68    0.56
   0  -1   5   63.23    0.60
   0   1  -5   53.57    0.53
   0   1  -5   57.00    0.56
   0   1  -5   63.18    0.60
   0  -1  -5   65.39    0.60
   0  -1  -5   63.46    0.48
   0   2   5  659.91    2.07
   0   2   5  588.38    1.95
   0  -2   5  422.05    1.59
   0  -2   5  626.98    1.93
   0  -2   5  632.13    2.07
   0   2  -5  603.52    1.91
   0   2  -5  623.35    1.95
   0   2  -5  632.31    2.06
   0  -2  -5  659.62    2.06
   0  -2  -5  617.50    1.36
   0   3   5    6.35    0.27
   0  -3   5    2.88    0.20
   0  -3   5    5.93    0.24
   0  -3   5    5.52    0.28
   0   3  -5    4.88    0.23
   0   3  -5    5.52    0.25
   0   3  -5    5.03    0.26
   0  -3  -5    5.57    0.26
   0  -3  -5    5.73    0.16
   0  -3  -5    5.32    0.16
   0   4   5   22.53    0.51
   0   4   5   19.41    0.45
   0  -4   5   12.08    0.35
   0  -4   5   20.14    0.44
   0  -4   5   19.35    0.46
   0   4  -5   18.84    0.43
   0   4  -5   18.98    0.45
   0   4  -5   19.79    0.46
   0  -4  -5   21.26    0.48
   0   5   5   44.37    0.73
   0   5   5   39.67    0.70
   0   5   5   39.88    0.44
   0  -5   5   43.05    0.68
   0  -5   5   36.37    0.64
   0  -5   5   42.91    0.72
   0   5  -5   39.79    0.69
   0   5  -5   39.56    0.69
   0   5  -5   39.70    0.69
   0  -5  -5   45.40    0.73
   0  -5  -5   39.15    0.45
   0   6   5    1.57    0.23
   0   6   5    1.19    0.19
   0   6   5    1.28    0.15
   0  -6   5    1.60    0.23
   0  -6   5    1.13    0.20
   0  -6   5    1.24    0.21
   0   6  -5    0.90    0.20
   0   6  -5    0.98    0.22
   0   6  -5    0.96    0.23
   0  -6  -5    1.39    0.21
   0  -6  -5    1.15    0.34
   0  -6  -5    1.55    0.18
   0   7   5    5.76    0.43
   0   7   5    4.60    0.42
   0   7   5    4.66    0.28
   0  -7   5    4.28    0.40
   0  -7   5    3.73    0.39
   0  -7   5    5.52    0.46
   0   7  -5    3.22    0.40
   0   7  -5    3.67    0.44
   0   7  -5    5.28    0.44
   0  -7  -5    4.98    0.44
   0  -7  -5    4.72    0.51
   0  -7  -5    4.82    0.31
   0   8   5    3.33    0.37
   0   8   5    2.95    0.36
   0   8   5    3.14    0.32
   0  -8   5    3.49    0.33
   0  -8   5    2.65    0.35
   0  -8   5    3.77    0.40
   0   8  -5    3.26    0.37
   0   8  -5    3.04    0.37
   0   8  -5    3.37    0.36
   0  -8  -5    2.97    0.32
   0  -8  -5    3.22    0.40
   0  -8  -5    3.68    0.36
   0   9   5    0.72    0.32
   0   9   5    0.29    0.33
   0   9   5    0.01    0.22
   0  -9   5    0.31    0.32
   0  -9   5   -0.83    0.30
   0  -9   5    0.16    0.38
   0   9  -5    0.15    0.34
   0   9  -5    0.38    0.36
   0   9  -5    0.07    0.33
   0  -9  -5    0.83    0.31
   0  -9  -5    0.13    0.40
   0  -9  -5    0.29    0.24
   0  10   5   22.62    1.10
   0  10   5   23.19    0.65
   0 -10   5   26.69    0.91
   0 -10   5   18.62    0.87
   0 -10   5   24.36    0.96
   0  10  -5   21.04    1.02
   0  10  -5   20.20    0.91
   0 -10  -5   26.17    0.95
   0 -10  -5   20.95    1.27
   0 -10  -5   23.38    0.66
   0  11   5    0.07    0.50
   0  11   5    0.46    0.62
   0  11   5    0.36    0.39
   0 -11   5    0.21    0.52
   0  11  -5   -0.50    0.52
   0  11  -5    0.16    0.52
   0  11  -5    2.49    0.58
   0 -11  -5    0.73    0.37
   0  12   5    4.77    0.72
   0 -12   5    5.92    0.76
   0  12  -5    4.23    0.76
   0 -12  -5   -1.09    0.43
   0  13   5    1.57    0.79
   0  13  -5    0.65    0.84
   0   0   6   40.45    0.50
   0   0   6   49.01    0.52
   0   0  -6   45.06    0.53
   0   0  -6   44.95    0.53
   0   0  -6   46.36    0.50
   0   1   6   81.82    0.74
   0   1   6   72.11    0.69
   0   1   6   82.30    0.60
   0  -1   6   72.62    0.68
   0  -1   6   71.90    0.67
   0  -1   6   77.66    0.71
   0   1  -6   72.92    0.68
   0   1  -6   73.88    0.69
   0   1  -6   78.63    0.71
   0  -1  -6   78.41    0.72
   0  -1  -6   72.73    0.69
   0  -1  -6   77.87    0.59
   0   2   6   18.50    0.40
   0   2   6   15.10    0.35
   0  -2   6   15.36    0.34
   0  -2   6   15.61    0.35
   0  -2   6   18.30    0.40
   0   2  -6   15.76    0.35
   0   2  -6   15.53    0.36
   0   2  -6   17.40    0.38
   0  -2  -6   16.90    0.37
   0  -2  -6   17.95    0.27
   0   3   6   72.31    0.80
   0   3   6   61.45    0.74
   0  -3   6   53.88    0.66
   0  -3   6   63.74    0.72
   0  -3   6   66.78    0.79
   0   3  -6   63.55    0.73
   0   3  -6   60.94    0.72
   0   3  -6   67.72    0.79
   0  -3  -6   70.96    0.79
   0  -3  -6   64.92    0.76
   0  -3  -6   69.34    0.50
   0   4   6    2.50    0.27
   0   4   6    2.00    0.23
   0  -4   6    1.93    0.23
   0  -4   6    2.12    0.22
   0  -4   6    2.16    0.25
   0   4  -6    2.48    0.24
   0   4  -6    2.33    0.25
   0   4  -6    1.99    0.23
   0  -4  -6    2.99    0.27
   0  -4  -6    2.56    0.25
   0   5   6   77.07    1.00
   0   5   6   64.75    0.90
   0  -5   6   69.21    0.88
   0  -5   6   66.12    0.86
   0  -5   6   70.16    0.94
   0   5  -6   65.04    0.87
   0   5  -6   67.21    0.90
   0   5  -6   67.50    0.91
   0  -5  -6   74.35    0.95
   0  -5  -6   68.38    0.92
   0  -5  -6   66.61    0.56
   0   6   6   98.98    1.20
   0   6   6   85.14    1.11
   0  -6   6   80.64    1.02
   0  -6   6   90.91    1.14
   0   6  -6   85.63    1.09
   0   6  -6   85.75    1.09
   0   6  -6   83.86    1.09
   0  -6  -6   91.61    1.14
   0  -6  -6   90.53    1.14
   0  -6  -6   86.41    0.70
   0   7   6   54.81    1.00
   0   7   6   46.39    0.92
   0   7   6   49.84    0.59
   0  -7   6   52.22    0.91
   0  -7   6   45.10    0.84
   0  -7   6   49.00    0.93
   0   7  -6   46.55    0.89
   0   7  -6   49.59    0.95
   0   7  -6   46.71    0.90
   0  -7  -6   54.64    0.97
   0  -7  -6   52.48    0.97
   0  -7  -6   49.56    0.60
   0   8   6    1.19    0.28
   0   8   6    0.27    0.29
   0   8   6    0.22    0.19
   0  -8   6    0.62    0.28
   0  -8   6    0.08    0.25
   0  -8   6    0.81    0.30
   0   8  -6    1.06    0.27
   0   8  -6   -0.02    0.28
   0   8  -6   -0.13    0.29
   0  -8  -6    0.49    0.25
   0  -8  -6    0.58    0.29
   0  -8  -6    0.83    0.22
   0   9   6   61.03    1.23
   0   9   6   55.08    1.19
   0   9   6   53.89    0.75
   0  -9   6   61.21    1.15
   0  -9   6   48.15    1.04
   0  -9   6   62.68    1.20
   0   9  -6   57.07    1.16
   0   9  -6   60.29    1.23
   0   9  -6   52.53    1.12
   0  -9  -6   60.29    1.18
   0  -9  -6   57.90    1.19
   0  -9  -6   55.39    0.76
   0  10   6    4.97    0.98
   0 -10   6    4.98    0.54
   0 -10   6    2.69    0.43
   0 -10   6    5.64    0.57
   0  10  -6    6.62    0.71
   0  10  -6    6.20    0.60
   0  10  -6    4.66    0.53
   0 -10  -6    4.47    0.53
   0 -10  -6    4.65    0.60
   0 -10  -6    3.93    0.49
   0  11   6    5.73    0.61
   0  11   6    5.03    0.62
   0  11   6    8.06    0.59
   0 -11   6    7.37    0.67
   0  11  -6    5.24    0.70
   0  11  -6    5.89    0.67
   0  11  -6   10.70    1.06
   0 -11  -6    0.80    0.64
   0 -11  -6    0.21    0.34
   0  12   6    1.19    0.64
   0 -12   6    1.64    0.70
   0  12  -6   -0.54    0.55
   0  13  -6    0.95    0.85
   0   0   7    0.05    0.08
   0   0   7    0.08    0.08
   0   0  -7    0.29    0.08
   0   0  -7   -0.19    0.08
   0   0  -7    0.07    0.09
   0   1   7    9.12    0.30
   0   1   7    9.03    0.29
   0   1   7   10.01    0.25
   0  -1   7    8.64    0.28
   0  -1   7    8.51    0.28
   0   1  -7    8.27    0.27
   0   1  -7    8.88    0.29
   0  -1  -7    8.89    0.29
   0  -1  -7    7.73    0.28
   0  -1  -7    9.49    0.25
   0   2   7   99.29    0.93
   0   2   7   87.21    0.86
   0   2   7   93.75    0.66
   0  -2   7   84.74    0.82
   0  -2   7   85.15    0.82
   0  -2   7   92.09    0.90
   0   2  -7   84.80    0.83
   0   2  -7   84.94    0.84
   0   2  -7   92.19    0.89
   0  -2  -7   97.04    0.90
   0  -2  -7   88.84    0.87
   0  -2  -7   95.03    0.66
   0   3   7   88.09    0.93
   0   3   7   74.87    0.85
   0  -3   7   71.24    0.79
   0  -3   7   78.08    0.83
   0  -3   7   84.33    0.93
   0   3  -7   75.55    0.83
   0   3  -7   75.81    0.85
   0   3  -7   82.60    0.91
   0  -3  -7   83.78    0.89
   0  -3  -7   79.06    0.88
   0  -3  -7   80.81    0.58
   0  -3  -7   82.14    0.59
   0   4   7  287.05    1.79
   0   4   7  246.49    1.65
   0  -4   7  231.01    1.52
   0  -4   7  247.81    1.57
   0  -4   7  262.24    1.74
   0   4  -7  231.12    1.54
   0   4  -7  233.98    1.57
   0   4  -7  251.03    1.68
   0  -4  -7  268.33    1.71
   0  -4  -7  254.14    1.67
   0  -4  -7  244.45    1.01
   0  -4  -7  255.75    1.03
   0   5   7    0.19    0.19
   0   5   7    0.31    0.19
   0  -5   7    0.70    0.17
   0  -5   7    0.52    0.17
   0  -5   7    0.12    0.17
   0   5  -7    0.76    0.16
   0   5  -7    0.18    0.17
   0   5  -7   -0.28    0.25
   0  -5  -7    0.32    0.17
   0  -5  -7    0.31    0.17
   0  -5  -7    0.38    0.13
   0  -5  -7    0.01    0.11
   0   6   7   92.28    1.19
   0   6   7   77.16    1.09
   0  -6   7   82.46    1.06
   0  -6   7   76.30    1.02
   0  -6   7   86.32    1.16
   0   6  -7   79.84    1.07
   0   6  -7   77.59    1.08
   0   6  -7   78.67    1.08
   0  -6  -7   88.69    1.15
   0  -6  -7   82.80    1.12
   0   7   7    4.91    0.49
   0   7   7    4.93    0.48
   0  -7   7    6.03    0.43
   0  -7   7    5.18    0.44
   0  -7   7    4.92    0.49
   0   7  -7    4.10    0.36
   0   7  -7    4.39    0.49
   0   7  -7    4.37    0.44
   0  -7  -7    4.78    0.48
   0  -7  -7    5.90    0.54
   0  -7  -7    3.79    0.31
   0   8   7    4.61    0.57
   0   8   7    4.87    0.54
   0  -8   7    4.72    0.50
   0  -8   7    3.40    0.37
   0  -8   7    4.65    0.53
   0   8  -7    3.27    0.39
   0   8  -7    3.72    0.41
   0   8  -7    4.57    0.55
   0  -8  -7    5.40    0.54
   0  -8  -7    3.88    0.42
   0  -8  -7    4.12    0.34
   0   9   7    1.72    0.41
   0   9   7    3.01    0.42
   0  -9   7    2.24    0.41
   0  -9   7    1.74    0.39
   0  -9   7    1.59    0.41
   0   9  -7    2.28    0.40
   0   9  -7    1.64    0.42
   0   9  -7    2.62    0.44
   0  -9  -7    2.62    0.41
   0  -9  -7    1.59    0.39
   0  10   7   27.16    1.13
   0  10   7   25.55    1.17
   0 -10   7   25.66    0.97
   0 -10   7   14.37    1.10
   0 -10   7   24.43    1.28
   0  10  -7   25.59    1.03
   0  10  -7   21.74    1.01
   0  10  -7   18.95    0.97
   0 -10  -7   27.21    1.07
   0 -10  -7   15.89    0.98
   0  11   7    0.11    0.49
   0  11   7    0.89    0.66
   0 -11   7    0.67    0.55
   0  11  -7    0.64    0.61
   0  11  -7   -0.39    0.83
   0  12   7    7.04    0.79
   0 -12   7    7.91    0.84
   0  12  -7    5.09    0.81
   0   0   8  137.47    1.07
   0   0   8  123.84    1.01
   0   0   8  138.42    1.00
   0   0  -8  129.00    1.04
   0   0  -8  124.32    1.02
   0   0  -8  135.70    0.99
   0   1   8  209.72    1.34
   0   1   8  185.15    1.26
   0   1   8  207.86    1.13
   0  -1   8  184.32    1.23
   0  -1   8  205.06    1.31
   0   1  -8  188.73    1.26
   0   1  -8  180.84    1.23
   0   1  -8  201.99    1.29
   0  -1  -8  203.20    1.32
   0  -1  -8  196.41    1.30
   0  -1  -8  202.74    1.11
   0   2   8    0.22    0.13
   0   2   8    0.21    0.12
   0   2   8    0.24    0.10
   0  -2   8    0.09    0.12
   0  -2   8    0.11    0.09
   0  -2   8    0.24    0.12
   0   2  -8    0.05    0.10
   0   2  -8    0.27    0.13
   0   2  -8    0.41    0.13
   0  -2  -8    0.23    0.11
   0  -2  -8    0.17    0.14
   0  -2  -8    0.45    0.10
   0   3   8    0.28    0.12
   0   3   8    0.17    0.12
   0  -3   8    0.36    0.11
   0  -3   8    0.31    0.12
   0  -3   8    0.39    0.14
   0   3  -8    0.19    0.12
   0   3  -8    0.36    0.16
   0   3  -8    0.05    0.13
   0  -3  -8   -0.04    0.11
   0  -3  -8    0.30    0.15
   0  -3  -8    0.33    0.09
   0   4   8   40.50    0.73
   0   4   8   33.62    0.67
   0  -4   8   31.39    0.61
   0  -4   8   34.55    0.64
   0  -4   8   36.89    0.71
   0   4  -8   32.58    0.63
   0   4  -8   33.15    0.66
   0   4  -8   33.95    0.66
   0  -4  -8   38.09    0.70
   0  -4  -8   34.41    0.67
   0  -4  -8   34.57    0.42
   0  -4  -8   35.52    0.42
   0   5   8   43.69    0.83
   0   5   8   34.88    0.74
   0  -5   8   35.19    0.69
   0  -5   8   35.59    0.70
   0  -5   8   38.07    0.77
   0   5  -8   33.62    0.69
   0   5  -8   36.06    0.74
   0   5  -8   35.29    0.73
   0  -5  -8   40.31    0.78
   0  -5  -8   37.09    0.74
   0  -5  -8   36.24    0.44
   0  -5  -8   37.17    0.44
   0   6   8    1.91    0.32
   0   6   8    1.95    0.31
   0  -6   8    2.09    0.25
   0  -6   8    2.54    0.28
   0  -6   8    3.07    0.34
   0   6  -8    1.73    0.22
   0   6  -8    2.23    0.28
   0   6  -8    2.55    0.32
   0  -6  -8    1.98    0.28
   0   7   8   93.72    1.33
   0   7   8   78.42    1.21
   0  -7   8   87.95    1.20
   0  -7   8   75.13    1.13
   0  -7   8   88.80    1.29
   0   7  -8   80.02    1.19
   0   7  -8   81.49    1.22
   0   7  -8   78.71    1.20
   0  -7  -8   90.61    1.28
   0  -7  -8   86.68    1.27
   0   8   8    0.55    0.32
   0   8   8    1.25    0.29
   0  -8   8    0.61    0.26
   0  -8   8    1.28    0.32
   0  -8   8    0.67    0.35
   0   8  -8    1.06    0.32
   0   8  -8    1.00    0.33
   0   8  -8    0.72    0.33
   0  -8  -8    1.30    0.33
   0  -8  -8    1.43    0.38
   0   9   8   19.80    0.89
   0   9   8   16.81    0.86
   0  -9   8   20.74    0.82
   0  -9   8   18.42    0.80
   0  -9   8   20.89    0.91
   0   9  -8   22.62    0.86
   0   9  -8   20.89    1.07
   0   9  -8   17.57    0.87
   0  -9  -8   20.30    0.91
   0  -9  -8   21.73    0.90
   0  10   8    3.07    0.53
   0  10   8    1.61    0.52
   0 -10   8    4.34    0.65
   0 -10   8    1.08    0.77
   0 -10   8    3.71    0.55
   0  10  -8    1.44    0.54
   0  10  -8    3.79    0.54
   0  10  -8    3.13    0.59
   0 -10  -8    3.34    0.55
   0 -10  -8    1.08    0.49
   0  11   8    0.59    0.57
   0  11   8   -0.22    0.54
   0 -11   8    0.46    0.56
   0  11  -8    1.62    0.65
   0  11  -8   -0.94    0.52
   0 -11  -8    2.52    0.61
   0 -12   8    0.38    0.75
   0  12  -8    0.50    0.65
   0   0   9   -0.18    0.12
   0   0   9    0.29    0.11
   0   0   9   -0.09    0.11
   0   0  -9    0.21    0.12
   0   0  -9   -0.17    0.11
   0   0  -9    0.07    0.11
   0   1   9    9.20    0.35
   0   1   9    6.96    0.33
   0   1   9    8.32    0.28
   0  -1   9    7.29    0.35
   0  -1   9    6.95    0.31
   0  -1   9    8.08    0.32
   0   1  -9    7.10    0.32
   0   1  -9    7.88    0.34
   0   1  -9    7.24    0.30
   0  -1  -9    7.79    0.34
   0  -1  -9    8.14    0.34
   0  -1  -9    7.32    0.26
   0   2   9   16.25    0.46
   0   2   9   13.58    0.42
   0   2   9   15.16    0.35
   0  -2   9   12.77    0.40
   0   2  -9   12.63    0.40
   0   2  -9   13.50    0.42
   0   2  -9   13.50    0.42
   0  -2  -9   13.93    0.43
   0  -2  -9   13.36    0.42
   0  -2  -9   14.93    0.33
   0   3   9    4.77    0.33
   0  -3   9    4.15    0.29
   0  -3   9    4.22    0.30
   0   3  -9    4.77    0.29
   0   3  -9    4.24    0.32
   0   3  -9    4.37    0.32
   0  -3  -9    4.81    0.32
   0  -3  -9    4.46    0.32
   0  -3  -9    4.62    0.22
   0   4   9   54.85    0.87
   0   4   9   45.67    0.81
   0  -4   9   46.33    0.76
   0  -4   9   48.42    0.77
   0  -4   9   50.73    0.85
   0   4  -9   45.89    0.77
   0   4  -9   45.48    0.78
   0   4  -9   41.01    0.97
   0  -4  -9   54.37    0.84
   0  -4  -9   48.75    0.82
   0  -4  -9   48.10    0.51
   0  -4  -9   51.93    0.53
   0   5   9    3.50    0.33
   0   5   9    3.19    0.38
   0  -5   9    2.93    0.37
   0  -5   9    2.49    0.29
   0   5  -9    3.00    0.33
   0   5  -9    3.21    0.40
   0   5  -9    3.62    0.32
   0  -5  -9    3.02    0.38
   0  -5  -9    2.62    0.26
   0  -5  -9    3.48    0.22
   0  -5  -9    2.78    0.21
   0   6   9    9.70    0.55
   0   6   9    7.12    0.51
   0  -6   9    9.00    0.48
   0  -6   9    9.30    0.53
   0   6  -9    8.72    0.47
   0   6  -9    8.38    0.51
   0   6  -9    8.74    0.49
   0  -6  -9    9.47    0.51
   0  -6  -9    8.21    0.51
   0   7   9    3.13    0.40
   0   7   9    2.70    0.37
   0  -7   9    2.02    0.30
   0  -7   9    2.33    0.32
   0  -7   9    2.63    0.37
   0   7  -9    3.81    0.46
   0   7  -9    1.91    0.34
   0   7  -9    2.75    0.38
   0  -7  -9    2.46    0.31
   0  -7  -9    2.32    0.40
   0   8   9    0.31    0.35
   0   8   9    0.53    0.38
   0  -8   9    1.84    0.32
   0  -8   9    0.54    0.33
   0  -8   9    0.37    0.34
   0   8  -9   -0.03    0.32
   0   8  -9    0.54    0.33
   0   8  -9    0.04    0.35
   0  -8  -9    0.35    0.29
   0  -8  -9    0.63    0.35
   0   9   9    1.43    0.45
   0   9   9    1.02    0.42
   0  -9   9    1.22    0.34
   0  -9   9    1.40    0.40
   0  -9   9    0.62    0.49
   0   9  -9    1.37    0.39
   0   9  -9    0.82    0.40
   0   9  -9    1.41    0.45
   0  -9  -9    0.41    0.37
   0  -9  -9    0.53    0.44
   0  10   9    4.02    0.59
   0  10   9    3.95    0.62
   0 -10   9    4.04    0.61
   0  10  -9    3.37    0.49
   0  10  -9    4.23    0.58
   0  10  -9    3.14    0.60
   0 -10  -9    2.20    0.51
   0 -10  -9    0.12    0.51
   0  11   9   -0.79    0.57
   0  11   9   -0.42    0.68
   0 -11   9    1.01    0.65
   0  11  -9    1.47    0.55
   0 -11  -9   -0.73    0.67
   0  12   9   10.02    1.01
   0 -12   9    9.27    1.02
   0  12  -9   10.61    1.23
   0   0  10  208.59    1.48
   0   0  10  189.29    1.40
   0   0  10  215.06    1.40
   0   0 -10  200.49    1.45
   0   0 -10  194.24    1.44
   0   0 -10  205.55    1.36
   0   1  10   68.78    0.88
   0   1  10   58.10    0.81
   0   1  10   67.49    0.75
   0  -1  10   63.28    0.83
   0  -1  10   59.19    0.80
   0  -1  10   67.74    0.86
   0   1 -10   59.99    0.82
   0   1 -10   58.96    0.81
   0   1 -10   64.49    0.82
   0  -1 -10   63.30    0.85
   0  -1 -10   60.62    0.83
   0  -1 -10   63.97    0.73
   0   2  10   10.39    0.43
   0   2  10    8.12    0.38
   0   2  10    9.55    0.32
   0  -2  10    7.49    0.36
   0  -2  10    8.57    0.39
   0   2 -10    8.84    0.37
   0   2 -10    8.13    0.37
   0   2 -10    8.99    0.38
   0  -2 -10    9.39    0.39
   0  -2 -10    8.47    0.38
   0  -2 -10    9.19    0.30
   0   3  10   29.83    0.67
   0   3  10   22.13    0.57
   0  -3  10   22.82    0.55
   0  -3  10   26.41    0.62
   0   3 -10   24.03    0.57
   0   3 -10   25.39    0.61
   0   3 -10   24.67    0.67
   0  -3 -10   26.09    0.61
   0  -3 -10   25.63    0.61
   0  -3 -10   25.34    0.43
   0   4  10    0.61    0.19
   0   4  10    0.44    0.17
   0  -4  10    0.35    0.18
   0  -4  10    0.48    0.19
   0  -4  10    0.01    0.18
   0   4 -10    0.07    0.16
   0   4 -10    0.15    0.20
   0   4 -10    0.10    0.20
   0  -4 -10    0.81    0.21
   0  -4 -10    0.98    0.22
   0  -4 -10    0.78    0.14
   0  -4 -10    0.39    0.12
   0   5  10   45.28    0.91
   0   5  10   37.42    0.84
   0  -5  10   34.78    0.75
   0  -5  10   37.05    0.76
   0  -5  10   39.11    0.85
   0   5 -10   34.80    0.75
   0   5 -10   36.30    0.81
   0   5 -10   36.96    0.81
   0  -5 -10   38.50    0.79
   0  -5 -10   38.09    0.83
   0  -5 -10   38.17    0.49
   0  -5 -10   39.00    0.49
   0   6  10    3.12    0.38
   0   6  10    2.21    0.32
   0  -6  10    1.60    0.28
   0  -6  10    2.13    0.29
   0  -6  10    1.60    0.33
   0   6 -10    1.98    0.30
   0   6 -10    2.15    0.35
   0   6 -10    2.41    0.31
   0  -6 -10    1.87    0.31
   0  -6 -10    1.84    0.34
   0   7  10   41.27    1.01
   0   7  10   32.03    0.92
   0  -7  10   35.53    0.85
   0  -7  10   34.14    0.84
   0  -7  10   37.45    0.97
   0   7 -10   34.43    0.85
   0   7 -10   34.91    0.91
   0   7 -10   31.79    0.88
   0  -7 -10   36.24    0.90
   0  -7 -10   37.20    0.95
   0   8  10    4.37    0.47
   0   8  10    5.17    0.52
   0  -8  10    5.73    0.51
   0  -8  10    4.87    0.47
   0  -8  10    6.29    0.54
   0   8 -10    4.69    0.48
   0   8 -10    5.35    0.52
   0   8 -10    5.40    0.58
   0  -8 -10    6.76    0.59
   0  -8 -10    5.99    0.73
   0   9  10    2.49    0.44
   0   9  10    2.06    0.45
   0  -9  10    2.62    0.47
   0  -9  10    2.27    0.47
   0  -9  10    2.37    0.52
   0   9 -10    2.69    0.48
   0   9 -10    3.05    0.54
   0  -9 -10    1.72    0.43
   0  -9 -10    2.00    0.48
   0  10  10    4.25    0.58
   0  10  10    4.64    0.66
   0 -10  10    4.62    0.60
   0  10 -10    3.55    0.52
   0  10 -10    3.78    0.57
   0 -10 -10    2.69    0.52
   0 -10 -10    1.58    0.54
   0  11  10    0.86    0.58
   0 -11  10   -0.18    0.60
   0  11 -10   -0.82    0.55
   0  12  10    0.06    0.75
   0 -12  10    0.28    0.78
   0  12 -10    0.09    0.74
   0   0  11   -0.17    0.15
   0   0  11    0.10    0.13
   0   0  11   -0.14    0.13
   0   0 -11    0.04    0.15
   0   0 -11    0.05    0.15
   0   0 -11    0.03    0.15
   0   1  11    2.93    0.32
   0   1  11    2.47    0.26
   0   1  11    3.00    0.26
   0  -1  11    2.67    0.32
   0  -1  11    1.97    0.20
   0  -1  11    2.57    0.30
   0   1 -11    3.00    0.30
   0   1 -11    2.17    0.26
   0   1 -11    2.34    0.25
   0  -1 -11    2.48    0.30
   0  -1 -11    2.90    0.31
   0  -1 -11    2.07    0.25
   0   2  11   32.81    0.70
   0   2  11   27.90    0.63
   0   2  11   33.43    0.56
   0  -2  11   29.61    0.64
   0  -2  11   30.62    0.64
   0  -2  11   30.81    0.66
   0   2 -11   27.39    0.61
   0   2 -11   28.25    0.64
   0   2 -11   30.62    0.64
   0  -2 -11   28.88    0.64
   0  -2 -11   30.20    0.66
   0  -2 -11   30.66    0.52
   0   3  11  222.49    1.75
   0   3  11  187.51    1.60
   0  -3  11  189.75    1.54
   0  -3  11  207.12    1.71
   0   3 -11  181.64    1.54
   0   3 -11  192.62    1.60
   0   3 -11  200.50    1.67
   0  -3 -11  206.98    1.67
   0  -3 -11  194.85    1.63
   0  -3 -11  199.72    1.20
   0   4  11   17.21    0.60
   0   4  11   13.47    0.55
   0  -4  11   11.91    0.62
   0  -4  11   12.68    0.58
   0  -4  11   15.13    0.57
   0   4 -11   13.37    0.52
   0   4 -11   14.36    0.58
   0   4 -11   14.49    0.55
   0  -4 -11   14.45    0.54
   0  -4 -11   15.28    0.58
   0  -4 -11   14.65    0.36
   0  -4 -11   14.69    0.36
   0   5  11   77.37    1.18
   0   5  11   67.00    1.09
   0  -5  11   63.65    1.01
   0  -5  11   69.94    1.04
   0  -5  11   72.58    1.17
   0   5 -11   65.67    1.04
   0   5 -11   64.67    1.08
   0   5 -11   69.09    1.11
   0  -5 -11   71.39    1.10
   0  -5 -11   69.88    1.12
   0  -5 -11   68.62    0.66
   0  -5 -11   71.93    0.68
   0   6  11    3.65    0.42
   0   6  11    2.47    0.34
   0  -6  11    2.11    0.33
   0  -6  11    2.75    0.36
   0  -6  11    2.27    0.35
   0   6 -11    2.60    0.34
   0   6 -11    2.24    0.35
   0   6 -11    2.12    0.30
   0  -6 -11    3.60    0.45
   0  -6 -11    3.05    0.37
   0   7  11   -0.44    0.35
   0   7  11    0.11    0.34
   0  -7  11   -0.08    0.25
   0  -7  11    0.10    0.30
   0  -7  11   -0.30    0.31
   0   7 -11   -0.38    0.27
   0   7 -11    0.70    0.33
   0   7 -11    0.50    0.32
   0  -7 -11    0.28    0.27
   0  -7 -11    0.41    0.34
   0   8  11    5.13    0.52
   0   8  11    4.30    0.50
   0  -8  11    4.46    0.46
   0  -8  11    3.42    0.47
   0  -8  11    3.49    0.61
   0   8 -11    2.82    0.40
   0   8 -11    4.21    0.50
   0   8 -11    3.34    0.48
   0  -8 -11    3.30    0.47
   0  -8 -11    2.80    0.39
   0   9  11    3.55    0.53
   0  -9  11    2.60    0.43
   0  -9  11    3.21    0.49
   0  -9  11    3.33    0.55
   0   9 -11    1.61    0.45
   0   9 -11    2.72    0.48
   0   9 -11    3.23    0.59
   0  -9 -11    1.97    0.52
   0  -9 -11    2.87    0.56
   0  10  11    1.14    0.56
   0  10  11    0.06    0.60
   0 -10  11    0.50    0.52
   0  10 -11   -0.84    0.50
   0  10 -11    0.70    0.51
   0 -10 -11   -1.15    0.59
   0 -11  11   -0.01    0.72
   0  11 -11   -0.34    0.60
   0  12  11   -0.05    0.81
   0 -12  11    1.70    0.93
   0  12 -11   -1.87    0.68
   0   0  12  384.40    2.21
   0   0  12  348.18    2.09
   0   0  12  395.42    2.10
   0   0 -12  367.13    2.17
   0   0 -12  360.57    2.16
   0   0 -12  388.35    2.06
   0   1  12   41.86    0.79
   0   1  12   34.81    0.72
   0   1  12   40.69    0.67
   0  -1  12   38.82    0.76
   0  -1  12   36.25    0.72
   0  -1  12   40.87    0.75
   0   1 -12   34.26    0.71
   0   1 -12   35.91    0.75
   0   1 -12   39.47    0.72
   0  -1 -12   36.75    0.74
   0  -1 -12   37.10    0.75
   0  -1 -12   38.45    0.64
   0   2  12  139.94    1.42
   0   2  12  119.11    1.30
   0   2  12  135.74    1.12
   0  -2  12  124.18    1.29
   0  -2  12  122.42    1.27
   0  -2  12  133.19    1.36
   0   2 -12  120.62    1.28
   0   2 -12  120.68    1.30
   0   2 -12  126.19    1.37
   0  -2 -12  127.29    1.33
   0  -2 -12  127.04    1.34
   0  -2 -12  126.30    1.07
   0   3  12   21.78    0.66
   0   3  12   16.25    0.57
   0  -3  12   17.87    0.60
   0  -3  12   17.60    0.56
   0  -3  12   19.71    0.63
   0   3 -12   18.30    0.57
   0   3 -12   19.41    0.61
   0   3 -12   19.01    0.59
   0  -3 -12   19.20    0.59
   0  -3 -12   19.01    0.62
   0  -3 -12   18.25    0.42
   0   4  12   15.91    0.64
   0   4  12   12.62    0.57
   0  -4  12   13.33    0.51
   0  -4  12   13.28    0.57
   0   4 -12   11.66    0.51
   0   4 -12   13.17    0.59
   0   4 -12   13.04    0.56
   0  -4 -12   14.86    0.58
   0  -4 -12   12.32    0.59
   0  -4 -12   13.41    0.38
   0   5  12   50.44    1.02
   0   5  12   40.67    0.92
   0  -5  12   35.45    0.98
   0  -5  12   44.13    0.90
   0  -5  12   46.18    1.01
   0   5 -12   41.41    0.89
   0   5 -12   43.23    0.96
   0   5 -12   44.16    0.94
   0  -5 -12   45.51    0.96
   0  -5 -12   44.38    0.58
   0  -5 -12   45.60    0.58
   0   6  12    0.30    0.33
   0   6  12   -0.40    0.30
   0  -6  12    0.47    0.28
   0  -6  12    0.09    0.27
   0  -6  12    0.48    0.32
   0   6 -12    1.01    0.31
   0   6 -12    0.60    0.33
   0   6 -12    0.33    0.26
   0  -6 -12    0.09    0.29
   0  -6 -12    0.02    0.31
   0   7  12   31.67    1.04
   0   7  12   26.15    0.93
   0  -7  12   24.58    0.79
   0  -7  12   28.82    0.96
   0   7 -12   26.14    0.84
   0   7 -12   23.42    0.88
   0   7 -12   24.51    0.83
   0  -7 -12   28.91    0.91
   0  -7 -12   27.59    0.92
   0   8  12   29.20    1.06
   0   8  12   24.45    1.01
   0  -8  12   23.65    0.87
   0  -8  12   20.72    0.89
   0  -8  12   27.62    1.05
   0   8 -12   24.00    0.87
   0   8 -12   19.86    0.89
   0  -8 -12   22.24    0.88
   0  -8 -12   22.55    0.94
   0   9  12    0.61    0.56
   0   9  12    1.21    0.62
   0  -9  12    0.46    0.55
   0  -9  12    0.44    0.45
   0  -9  12    0.95    0.48
   0   9 -12    0.35    0.45
   0   9 -12    0.12    0.47
   0  -9 -12    0.77    0.43
   0  -9 -12    0.35    0.51
   0  10  12    2.36    0.63
   0  10  12    2.39    0.67
   0 -10  12    1.26    0.61
   0  10 -12    4.01    0.58
   0  10 -12    4.04    0.65
   0 -10 -12    0.14    0.67
   0  11  12    2.10    0.75
   0 -11  12    0.32    0.71
   0  11 -12    1.57    0.68
   0   0  13   -0.01    0.20
   0   0  13   -0.48    0.18
   0   0  13    0.07    0.18
   0   0 -13    0.17    0.18
   0   0 -13   -0.10    0.18
   0   0 -13    0.36    0.17
   0   1  13  173.31    1.59
   0   1  13  143.49    1.44
   0   1  13  165.47    1.37
   0  -1  13  158.73    1.50
   0  -1  13  145.19    1.43
   0  -1  13  164.44    1.50
   0   1 -13  149.62    1.46
   0   1 -13  147.87    1.47
   0   1 -13  147.09    1.87
   0  -1 -13  150.65    1.47
   0  -1 -13  153.55    1.51
   0  -1 -13  157.79    1.32
   0   2  13   45.29    0.90
   0   2  13   37.32    0.82
   0   2  13   44.53    0.71
   0  -2  13   39.69    0.82
   0  -2  13   37.91    0.78
   0  -2  13   42.45    0.84
   0   2 -13   37.91    0.79
   0   2 -13   39.45    0.83
   0   2 -13   43.10    0.83
   0  -2 -13   41.11    0.83
   0  -2 -13   42.32    0.85
   0  -2 -13   39.63    0.66
   0   3  13  138.42    1.52
   0   3  13  112.17    1.36
   0   3  13  131.72    1.12
   0  -3  13  114.10    1.32
   0  -3  13  100.27    1.61
   0  -3  13  124.15    1.45
   0   3 -13  108.24    1.30
   0   3 -13  112.46    1.35
   0   3 -13  121.71    1.40
   0  -3 -13  125.19    1.42
   0  -3 -13  119.36    1.40
   0  -3 -13  121.46    1.06
   0   4  13   11.29    0.59
   0   4  13    9.12    0.55
   0  -4  13   10.82    0.62
   0  -4  13    9.41    0.50
   0  -4  13   11.21    0.59
   0   4 -13    9.07    0.52
   0   4 -13   11.09    0.59
   0   4 -13    9.16    0.53
   0  -4 -13    9.50    0.52
   0  -4 -13   10.43    0.59
   0  -4 -13    9.86    0.35
   0   5  13   36.96    0.96
   0   5  13   25.71    0.79
   0  -5  13   29.30    0.81
   0  -5  13   29.17    0.85
   0   5 -13   25.48    0.76
   0   5 -13   28.56    0.85
   0   5 -13   27.59    0.80
   0  -5 -13   29.44    0.83
   0  -5 -13   28.68    0.83
   0  -5 -13   28.64    0.51
   0  -5 -13   27.96    0.50
   0   6  13   -0.33    0.33
   0   6  13   -0.23    0.34
   0  -6  13    0.71    0.30
   0  -6  13   -0.14    0.28
   0  -6  13    0.37    0.33
   0   6 -13   -0.03    0.28
   0   6 -13   -0.96    0.32
   0   6 -13   -0.16    0.28
   0  -6 -13    0.71    0.31
   0  -6 -13   -0.05    0.34
   0  -6 -13    0.67    0.20
   0   7  13    1.01    0.40
   0   7  13    0.34    0.44
   0  -7  13    0.36    0.37
   0  -7  13    0.47    0.34
   0  -7  13    1.09    0.43
   0   7 -13    1.37    0.37
   0   7 -13    1.37    0.42
   0   7 -13    0.65    0.32
   0  -7 -13    1.15    0.33
   0  -7 -13    0.60    0.37
   0   8  13    1.33    0.45
   0   8  13   -0.16    0.47
   0  -8  13    0.60    0.39
   0  -8  13    0.21    0.44
   0  -8  13   -0.62    0.41
   0   8 -13   -0.07    0.44
   0   8 -13   -0.46    0.50
   0  -8 -13    0.41    0.35
   0  -8 -13    0.17    0.49
   0   9  13   -0.71    0.77
   0   9  13    0.91    0.63
   0  -9  13    0.70    0.47
   0  -9  13   -0.36    0.55
   0   9 -13   -0.66    0.49
   0   9 -13    0.32    0.54
   0  -9 -13   -0.73    0.54
   0  10  13    1.22    0.62
   0 -10  13    1.21    0.57
   0  10 -13    0.09    0.63
   0 -10 -13    0.27    0.63
   0  11  13    3.73    0.77
   0 -11  13    5.10    0.84
   0  11 -13    2.06    0.74
   0   0  14  164.42    1.60
   0   0  14  143.78    1.48
   0   0  14  165.19    1.49
   0   0 -14  152.58    1.54
   0   0 -14  151.19    1.55
   0   1  14   18.97    0.66
   0   1  14   14.20    0.56
   0   1  14   17.73    0.54
   0  -1  14   17.84    0.63
   0  -1  14   14.88    0.56
   0  -1  14   16.35    0.57
   0   1 -14   16.19    0.61
   0   1 -14   15.60    0.60
   0   1 -14   18.13    0.58
   0  -1 -14   16.58    0.62
   0  -1 -14   16.46    0.61
   0  -1 -14   17.32    0.52
   0   2  14   45.55    0.95
   0   2  14   35.96    0.84
   0   2  14   44.97    0.76
   0  -2  14   41.50    0.87
   0  -2  14   43.91    0.90
   0   2 -14   39.80    0.84
   0   2 -14   37.59    0.83
   0   2 -14   42.22    0.87
   0  -2 -14   41.55    0.87
   0  -2 -14   42.62    0.89
   0  -2 -14   42.73    0.71
   0   3  14   23.34    0.75
   0   3  14   18.97    0.68
   0   3  14   21.60    0.57
   0  -3  14   19.11    0.65
   0  -3  14   21.80    0.73
   0   3 -14   18.48    0.65
   0   3 -14   19.59    0.68
   0   3 -14   19.94    0.66
   0  -3 -14   19.46    0.68
   0  -3 -14   20.17    0.69
   0  -3 -14   18.41    0.51
   0   4  14   27.19    0.81
   0   4  14   21.45    0.76
   0  -4  14   22.46    0.74
   0  -4  14   22.74    0.73
   0  -4  14   26.35    0.82
   0   4 -14   23.87    0.73
   0   4 -14   22.25    0.79
   0   4 -14   23.25    0.74
   0  -4 -14   24.49    0.82
   0  -4 -14   24.65    0.81
   0  -4 -14   23.16    0.52
   0   5  14    2.47    0.39
   0   5  14    2.09    0.37
   0  -5  14    1.25    0.33
   0  -5  14    2.25    0.39
   0   5 -14    1.31    0.30
   0   5 -14    1.84    0.36
   0   5 -14    2.09    0.31
   0  -5 -14    1.40    0.33
   0  -5 -14    1.97    0.34
   0  -5 -14    1.58    0.24
   0  -5 -14    2.05    0.22
   0   6  14   32.12    1.04
   0   6  14   24.11    0.93
   0  -6  14   24.64    0.84
   0   6 -14   24.20    0.83
   0   6 -14   26.51    0.96
   0   6 -14   25.39    0.86
   0  -6 -14   27.54    0.90
   0  -6 -14   29.49    0.97
   0   7  14    1.13    0.46
   0   7  14   -0.50    0.39
   0  -7  14    0.79    0.39
   0  -7  14    1.41    0.36
   0  -7  14    0.19    0.44
   0   7 -14   -0.53    0.34
   0   7 -14   -0.89    0.42
   0   7 -14    0.38    0.40
   0  -7 -14   -0.27    0.41
   0  -7 -14   -0.08    0.46
   0   8  14    2.04    0.50
   0   8  14    0.30    0.51
   0  -8  14    0.10    0.47
   0  -8  14   -0.13    0.43
   0  -8  14    0.27    0.52
   0   8 -14    1.22    0.44
   0   8 -14    1.11    0.49
   0  -8 -14    1.75    0.40
   0  -8 -14    2.77    0.58
   0   9  14    1.71    0.57
   0  -9  14    0.74    0.55
   0  -9  14    0.25    0.54
   0   9 -14   -0.40    0.58
   0   9 -14    0.54    0.55
   0  -9 -14    0.70    0.53
   0  -9 -14   -0.40    0.61
   0  10  14   10.63    1.31
   0 -10  14   12.43    1.30
   0  10 -14    7.82    0.86
   0  11  14    3.32    0.84
   0 -11  14    0.12    0.80
   0  11 -14   -1.29    0.77
   0   0  15   -0.31    0.23
   0   0  15    0.32    0.21
   0   0 -15    0.17    0.20
   0   0 -15   -0.47    0.20
   0   0 -15    0.82    0.22
   0   1  15   73.84    1.17
   0   1  15   61.49    1.06
   0   1  15   71.40    1.02
   0  -1  15   68.92    1.12
   0  -1  15   67.33    1.07
   0   1 -15   63.41    1.09
   0   1 -15   61.89    1.08
   0   1 -15   67.25    1.06
   0  -1 -15   65.24    1.11
   0  -1 -15   63.21    1.09
   0   2  15   27.66    0.82
   0   2  15   22.32    0.75
   0   2  15   28.01    0.67
   0  -2  15   24.94    0.78
   0  -2  15   24.01    0.73
   0  -2  15   28.04    0.78
   0   2 -15   24.14    0.73
   0   2 -15   24.05    0.77
   0   2 -15   25.79    0.73
   0  -2 -15   26.23    0.78
   0  -2 -15   24.17    0.75
   0  -2 -15   25.92    0.61
   0   3  15  176.93    1.84
   0   3  15  147.02    1.67
   0   3  15  166.52    1.38
   0  -3  15  157.03    1.68
   0  -3  15  149.79    1.62
   0  -3  15  164.66    1.78
   0   3 -15  147.59    1.64
   0   3 -15  147.94    1.66
   0   3 -15  157.44    1.71
   0  -3 -15  156.11    1.72
   0  -3 -15  157.21    1.73
   0  -3 -15  156.39    1.31
   0   4  15   11.96    0.69
   0   4  15    9.06    0.61
   0  -4  15    8.29    0.60
   0  -4  15    9.27    0.59
   0  -4  15   10.55    0.68
   0   4 -15    9.67    0.59
   0   4 -15    8.78    0.65
   0   4 -15    9.91    0.57
   0  -4 -15   10.89    0.65
   0  -4 -15    9.60    0.68
   0  -4 -15    9.63    0.42
   0   5  15   59.35    1.22
   0   5  15   47.27    1.10
   0  -5  15   47.57    1.10
   0  -5  15   48.40    1.04
   0  -5  15   56.20    1.22
   0   5 -15   44.93    1.04
   0   5 -15   49.11    1.17
   0   5 -15   51.15    1.12
   0  -5 -15   52.59    1.16
   0  -5 -15   53.75    0.74
   0  -5 -15   50.35    0.72
   0   6  15    6.55    0.82
   0   6  15    3.98    0.52
   0  -6  15    2.78    0.41
   0  -6  15    3.95    0.50
   0   6 -15    3.39    0.45
   0   6 -15    4.68    0.53
   0   6 -15    3.87    0.48
   0  -6 -15    5.37    0.66
   0  -6 -15    2.20    0.47
   0  -6 -15    3.25    0.36
   0   7  15   19.31    1.09
   0   7  15   12.30    0.95
   0  -7  15   13.65    0.87
   0  -7  15   11.74    0.86
   0  -7  15   17.00    0.96
   0   7 -15   13.08    1.02
   0   7 -15   14.27    1.04
   0  -7 -15   15.63    0.88
   0  -7 -15   16.77    0.98
   0   8  15    2.10    0.64
   0  -8  15    0.39    0.46
   0  -8  15    3.25    0.59
   0   8 -15    1.12    0.48
   0   8 -15    1.51    0.56
   0  -8 -15    2.03    0.45
   0  -8 -15    1.76    0.52
   0   9  15    5.03    0.64
   0   9  15    5.68    0.71
   0  -9  15    1.33    0.58
   0  -9  15    6.06    0.74
   0   9 -15    4.88    0.66
   0   9 -15    2.01    0.65
   0  -9 -15   -0.04    0.54
   0  10  15    0.33    0.62
   0 -10  15   -0.40    0.71
   0  10 -15   -0.07    0.70
   0   0  16    0.28    0.27
   0   0  16    0.58    0.29
   0   0  16    0.68    0.28
   0   0 -16    0.70    0.27
   0   0 -16    1.31    0.32
   0   0 -16    1.21    0.26
   0   1  16   66.10    1.18
   0   1  16   53.12    1.25
   0   1  16   64.77    1.02
   0  -1  16   63.59    1.14
   0  -1  16   56.53    1.06
   0  -1  16   63.50    1.09
   0   1 -16   56.89    1.06
   0   1 -16   55.66    1.09
   0   1 -16   60.37    1.05
   0  -1 -16   58.35    1.13
   0  -1 -16   59.07    1.12
   0  -1 -16   60.10    0.98
   0   2  16  105.71    1.47
   0   2  16   87.31    1.34
   0   2  16  102.72    1.20
   0  -2  16   97.89    1.39
   0  -2  16   90.68    1.32
   0  -2  16  100.27    1.40
   0   2 -16   91.06    1.33
   0   2 -16   90.39    1.36
   0   2 -16   90.90    1.33
   0  -2 -16   97.07    1.40
   0  -2 -16   98.64    1.43
   0   3  16   10.34    0.70
   0   3  16    8.41    0.65
   0   3  16    9.25    0.52
   0  -3  16    9.19    0.64
   0  -3  16    9.07    0.59
   0  -3  16    8.94    0.59
   0   3 -16    9.21    0.61
   0   3 -16    9.27    0.64
   0   3 -16   10.63    0.61
   0  -3 -16    8.51    0.67
   0  -3 -16    8.35    0.62
   0  -3 -16    9.06    0.45
   0   4  16   10.21    0.72
   0   4  16    6.94    0.66
   0  -4  16    7.94    0.63
   0  -4  16    8.98    0.64
   0  -4  16    8.25    0.63
   0   4 -16    6.57    0.63
   0   4 -16    9.26    0.69
   0   4 -16    8.15    0.60
   0  -4 -16    7.41    0.66
   0  -4 -16    7.55    0.68
   0  -4 -16    7.31    0.44
   0   5  16   -0.01    0.39
   0   5  16   -0.38    0.37
   0  -5  16   -0.61    0.39
   0  -5  16    0.02    0.30
   0  -5  16    0.28    0.43
   0   5 -16    0.09    0.33
   0   5 -16    1.36    0.41
   0   5 -16   -0.29    0.33
   0  -5 -16    0.29    0.33
   0  -5 -16    0.64    0.36
   0  -5 -16    0.71    0.24
   0  -5 -16   -0.25    0.25
   0   6  16    0.35    0.44
   0   6  16   -1.07    0.71
   0  -6  16   -0.12    0.62
   0  -6  16    1.16    0.42
   0  -6  16    0.65    0.43
   0   6 -16    0.58    0.35
   0   6 -16    0.50    0.43
   0   6 -16   -0.04    0.38
   0  -6 -16    0.41    0.27
   0  -6 -16   -0.39    0.43
   0  -6 -16    0.49    0.25
   0   7  16    0.05    0.54
   0   7  16   -0.26    0.52
   0  -7  16   -0.03    0.62
   0  -7  16    0.49    0.55
   0  -7  16    0.96    0.46
   0   7 -16   -1.14    0.38
   0   7 -16    1.33    0.50
   0  -7 -16    0.06    0.46
   0  -7 -16    0.21    0.48
   0   8  16   16.06    1.26
   0   8  16   14.61    1.20
   0  -8  16    0.12    0.53
   0  -8  16   18.63    1.12
   0   8 -16   16.31    1.07
   0   8 -16   15.07    1.14
   0  -8 -16   17.20    1.16
   0  -8 -16    1.17    0.61
   0   9  16    5.36    0.74
   0   9  16    2.87    0.79
   0  -9  16    6.03    0.85
   0   9 -16    6.29    0.77
   0  -9 -16   -0.83    0.54
   0  10  16   -0.10    0.76
   0 -10  16    0.51    0.81
   0   0  17    0.07    0.31
   0   0  17    0.11    0.29
   0   0  17    0.35    0.28
   0   0 -17    0.33    0.33
   0   0 -17   -0.44    0.28
   0   0 -17   -0.30    0.27
   0   1  17   24.41    0.87
   0   1  17   18.12    0.74
   0   1  17   23.56    0.73
   0  -1  17   22.77    0.85
   0  -1  17   20.76    0.75
   0  -1  17   22.77    0.75
   0   1 -17   21.59    0.80
   0   1 -17   22.02    0.82
   0   1 -17   22.24    0.76
   0  -1 -17   19.93    0.79
   0  -1 -17   21.56    0.83
   0  -1 -17   21.51    0.69
   0   2  17    4.47    0.49
   0   2  17    3.30    0.42
   0   2  17    3.84    0.38
   0  -2  17    3.98    0.48
   0  -2  17    5.44    0.57
   0  -2  17    3.30    0.43
   0   2 -17    5.01    0.56
   0   2 -17    3.98    0.47
   0   2 -17    4.09    0.42
   0  -2 -17    3.98    0.45
   0  -2 -17    3.68    0.44
   0  -2 -17    3.72    0.37
   0   3  17   -0.40    0.37
   0   3  17   -0.35    0.33
   0   3  17    0.45    0.29
   0  -3  17   -0.49    0.35
   0  -3  17    0.26    0.33
   0  -3  17   -0.44    0.31
   0   3 -17   -0.12    0.30
   0   3 -17   -0.24    0.35
   0   3 -17   -0.18    0.31
   0  -3 -17   -0.17    0.35
   0  -3 -17    0.24    0.32
   0   4  17    9.59    0.80
   0   4  17    6.16    0.72
   0  -4  17    7.57    0.75
   0  -4  17    8.06    0.67
   0   4 -17    6.30    0.69
   0   4 -17    7.62    0.74
   0   4 -17    8.73    0.64
   0  -4 -17    7.38    0.73
   0  -4 -17    7.06    0.76
   0  -4 -17    7.72    0.49
   0   5  17   22.83    1.01
   0   5  17   18.59    0.92
   0  -5  17   18.85    0.88
   0  -5  17   16.39    0.84
   0  -5  17   20.64    0.93
   0   5 -17   18.19    0.89
   0   5 -17   20.01    0.91
   0   5 -17   15.14    0.82
   0  -5 -17   18.62    0.89
   0  -5 -17   20.72    1.01
   0  -5 -17   20.72    0.61
   0  -5 -17   20.00    0.60
   0   6  17   -0.89    0.39
   0   6  17   -1.24    0.47
   0  -6  17   -0.23    0.43
   0  -6  17    0.62    0.47
   0  -6  17   -0.10    0.44
   0   6 -17    0.03    0.51
   0  -6 -17    0.91    0.51
   0  -6 -17   -0.35    0.46
   0  -6 -17    0.03    0.26
   0  -6 -17   -0.02    0.28
   0   7  17    0.34    0.58
   0  -7  17    1.30    0.54
   0   7 -17    1.54    0.52
   0   7 -17    1.34    0.53
   0  -7 -17    0.39    0.32
   0  -7 -17   -0.74    0.44
   0   8  17    1.88    0.94
   0   8  17    1.46    0.66
   0  -8  17   -0.03    0.54
   0  -8  17    2.38    0.67
   0   8 -17    2.24    0.57
   0   8 -17    2.38    0.62
   0  -8 -17    1.66    0.53
   0  -8 -17    0.17    0.70
   0   9  17    2.02    0.75
   0  -9  17    1.21    0.68
   0   9 -17    0.40    0.69
   0  10  17   -0.46    0.87
   0 -10  17   -1.41    0.84
   0  10 -17    1.05    0.89
   0   0  18   50.58    1.14
   0   0  18   40.82    1.03
   0   0  18   50.11    1.03
   0   0 -18   40.50    1.05
   0   0 -18   43.91    1.11
   0   0 -18   45.68    0.99
   0   1  18   90.56    1.48
   0   1  18   71.04    1.28
   0   1  18   85.07    1.25
   0  -1  18   81.83    1.38
   0  -1  18   72.90    1.30
   0  -1  18   85.09    1.34
   0   1 -18   73.88    1.34
   0   1 -18   80.36    1.39
   0   1 -18   76.07    1.27
   0  -1 -18   73.90    1.32
   0  -1 -18   80.35    1.40
   0  -1 -18   80.79    1.23
   0   2  18    1.02    0.38
   0   2  18    0.06    0.35
   0   2  18    0.69    0.35
   0  -2  18    0.18    0.40
   0  -2  18    2.25    0.36
   0  -2  18    0.42    0.32
   0   2 -18    0.97    0.38
   0   2 -18   -1.05    0.37
   0   2 -18   -0.37    0.33
   0  -2 -18    0.18    0.34
   0  -2 -18    0.34    0.31
   0   3  18   16.44    0.91
   0   3  18   11.23    0.79
   0   3  18   15.74    0.68
   0  -3  18   14.63    0.83
   0  -3  18   14.25    0.75
   0   3 -18   12.93    0.76
   0   3 -18   14.09    0.84
   0   3 -18   11.07    0.75
   0  -3 -18   11.54    0.81
   0  -3 -18   13.15    0.80
   0  -3 -18   13.58    0.60
   0   4  18    6.89    0.64
   0   4  18    4.77    0.59
   0  -4  18    4.96    0.54
   0  -4  18    5.84    0.57
   0  -4  18    5.27    0.58
   0   4 -18    4.24    0.52
   0   4 -18    4.32    0.45
   0   4 -18    5.95    0.56
   0  -4 -18    5.97    0.58
   0  -4 -18    6.60    0.81
   0   5  18    7.63    0.90
   0   5  18    7.01    0.85
   0  -5  18    4.49    0.57
   0  -5  18    3.86    0.54
   0  -5  18    7.57    0.78
   0   5 -18    4.55    0.62
   0   5 -18    9.18    0.86
   0  -5 -18    6.80    0.81
   0  -5 -18    8.41    0.91
   0  -5 -18    6.55    0.52
   0  -5 -18    6.85    0.54
   0   6  18    1.10    0.47
   0   6  18    1.02    0.55
   0  -6  18    0.11    0.42
   0  -6  18    1.91    0.49
   0  -6  18    0.73    0.49
   0   6 -18    0.72    0.46
   0   6 -18    1.02    0.50
   0  -6 -18    0.44    0.50
   0  -6 -18   -0.45    0.47
   0  -6 -18    0.00    0.28
   0   7  18    4.90    0.70
   0   7  18    2.22    0.61
   0  -7  18    2.32    0.64
   0   7 -18    3.81    0.57
   0   7 -18    3.14    0.67
   0  -7 -18    2.21    0.58
   0  -7 -18   -0.04    0.65
   0   8  18    0.24    0.72
   0   8  18   -1.62    0.68
   0  -8  18    0.10    0.69
   0   8 -18    1.12    0.63
   0  -8 -18    0.38    0.70
   0   9  18   19.98    1.51
   0  -9  18   11.02    1.03
   0   9 -18   10.74    1.01
   0   0  19   -0.51    0.36
   0   0  19    0.38    0.37
   0   0  19    0.03    0.34
   0   0 -19   -0.14    0.36
   0   0 -19    0.53    0.40
   0   0 -19    0.84    0.34
   0   1  19   27.27    1.02
   0   1  19   20.91    0.84
   0   1  19   24.18    0.85
   0  -1  19   24.61    0.98
   0  -1  19   21.43    0.90
   0  -1  19   25.50    0.88
   0   1 -19   24.63    0.91
   0   1 -19   23.22    0.97
   0   1 -19   23.31    0.88
   0  -1 -19   22.49    0.99
   0  -1 -19   27.74    1.01
   0  -1 -19   25.14    0.80
   0   2  19    1.49    0.43
   0   2  19    0.57    0.31
   0   2  19    1.39    0.36
   0  -2  19    0.76    0.45
   0  -2  19    1.43    0.42
   0  -2  19    1.14    0.42
   0   2 -19    1.32    0.42
   0   2 -19    0.42    0.38
   0   2 -19    1.58    0.43
   0  -2 -19    0.50    0.47
   0  -2 -19    0.35    0.39
   0  -2 -19    0.60    0.35
   0   3  19    2.13    0.52
   0   3  19    2.70    0.45
   0   3  19    2.86    0.42
   0  -3  19    2.04    0.49
   0  -3  19    1.59    0.35
   0  -3  19    1.19    0.39
   0   3 -19    2.34    0.47
   0   3 -19    1.13    0.48
   0   3 -19    1.54    0.39
   0  -3 -19    1.16    0.45
   0  -3 -19    2.95    0.53
   0  -3 -19    2.29    0.36
   0   4  19   24.32    1.09
   0   4  19   19.13    1.05
   0  -4  19   20.91    1.01
   0  -4  19   16.61    0.97
   0  -4  19   18.34    0.92
   0   4 -19   17.35    0.96
   0   4 -19   19.05    0.98
   0   4 -19   31.05    1.58
   0  -4 -19   18.58    1.01
   0  -4 -19   22.35    1.07
   0  -4 -19   20.20    0.74
   0   5  19    4.85    0.59
   0   5  19    4.57    0.65
   0  -5  19    2.08    0.56
   0  -5  19    1.56    0.48
   0  -5  19    4.42    0.57
   0   5 -19    3.38    0.53
   0   5 -19    2.21    0.48
   0  -5 -19    3.69    0.57
   0  -5 -19    3.32    0.60
   0  -5 -19    3.21    0.38
   0  -5 -19    3.12    0.53
   0   6  19    0.38    0.55
   0   6  19    1.77    0.60
   0  -6  19    0.10    0.56
   0  -6  19    3.13    0.64
   0   6 -19    2.81    0.57
   0   6 -19    1.83    0.58
   0  -6 -19    3.27    0.61
   0  -6 -19    2.34    0.61
   0  -6 -19    1.21    0.33
   0  -6 -19    2.25    0.40
   0   7  19    8.30    0.91
   0   7  19    7.51    0.83
   0  -7  19   -1.58    0.87
   0  -7  19    9.41    1.10
   0   7 -19    6.53    0.91
   0   7 -19    7.01    0.75
   0  -7 -19    5.46    0.76
   0  -7 -19   -1.05    0.65
   0   8  19    1.13    0.76
   0  -8  19   -0.34    0.67
   0   8 -19    0.31    0.73
   0  -8 -19   -0.20    1.19
   0   9  19    5.91    1.02
   0  -9  19    5.26    0.97
   0   9 -19    3.06    0.83
   0   0  20    0.80    0.47
   0   0  20    0.50    0.40
   0   0 -20   -0.52    0.43
   0   0 -20    0.51    0.45
   0   0 -20   -0.39    0.39
   0   1  20   10.91    0.87
   0   1  20    7.08    0.78
   0   1  20    9.70    0.77
   0  -1  20   11.07    0.85
   0  -1  20    8.48    0.79
   0  -1  20   12.04    0.83
   0   1 -20    8.76    0.87
   0   1 -20    7.20    0.80
   0   1 -20    9.70    0.76
   0  -1 -20    8.52    0.79
   0  -1 -20   10.62    0.87
   0  -1 -20    9.91    0.70
   0   2  20   15.00    1.00
   0   2  20    8.39    0.83
   0   2  20   13.24    0.76
   0  -2  20   12.43    0.92
   0  -2  20    9.38    0.91
   0  -2  20   10.20    0.80
   0   2 -20   10.83    0.83
   0   2 -20   11.00    0.94
   0   2 -20    9.15    0.81
   0  -2 -20    9.23    0.88
   0  -2 -20   11.84    0.92
   0  -2 -20   11.99    0.73
   0   3  20   -1.08    0.45
   0   3  20   -0.12    0.52
   0   3  20    0.30    0.40
   0  -3  20   -0.07    0.47
   0  -3  20    0.18    0.41
   0  -3  20    0.07    0.44
   0   3 -20   -0.66    0.50
   0   3 -20   -0.50    0.45
   0   3 -20    0.80    0.43
   0  -3 -20   -0.17    0.47
   0  -3 -20   -0.38    0.45
   0  -3 -20    1.07    0.35
   0   4  20    0.80    0.50
   0   4  20   -0.98    0.55
   0  -4  20    0.26    0.50
   0  -4  20    0.20    0.50
   0  -4  20    0.58    0.46
   0   4 -20    0.21    0.52
   0   4 -20   -0.43    0.69
   0  -4 -20   -0.31    0.52
   0  -4 -20    0.87    0.53
   0  -4 -20    1.77    0.38
   0   5  20   13.05    1.14
   0   5  20   10.81    1.33
   0  -5  20    1.52    0.53
   0  -5  20   13.62    1.29
   0  -5  20    9.59    0.95
   0   5 -20   13.26    1.00
   0   5 -20   13.60    1.01
   0  -5 -20   12.67    1.04
   0  -5 -20   14.26    1.19
   0  -5 -20   10.05    0.66
   0  -5 -20   13.45    0.75
   0   6  20    0.95    0.67
   0  -6  20    0.07    0.64
   0  -6  20   -1.01    0.57
   0   6 -20    1.03    0.57
   0   6 -20   -1.50    0.55
   0  -6 -20   -0.46    0.63
   0  -6 -20    1.18    0.58
   0  -6 -20   -0.40    0.45
   0   7  20   14.12    1.29
   0   7  20   15.88    1.39
   0  -7  20   13.63    1.25
   0   7 -20    8.82    0.86
   0  -7 -20   -1.03    0.72
   0   8  20   -0.75    0.76
   0  -8  20    0.80    0.75
   0   8 -20    1.34    0.82
   0   0  21   -0.45    0.50
   0   0  21   -0.47    0.50
   0   0  21   -0.47    0.74
   0   0 -21    0.77    0.51
   0   0 -21    1.76    0.48
   0   0 -21    0.10    0.41
   0   1  21    1.31    0.45
   0   1  21   -1.12    0.46
   0   1  21    0.84    0.45
   0  -1  21    0.94    0.47
   0  -1  21   -0.44    0.48
   0  -1  21    0.57    0.40
   0   1 -21   -0.78    0.86
   0   1 -21    0.19    0.49
   0   1 -21    1.13    0.47
   0  -1 -21    1.28    0.54
   0  -1 -21    0.95    0.49
   0  -1 -21    0.16    0.44
   0   2  21   19.67    1.08
   0   2  21   15.11    0.97
   0   2  21   17.72    0.88
   0  -2  21   18.41    1.02
   0  -2  21   14.09    1.05
   0  -2  21   15.27    0.90
   0   2 -21   17.51    1.08
   0   2 -21   15.51    1.00
   0  -2 -21   16.67    1.00
   0  -2 -21   15.33    1.06
   0  -2 -21   13.39    0.79
   0   3  21    0.13    0.53
   0   3  21    0.73    0.56
   0  -3  21   -0.10    0.54
   0  -3  21    0.35    0.40
   0  -3  21   -0.30    0.48
   0   3 -21    0.15    0.49
   0  -3 -21   -0.32    0.53
   0  -3 -21   -0.73    0.56
   0  -3 -21    1.09    0.42
   0   4  21   30.53    1.31
   0   4  21   24.64    1.24
   0  -4  21   -0.15    0.57
   0  -4  21   22.38    1.21
   0  -4  21   28.01    1.11
   0   4 -21   22.67    1.23
   0   4 -21   23.50    1.19
   0  -4 -21   21.49    1.22
   0  -4 -21   29.11    1.32
   0  -4 -21   24.10    0.89
   0   5  21    2.84    0.70
   0   5  21    3.25    0.75
   0  -5  21    0.02    0.62
   0  -5  21    6.23    0.76
   0   5 -21    5.11    0.71
   0   5 -21    4.68    0.71
   0  -5 -21    3.45    0.72
   0  -5 -21    4.00    0.71
   0  -5 -21    2.35    0.42
   0  -5 -21    3.81    0.53
   0   6  21    2.76    0.74
   0   6  21    2.60    0.84
   0  -6  21    1.70    0.65
   0   6 -21    1.94    0.58
   0  -6 -21    3.86    1.33
   0  -6 -21    0.04    0.73
   0  -6 -21    0.91    0.41
   0   7  21    5.35    0.98
   0  -7  21    3.04    0.79
   0   7 -21    3.61    0.79
   0   8  21    3.88    1.04
   0   8 -21    1.65    0.88
   0   0  22    6.78    0.73
   0   0  22    4.57    0.63
   0   0  22    6.95    0.84
   0   0 -22    5.77    0.77
   0   0 -22    4.61    0.63
   0   0 -22    6.74    0.83
   0   1  22   12.84    1.13
   0   1  22    8.79    0.76
   0   1  22   14.56    1.53
   0  -1  22    8.36    1.03
   0  -1  22    8.57    1.01
   0  -1  22   11.84    0.90
   0   1 -22   10.58    1.06
   0   1 -22   11.03    1.08
   0   1 -22    9.91    1.03
   0  -1 -22   11.05    0.99
   0  -1 -22    9.55    0.83
   0   2  22    1.53    0.60
   0   2  22    0.08    0.63
   0   2  22    0.36    0.47
   0  -2  22   -0.70    0.52
   0  -2  22    1.05    0.58
   0  -2  22   -0.12    0.43
   0   2 -22    1.94    0.61
   0  -2 -22    0.11    0.57
   0  -2 -22    0.61    0.48
   0   3  22    4.46    0.72
   0   3  22    3.28    0.69
   0  -3  22   -0.10    0.59
   0  -3  22    2.18    0.69
   0  -3  22    3.88    0.63
   0   3 -22    3.21    0.78
   0   3 -22    2.85    0.61
   0  -3 -22    2.95    0.62
   0  -3 -22    1.91    0.51
   0   4  22    0.31    0.66
   0   4  22    0.14    0.75
   0  -4  22   -0.56    0.58
   0  -4  22   -1.00    0.55
   0   4 -22    0.86    0.64
   0   4 -22    0.32    0.69
   0  -4 -22    1.63    0.71
   0  -4 -22   -0.22    0.56
   0  -4 -22    0.29    0.48
   0   5  22    9.59    0.98
   0   5  22    4.38    0.89
   0  -5  22    9.65    1.05
   0   5 -22    6.39    0.83
   0  -5 -22   11.46    1.30
   0  -5 -22    2.19    0.75
   0  -5 -22   -0.10    0.42
   0   6  22    1.29    0.97
   0  -6  22    3.05    0.73
   0   6 -22    2.06    0.85
   0  -6 -22    0.23    0.75
   0   7  22   16.17    1.99
   0  -7  22   19.57    1.42
   0   7 -22   15.92    1.47
   0   0  23   -0.16    0.55
   0   0  23    2.21    0.65
   0   0  23   -1.05    0.51
   0   0 -23    0.13    0.65
   0   0 -23   -0.42    0.62
   0   0 -23   -1.06    0.80
   0   1  23    0.24    0.56
   0   1  23    2.83    0.69
   0  -1  23    0.44    0.60
   0  -1  23    1.67    0.63
   0  -1  23    0.61    0.57
   0   1 -23   -0.50    0.63
   0   1 -23    0.98    0.69
   0  -1 -23    1.60    0.66
   0  -1 -23   -0.08    0.64
   0  -1 -23    0.68    0.52
   0   2  23    3.26    0.76
   0   2  23    5.86    0.75
   0  -2  23   -0.81    0.61
   0  -2  23    9.46    0.94
   0   2 -23    7.94    0.75
   0   2 -23    3.15    0.60
   0  -2 -23    9.52    1.15
   0  -2 -23    7.64    0.83
   0  -2 -23    9.42    0.92
   0   3  23    1.66    0.78
   0   3  23   -2.41    0.99
   0  -3  23    0.17    0.62
   0  -3  23    0.09    0.58
   0   3 -23    3.22    0.70
   0   3 -23    0.34    0.65
   0  -3 -23    0.01    0.85
   0  -3 -23    0.71    0.70
   0  -3 -23    0.95    0.58
   0   4  23    3.62    0.83
   0   4  23    6.34    0.89
   0  -4  23    7.30    0.93
   0   4 -23    3.19    0.71
   0  -4 -23    7.73    0.92
   0  -4 -23    2.22    0.71
   0   5  23    1.33    0.87
   0   5  23    7.87    0.89
   0  -5  23    6.91    0.78
   0   5 -23    2.69    0.85
   0  -5 -23    5.96    1.06
   0  -5 -23    1.06    0.81
   0   6  23   -2.09    0.85
   0  -6  23    1.52    0.80
   0   6 -23    0.55    0.80
   0   0  24   -0.17    0.64
   0   0  24   -1.78    1.14
   0   0  24    0.41    0.62
   0   0 -24    1.77    0.70
   0   0 -24    1.69    0.81
   0   1  24    1.05    0.69
   0   1  24   -1.57    0.74
   0   1  24    2.36    0.69
   0  -1  24   -1.16    0.66
   0  -1  24    2.77    0.69
   0   1 -24    4.00    0.71
   0   1 -24    3.00    0.72
   0  -1 -24    2.95    0.83
   0  -1 -24    0.37    1.13
   0   2  24   -1.67    0.72
   0   2  24    1.83    0.88
   0   2  24    2.36    0.66
   0  -2  24    0.56    0.79
   0  -2  24    1.69    0.69
   0   2 -24    0.73    0.62
   0  -2 -24    1.27    0.77
   0  -2 -24    2.10    0.76
   0  -2 -24    0.42    0.64
   0   3  24    2.19    0.82
   0   3  24    1.19    0.77
   0  -3  24    2.08    0.63
   0   3 -24    2.04    0.77
   0  -3 -24    1.10    0.75
   0  -3 -24    2.28    0.81
   0  -3 -24    2.06    0.95
   0   4  24    1.81    0.87
   0   4  24   -0.32    0.80
   0  -4  24   -0.42    0.71
   0   4 -24    0.40    0.68
   0  -4 -24   -0.49    0.86
   0  -4 -24    1.19    0.89
   0   5  24   -0.80    1.15
   0  -5  24    2.28    0.81
   0   5 -24    0.14    0.75
   0   0  25    1.13    0.69
   0   0 -25   -1.53    0.76
   0   1  25    3.28    1.04
   0   1  25   -0.08    0.67
   0  -1  25    0.64    0.71
   0   1 -25    1.36    0.74
   0  -1 -25    1.35    0.76
   0   2  25    0.49    1.01
   0   2  25    1.50    0.68
   0  -2  25    3.11    0.86
   0   2 -25    2.02    0.78
   0  -2 -25    4.02    1.02
   0   3  25    0.67    1.46
   0  -3  25    2.16    0.78
   0   3 -25    1.68    0.70
   0  -3 -25    1.50    1.21
   0  -4  25    3.91    0.84
   0   4 -25    5.20    0.95
   0   0  26    9.91    1.06
   0   0 -26    5.71    1.02
   0   1  26   -1.00    0.73
   0  -1  26   -1.28    0.78
   0   1 -26   -0.40    0.87
   0   2  26    5.05    0.86
   0  -2  26    2.63    0.94
   0   2 -26    3.43    0.78
   0  -2 -26   -0.38    0.84
   1   0   0  355.39    0.75
   1   0   0  310.32    0.64
   1   0   0  335.38    1.12
   1   0  -1    0.15    0.03
   1   0  -1    0.23    0.04
   1   0  -1    0.15    0.05
  -1   0   1    0.22    0.04
  -1   0   1    0.06    0.03
  -1   0   0  260.01    0.74
  -1   0   0  250.67    0.63
   1   1   0  515.81    1.32
   1   1   0  550.38    1.56
   1   1  -1   62.97    0.53
  -1   1   1   63.08    0.44
  -1  -1   1   66.07    0.49
  -1  -1   1   60.21    0.47
  -1  -1   1   63.42    0.54
  -1   1   0  555.84    1.39
  -1  -1   0  512.79    1.33
  -1  -1   0  580.50    1.67
  -1  -1   0  525.30    1.53
   1   2   0    3.08    0.15
   1   2   0    3.00    0.16
   1   2   0    3.12    0.16
   1  -2   0    3.13    0.18
   1   2  -1    9.24    0.24
   1   2  -1    8.67    0.23
   1   2  -1    9.65    0.25
   1  -2  -1    9.90    0.15
   1  -2  -1    9.61    0.14
  -1   2   1   10.52    0.17
  -1   2   1   10.65    0.19
  -1  -2   1    9.18    0.24
  -1  -2   1    9.51    0.26
  -1  -2   1    9.46    0.25
  -1   2   0    3.36    0.10
  -1   2   0    3.47    0.14
  -1  -2   0    3.33    0.16
  -1  -2   0    3.37    0.18
  -1  -2   0    3.01    0.17
   1   3   0   52.83    0.68
   1   3   0   53.62    0.63
   1   3   0   50.29    0.59
   1  -3   0   56.33    0.44
   1  -3   0   49.32    0.41
   1  -3   0   53.96    0.50
   1   3  -1  120.81    0.94
   1   3  -1  115.22    0.92
   1   3  -1  116.96    0.90
   1  -3  -1  128.05    0.69
   1  -3  -1  120.26    0.66
  -1   3   1  130.72    0.75
  -1   3   1  122.75    0.74
  -1   3   1  123.51    0.67
  -1  -3   1  122.22    0.94
  -1  -3   1  123.19    0.96
  -1  -3   1  115.44    0.90
  -1   3   0   58.50    0.49
  -1   3   0   46.94    0.56
  -1   3   0   53.01    0.50
  -1  -3   0   55.44    0.64
  -1  -3   0   52.15    0.63
  -1  -3   0   50.37    0.59
   1   4   0    2.76    0.25
   1   4   0    2.70    0.26
   1   4   0    2.98    0.21
   1  -4   0    3.26    0.18
   1  -4   0    3.00    0.19
   1  -4   0    2.67    0.19
   1   4  -1  413.64    1.95
   1   4  -1  394.20    1.80
   1  -4  -1  418.61    1.50
   1  -4  -1  402.58    1.48
   1  -4  -1  404.69    1.36
  -1   4   1  406.39    1.59
  -1   4   1  397.17    1.56
  -1   4   1  401.79    1.35
  -1  -4   1  420.82    1.96
  -1  -4   1  413.48    1.96
  -1  -4   1  388.20    1.81
  -1   4   0    3.22    0.19
  -1   4   0    3.10    0.20
  -1   4   0    3.00    0.19
  -1  -4   0    2.61    0.23
  -1  -4   0    2.85    0.28
  -1  -4   0    3.07    0.23
   1   5   0   21.57    0.54
   1   5   0   19.90    0.52
   1   5   0   19.61    0.46
   1  -5   0   22.67    0.43
   1  -5   0   19.90    0.42
   1  -5   0   20.90    0.41
   1   5  -1  110.26    1.13
   1   5  -1  105.03    1.02
   1  -5  -1  119.28    0.94
   1  -5  -1  105.28    0.89
   1  -5  -1  109.68    0.80
  -1   5   1  117.89    1.00
  -1   5   1  107.17    0.94
  -1   5   1  106.16    0.78
  -1  -5   1  115.18    1.14
  -1  -5   1  113.06    1.15
  -1  -5   1  109.65    1.06
  -1   5   0   21.01    0.45
  -1   5   0   20.01    0.44
  -1   5   0   19.89    0.40
  -1  -5   0   22.43    0.55
  -1  -5   0   20.79    0.55
  -1  -5   0   19.87    0.49
   1   6   0   34.41    0.72
   1   6   0   33.67    0.71
   1   6   0   32.31    0.62
   1  -6   0   32.79    0.68
   1  -6   0   31.69    0.57
   1  -6   0   33.22    0.56
   1   6  -1   35.14    0.73
   1   6  -1   34.86    0.66
   1  -6  -1   36.11    0.72
   1  -6  -1   35.76    0.61
   1  -6  -1   36.04    0.54
  -1   6   1   37.77    0.66
  -1   6   1   35.14    0.64
  -1   6   1   32.87    0.51
  -1  -6   1   37.34    0.75
  -1  -6   1   35.74    0.76
  -1  -6   1   35.57    0.69
  -1   6   0   36.54    0.64
  -1   6   0   33.87    0.63
  -1   6   0   33.09    0.54
  -1  -6   0   35.56    0.74
  -1  -6   0   34.03    0.74
  -1  -6   0   32.02    0.64
   1   7   0   15.56    0.60
   1   7   0   15.70    0.58
   1   7   0   14.87    0.50
   1  -7   0   16.46    0.48
   1  -7   0   14.36    0.48
   1  -7   0   16.35    0.47
   1   7  -1    0.98    0.25
   1  -7  -1    0.52    0.19
   1  -7  -1    0.70    0.21
   1  -7  -1    1.25    0.21
  -1   7   1    0.75    0.22
  -1   7   1    0.75    0.20
  -1   7   1    1.00    0.19
  -1  -7   1    0.92    0.24
  -1  -7   1    0.30    0.27
  -1  -7   1    1.24    0.25
  -1   7   0   15.79    0.53
  -1   7   0   15.52    0.52
  -1   7   0   14.63    0.45
  -1  -7   0   15.81    0.59
  -1  -7   0   15.71    0.65
  -1  -7   0   15.77    0.55
   1   8   0    0.67    0.25
   1   8   0    0.24    0.31
   1   8   0    0.72    0.25
   1  -8   0    0.33    0.22
   1  -8   0    1.03    0.25
   1  -8   0    0.91    0.24
   1   8  -1    3.56    0.38
   1   8  -1    3.46    0.39
   1   8  -1    3.58    0.35
   1  -8  -1    2.67    0.30
   1  -8  -1    3.70    0.42
   1  -8  -1    4.07    0.38
  -1   8   1    4.47    0.45
  -1   8   1    3.69    0.41
  -1   8   1    3.17    0.29
  -1  -8   1    3.19    0.36
  -1  -8   1    3.46    0.36
  -1  -8   1    3.74    0.46
  -1   8   0    1.34    0.27
  -1   8   0    1.38    0.25
  -1   8   0    1.26    0.25
  -1  -8   0    0.87    0.29
  -1  -8   0    1.24    0.37
  -1  -8   0    1.13    0.27
   1   9   0   18.26    0.79
   1   9   0   18.18    0.70
   1  -9   0   20.71    0.67
   1  -9   0   18.01    0.67
   1  -9   0   19.29    0.65
   1   9  -1   15.94    0.81
   1   9  -1   13.99    0.81
   1   9  -1   13.65    0.63
   1  -9  -1   13.63    0.59
   1  -9  -1   14.41    0.64
   1  -9  -1   13.91    0.57
  -1   9   1   14.63    0.70
  -1   9   1   13.59    0.64
  -1   9   1   13.48    0.54
  -1  -9   1   13.36    0.75
  -1  -9   1   14.98    0.76
  -1  -9   1   14.39    0.71
  -1   9   0   20.85    0.75
  -1   9   0   19.69    0.73
  -1   9   0   17.35    0.61
  -1  -9   0   22.43    0.89
  -1  -9   0   18.92    0.82
  -1  -9   0   20.84    0.73
   1  10   0    7.00    0.63
   1  10   0    8.48    0.87
   1  10   0    6.95    0.66
   1 -10   0    4.93    0.58
   1 -10   0    9.30    0.67
   1 -10   0    9.20    0.63
   1  10  -1   -1.04    0.44
   1  10  -1    1.13    0.41
   1  10  -1   -1.01    0.36
   1 -10  -1   -0.48    0.32
   1 -10  -1    0.71    0.37
   1 -10  -1    0.16    0.30
  -1  10   1    0.50    0.34
  -1  10   1    0.46    0.41
  -1  10   1    1.06    0.39
  -1 -10   1    0.04    0.46
  -1 -10   1   -0.10    0.44
  -1 -10   1    0.81    0.41
  -1  10   0    7.16    0.72
  -1  10   0   10.35    0.64
  -1 -10   0    7.53    0.78
  -1 -10   0    8.35    0.83
  -1 -10   0    8.90    0.71
   1  11   0    1.68    0.57
   1  11   0    1.62    0.60
   1  11   0   -0.03    0.52
   1 -11   0   -0.53    0.40
   1 -11   0    1.28    0.41
   1  11  -1   -0.33    0.54
   1  11  -1   -0.17    0.42
   1  11  -1   -1.11    0.46
   1 -11  -1    0.17    0.49
   1 -11  -1   -0.60    0.36
  -1  11   1    0.15    0.43
  -1  11   1    0.30    0.41
  -1 -11   1   -0.14    0.50
  -1 -11   1   -0.38    0.52
  -1 -11   1    0.15    0.49
  -1  11   0    1.15    0.51
  -1  11   0    0.65    0.48
  -1  11   0    0.41    0.42
  -1 -11   0    0.53    0.58
  -1 -11   0   -0.19    0.53
  -1 -11   0    0.10    0.50
   1  12   0    2.01    0.61
   1  12   0    2.96    0.67
   1 -12   0    1.38    0.53
   1  12  -1   19.83    1.27
   1  12  -1    9.50    1.07
   1 -12  -1    0.44    0.46
  -1  12   1   17.29    1.21
  -1 -12   1   14.90    1.10
  -1  12   0    4.27    0.66
  -1  12   0    2.51    0.81
  -1 -12   0    2.88    0.75
   1  13   0    2.43    0.85
   1  13  -1    1.45    0.69
  -1  13   1    2.35    0.70
  -1 -13   1    1.04    0.77
  -1  13   0   -0.20    0.74
  -1 -13   0    1.01    0.69
   1   0   1    0.01    0.02
   1   0   1    0.22    0.04
   1   0  -2   96.79    0.49
   1   0  -2   93.45    0.48
   1   0  -2  103.11    0.60
  -1   0   2   95.01    0.50
  -1   0   2   96.28    0.50
  -1   0  -1    0.10    0.03
  -1   0  -1    0.13    0.03
   1   1   1  388.33    1.17
   1   1   1  391.50    1.34
   1  -1   1  327.96    1.17
   1   1  -2  171.31    0.89
   1  -1  -2  159.99    0.54
   1  -1  -2  166.89    0.55
   1  -1  -2  176.99    0.68
  -1   1   2  164.28    0.60
  -1   1   2  160.63    0.59
  -1   1   2  163.81    0.65
  -1  -1   2  166.03    0.82
  -1  -1   2  168.31    0.82
  -1  -1   2  164.60    0.88
  -1   1  -1  405.80    1.30
  -1  -1  -1  394.26    1.20
  -1  -1  -1  388.66    1.20
  -1  -1  -1  385.49    1.34
   1   2   1  503.13    1.65
   1   2   1  562.36    1.74
   1   2   1  537.25    1.70
   1  -2   1  563.31    1.62
   1   2  -2  185.15    1.02
   1   2  -2  188.80    1.03
   1   2  -2  199.35    1.09
   1  -2  -2  197.28    0.73
   1  -2  -2  197.01    0.72
  -1   2   2  210.50    0.81
  -1   2   2  191.69    0.77
  -1   2   2  205.01    0.68
  -1  -2   2  192.63    1.05
  -1  -2   2  191.69    1.04
  -1  -2   2  193.73    1.08
  -1   2  -1  600.70    1.38
  -1   2  -1  577.51    1.63
  -1  -2  -1  563.15    1.76
  -1  -2  -1  570.17    1.78
  -1  -2  -1  547.97    1.73
   1   3   1  301.52    1.82
   1   3   1  337.22    1.57
   1   3   1  338.09    1.48
   1  -3   1  350.11    1.08
   1  -3   1  323.31    1.03
   1  -3   1  352.72    1.38
   1   3  -2  126.47    0.97
   1   3  -2  128.36    0.98
   1   3  -2  128.96    0.97
   1  -3  -2  138.09    0.76
   1  -3  -2  133.50    0.75
   1  -3  -2  132.89    0.60
  -1   3   2  145.52    0.83
  -1   3   2  129.19    0.78
  -1   3   2  136.49    0.60
  -1  -3   2  137.44    1.01
  -1  -3   2  133.55    1.00
  -1  -3   2  124.92    0.96
  -1   3  -1  352.14    1.19
  -1   3  -1  358.74    1.39
  -1  -3  -1  353.96    1.61
  -1  -3  -1  339.52    1.59
  -1  -3  -1  327.16    1.46
   1   4   1    1.89    0.21
   1   4   1    1.56    0.18
   1   4   1    1.84    0.18
   1  -4   1    2.81    0.18
   1  -4   1    1.42    0.16
   1  -4   1    2.50    0.20
   1   4  -2   21.79    0.49
   1   4  -2   21.89    0.49
   1   4  -2   20.50    0.45
   1  -4  -2   22.02    0.39
   1  -4  -2   21.87    0.39
  -1   4   2   23.85    0.42
  -1   4   2   21.81    0.40
  -1   4   2   21.04    0.29
  -1  -4   2   22.52    0.48
  -1  -4   2   21.75    0.50
  -1  -4   2   20.99    0.47
  -1   4  -1    2.01    0.18
  -1   4  -1    2.09    0.19
  -1   4  -1    2.04    0.19
  -1  -4  -1    2.34    0.23
  -1  -4  -1    2.66    0.25
  -1  -4  -1    1.96    0.21
   1   5   1  155.55    1.34
   1   5   1  154.97    1.34
   1   5   1  145.69    1.15
   1  -5   1  165.42    1.08
   1  -5   1  141.78    1.00
   1  -5   1  156.01    1.11
   1   5  -2   23.01    0.56
   1   5  -2   22.35    0.56
   1   5  -2   22.35    0.51
   1  -5  -2   24.14    0.46
   1  -5  -2   23.62    0.47
   1  -5  -2   24.16    0.37
  -1   5   2   25.11    0.49
  -1   5   2   23.38    0.47
  -1   5   2   22.66    0.36
  -1  -5   2   23.83    0.56
  -1  -5   2   22.84    0.57
  -1  -5   2   23.64    0.55
  -1   5  -1  159.89    1.14
  -1   5  -1  152.11    1.11
  -1   5  -1  149.15    1.07
  -1  -5  -1  159.86    1.36
  -1  -5  -1  160.30    1.37
  -1  -5  -1  147.61    1.17
   1   6   1   13.97    0.51
   1   6   1   12.00    0.41
   1  -6   1   13.99    0.42
   1  -6   1   12.95    0.39
   1  -6   1   14.85    0.43
   1   6  -2    6.18    0.40
   1   6  -2    5.24    0.40
   1   6  -2    6.30    0.38
   1  -6  -2    6.59    0.37
   1  -6  -2    6.54    0.34
   1  -6  -2    6.42    0.28
  -1   6   2    7.60    0.37
  -1   6   2    5.80    0.33
  -1   6   2    5.90    0.26
  -1  -6   2    6.67    0.41
  -1  -6   2    6.57    0.42
  -1  -6   2    6.64    0.39
  -1   6  -1   13.74    0.42
  -1   6  -1   13.11    0.44
  -1   6  -1   11.67    0.38
  -1  -6  -1   14.31    0.51
  -1  -6  -1   14.19    0.55
  -1  -6  -1   13.11    0.45
   1   7   1    4.22    0.45
   1   7   1    4.50    0.41
   1   7   1    3.65    0.36
   1  -7   1    5.06    0.36
   1  -7   1    4.69    0.36
   1  -7   1    5.42    0.37
   1   7  -2    0.27    0.22
   1   7  -2    1.33    0.25
   1   7  -2    0.70    0.25
   1  -7  -2    0.46    0.17
   1  -7  -2    0.39    0.22
   1  -7  -2    0.96    0.18
  -1   7   2    0.63    0.22
  -1   7   2    0.55    0.19
  -1   7   2    0.52    0.17
  -1  -7   2    0.14    0.23
  -1  -7   2    0.58    0.25
  -1  -7   2    1.44    0.27
  -1   7  -1    6.75    0.40
  -1   7  -1    4.64    0.40
  -1   7  -1    4.77    0.37
  -1  -7  -1    4.97    0.47
  -1  -7  -1    5.10    0.49
  -1  -7  -1    4.80    0.42
   1   8   1    1.78    0.29
   1   8   1    0.39    0.27
   1   8   1   -0.10    0.25
   1  -8   1   -0.26    0.21
   1  -8   1    0.72    0.24
   1  -8   1    0.50    0.24
   1   8  -2    1.74    0.35
   1   8  -2    2.29    0.33
   1   8  -2    2.05    0.34
   1  -8  -2    2.19    0.27
   1  -8  -2    2.50    0.31
   1  -8  -2    2.40    0.25
  -1   8   2    1.96    0.28
  -1   8   2    1.88    0.27
  -1   8   2    2.99    0.33
  -1  -8   2    2.16    0.32
  -1  -8   2    2.60    0.39
  -1  -8   2    1.90    0.33
  -1   8  -1    0.03    0.25
  -1   8  -1    0.57    0.24
  -1  -8  -1    0.35    0.26
  -1  -8  -1    0.68    0.30
  -1  -8  -1   -0.21    0.25
   1   9   1   35.96    1.00
   1   9   1   32.97    0.96
   1   9   1   28.91    0.78
   1  -9   1   32.78    0.77
   1  -9   1   28.41    0.74
   1  -9   1   33.57    0.80
   1   9  -2   52.03    1.17
   1   9  -2   51.74    1.17
   1   9  -2   46.22    0.99
   1  -9  -2   51.43    0.96
   1  -9  -2   51.41    0.97
   1  -9  -2   50.46    0.80
  -1   9   2   57.51    1.13
  -1   9   2   49.99    1.03
  -1   9   2   46.22    0.75
  -1  -9   2   54.58    1.20
  -1  -9   2   50.24    1.13
  -1  -9   2   49.26    1.05
  -1   9  -1   32.43    0.86
  -1   9  -1   32.38    0.96
  -1   9  -1   29.16    0.77
  -1  -9  -1   34.03    0.99
  -1  -9  -1   32.11    0.99
  -1  -9  -1   33.03    0.85
   1  10   1    2.53    0.48
   1  10   1    1.16    0.38
   1 -10   1    2.13    0.35
   1 -10   1    1.39    0.35
   1 -10   1    1.64    0.40
   1  10  -2    2.64    0.45
   1  10  -2    2.23    0.48
   1  10  -2    1.44    0.47
   1 -10  -2    2.50    0.36
   1 -10  -2    2.40    0.43
   1 -10  -2    2.70    0.35
  -1  10   2    2.92    0.41
  -1  10   2    2.72    0.49
  -1  10   2    3.32    0.37
  -1 -10   2    0.79    0.43
  -1 -10   2    2.66    0.52
  -1 -10   2    3.44    0.51
  -1  10  -1    1.63    0.43
  -1  10  -1    0.49    0.33
  -1  10  -1    1.52    0.38
  -1 -10  -1    2.27    0.51
  -1 -10  -1    0.42    0.37
  -1 -10  -1    2.21    0.43
   1  11   1    2.49    0.64
   1  11   1    3.19    0.73
   1  11   1    1.46    0.51
   1 -11   1    1.77    0.46
   1 -11   1    4.15    0.51
   1  11  -2    0.12    0.40
   1  11  -2    1.10    0.52
   1 -11  -2   -0.29    0.46
   1 -11  -2   -0.27    0.34
  -1  11   2    0.44    0.41
  -1  11   2    0.78    0.45
  -1 -11   2    0.55    0.57
  -1 -11   2    1.55    0.53
  -1 -11   2   -0.11    0.49
  -1  11  -1    2.55    0.57
  -1  11  -1    3.14    0.58
  -1  11  -1    2.78    0.57
  -1 -11  -1    2.19    0.58
  -1 -11  -1    0.05    0.58
  -1 -11  -1    2.17    0.52
   1  12   1    0.07    0.60
   1  12   1   -0.36    0.61
   1  12  -2   -0.19    0.50
   1  12  -2   -0.45    0.64
   1 -12  -2    0.39    0.44
  -1 -12   2    0.11    0.55
  -1  12  -1   -1.29    0.56
  -1  12  -1   -0.33    0.60
  -1 -12  -1    0.90    0.65
   1  13   1    0.58    0.60
   1 -13   1    0.31    0.80
   1  13  -2   -2.36    0.80
  -1  13   2    0.68    0.79
  -1 -13   2   -0.06    0.70
  -1  13  -1    0.69    0.75
  -1 -13  -1    0.32    0.69
   1   0   2 1642.00    2.94
   1   0   2 1700.00    3.03
   1   0  -3    0.42    0.06
   1   0  -3    0.18    0.05
   1   0  -3    0.18    0.05
  -1   0   3    0.04    0.04
  -1   0   3    0.05    0.04
  -1   0  -2 1822.00    3.29
  -1   0  -2 1737.00    3.28
  -1   0  -2 1830.00    4.28
   1   1   2    4.52    0.16
   1  -1   2    4.98    0.19
   1   1  -3  119.62    0.73
   1   1  -3  130.88    0.81
   1  -1  -3  131.06    0.62
   1  -1  -3  133.35    0.63
   1  -1  -3  137.30    0.59
  -1   1   3  131.37    0.65
  -1   1   3  124.88    0.63
  -1   1   3  131.19    0.58
  -1  -1   3  132.91    0.78
  -1  -1   3  126.41    0.76
  -1  -1   3  133.17    0.82
  -1   1  -2    4.09    0.11
  -1   1  -2    4.75    0.18
  -1  -1  -2    4.82    0.16
  -1  -1  -2    4.28    0.16
  -1  -1  -2    4.53    0.18
   1   2   2 1671.00    4.43
   1   2   2 2050.00    5.07
   1   2   2 2021.00    4.97
   1  -2   2 1874.00    2.99
   1  -2   2 1949.00    2.89
   1  -2   2 2040.00    4.92
   1   2  -3  169.27    1.01
   1   2  -3  170.57    1.01
   1   2  -3  174.93    1.05
   1  -2  -3  174.34    0.79
   1  -2  -3  170.86    0.78
  -1   2   3  190.16    0.87
  -1   2   3  171.76    0.82
  -1  -2   3  169.90    1.02
  -1  -2   3  169.27    1.01
  -1   2  -2 1911.00    3.46
  -1   2  -2 2091.00    4.88
  -1  -2  -2 1879.00    4.79
  -1  -2  -2 1919.00    5.13
  -1  -2  -2 2058.00    5.07
   1   3   2  614.56    2.67
   1   3   2  711.28    2.32
   1   3   2  704.44    2.12
   1  -3   2  758.17    2.04
   1  -3   2  631.50    1.50
   1  -3   2  713.85    2.13
   1   3  -3   53.06    0.65
   1   3  -3   49.88    0.63
   1   3  -3   50.96    0.64
   1  -3  -3   57.40    0.53
   1  -3  -3   54.23    0.52
  -1   3   3   60.22    0.57
  -1   3   3   51.00    0.53
  -1  -3   3   52.08    0.65
  -1   3  -2  709.61    2.02
  -1   3  -2  713.87    2.12
  -1  -3  -2  712.85    2.33
  -1  -3  -2  708.67    2.34
  -1  -3  -2  701.72    2.13
   1   4   2  142.73    1.18
   1   4   2  133.98    1.14
   1   4   2  132.90    1.00
   1  -4   2  145.27    0.88
   1  -4   2  124.28    0.81
   1  -4   2  135.93    1.01
   1   4  -3  119.52    1.08
   1   4  -3  122.99    1.10
   1   4  -3  122.03    1.07
   1  -4  -3  134.81    0.93
   1  -4  -3  126.29    0.90
  -1   4   3  137.74    0.99
  -1   4   3  118.49    0.92
  -1  -4   3  126.49    1.11
  -1  -4   3  120.91    1.09
  -1  -4   3  122.95    1.09
  -1   4  -2  131.62    0.93
  -1   4  -2  132.98    0.91
  -1   4  -2  135.30    1.00
  -1  -4  -2  142.31    1.17
  -1  -4  -2  138.15    1.17
  -1  -4  -2  130.87    1.01
   1   5   2   48.03    0.78
   1   5   2   44.25    0.74
   1   5   2   41.79    0.63
   1  -5   2   49.16    0.60
   1  -5   2   41.09    0.55
   1  -5   2   45.79    0.66
   1   5  -3  325.51    1.94
   1   5  -3  321.65    1.94
   1   5  -3  319.99    1.85
   1  -5  -3  348.71    1.67
   1  -5  -3  331.65    1.63
  -1   5   3  349.73    1.77
  -1   5   3  321.86    1.69
  -1   5   3  313.57    1.07
  -1  -5   3  331.48    1.94
  -1  -5   3  324.88    1.94
  -1  -5   3  320.20    1.88
  -1   5  -2   44.05    0.62
  -1   5  -2   43.72    0.62
  -1   5  -2   43.30    0.63
  -1  -5  -2   46.87    0.77
  -1  -5  -2   45.33    0.77
  -1  -5  -2   41.67    0.63
   1   6   2   60.38    0.94
   1   6   2   57.36    0.92
   1   6   2   55.19    0.77
   1  -6   2   60.96    0.77
   1  -6   2   53.43    0.71
   1  -6   2   57.56    0.80
   1   6  -3    5.07    0.40
   1   6  -3    5.41    0.42
   1   6  -3    4.81    0.36
   1  -6  -3    6.47    0.33
   1  -6  -3    6.17    0.34
   1  -6  -3    5.96    0.24
  -1   6   3    8.18    0.38
  -1   6   3    6.56    0.35
  -1   6   3    5.44    0.24
  -1  -6   3    5.56    0.39
  -1  -6   3    4.98    0.43
  -1  -6   3    5.70    0.38
  -1   6  -2   57.96    0.80
  -1   6  -2   57.45    0.80
  -1   6  -2   56.29    0.77
  -1  -6  -2   62.65    0.95
  -1  -6  -2   59.64    0.95
  -1  -6  -2   54.93    0.79
   1   7   2   91.89    1.25
   1   7   2   89.53    1.23
   1   7   2   81.70    0.99
   1  -7   2   94.52    1.04
   1  -7   2   78.77    0.95
   1  -7   2   87.18    1.03
   1   7  -3   35.34    0.83
   1   7  -3   33.87    0.81
   1   7  -3   32.01    0.74
   1  -7  -3   38.50    0.71
   1  -7  -3   35.20    0.71
   1  -7  -3   35.89    0.51
  -1   7   3   39.62    0.77
  -1   7   3   35.77    0.73
  -1   7   3   34.39    0.49
  -1  -7   3   37.20    0.83
  -1  -7   3   34.83    0.83
  -1  -7   3   34.20    0.78
  -1   7  -2   88.32    1.08
  -1   7  -2   88.07    1.08
  -1   7  -2   83.43    1.00
  -1  -7  -2   92.80    1.24
  -1  -7  -2   90.22    1.25
  -1  -7  -2   82.85    1.01
   1   8   2   78.11    1.28
   1   8   2   75.69    1.26
   1   8   2   64.46    1.19
   1  -8   2   75.86    1.02
   1  -8   2   67.80    0.97
   1  -8   2   73.64    1.03
   1   8  -3   -0.18    0.27
   1   8  -3    0.32    0.28
   1   8  -3    0.29    0.28
   1  -8  -3    0.03    0.23
   1  -8  -3   -0.09    0.22
   1  -8  -3   -0.07    0.19
  -1   8   3   -0.06    0.24
  -1   8   3    0.40    0.27
  -1   8   3    0.21    0.18
  -1  -8   3    0.56    0.29
  -1  -8   3    0.41    0.29
  -1  -8   3    0.66    0.29
  -1   8  -2   72.55    1.09
  -1   8  -2   76.82    1.12
  -1   8  -2   64.56    1.48
  -1  -8  -2   77.34    1.25
  -1  -8  -2   74.78    1.24
  -1  -8  -2   70.79    1.03
   1   9   2    5.55    0.62
   1   9   2    4.44    0.49
   1   9   2    3.61    0.41
   1  -9   2    4.57    0.49
   1  -9   2    4.24    0.49
   1  -9   2    5.93    0.58
   1   9  -3   17.12    0.85
   1   9  -3   18.16    0.82
   1   9  -3   14.07    0.70
   1  -9  -3   17.36    0.65
   1  -9  -3   17.94    0.71
   1  -9  -3   17.60    0.52
  -1   9   3   18.76    0.73
  -1   9   3   18.08    0.74
  -1   9   3   15.30    0.48
  -1  -9   3   20.49    0.83
  -1  -9   3   16.50    0.80
  -1  -9   3   18.38    0.81
  -1   9  -2    4.67    0.56
  -1   9  -2    8.62    1.01
  -1   9  -2    4.23    0.41
  -1  -9  -2    4.25    0.47
  -1  -9  -2    4.14    0.49
  -1  -9  -2    4.43    0.54
   1  10   2    3.69    0.49
   1  10   2    4.60    0.55
   1  10   2    3.67    0.46
   1 -10   2    2.52    0.37
   1 -10   2    2.43    0.39
   1 -10   2    3.60    0.47
   1  10  -3   13.61    0.90
   1  10  -3   14.35    0.84
   1  10  -3   12.78    0.77
   1 -10  -3   11.31    0.65
   1 -10  -3   14.64    0.74
   1 -10  -3   11.74    0.55
  -1  10   3   15.46    0.83
  -1  10   3   14.33    0.53
  -1 -10   3   13.93    0.88
  -1 -10   3   10.94    0.85
  -1 -10   3   12.01    0.83
  -1  10  -2    3.83    0.56
  -1  10  -2    3.82    0.46
  -1  10  -2    2.98    0.45
  -1 -10  -2    4.09    0.54
  -1 -10  -2    3.83    0.59
  -1 -10  -2    5.09    0.48
   1  11   2    8.08    0.81
   1 -11   2    0.51    0.46
   1 -11   2    7.87    0.80
   1  11  -3    5.08    0.69
   1  11  -3    1.58    0.47
   1  11  -3    1.40    0.59
   1 -11  -3    0.95    0.45
   1 -11  -3    2.61    0.36
  -1  11   3    3.91    0.57
  -1  11   3    2.67    0.53
  -1  11   3    2.55    0.41
  -1 -11   3    3.02    0.63
  -1 -11   3    0.59    0.56
  -1 -11   3    2.35    0.59
  -1  11  -2    5.61    0.66
  -1  11  -2    5.57    0.62
  -1 -11  -2    5.73    0.69
  -1 -11  -2   -0.02    0.51
  -1 -11  -2    7.72    0.86
   1  12   2   -0.90    0.70
   1  12   2    0.92    0.62
   1  12  -3    8.02    0.87
  -1  12   3   11.31    1.08
  -1 -12   3    8.04    0.79
  -1  12  -2   -0.07    0.56
  -1  12  -2   -1.48    0.59
  -1 -12  -2   -1.16    0.52
   1  13   2    2.26    0.77
   1 -13   2    1.81    0.69
   1  13  -3   -1.18    0.80
  -1 -13   3    0.45    0.76
  -1  13  -2   -0.04    0.70
  -1 -13  -2   -0.17    0.70
   1   0   3    0.21    0.06
   1   0   3   -0.05    0.05
   1   0  -4    4.03    0.15
   1   0  -4    3.84    0.15
  -1   0   4    3.94    0.15
  -1   0   4    3.73    0.15
  -1   0   4    4.25    0.16
  -1   0  -3   -0.04    0.05
  -1   0  -3   -0.01    0.05
  -1   0  -3    0.03    0.08
   1   1   3 2443.00    4.94
   1  -1   3 2631.00    3.90
   1  -1   3 2354.00    3.74
   1  -1   3 2535.00    5.68
   1   1  -4   52.80    0.53
   1   1  -4   42.70    0.48
   1   1  -4   55.62    0.55
   1  -1  -4   53.42    0.47
   1  -1  -4   53.69    0.47
   1  -1  -4   55.05    0.39
  -1   1   4   56.21    0.49
  -1   1   4   51.38    0.47
  -1   1   4   52.86    0.38
  -1  -1   4   53.54    0.54
  -1  -1   4   51.97    0.53
  -1   1  -3 2494.00    4.01
  -1   1  -3 2391.00    4.10
  -1   1  -3 2580.00    5.74
  -1  -1  -3 2388.00    5.00
  -1  -1  -3 2435.00    5.30
   1   2   3  271.22    1.30
   1   2   3  269.23    1.29
   1  -2   3  253.12    0.85
   1  -2   3  260.21    0.87
   1  -2   3  277.20    1.33
   1   2  -4  102.43    0.84
   1  -2  -4  106.66    0.70
   1  -2  -4  103.67    0.69
  -1   2   4  112.08    0.74
  -1   2   4   96.90    0.69
  -1  -2   4  101.39    0.82
  -1  -2   4   99.05    0.81
  -1   2  -3  232.89    1.11
  -1   2  -3  251.62    0.94
  -1   2  -3  279.65    1.33
  -1  -2  -3  293.48    1.36
  -1  -2  -3  276.24    1.33
  -1  -2  -3  270.75    1.26
   1   3   3  610.18    2.35
   1   3   3  637.78    2.26
   1   3   3  636.79    2.03
   1  -3   3  644.23    1.62
   1  -3   3  569.75    1.52
   1  -3   3  646.72    2.17
   1   3  -4  176.12    1.20
   1   3  -4  170.31    1.18
   1   3  -4  177.72    1.22
   1  -3  -4  188.97    1.03
   1  -3  -4  181.71    1.01
  -1   3   4  194.44    1.09
  -1   3   4  169.87    1.01
  -1  -3   4  174.94    1.20
  -1  -3   4  174.04    1.19
  -1   3  -3  593.27    1.83
  -1   3  -3  602.73    1.71
  -1   3  -3  667.10    2.19
  -1  -3  -3  670.59    2.32
  -1  -3  -3  655.89    2.31
  -1  -3  -3  652.34    2.07
   1   4   3  150.47    1.23
   1   4   3  141.78    1.20
   1   4   3  137.04    1.01
   1  -4   3  149.16    0.92
   1  -4   3  128.72    0.85
   1  -4   3  144.48    1.11
   1   4  -4    3.47    0.27
   1   4  -4    2.92    0.26
   1   4  -4    2.62    0.26
   1  -4  -4    3.73    0.23
   1  -4  -4    3.28    0.22
  -1   4   4    4.31    0.25
  -1   4   4    2.94    0.21
  -1  -4   4    3.05    0.24
  -1  -4   4    2.67    0.26
  -1  -4   4    5.07    0.31
  -1   4  -3  135.81    0.94
  -1   4  -3  133.12    0.94
  -1   4  -3  139.93    1.08
  -1  -4  -3  149.30    1.22
  -1  -4  -3  147.87    1.23
  -1  -4  -3  136.70    1.02
   1   5   3   16.90    0.51
   1   5   3   15.67    0.49
   1   5   3   15.14    0.40
   1  -5   3   17.69    0.39
   1  -5   3   14.65    0.37
   1  -5   3   16.79    0.46
   1   5  -4    2.84    0.30
   1   5  -4    2.04    0.23
   1   5  -4    2.24    0.25
   1  -5  -4    2.18    0.22
   1  -5  -4    2.02    0.20
  -1   5   4    2.21    0.23
  -1   5   4    1.94    0.24
  -1  -5   4    1.63    0.20
  -1  -5   4    1.84    0.21
  -1  -5   4    2.34    0.26
  -1   5  -3   16.55    0.42
  -1   5  -3   16.48    0.42
  -1   5  -3   15.87    0.44
  -1  -5  -3   17.29    0.50
  -1  -5  -3   16.03    0.52
  -1  -5  -3   15.51    0.42
   1   6   3   66.54    1.01
   1   6   3   64.50    0.99
   1   6   3   59.27    0.79
   1  -6   3   67.06    0.81
   1  -6   3   56.44    0.74
   1  -6   3   63.96    0.88
   1   6  -4  132.56    1.37
   1   6  -4  129.96    1.37
   1  -6  -4  143.37    1.22
   1  -6  -4  133.42    1.19
  -1   6   4  144.56    1.30
  -1   6   4  128.84    1.22
  -1  -6   4  137.01    1.38
  -1  -6   4  133.14    1.38
  -1  -6   4  131.08    1.34
  -1   6  -3   61.70    0.83
  -1   6  -3   61.25    0.84
  -1   6  -3   60.90    0.84
  -1  -6  -3   68.23    1.01
  -1  -6  -3   64.88    1.00
  -1  -6  -3   58.79    0.81
   1   7   3   15.98    0.62
   1   7   3   15.99    0.64
   1   7   3   14.61    0.48
   1  -7   3   15.99    0.48
   1  -7   3   13.97    0.47
   1  -7   3   15.82    0.53
   1   7  -4  139.09    1.52
   1   7  -4  136.43    1.52
   1   7  -4  131.95    1.42
   1  -7  -4  145.78    1.34
   1  -7  -4  137.89    1.32
  -1   7   4  149.07    1.45
  -1   7   4  134.53    1.37
  -1  -7   4  148.21    1.81
  -1  -7   4  135.20    1.50
  -1  -7   4  137.15    1.46
  -1   7  -3   16.35    0.53
  -1   7  -3   15.43    0.54
  -1   7  -3   14.89    0.51
  -1  -7  -3   15.38    0.61
  -1  -7  -3   16.53    0.64
  -1  -7  -3   15.61    0.51
   1   8   3   19.17    0.72
   1   8   3   21.58    0.80
   1   8   3   17.24    0.66
   1  -8   3   20.18    0.60
   1  -8   3   17.41    0.57
   1  -8   3   20.64    0.67
   1   8  -4   12.67    0.69
   1   8  -4   11.20    0.65
   1   8  -4   11.30    0.61
   1  -8  -4   13.20    0.50
   1  -8  -4   12.90    0.57
  -1   8   4   12.54    0.58
  -1   8   4   12.25    0.58
  -1  -8   4   12.33    0.60
  -1  -8   4   11.56    0.62
  -1  -8   4   11.26    0.62
  -1   8  -3   19.59    0.66
  -1   8  -3   20.51    0.67
  -1   8  -3   17.29    0.60
  -1  -8  -3   20.08    0.74
  -1  -8  -3   21.23    0.79
  -1  -8  -3   20.87    0.64
   1   9   3   -0.14    0.34
   1   9   3    0.68    0.39
   1   9   3    0.80    0.32
   1  -9   3   -0.60    0.25
   1  -9   3   -0.04    0.27
   1  -9   3    0.78    0.35
   1   9  -4   34.90    1.02
   1   9  -4   34.70    1.02
   1   9  -4   32.86    0.93
   1  -9  -4   38.24    0.84
   1  -9  -4   34.16    0.88
  -1   9   4   38.78    1.02
  -1   9   4   33.50    0.90
  -1  -9   4   39.65    1.04
  -1  -9   4   35.58    1.02
  -1  -9   4   35.42    0.99
  -1   9  -3   -0.06    0.30
  -1   9  -3    0.03    0.33
  -1  -9  -3   -0.02    0.32
  -1  -9  -3    0.62    0.35
  -1  -9  -3    0.11    0.30
   1  10   3    9.37    0.83
   1  10   3    9.57    0.97
   1  10   3    7.14    0.64
   1 -10   3    7.77    0.65
   1 -10   3    7.20    0.65
   1 -10   3    6.04    0.71
   1  10  -4    0.86    0.49
   1  10  -4    1.51    0.50
   1  10  -4    1.42    0.46
   1 -10  -4    1.83    0.39
   1 -10  -4    1.80    0.43
  -1  10   4    0.15    0.36
  -1 -10   4    1.75    0.44
  -1 -10   4    1.17    0.41
  -1 -10   4    1.46    0.45
  -1  10  -3    8.43    0.72
  -1  10  -3    7.01    0.68
  -1 -10  -3    8.35    0.77
  -1 -10  -3    9.74    0.88
  -1 -10  -3    6.52    0.64
   1  11   3   27.56    1.43
   1  11   3   24.07    1.94
   1  11   3   21.17    1.03
   1 -11   3    6.08    0.62
   1 -11   3   24.81    0.98
   1  11  -4    4.62    0.63
   1  11  -4    3.28    0.63
   1  11  -4    3.85    0.64
   1 -11  -4    0.54    0.46
  -1  11   4    4.66    0.59
  -1  11   4    4.11    0.58
  -1 -11   4    2.56    0.61
  -1 -11   4    0.15    0.51
  -1 -11   4    4.80    0.62
  -1  11  -3   28.49    1.09
  -1  11  -3   22.09    1.03
  -1  11  -3   20.76    1.27
  -1 -11  -3   22.23    1.14
  -1 -11  -3    1.70    0.55
  -1 -11  -3   25.71    0.97
   1  12   3    2.79    0.61
   1  12  -4   -0.72    0.62
  -1  12   4    0.23    0.60
  -1 -12   4    0.09    0.59
  -1  12  -3    0.35    0.58
  -1  12  -3    9.33    1.12
  -1 -12  -3    1.50    0.60
   1  13   3   -0.88    0.87
   1  13  -4    0.85    0.84
  -1  13   4    0.28    0.71
   1   0   4  211.27    0.93
   1   0   4  179.59    0.86
   1   0   4  191.36    1.09
   1   0  -5    0.12    0.06
   1   0  -5    0.05    0.08
   1   0  -5    0.03    0.07
  -1   0   5    0.00    0.07
  -1   0   5   -0.06    0.05
  -1   0   5   -0.01    0.07
  -1   0  -4  216.23    0.97
  -1   0  -4  192.22    0.92
  -1   0  -4  212.30    1.14
   1   1   4  825.18    2.09
   1  -1   4  954.16    2.05
   1  -1   4  849.35    2.15
   1  -1   4  944.79    3.01
   1   1  -5  183.78    1.05
   1   1  -5  180.87    1.04
   1   1  -5  190.05    1.07
   1  -1  -5  181.14    0.96
   1  -1  -5  184.51    0.76
  -1   1   5  193.06    1.01
  -1   1   5  174.19    0.96
  -1   1   5  168.89    0.93
  -1  -1   5  180.79    1.05
  -1  -1   5  178.46    1.04
  -1  -1   5  186.02    1.06
  -1   1  -4  870.38    1.85
  -1   1  -4  877.05    2.34
  -1   1  -4  906.97    2.43
  -1  -1  -4  865.09    2.17
  -1  -1  -4  811.14    2.12
  -1  -1  -4  877.53    2.29
   1   2   4    1.66    0.17
   1   2   4    0.90    0.12
   1  -2   4    1.13    0.12
   1  -2   4    0.98    0.12
   1  -2   4    1.45    0.17
   1   2  -5  364.72    1.62
   1   2  -5  337.63    1.85
   1   2  -5  373.85    1.66
   1  -2  -5  375.45    1.43
   1  -2  -5  347.49    1.51
  -1   2   5  411.16    1.55
  -1   2   5  355.06    1.43
  -1  -2   5  367.42    1.63
  -1  -2   5  365.43    1.63
  -1  -2   5  393.23    1.72
  -1   2  -4    0.83    0.10
  -1   2  -4    1.09    0.11
  -1   2  -4    1.44    0.16
  -1  -2  -4    1.37    0.16
  -1  -2  -4    0.82    0.10
  -1  -2  -4    1.38    0.14
   1   3   4   11.89    0.37
   1   3   4   10.57    0.34
   1  -3   4    9.93    0.25
   1  -3   4   12.30    0.36
   1   3  -5   69.71    0.79
   1   3  -5   69.00    0.80
   1  -3  -5   72.82    0.69
   1  -3  -5   70.37    0.68
  -1   3   5   77.79    0.75
  -1   3   5   65.87    0.68
  -1  -3   5   67.46    0.78
  -1  -3   5   69.28    0.79
  -1  -3   5   67.51    0.79
  -1   3  -4   10.50    0.27
  -1   3  -4   10.65    0.28
  -1   3  -4   12.13    0.35
  -1  -3  -4   11.48    0.35
  -1  -3  -4   11.52    0.37
  -1  -3  -4   11.44    0.31
   1   4   4   54.77    0.78
   1   4   4   50.76    0.75
   1   4   4   50.33    0.63
   1  -4   4   54.02    0.58
   1  -4   4   46.46    0.55
   1  -4   4   52.58    0.72
   1   4  -5  300.23    1.77
   1   4  -5  291.51    1.75
   1   4  -5  297.46    1.76
   1  -4  -5  313.47    1.55
   1  -4  -5  301.10    1.53
  -1   4   5  326.28    1.66
  -1   4   5  279.28    1.53
  -1  -4   5  287.84    1.73
  -1  -4   5  301.57    1.77
  -1   4  -4   48.48    0.60
  -1   4  -4   48.45    0.60
  -1   4  -4   50.30    0.69
  -1  -4  -4   54.01    0.77
  -1  -4  -4   50.86    0.75
  -1  -4  -4   50.81    0.64
   1   5   4   25.24    0.60
   1   5   4   26.71    0.61
   1   5   4   24.72    0.49
   1  -5   4   25.55    0.47
   1  -5   4   23.00    0.45
   1  -5   4   25.58    0.56
   1   5  -5    8.83    0.39
   1   5  -5   10.03    0.44
   1   5  -5    9.21    0.40
   1  -5  -5   10.13    0.36
   1  -5  -5   10.34    0.37
  -1   5   5   11.25    0.41
  -1   5   5    9.57    0.36
  -1  -5   5    9.83    0.40
  -1  -5   5   10.39    0.42
  -1   5  -4   24.89    0.51
  -1   5  -4   24.09    0.50
  -1   5  -4   25.56    0.55
  -1  -5  -4   27.09    0.61
  -1  -5  -4   26.60    0.64
  -1  -5  -4   24.22    0.50
   1   6   4  129.72    1.40
   1   6   4  126.36    1.38
   1   6   4  118.69    1.08
   1  -6   4  129.12    1.11
   1  -6   4  114.53    1.05
   1  -6   4  126.87    1.27
   1   6  -5   55.34    0.92
   1   6  -5   53.39    0.94
   1   6  -5   53.14    0.89
   1  -6  -5   59.04    0.84
   1  -6  -5   56.36    0.82
  -1   6   5   64.28    0.91
  -1   6   5   53.65    0.83
  -1  -6   5   58.04    0.93
  -1  -6   5   55.72    0.93
  -1  -6   5   55.76    0.93
  -1   6  -4  120.04    1.16
  -1   6  -4  116.23    1.14
  -1   6  -4  121.75    1.21
  -1  -6  -4  129.23    1.37
  -1  -6  -4  126.74    1.38
  -1  -6  -4  116.97    1.09
   1   7   4    0.20    0.23
   1   7   4    0.80    0.26
   1   7   4    0.14    0.18
   1  -7   4    0.64    0.18
   1  -7   4    0.39    0.19
   1  -7   4    0.04    0.23
   1   7  -5    4.93    0.47
   1   7  -5    3.85    0.39
   1   7  -5    3.78    0.44
   1  -7  -5    3.74    0.39
   1  -7  -5    3.42    0.41
  -1   7   5    4.46    0.41
  -1   7   5    3.78    0.40
  -1  -7   5    4.59    0.49
  -1  -7   5    4.35    0.41
  -1   7  -4    0.19    0.19
  -1   7  -4   -0.09    0.19
  -1   7  -4   -0.09    0.20
  -1  -7  -4   -0.30    0.23
  -1  -7  -4   -0.58    0.24
  -1  -7  -4    0.65    0.22
   1   8   4    3.54    0.38
   1   8   4    5.59    0.62
   1   8   4    3.88    0.36
   1  -8   4    3.64    0.40
   1  -8   4    4.17    0.43
   1  -8   4    4.76    0.51
   1   8  -5   18.71    0.76
   1   8  -5   16.15    0.76
   1   8  -5   16.01    0.65
   1  -8  -5   19.96    0.66
   1  -8  -5   19.73    0.65
  -1   8   5   19.18    0.67
  -1   8   5   17.41    0.65
  -1  -8   5   18.61    0.71
  -1  -8   5   18.02    0.73
  -1  -8   5   18.76    0.76
  -1   8  -4    4.02    0.45
  -1   8  -4    3.56    0.38
  -1   8  -4    4.06    0.44
  -1  -8  -4    3.57    0.38
  -1  -8  -4    5.11    0.52
  -1  -8  -4    4.01    0.46
   1   9   4    3.31    0.47
   1   9   4    4.21    0.49
   1   9   4    2.93    0.36
   1  -9   4    2.15    0.37
   1  -9   4    1.94    0.33
   1  -9   4    3.49    0.43
   1   9  -5   12.19    0.78
   1   9  -5   10.42    0.79
   1   9  -5   11.39    0.72
   1  -9  -5   13.36    0.67
   1  -9  -5   10.41    0.64
  -1   9   5   12.03    0.81
  -1   9   5   11.60    0.67
  -1  -9   5   11.97    0.77
  -1  -9   5   11.80    0.72
  -1  -9   5   11.02    0.74
  -1   9  -4    2.72    0.37
  -1   9  -4    3.61    0.46
  -1   9  -4    3.06    0.43
  -1  -9  -4    3.25    0.42
  -1  -9  -4    3.84    0.52
  -1  -9  -4    2.60    0.37
   1  10   4    7.92    0.71
   1  10   4    7.72    0.68
   1  10   4    7.44    0.65
   1 -10   4    8.32    0.65
   1 -10   4    7.95    0.67
   1 -10   4    6.68    0.75
   1  10  -5   18.55    0.98
   1  10  -5   20.79    1.04
   1  10  -5   17.77    0.91
   1 -10  -5   18.77    0.82
   1 -10  -5   17.81    0.88
  -1  10   5   20.94    0.92
  -1  10   5   17.56    1.03
  -1 -10   5   20.82    1.04
  -1 -10   5   19.66    0.96
  -1  10  -4    8.34    0.86
  -1  10  -4    8.02    0.76
  -1  10  -4    7.48    0.73
  -1 -10  -4    8.24    0.79
  -1 -10  -4    6.77    0.68
  -1 -10  -4    6.31    0.65
   1  11   4    1.33    0.54
   1  11   4    0.18    0.67
   1  11   4    0.65    0.46
   1 -11   4   -0.06    0.45
   1 -11   4    0.59    0.48
   1  11  -5    1.59    0.56
   1  11  -5    1.55    0.60
   1  11  -5    0.13    0.62
   1 -11  -5    0.73    0.50
  -1  11   5    0.92    0.48
  -1  11   5    1.36    0.54
  -1 -11   5   -0.46    0.51
  -1 -11   5    0.62    0.49
  -1  11  -4   -0.31    0.47
  -1  11  -4   -1.07    0.44
  -1  11  -4   -1.21    0.50
  -1 -11  -4    0.14    0.57
  -1 -11  -4    0.71    0.56
  -1 -11  -4   -0.08    0.45
   1  12   4    1.48    0.63
   1 -12   4    0.47    0.61
   1  12  -5    4.43    0.84
  -1  12   5    4.98    0.77
  -1 -12   5    4.15    0.73
  -1  12  -4    1.62    0.62
  -1  12  -4    4.19    0.80
  -1 -12  -4   -1.09    0.55
   1  13  -5    0.66    0.87
  -1  13  -4    2.38    0.87
   1   0   5    0.07    0.07
   1   0   5    0.01    0.08
   1   0   5   -0.04    0.10
   1   0  -6   27.06    0.42
   1   0  -6   24.50    0.40
   1   0  -6   27.52    0.39
  -1   0   6   27.71    0.44
  -1   0   6   24.78    0.41
  -1   0   6   27.65    0.40
  -1   0  -5   -0.06    0.07
  -1   0  -5    0.02    0.07
  -1   0  -5    0.53    0.10
   1   1   5  367.09    1.50
   1  -1   5  399.12    1.35
   1  -1   5  364.49    1.30
   1  -1   5  404.35    1.73
   1   1  -6    3.27    0.19
   1   1  -6    3.71    0.20
   1   1  -6    3.22    0.19
   1  -1  -6    3.37    0.18
   1  -1  -6    3.69    0.15
  -1   1   6    3.96    0.21
  -1   1   6    3.03    0.19
  -1  -1   6    3.74    0.21
  -1  -1   6    3.40    0.20
  -1  -1   6    3.79    0.21
  -1   1  -5  386.49    1.39
  -1   1  -5  361.18    1.35
  -1   1  -5  407.08    1.73
  -1  -1  -5  404.37    1.60
  -1  -1  -5  371.97    1.54
  -1  -1  -5  414.75    1.66
   1   2   5   30.78    0.50
   1   2   5   26.32    0.47
   1  -2   5   27.22    0.38
   1  -2   5   27.36    0.38
   1  -2   5   28.95    0.51
   1   2  -6  163.92    1.14
   1   2  -6  158.69    1.13
   1   2  -6  167.29    1.17
   1  -2  -6  168.78    1.05
  -1   2   6  180.15    1.11
  -1   2   6  161.66    1.05
  -1  -2   6  164.23    1.15
  -1  -2   6  164.35    1.15
  -1  -2   6  166.10    1.17
  -1   2  -5   24.91    0.38
  -1   2  -5   25.00    0.39
  -1   2  -5   28.37    0.50
  -1  -2  -5   30.31    0.50
  -1  -2  -5   27.74    0.48
  -1  -2  -5   28.18    0.45
  -1  -2  -5   34.26    0.50
   1   3   5  403.44    1.92
   1   3   5  369.55    1.83
   1  -3   5  344.23    1.38
   1  -3   5  357.88    1.41
   1  -3   5  365.90    1.83
   1   3  -6   12.83    0.38
   1   3  -6   13.23    0.40
   1   3  -6   13.35    0.40
   1  -3  -6   13.38    0.34
  -1   3   6   15.78    0.39
  -1   3   6   12.72    0.35
  -1  -3   6   12.96    0.38
  -1  -3   6   12.77    0.38
  -1  -3   6   13.11    0.40
  -1   3  -5  354.08    1.49
  -1   3  -5  339.73    1.47
  -1   3  -5  384.29    1.86
  -1  -3  -5  403.32    1.92
  -1  -3  -5  387.59    1.90
  -1  -3  -5  371.05    1.62
   1   4   5    1.18    0.16
   1   4   5    1.27    0.16
   1  -4   5    1.58    0.16
   1  -4   5    1.33    0.16
   1  -4   5    1.74    0.21
   1   4  -6   56.23    0.80
   1   4  -6   57.80    0.83
   1   4  -6   57.26    0.82
   1  -4  -6   60.57    0.73
   1  -4  -6   53.07    0.88
  -1   4   6   63.20    0.79
  -1   4   6   55.46    0.73
  -1  -4   6   54.44    0.79
  -1  -4   6   57.87    0.82
  -1  -4   6   56.45    0.83
  -1   4  -5    1.23    0.15
  -1   4  -5    1.83    0.22
  -1   4  -5    1.65    0.18
  -1  -4  -5    1.24    0.17
  -1  -4  -5    1.12    0.16
  -1  -4  -5    1.96    0.23
   1   5   5   65.56    0.95
   1   5   5   59.21    0.90
   1   5   5   63.82    0.75
   1  -5   5   65.83    0.75
   1  -5   5   55.39    0.69
   1  -5   5   64.24    0.89
   1   5  -6   13.88    0.48
   1   5  -6   13.21    0.48
   1  -5  -6   14.99    0.42
   1  -5  -6   13.24    0.43
  -1   5   6   15.90    0.49
  -1   5   6   13.46    0.43
  -1  -5   6   13.38    0.48
  -1  -5   6   14.00    0.50
  -1   5  -5   60.40    0.77
  -1   5  -5   59.83    0.77
  -1   5  -5   62.70    0.88
  -1  -5  -5   67.45    0.95
  -1  -5  -5   64.04    0.94
  -1  -5  -5   61.86    0.75
   1   6   5   -0.04    0.20
   1   6   5   -0.01    0.16
   1   6   5   -0.12    0.17
   1  -6   5    0.24    0.15
   1  -6   5    0.74    0.17
   1  -6   5    0.02    0.22
   1   6  -6   85.92    1.16
   1   6  -6   85.89    1.16
   1   6  -6   84.18    1.13
   1  -6  -6   92.96    1.05
   1  -6  -6   90.55    1.06
  -1   6   6   99.98    1.17
  -1   6   6   83.19    1.05
  -1  -6   6   92.45    1.19
  -1  -6   6   83.51    1.12
  -1  -6   6   86.39    1.17
  -1   6  -5   -0.01    0.18
  -1   6  -5    0.28    0.19
  -1   6  -5    0.12    0.32
  -1  -6  -5   -0.31    0.16
  -1  -6  -5   -0.24    0.20
  -1  -6  -5    0.40    0.19
   1   7   5    0.95    0.28
   1   7   5    0.62    0.23
   1   7   5    0.85    0.22
   1  -7   5    1.11    0.20
   1  -7   5    1.25    0.23
   1  -7   5    0.97    0.27
   1   7  -6   20.23    0.68
   1   7  -6   20.24    0.71
   1   7  -6   17.70    0.65
   1  -7  -6   20.21    0.58
   1  -7  -6   19.85    0.62
  -1   7   6   21.80    0.64
  -1   7   6   19.12    0.60
  -1  -7   6   20.14    0.64
  -1  -7   6   19.38    0.68
  -1  -7   6   19.56    0.72
  -1   7  -5    1.04    0.22
  -1   7  -5    0.96    0.23
  -1   7  -5    1.50    0.27
  -1  -7  -5    1.03    0.28
  -1  -7  -5    0.75    0.32
  -1  -7  -5    1.01    0.22
   1   8   5    1.01    0.30
   1   8   5    1.01    0.30
   1   8   5    0.99    0.27
   1  -8   5    1.85    0.28
   1  -8   5    0.88    0.26
   1  -8   5    1.59    0.35
   1   8  -6    0.38    0.31
   1   8  -6    0.98    0.34
   1   8  -6    1.02    0.30
   1  -8  -6    0.47    0.23
   1  -8  -6    0.78    0.29
  -1   8   6    0.30    0.26
  -1   8   6    0.93    0.28
  -1  -8   6    0.91    0.27
  -1  -8   6    1.05    0.33
  -1  -8   6    0.67    0.35
  -1   8  -5    1.23    0.25
  -1   8  -5    0.82    0.28
  -1   8  -5    0.64    0.28
  -1  -8  -5    0.83    0.32
  -1  -8  -5    1.24    0.40
  -1  -8  -5    0.41    0.27
   1   9   5   32.76    1.00
   1   9   5   32.03    1.02
   1   9   5   31.11    0.79
   1  -9   5   31.19    0.80
   1  -9   5   29.50    0.82
   1  -9   5   34.48    0.94
   1   9  -6   14.87    0.83
   1   9  -6   14.73    0.84
   1   9  -6   13.74    0.77
   1  -9  -6   14.80    0.69
   1  -9  -6   13.02    0.70
  -1   9   6   14.40    0.71
  -1  -9   6   15.38    0.82
  -1  -9   6   16.85    0.80
  -1  -9   6   18.32    0.83
  -1   9  -5   32.18    0.89
  -1   9  -5   32.17    0.92
  -1   9  -5   27.46    0.86
  -1  -9  -5   32.64    0.98
  -1  -9  -5   32.33    1.03
  -1  -9  -5   31.29    0.80
   1  10   5    1.47    0.47
   1  10   5    1.63    0.50
   1  10   5    1.60    0.40
   1 -10   5    2.14    0.43
   1 -10   5    1.35    0.47
   1  10  -6    1.94    0.48
   1  10  -6    1.33    0.52
   1 -10  -6   -0.79    0.34
   1 -10  -6    0.56    0.42
  -1  10   6    0.07    0.41
  -1  10   6    0.26    0.38
  -1 -10   6    1.13    0.48
  -1 -10   6    0.03    0.42
  -1 -10   6    0.58    0.43
  -1  10  -5    1.18    0.42
  -1  10  -5    2.01    0.43
  -1  10  -5    0.95    0.42
  -1 -10  -5    2.85    0.50
  -1 -10  -5    2.31    0.48
  -1 -10  -5    2.21    0.39
   1  11   5    0.86    0.54
   1  11   5    3.19    0.70
   1  11   5    0.98    0.50
   1 -11   5   -0.17    0.47
   1  11  -6    4.00    0.70
   1  11  -6    4.99    0.66
   1 -11  -6   -0.20    0.48
  -1  11   6    5.52    0.64
  -1  11   6    8.71    0.87
  -1 -11   6    1.44    0.52
  -1 -11   6    5.81    0.69
  -1  11  -5    1.16    0.56
  -1  11  -5    0.67    0.50
  -1  11  -5    2.54    0.58
  -1 -11  -5    2.42    0.58
  -1 -11  -5    0.14    0.64
  -1 -11  -5    2.22    0.48
   1  12   5   -0.64    0.64
   1  12  -6   -1.45    0.62
  -1  12   6    0.67    0.60
  -1 -12   6   -0.59    0.60
  -1  12  -5   -0.40    0.59
  -1  12  -5   -0.68    0.77
  -1 -12  -5   -1.04    0.52
   1   0   6   13.69    0.32
   1   0   6   15.25    0.38
   1   0  -7   -0.02    0.09
   1   0  -7   -0.08    0.10
   1   0  -7    0.07    0.09
  -1   0   7    0.11    0.10
  -1   0   7    0.00    0.08
  -1   0   7    0.11    0.10
  -1   0  -6   14.43    0.33
  -1   0  -6   14.12    0.34
  -1   0  -6   15.27    0.37
   1   1   6   71.72    0.72
   1   1   6  231.88    1.28
   1  -1   6  251.42    1.19
   1  -1   6  224.21    1.13
   1  -1   6  253.53    1.46
   1   1  -7   69.50    0.74
   1   1  -7   72.79    0.74
   1  -1  -7   70.28    0.71
   1  -1  -7   56.17    0.64
   1  -1  -7   73.16    0.58
  -1   1   7   75.81    0.76
  -1   1   7   69.96    0.73
  -1   1   7   76.29    0.59
  -1  -1   7   72.84    0.77
  -1  -1   7   68.71    0.75
  -1  -1   7   74.32    0.75
  -1   1  -6  234.48    1.19
  -1   1  -6  229.50    1.19
  -1   1  -6  257.27    1.46
  -1  -1  -6  269.13    1.40
  -1  -1  -6  239.81    1.33
  -1  -1  -6  257.84    1.38
   1   2   6  339.71    1.68
   1   2   6  305.61    1.59
   1  -2   6  314.52    1.34
   1  -2   6  312.06    1.34
   1  -2   6  323.89    1.72
   1   2  -7   60.91    0.74
   1   2  -7   61.17    0.75
   1   2  -7   63.91    0.76
   1  -2  -7   65.51    0.71
   1  -2  -7   20.60    0.49
   1  -2  -7   62.42    0.43
  -1   2   7   68.04    0.74
  -1   2   7   57.92    0.68
  -1   2   7   65.91    0.44
  -1  -2   7   62.21    0.76
  -1  -2   7   62.01    0.75
  -1  -2   7   62.26    0.77
  -1   2  -6  294.85    1.37
  -1   2  -6  281.90    1.35
  -1   2  -6  334.54    1.74
  -1  -2  -6  331.12    1.67
  -1  -2  -6  320.27    1.65
  -1  -2  -6  323.55    1.54
   1   3   6    3.27    0.28
   1   3   6    2.83    0.26
   1  -3   6    3.25    0.21
   1  -3   6    2.91    0.21
   1  -3   6    2.93    0.26
   1   3  -7   26.89    0.55
   1   3  -7   28.61    0.57
   1   3  -7   29.28    0.58
   1  -3  -7   29.94    0.52
  -1   3   7   32.13    0.56
  -1   3   7   26.62    0.50
  -1  -3   7   28.79    0.56
  -1  -3   7   28.05    0.56
  -1   3  -6    2.97    0.23
  -1   3  -6    2.65    0.22
  -1   3  -6    2.49    0.25
  -1  -3  -6    2.91    0.26
  -1  -3  -6    2.59    0.26
  -1  -3  -6    2.78    0.21
   1   4   6    4.43    0.31
   1   4   6    3.69    0.30
   1  -4   6    2.77    0.24
   1  -4   6    3.82    0.23
   1  -4   6    4.03    0.31
   1   4  -7   45.98    0.75
   1   4  -7   47.37    0.78
   1   4  -7   47.36    0.77
   1  -4  -7   49.97    0.70
  -1   4   7   44.75    0.69
  -1  -4   7   47.29    0.76
  -1  -4   7   45.70    0.75
  -1  -4   7   49.07    0.80
  -1   4  -6    3.42    0.26
  -1   4  -6    3.00    0.26
  -1   4  -6    3.40    0.28
  -1  -4  -6    3.46    0.29
  -1  -4  -6    3.27    0.29
  -1  -4  -6    3.26    0.25
   1   5   6    0.26    0.21
   1   5   6   -0.02    0.17
   1  -5   6    0.39    0.15
   1  -5   6    0.11    0.18
   1   5  -7    6.52    0.38
   1   5  -7    7.52    0.44
   1   5  -7    6.54    0.39
   1  -5  -7    6.22    0.34
  -1   5   7    7.52    0.40
  -1   5   7    6.51    0.36
  -1  -5   7    7.10    0.39
  -1  -5   7    7.15    0.40
  -1  -5   7    7.41    0.42
  -1   5  -6    0.17    0.14
  -1   5  -6    0.36    0.16
  -1   5  -6    0.52    0.18
  -1  -5  -6    0.43    0.17
  -1  -5  -6    0.41    0.21
  -1  -5  -6   -0.11    0.17
   1   6   6    1.25    0.27
   1   6   6    0.92    0.25
   1  -6   6    1.41    0.19
   1  -6   6    1.28    0.20
   1  -6   6    0.85    0.23
   1   6  -7    0.01    0.20
   1   6  -7    0.18    0.23
   1   6  -7    0.54    0.23
   1  -6  -7    0.65    0.17
  -1   6   7    0.71    0.21
  -1   6   7    0.18    0.19
  -1  -6   7    0.05    0.18
  -1  -6   7    0.22    0.20
  -1  -6   7    0.39    0.26
  -1   6  -6    1.46    0.23
  -1   6  -6    1.42    0.22
  -1   6  -6    0.95    0.22
  -1  -6  -6    1.59    0.25
  -1  -6  -6    0.95    0.27
  -1  -6  -6    1.73    0.24
   1   7   6    2.60    0.33
   1   7   6    2.31    0.34
   1   7   6    2.51    0.28
   1  -7   6    3.55    0.34
   1  -7   6    1.88    0.27
   1  -7   6    2.38    0.33
   1   7  -7    8.54    0.53
   1   7  -7    8.32    0.54
   1   7  -7    7.54    0.52
   1  -7  -7    8.87    0.47
   1  -7  -7    7.22    0.53
  -1   7   7    9.25    0.52
  -1   7   7    7.97    0.48
  -1  -7   7    8.03    0.52
  -1  -7   7    8.29    0.53
  -1  -7   7    8.50    0.59
  -1   7  -6    2.24    0.29
  -1   7  -6    1.73    0.30
  -1   7  -6    2.25    0.28
  -1  -7  -6    2.74    0.38
  -1  -7  -6    1.78    0.32
  -1  -7  -6    2.56    0.28
   1   8   6   64.91    1.22
   1   8   6   58.01    1.18
   1   8   6   57.22    0.87
   1  -8   6   61.14    0.98
   1  -8   6   53.15    0.92
   1  -8   6   61.10    1.12
   1   8  -7    7.38    0.63
   1   8  -7    5.43    0.63
   1   8  -7    5.39    0.59
   1  -8  -7    8.09    0.51
   1  -8  -7    6.70    0.54
  -1   8   7    8.83    0.56
  -1   8   7    7.23    0.53
  -1  -8   7    7.27    0.59
  -1  -8   7    7.68    0.61
  -1  -8   7    6.72    0.64
  -1   8  -6   55.99    1.01
  -1   8  -6   55.71    1.04
  -1   8  -6   53.17    1.03
  -1  -8  -6   64.47    1.22
  -1  -8  -6   60.66    1.19
  -1  -8  -6   55.74    0.88
   1   9   6    0.12    0.38
   1   9   6   -0.14    0.41
   1  -9   6    0.41    0.29
   1  -9   6    0.59    0.32
   1  -9   6    1.00    0.37
   1   9  -7    8.13    0.73
   1   9  -7    6.59    0.74
   1   9  -7   10.44    0.75
   1  -9  -7    5.94    0.60
   1  -9  -7    9.59    0.66
  -1   9   7    9.34    0.84
  -1   9   7    7.62    0.65
  -1  -9   7    9.96    0.76
  -1  -9   7    8.93    0.72
  -1  -9   7    9.20    0.74
  -1   9  -6   -0.22    0.33
  -1   9  -6    0.22    0.33
  -1   9  -6   -0.48    0.34
  -1  -9  -6    0.75    0.35
  -1  -9  -6    1.33    0.49
  -1  -9  -6    0.91    0.33
   1  10   6    1.07    0.49
   1  10   6    3.36    0.41
   1 -10   6    2.16    0.45
   1 -10   6    3.94    0.54
   1  10  -7    7.48    0.76
   1  10  -7    6.62    0.70
   1  10  -7    7.00    0.68
   1 -10  -7    3.84    0.51
  -1  10   7    6.39    0.60
  -1  10   7    5.42    0.63
  -1 -10   7    9.71    0.91
  -1 -10   7    5.15    0.59
  -1 -10   7    7.77    0.82
  -1  10  -6    3.91    0.47
  -1  10  -6    2.17    0.44
  -1  10  -6    3.57    0.52
  -1 -10  -6    1.45    0.51
  -1 -10  -6    2.22    0.52
  -1 -10  -6    2.82    0.39
   1  11   6    1.23    0.57
   1  11   6   -0.96    0.72
   1  11   6    1.34    0.49
   1 -11   6    0.90    0.51
   1 -11   6    0.64    0.55
   1  11  -7    0.23    0.60
   1  11  -7   -0.05    0.55
   1 -11  -7    0.90    0.60
  -1  11   7    1.19    0.48
  -1  11   7    1.12    0.48
  -1 -11   7    1.74    0.66
  -1 -11   7    1.04    0.56
  -1  11  -6   -0.27    0.51
  -1  11  -6   -1.29    0.46
  -1  11  -6    0.35    0.63
  -1 -11  -6    0.43    0.68
  -1 -11  -6    0.65    0.57
  -1 -11  -6    0.64    0.47
   1  12   6    2.12    0.68
   1  12  -7    0.53    0.59
  -1  12   7    1.70    0.69
  -1 -12   7    0.15    0.66
  -1  12  -6   -1.31    0.65
  -1 -12  -6   -0.92    0.57
   1   0   7   -0.05    0.10
   1   0   7   -0.07    0.11
   1   0  -8  141.06    1.08
   1   0  -8  147.06    0.99
  -1   0   8  145.03    1.12
  -1   0   8  135.23    1.07
  -1   0   8  148.87    1.00
  -1   0  -7    0.06    0.09
  -1   0  -7   -0.03    0.10
  -1   0  -7   -0.09    0.10
   1   1   7   22.19    0.45
   1   1   7   26.59    0.48
   1   1   7   31.96    0.54
   1  -1   7   31.82    0.47
   1  -1   7   28.34    0.45
   1  -1   7   30.07    0.55
   1   1  -8   90.86    0.90
   1   1  -8   84.95    0.88
   1   1  -8   92.67    0.88
   1  -1  -8   89.26    0.86
   1  -1  -8   90.51    0.87
   1  -1  -8   92.19    0.70
  -1   1   8   96.37    0.92
  -1   1   8   86.38    0.86
  -1   1   8   97.55    0.72
  -1  -1   8   87.08    0.90
  -1  -1   8   86.67    0.89
  -1  -1   8   93.96    0.89
  -1   1  -7   29.36    0.48
  -1   1  -7   28.78    0.48
  -1   1  -7   31.82    0.56
  -1  -1  -7   29.95    0.52
  -1  -1  -7   28.45    0.51
  -1  -1  -7   31.62    0.52
   1   2   7  125.26    1.32
   1   2   7  115.99    1.03
   1  -2   7  118.85    0.90
   1  -2   7  116.61    0.89
   1  -2   7  124.04    1.13
   1   2  -8  242.60    1.53
   1   2  -8  241.12    1.54
   1   2  -8  253.20    1.55
   1  -2  -8  258.06    1.49
   1  -2  -8  228.52    1.40
   1  -2  -8  252.76    0.97
  -1   2   8  281.12    1.59
  -1   2   8  245.52    1.48
  -1  -2   8  245.28    1.55
  -1  -2   8  244.43    1.54
  -1  -2   8  263.42    1.60
  -1   2  -7  109.21    0.90
  -1   2  -7  111.61    0.92
  -1   2  -7  123.29    1.12
  -1  -2  -7  128.50    1.10
  -1  -2  -7  116.33    1.06
  -1  -2  -7  125.08    1.00
   1   3   7   73.62    0.90
   1   3   7   62.39    0.83
   1  -3   7   61.43    0.68
   1  -3   7   64.10    0.70
   1  -3   7   66.69    0.88
   1   3  -8    7.02    0.35
   1   3  -8    7.24    0.37
   1   3  -8    6.67    0.34
   1  -3  -8    8.09    0.33
   1  -3  -8    4.56    0.28
  -1   3   8    8.79    0.36
  -1   3   8    7.33    0.33
  -1  -3   8    7.70    0.37
  -1  -3   8    7.63    0.37
  -1   3  -7   62.47    0.73
  -1   3  -7   62.19    0.74
  -1   3  -7   66.40    0.87
  -1  -3  -7   73.79    0.91
  -1  -3  -7   66.90    0.86
  -1  -3  -7   66.80    0.75
  -1  -3  -7   69.77    0.77
   1   4   7   13.72    0.50
   1  -4   7   12.24    0.37
   1  -4   7   12.20    0.37
   1  -4   7   12.38    0.46
   1   4  -8   27.13    0.62
   1   4  -8   28.26    0.64
   1   4  -8   27.84    0.72
   1  -4  -8   28.73    0.59
   1  -4  -8   14.91    0.49
  -1   4   8   30.48    0.62
  -1   4   8   26.20    0.57
  -1  -4   8   26.66    0.62
  -1  -4   8   28.59    0.62
  -1  -4   8   29.42    0.67
  -1   4  -7   11.49    0.38
  -1   4  -7   11.90    0.40
  -1   4  -7   13.15    0.44
  -1  -4  -7   13.25    0.47
  -1  -4  -7   12.85    0.46
  -1  -4  -7   12.55    0.37
   1   5   7  107.47    1.26
   1   5   7   94.71    1.17
   1  -5   7   98.04    0.97
   1  -5   7   87.19    0.93
   1  -5   7   99.51    1.19
   1   5  -8   20.99    0.59
   1   5  -8   21.88    0.64
   1   5  -8   22.21    0.62
   1  -5  -8   19.67    0.77
  -1   5   8   25.37    0.62
  -1   5   8   21.50    0.58
  -1  -5   8   21.85    0.62
  -1  -5   8   22.67    0.63
  -1  -5   8   24.18    0.65
  -1   5  -7   91.40    1.00
  -1   5  -7   88.69    1.00
  -1   5  -7   93.10    1.18
  -1  -5  -7  101.64    1.22
  -1  -5  -7   95.65    1.20
  -1  -5  -7   94.38    0.94
   1   6   7    0.04    0.21
   1   6   7    0.30    0.21
   1  -6   7    0.04    0.16
   1  -6   7    0.06    0.19
   1  -6   7   -0.16    0.21
   1   6  -8   96.52    1.27
   1   6  -8   96.37    1.28
   1   6  -8   94.22    1.25
   1  -6  -8  104.36    1.19
  -1   6   8  115.88    1.33
  -1   6   8   95.82    1.19
  -1  -6   8  102.73    1.29
  -1  -6   8   96.22    1.25
  -1  -6   8  106.50    1.37
  -1   6  -7   -0.14    0.18
  -1   6  -7   -0.39    0.18
  -1   6  -7   -0.37    0.20
  -1  -6  -7   -0.25    0.17
  -1  -6  -7    0.01    0.20
  -1  -6  -7    0.08    0.19
   1   7   7    2.05    0.32
   1   7   7    1.95    0.35
   1  -7   7    2.92    0.36
   1  -7   7    2.12    0.26
   1  -7   7    1.94    0.34
   1   7  -8    5.14    0.51
   1   7  -8    6.87    0.56
   1   7  -8    4.46    0.48
   1  -7  -8    6.43    0.47
  -1   7   8    7.88    0.57
  -1   7   8    4.62    0.45
  -1  -7   8    6.61    0.55
  -1  -7   8    6.04    0.51
  -1  -7   8    6.87    0.58
  -1   7  -7    1.57    0.32
  -1   7  -7    2.55    0.32
  -1   7  -7    2.33    0.31
  -1  -7  -7    1.99    0.38
  -1  -7  -7    1.85    0.35
  -1  -7  -7    1.71    0.26
   1   8   7    0.00    0.31
   1   8   7    0.36    0.34
   1  -8   7    0.54    0.24
   1  -8   7    0.35    0.27
   1  -8   7   -0.16    0.29
   1   8  -8   16.02    0.74
   1   8  -8   16.48    0.78
   1   8  -8   15.14    0.75
   1  -8  -8   17.93    0.67
   1  -8  -8   18.59    1.14
  -1   8   8   19.72    0.73
  -1   8   8   16.59    0.69
  -1  -8   8   19.31    0.73
  -1  -8   8   18.85    0.74
  -1  -8   8   18.54    0.80
  -1   8  -7    0.39    0.26
  -1   8  -7    0.22    0.28
  -1   8  -7   -0.52    0.28
  -1  -8  -7    0.18    0.33
  -1  -8  -7    0.96    0.35
  -1  -8  -7    0.02    0.26
   1   9   7   10.23    0.83
   1   9   7   12.67    0.77
   1  -9   7   10.14    0.65
   1  -9   7    9.68    0.68
   1  -9   7    9.28    0.77
   1   9  -8   -0.16    0.39
   1   9  -8   -0.22    0.37
   1   9  -8    1.54    0.46
   1  -9  -8   -0.35    0.33
   1  -9  -8   -0.27    0.33
  -1   9   8   -0.21    0.32
  -1   9   8   -0.43    0.33
  -1  -9   8   -0.12    0.40
  -1  -9   8    0.77    0.36
  -1   9  -7    9.78    0.72
  -1   9  -7   10.41    0.79
  -1   9  -7    8.86    0.74
  -1  -9  -7   11.75    0.79
  -1  -9  -7    9.67    0.78
  -1  -9  -7   10.55    0.60
   1  10   7   -0.34    0.48
   1 -10   7    0.93    0.44
   1 -10   7   -0.50    0.54
   1  10  -8    0.53    0.51
   1  10  -8    2.00    0.53
   1 -10  -8    0.95    0.42
  -1  10   8    0.34    0.48
  -1  10   8    0.82    0.41
  -1 -10   8   -0.19    0.51
  -1 -10   8   -0.27    0.46
  -1 -10   8    0.01    0.47
  -1  10  -7    0.89    0.44
  -1  10  -7    0.12    0.42
  -1  10  -7   -1.01    0.50
  -1 -10  -7    0.72    0.55
  -1 -10  -7    0.33    0.54
  -1 -10  -7   -0.53    0.36
   1  11   7   -0.83    0.47
   1  11   7    2.75    0.73
   1 -11   7    0.58    0.54
   1  11  -8   -0.28    0.62
   1  11  -8    1.42    0.66
  -1  11   8   -0.18    0.50
  -1  11   8    0.45    0.67
  -1 -11   8    0.39    0.55
  -1 -11   8    0.76    0.51
  -1  11  -7    0.67    0.64
  -1  11  -7    0.46    0.53
  -1  11  -7   -0.40    0.67
  -1 -11  -7    0.43    0.85
  -1 -11  -7    0.41    0.61
  -1 -11  -7    0.04    0.42
   1  12   7    3.24    0.75
   1 -12   7    2.05    0.72
   1  12  -8   -1.90    0.66
  -1  12   8   -0.90    0.59
  -1 -12   8    1.80    0.76
  -1  12  -7    2.78    0.74
  -1 -12  -7   -1.12    0.61
   1   0   8   11.76    0.35
   1   0   8   13.91    0.41
   1   0  -9    0.12    0.11
   1   0  -9   -0.11    0.14
   1   0  -9   -0.19    0.10
  -1   0   9   -0.23    0.12
  -1   0   9    0.15    0.10
  -1   0   9   -0.06    0.11
  -1   0  -8   13.09    0.37
  -1   0  -8   11.91    0.36
  -1   0  -8   14.53    0.40
   1   1   8  176.02    1.26
   1   1   8  154.55    1.18
   1   1   8  174.31    1.26
   1  -1   8  177.78    1.76
   1  -1   8  152.52    1.09
   1  -1   8  174.67    1.34
   1   1  -9  128.05    1.13
   1   1  -9  124.00    1.12
   1   1  -9  133.12    1.10
   1  -1  -9  129.13    1.10
   1  -1  -9  116.91    1.40
   1  -1  -9  131.59    0.90
  -1   1   9  139.66    1.17
  -1   1   9  119.99    1.08
  -1   1   9  137.21    0.92
  -1  -1   9  123.58    1.12
  -1  -1   9  124.64    1.12
  -1  -1   9  134.48    1.11
  -1   1  -8  157.39    1.14
  -1   1  -8  157.38    1.15
  -1   1  -8  174.02    1.33
  -1  -1  -8  173.41    1.27
  -1  -1  -8  157.54    1.22
  -1  -1  -8  178.31    1.26
   1   2   8   23.37    0.52
   1  -2   8   25.73    0.48
   1  -2   8   23.02    0.45
   1  -2   8   25.99    0.57
   1   2  -9   52.01    0.76
   1   2  -9   50.31    0.76
   1   2  -9   52.96    0.76
   1  -2  -9   53.17    0.73
   1  -2  -9   51.44    0.73
   1  -2  -9   52.79    0.50
  -1   2   9   59.64    0.79
  -1   2   9   49.43    0.72
  -1   2   9   56.67    0.52
  -1  -2   9   52.46    0.78
  -1  -2   9   50.05    0.75
  -1  -2   9   55.91    0.79
  -1   2  -8   22.50    0.46
  -1   2  -8   23.66    0.48
  -1   2  -8   26.08    0.57
  -1  -2  -8   25.64    0.53
  -1  -2  -8   25.16    0.54
  -1  -2  -8   25.99    0.51
   1   3   8  114.19    1.16
   1   3   8  100.38    1.09
   1  -3   8   95.49    0.90
   1  -3   8  100.41    0.92
   1  -3   8  106.77    1.15
   1   3  -9  215.96    1.59
   1   3  -9  213.01    1.60
   1   3  -9  218.11    1.61
   1  -3  -9  222.38    1.52
   1  -3  -9  221.46    1.52
  -1   3   9  254.48    1.67
  -1   3   9  206.68    1.49
  -1  -3   9  205.39    1.57
  -1  -3   9  218.78    1.60
  -1  -3   9  223.52    1.65
  -1   3  -8   95.58    0.95
  -1   3  -8   95.67    0.96
  -1   3  -8  103.81    1.13
  -1  -3  -8  108.91    1.13
  -1  -3  -8  102.89    1.11
  -1  -3  -8  104.54    0.96
  -1  -3  -8  107.74    0.97
   1   4   8    9.77    0.46
   1   4   8    8.90    0.43
   1  -4   8    7.51    0.35
   1  -4   8    7.82    0.39
   1  -4   8    7.88    0.43
   1   4  -9    3.87    0.32
   1   4  -9    3.06    0.35
   1   4  -9    2.99    0.32
   1  -4  -9    3.43    0.30
   1  -4  -9    4.17    0.33
  -1   4   9    4.97    0.38
  -1   4   9    3.69    0.31
  -1  -4   9    4.00    0.36
  -1  -4   9    4.41    0.37
  -1  -4   9    3.06    0.33
  -1   4  -8    7.29    0.34
  -1   4  -8    7.35    0.38
  -1  -4  -8    8.97    0.45
  -1  -4  -8    8.59    0.44
  -1  -4  -8    8.54    0.34
  -1  -4  -8    8.80    0.36
   1   5   8    9.57    0.50
   1   5   8    7.93    0.47
   1  -5   8    8.02    0.38
   1  -5   8    7.81    0.36
   1  -5   8    8.16    0.46
   1   5  -9   60.91    0.98
   1   5  -9   59.42    0.99
   1   5  -9   61.97    0.99
   1  -5  -9   65.94    0.93
   1  -5  -9   55.12    0.87
  -1   5   9   71.63    1.01
  -1   5   9   58.80    0.92
  -1  -5   9   60.45    0.98
  -1  -5   9   61.76    0.99
  -1  -5   9   66.40    1.05
  -1   5  -8    7.12    0.39
  -1   5  -8    8.06    0.42
  -1   5  -8    8.73    0.44
  -1  -5  -8    9.29    0.48
  -1  -5  -8    8.30    0.48
  -1  -5  -8    9.36    0.39
  -1  -5  -8    8.78    0.39
   1   6   8    8.09    0.48
   1   6   8    7.28    0.49
   1  -6   8    9.19    0.43
   1  -6   8    7.68    0.43
   1  -6   8    7.86    0.53
   1   6  -9    2.08    0.33
   1   6  -9    1.68    0.31
   1   6  -9    3.84    0.45
   1  -6  -9    2.42    0.29
   1  -6  -9    1.49    0.29
  -1   6   9    2.46    0.32
  -1   6   9    2.07    0.32
  -1  -6   9    2.12    0.34
  -1  -6   9    2.27    0.32
  -1   6  -8    8.65    0.45
  -1   6  -8    7.56    0.46
  -1   6  -8    7.46    0.50
  -1  -6  -8    7.64    0.51
  -1  -6  -8    8.01    0.53
  -1  -6  -8    7.36    0.39
   1   7   8   13.14    0.66
   1   7   8   13.26    0.68
   1  -7   8   13.76    0.53
   1  -7   8   11.74    0.53
   1  -7   8   12.95    0.68
   1   7  -9    8.50    0.60
   1   7  -9   10.26    0.64
   1   7  -9   11.06    0.62
   1  -7  -9    9.83    0.52
  -1   7   9   12.00    0.66
  -1   7   9   10.38    0.58
  -1  -7   9   10.29    0.58
  -1  -7   9   10.10    0.62
  -1  -7   9   10.80    0.62
  -1   7  -8   14.16    0.57
  -1   7  -8   12.92    0.61
  -1   7  -8   13.52    0.60
  -1  -7  -8   12.76    0.85
  -1  -7  -8   13.66    0.74
  -1  -7  -8   12.57    0.51
   1   8   8    3.47    0.43
   1   8   8    2.93    0.50
   1  -8   8    2.49    0.34
   1  -8   8    2.80    0.38
   1  -8   8    2.60    0.44
   1   8  -9    8.61    0.67
   1   8  -9    6.51    0.66
   1   8  -9    5.40    0.64
   1  -8  -9    6.77    0.54
  -1   8   9    7.61    0.62
  -1   8   9    7.22    0.61
  -1  -8   9    5.13    0.60
  -1  -8   9    4.49    0.44
  -1  -8   9    8.36    0.67
  -1   8  -8    2.75    0.38
  -1   8  -8    3.32    0.54
  -1   8  -8    2.03    0.40
  -1  -8  -8    1.79    0.42
  -1  -8  -8    3.20    0.48
  -1  -8  -8    3.05    0.34
   1   9   8   24.98    1.04
   1   9   8   15.31    1.40
   1  -9   8   23.05    0.77
   1  -9   8   22.27    0.84
   1  -9   8   23.70    0.96
   1   9  -9    0.95    0.39
   1   9  -9   -0.80    0.40
   1   9  -9    0.51    0.45
   1  -9  -9    0.17    0.33
  -1   9   9    0.74    0.34
  -1   9   9    1.06    0.41
  -1  -9   9    0.81    0.38
  -1  -9   9   -0.43    0.36
  -1  -9   9    0.69    0.44
  -1   9  -8   20.62    0.84
  -1   9  -8   21.82    0.90
  -1   9  -8   19.68    0.84
  -1  -9  -8   21.97    0.99
  -1  -9  -8   22.07    1.02
  -1  -9  -8   21.56    0.69
   1  10   8    2.08    0.51
   1  10   8    1.96    0.69
   1 -10   8    3.57    0.47
   1 -10   8    3.11    0.55
   1  10  -9   -0.07    0.56
   1  10  -9   -0.09    0.50
   1 -10  -9    0.62    0.44
  -1  10   9    1.86    0.51
  -1  10   9    0.91    0.44
  -1 -10   9    0.12    0.51
  -1 -10   9   -0.64    0.44
  -1 -10   9    1.57    0.57
  -1  10  -8    1.43    0.44
  -1  10  -8    1.75    0.49
  -1  10  -8    2.60    0.54
  -1 -10  -8    1.27    0.55
  -1 -10  -8    2.74    0.60
  -1 -10  -8    2.15    0.43
   1  11   8   -0.10    0.50
   1  11   8   -1.35    0.68
   1 -11   8   -0.13    0.56
   1  11  -9   15.24    1.84
   1  11  -9   13.74    1.13
  -1  11   9   13.37    1.49
  -1 -11   9   -0.40    0.60
  -1 -11   9   11.36    1.15
  -1  11  -8   -0.05    0.52
  -1 -11  -8   -1.33    0.62
  -1 -11  -8   -0.92    0.43
   1  12   8    2.13    0.83
   1 -12   8   -0.87    0.66
   1  12  -9    1.96    0.79
  -1  12   9    0.84    0.75
  -1 -12   9    2.07    0.74
  -1  12  -8    1.07    0.70
   1   0   9   -0.20    0.11
   1   0   9    0.39    0.15
   1   0 -10 1628.00    4.12
   1   0 -10 1660.00    4.17
   1   0 -10 1520.00    4.12
  -1   0  10 1846.00    5.31
  -1   0  10 1596.00    4.11
  -1   0  10 1670.00    4.33
  -1   0  -9    0.06    0.13
  -1   0  -9   -0.21    0.13
  -1   0  -9    0.07    0.14
   1   1   9   35.74    0.63
   1   1   9   30.58    0.58
   1   1   9   34.97    0.62
   1  -1   9   31.36    0.55
   1  -1   9   35.36    0.66
   1   1 -10   22.00    0.53
   1   1 -10   21.55    0.53
   1   1 -10   24.36    0.52
   1  -1 -10   22.92    0.51
   1  -1 -10   22.39    0.55
   1  -1 -10   23.49    0.43
  -1   1  10   23.98    0.55
  -1   1  10   21.50    0.51
  -1   1  10   24.73    0.44
  -1  -1  10   21.91    0.56
  -1  -1  10   21.38    0.53
  -1  -1  10   25.35    0.54
  -1   1  -9   31.32    0.57
  -1   1  -9   32.09    0.58
  -1   1  -9   34.40    0.64
  -1  -1  -9   34.98    0.62
  -1  -1  -9   30.53    0.59
  -1  -1  -9   35.17    0.61
   1   2   9   -0.09    0.15
   1   2   9    0.63    0.15
   1  -2   9    0.07    0.11
   1  -2   9    0.07    0.13
   1  -2   9    0.41    0.14
   1   2 -10   35.40    0.66
   1   2 -10   32.82    0.67
   1   2 -10   34.72    0.66
   1  -2 -10   33.87    0.63
   1  -2 -10   34.80    0.45
  -1   2  10   36.63    0.67
  -1   2  10   33.43    0.64
  -1   2  10   37.02    0.47
  -1  -2  10   35.01    0.68
  -1  -2  10   32.55    0.64
  -1  -2  10   36.22    0.67
  -1   2  -9    0.67    0.16
  -1   2  -9    0.33    0.14
  -1   2  -9    0.26    0.15
  -1  -2  -9    0.23    0.14
  -1  -2  -9    0.04    0.13
  -1  -2  -9    0.13    0.14
   1   3   9   30.81    0.66
   1   3   9   27.74    0.62
   1  -3   9   29.35    0.55
   1  -3   9   30.92    0.57
   1  -3   9   31.24    0.69
   1   3 -10   24.28    0.59
   1   3 -10   25.03    0.63
   1  -3 -10   25.46    0.58
   1  -3 -10   25.68    0.58
  -1   3  10   29.52    0.64
  -1   3  10   23.96    0.58
  -1  -3  10   24.28    0.62
  -1  -3  10   26.86    0.62
  -1  -3  10   26.03    0.63
  -1   3  -9   26.92    0.57
  -1   3  -9   28.33    0.58
  -1  -3  -9   31.79    0.67
  -1  -3  -9   31.01    0.67
  -1  -3  -9   32.29    0.58
   1   4   9   75.94    1.07
   1   4   9   64.90    0.99
   1  -4   9   62.57    0.82
   1  -4   9   66.14    0.84
   1  -4   9   66.95    1.01
   1   4 -10   17.71    0.56
   1   4 -10   16.93    0.59
   1   4 -10   17.17    0.56
   1  -4 -10   17.56    0.52
   1  -4 -10   17.70    0.54
  -1   4  10   20.42    0.59
  -1   4  10   15.18    0.52
  -1  -4  10   16.79    0.57
  -1  -4  10   16.89    0.56
  -1  -4  10   19.18    0.60
  -1   4  -9   63.73    0.86
  -1   4  -9   62.52    0.89
  -1   4  -9   68.77    1.02
  -1  -4  -9   69.89    1.01
  -1  -4  -9   67.76    1.01
  -1  -4  -9   66.57    0.81
  -1  -4  -9   69.60    0.83
   1   5   9   11.63    0.58
   1   5   9   10.36    0.53
   1  -5   9    9.64    0.43
   1  -5   9    9.97    0.42
   1  -5   9    9.96    0.52
   1   5 -10   40.61    0.84
   1   5 -10   41.38    0.88
   1   5 -10   41.73    0.87
   1  -5 -10   43.78    0.82
   1  -5 -10   45.13    0.84
  -1   5  10   48.47    0.90
  -1   5  10   39.22    0.80
  -1  -5  10   42.91    0.88
  -1  -5  10   42.19    0.86
  -1  -5  10   44.39    0.91
  -1   5  -9   10.96    0.45
  -1   5  -9    9.67    0.47
  -1   5  -9   10.31    0.50
  -1  -5  -9   11.21    0.53
  -1  -5  -9   11.06    0.53
  -1  -5  -9   11.05    0.42
  -1  -5  -9   11.52    0.41
   1   6   9   18.61    0.67
   1   6   9   15.69    0.66
   1  -6   9   14.72    0.52
   1  -6   9   13.17    0.53
   1  -6   9   15.63    0.63
   1   6 -10   51.74    1.01
   1   6 -10   54.56    1.04
   1   6 -10   53.15    1.03
   1  -6 -10   56.12    0.95
   1  -6 -10   56.90    0.97
  -1   6  10   62.73    1.08
  -1   6  10   52.20    0.98
  -1  -6  10   51.05    1.00
  -1  -6  10   56.29    1.03
  -1  -6  10   55.56    1.06
  -1   6  -9   13.60    0.55
  -1   6  -9   13.43    0.58
  -1   6  -9   14.53    0.62
  -1  -6  -9   16.61    0.68
  -1  -6  -9   16.38    0.66
  -1  -6  -9   13.82    0.50
  -1  -6  -9   15.77    0.51
   1   7   9    0.25    0.28
   1   7   9    0.30    0.27
   1  -7   9    0.55    0.24
   1  -7   9    0.43    0.27
   1  -7   9    1.08    0.35
   1   7 -10    0.28    0.34
   1   7 -10   -0.11    0.30
   1   7 -10   -0.47    0.30
   1  -7 -10    0.17    0.23
   1  -7 -10    0.88    0.29
  -1   7  10    0.76    0.34
  -1   7  10    0.82    0.28
  -1  -7  10   -0.22    0.30
  -1  -7  10   -0.12    0.32
  -1  -7  10    0.20    0.29
  -1   7  -9   -0.15    0.25
  -1   7  -9   -0.09    0.28
  -1   7  -9    0.40    0.28
  -1  -7  -9    0.32    0.29
  -1  -7  -9    0.31    0.34
  -1  -7  -9    0.68    0.27
   1   8   9    1.94    0.40
   1   8   9    1.27    0.43
   1  -8   9    2.33    0.36
   1  -8   9    2.31    0.37
   1  -8   9    2.07    0.44
   1   8 -10   27.61    0.93
   1   8 -10   28.98    0.99
   1   8 -10   24.36    0.89
   1  -8 -10   29.97    0.85
   1  -8 -10   24.57    1.11
  -1   8  10   35.38    0.98
  -1   8  10   27.42    0.89
  -1  -8  10   30.42    0.95
  -1  -8  10   28.71    0.91
  -1  -8  10   30.55    1.64
  -1   8  -9    1.60    0.35
  -1   8  -9    1.54    0.37
  -1   8  -9    1.58    0.38
  -1  -8  -9    2.89    0.45
  -1  -8  -9    2.63    0.48
  -1  -8  -9    2.42    0.33
   1   9   9    0.04    0.40
   1   9   9    0.12    0.38
   1  -9   9    0.07    0.31
   1  -9   9    0.38    0.34
   1  -9   9   -0.77    0.40
   1   9 -10   -0.44    0.38
   1   9 -10   -0.78    0.47
   1  -9 -10   -0.99    0.35
  -1   9  10   -0.57    0.40
  -1  -9  10    0.05    0.36
  -1  -9  10    0.64    0.40
  -1   9  -9    0.50    0.40
  -1   9  -9    0.96    0.41
  -1  -9  -9    0.00    0.45
  -1  -9  -9    1.08    0.50
  -1  -9  -9    0.52    0.32
   1  10   9    2.99    0.60
   1  10   9    3.02    0.60
   1 -10   9    1.91    0.54
   1 -10   9    5.79    0.66
   1  10 -10   10.27    1.06
   1  10 -10    8.16    0.76
   1 -10 -10    0.76    0.76
  -1  10  10    9.03    0.96
  -1  10  10    6.80    0.68
  -1 -10  10    7.83    0.96
  -1 -10  10   -0.83    0.47
  -1 -10  10    7.84    0.92
  -1  10  -9    3.09    0.54
  -1  10  -9    4.11    0.58
  -1  10  -9    1.56    0.68
  -1 -10  -9    4.80    0.65
  -1 -10  -9    1.68    0.58
  -1 -10  -9    3.63    0.45
   1  11   9    7.33    0.78
   1  11   9    5.74    0.85
   1 -11   9    5.88    0.76
   1  11 -10   -0.38    0.57
  -1  11  10    0.29    0.53
  -1 -11  10    0.86    0.67
  -1  11  -9    6.03    0.71
  -1 -11  -9    0.00    0.66
  -1 -11  -9   -0.18    0.45
   1  12   9    8.93    0.86
   1 -12   9   11.55    1.36
   1  12 -10    3.75    0.86
  -1  12  10    4.54    0.79
  -1 -12  10    6.47    0.94
  -1  12  -9   12.69    1.41
   1   0  10   25.51    0.55
   1   0  10   24.23    0.54
   1   0  10   29.70    0.62
   1   0 -11    0.28    0.14
   1   0 -11    0.12    0.15
   1   0 -11   -0.16    0.13
  -1   0  11    0.08    0.18
  -1   0  11    0.30    0.14
  -1   0  11   -0.15    0.13
  -1   0 -10   26.00    0.57
  -1   0 -10   26.43    0.58
  -1   0 -10   27.68    0.59
   1   1  10   89.70    1.02
   1   1  10   73.77    0.92
   1   1  10   85.89    0.98
   1  -1  10   76.98    0.89
   1  -1  10   85.78    1.04
   1   1 -11    2.45    0.28
   1   1 -11    3.38    0.35
   1   1 -11    3.61    0.29
   1  -1 -11    3.19    0.29
   1  -1 -11    2.50    0.31
   1  -1 -11    3.54    0.25
  -1   1  11    3.75    0.34
  -1   1  11    2.74    0.29
  -1   1  11    3.69    0.26
  -1  -1  11    3.05    0.34
  -1  -1  11    2.78    0.31
  -1  -1  11    3.60    0.30
  -1   1 -10   75.97    0.92
  -1   1 -10   76.55    0.92
  -1   1 -10   86.19    1.03
  -1  -1 -10   78.76    0.96
  -1  -1 -10   79.15    0.97
  -1  -1 -10   86.54    0.97
   1   2  10   21.79    0.58
   1   2  10   18.42    0.52
   1  -2  10   18.57    0.50
   1  -2  10   21.62    0.50
   1  -2  10   20.99    0.58
   1   2 -11   47.52    0.80
   1   2 -11   48.50    0.84
   1   2 -11   47.50    0.78
   1  -2 -11   47.13    0.78
   1  -2 -11   46.04    0.78
   1  -2 -11   47.17    0.56
  -1   2  11   50.41    0.83
  -1   2  11   42.75    0.77
  -1   2  11   51.83    0.59
  -1  -2  11   46.26    0.81
  -1  -2  11   45.64    0.78
  -1  -2  11   51.60    0.83
  -1   2 -10   18.56    0.49
  -1   2 -10   20.63    0.53
  -1  -2 -10   20.41    0.56
  -1  -2 -10   20.36    0.56
  -1  -2 -10   19.90    0.50
   1   3  10    1.99    0.25
   1   3  10    1.03    0.21
   1  -3  10    1.38    0.20
   1  -3  10    0.98    0.37
   1  -3  10    2.09    0.27
   1   3 -11   69.00    0.99
   1   3 -11   69.67    1.02
   1   3 -11   71.49    1.00
   1  -3 -11   74.45    0.99
   1  -3 -11   73.01    0.60
  -1   3  11   80.39    1.05
  -1   3  11   69.26    0.98
  -1   3  11   77.47    0.62
  -1  -3  11   68.46    1.00
  -1  -3  11   76.47    1.06
  -1   3 -10    1.42    0.19
  -1   3 -10    1.77    0.23
  -1   3 -10    1.68    0.22
  -1  -3 -10    1.38    0.20
  -1  -3 -10    1.34    0.23
  -1  -3 -10    1.95    0.23
   1   4  10    4.70    0.46
   1   4  10    3.89    0.42
   1  -4  10    3.12    0.32
   1  -4  10    3.96    0.33
   1  -4  10    3.52    0.39
   1   4 -11   90.63    1.19
   1   4 -11   89.42    1.21
   1   4 -11   91.93    1.20
   1  -4 -11   82.87    1.60
   1  -4 -11   91.88    1.23
  -1   4  11  109.06    1.28
  -1   4  11   91.26    1.16
  -1  -4  11   90.57    1.19
  -1  -4  11   90.14    1.18
  -1  -4  11   98.67    1.26
  -1   4 -10    4.36    0.36
  -1   4 -10    4.01    0.40
  -1   4 -10    4.22    0.39
  -1  -4 -10    3.96    0.40
  -1  -4 -10    3.85    0.41
  -1  -4 -10    3.65    0.31
  -1  -4 -10    4.58    0.34
   1   5  10   17.21    0.66
   1   5  10   15.73    0.64
   1  -5  10   14.06    0.51
   1  -5  10   15.19    0.51
   1  -5  10   15.35    0.60
   1   5 -11   97.98    1.29
   1   5 -11   93.66    1.30
   1   5 -11   99.09    1.32
   1  -5 -11  102.56    1.24
   1  -5 -11  104.72    1.27
  -1   5  11  113.63    1.37
  -1   5  11   93.28    1.23
  -1  -5  11   97.19    1.31
  -1  -5  11   99.52    1.30
  -1  -5  11  106.73    1.40
  -1   5 -10   13.48    0.51
  -1   5 -10   13.49    0.56
  -1   5 -10   15.05    0.61
  -1  -5 -10   18.76    0.68
  -1  -5 -10   15.95    0.64
  -1  -5 -10   15.10    0.48
  -1  -5 -10   16.18    0.49
   1   6  10   12.06    0.62
   1   6  10    9.76    0.62
   1  -6  10    9.77    0.49
   1  -6  10    9.61    0.62
   1   6 -11    4.24    0.50
   1   6 -11    4.43    0.44
   1   6 -11    3.94    0.48
   1  -6 -11    4.37    0.45
   1  -6 -11    4.83    0.47
  -1   6  11    4.59    0.41
  -1   6  11    3.65    0.40
  -1  -6  11    4.38    0.43
  -1  -6  11    3.77    0.39
  -1  -6  11    4.59    0.44
  -1   6 -10   10.45    0.51
  -1   6 -10    8.13    0.55
  -1   6 -10    9.34    0.58
  -1  -6 -10    9.81    0.62
  -1  -6 -10   12.00    0.67
  -1  -6 -10   10.44    0.48
  -1  -6 -10    9.78    0.45
   1   7  10   47.92    1.09
   1   7  10   40.09    1.05
   1  -7  10   43.72    0.87
   1  -7  10   35.57    0.83
   1  -7  10   45.01    1.06
   1   7 -11    0.51    0.32
   1   7 -11    0.46    0.34
   1   7 -11    0.91    0.34
   1  -7 -11    0.11    0.24
   1  -7 -11   -0.45    0.30
  -1   7  11    0.42    0.37
  -1   7  11    0.06    0.31
  -1  -7  11   -0.17    0.32
  -1  -7  11   -0.13    0.33
  -1   7 -10   37.16    0.90
  -1   7 -10   37.63    0.92
  -1   7 -10   39.72    0.97
  -1  -7 -10   45.85    1.08
  -1  -7 -10   42.53    1.09
  -1  -7 -10   41.61    0.77
  -1  -7 -10   42.65    0.75
   1   8  10   19.24    0.90
   1   8  10   21.54    1.30
   1  -8  10   20.80    0.70
   1  -8  10   18.95    0.75
   1  -8  10   25.18    1.07
   1   8 -11   -0.74    0.35
   1   8 -11    0.32    0.39
   1   8 -11    0.33    0.41
   1  -8 -11    1.14    0.33
   1  -8 -11   -0.64    0.33
  -1   8  11    0.34    0.39
  -1   8  11    0.08    0.40
  -1  -8  11   -0.21    0.37
  -1  -8  11    0.09    0.42
  -1  -8  11    0.62    0.39
  -1   8 -10   20.36    0.78
  -1   8 -10   19.59    0.84
  -1   8 -10   18.30    0.83
  -1  -8 -10   22.68    0.99
  -1  -8 -10   21.60    0.97
  -1  -8 -10   17.79    0.62
  -1  -8 -10   20.26    0.65
   1   9  10   10.12    0.90
   1   9  10   11.05    0.96
   1  -9  10   10.09    0.81
   1  -9  10   11.13    0.87
   1   9 -11    0.24    0.48
   1  -9 -11    0.74    0.39
   1  -9 -11    0.78    0.46
  -1   9  11    1.86    0.53
  -1   9  11    1.50    0.43
  -1  -9  11    0.30    0.42
  -1  -9  11   -0.05    0.45
  -1  -9  11    0.50    0.42
  -1   9 -10    9.89    0.83
  -1   9 -10   10.13    0.84
  -1   9 -10    8.23    0.83
  -1  -9 -10    8.37    0.97
  -1  -9 -10    9.86    0.92
  -1  -9 -10    8.33    0.61
  -1  -9 -10   10.62    0.65
   1  10  10    2.95    0.58
   1  10  10    4.78    0.83
   1 -10  10    1.85    0.47
   1 -10  10    3.30    0.57
   1  10 -11   -1.16    0.55
   1  10 -11   -0.32    0.48
  -1  10  11   -0.97    0.46
  -1  10  11   -0.40    0.53
  -1 -10  11    0.04    0.55
  -1 -10  11   -0.58    0.46
  -1  10 -10    3.64    0.59
  -1  10 -10    2.74    0.56
  -1 -10 -10    2.84    0.62
  -1 -10 -10    0.98    0.56
  -1 -10 -10    2.93    0.44
   1  11  10    1.10    0.65
   1 -11  10   -1.04    0.63
   1  11 -11    2.69    0.74
  -1  11  11    2.88    0.62
  -1 -11  11    2.57    0.63
  -1  11 -10    1.34    0.62
  -1 -11 -10    1.28    0.85
  -1 -11 -10   -0.70    0.47
   1  12  10   -1.49    0.65
  -1  12  11   -0.12    0.73
  -1  12 -10    0.19    0.73
   1   0  11    1.79    0.24
   1   0  11   -0.31    0.14
   1   0  11    0.15    0.17
   1   0 -12  110.32    1.20
   1   0 -12  104.16    1.17
   1   0 -12  111.81    1.07
  -1   0  12  110.66    1.23
  -1   0  12  104.58    1.17
  -1   0  12  114.95    1.10
  -1   0 -11   -0.12    0.16
  -1   0 -11    0.48    0.17
  -1   0 -11   -0.22    0.17
   1   1  11    2.85    0.33
   1   1  11    2.97    0.32
   1  -1  11    1.25    0.22
   1  -1  11    2.55    0.29
   1  -1  11    3.36    0.36
   1   1 -12   23.39    0.61
   1   1 -12   23.92    0.62
   1   1 -12   24.36    0.56
   1  -1 -12   24.13    0.60
   1  -1 -12   22.89    0.60
   1  -1 -12   24.69    0.50
  -1   1  12   26.77    0.65
  -1   1  12   22.63    0.59
  -1   1  12   26.61    0.53
  -1  -1  12   25.12    0.65
  -1  -1  12   22.73    0.60
  -1  -1  12   26.17    0.60
  -1   1 -11    2.32    0.26
  -1   1 -11    2.87    0.28
  -1  -1 -11    2.74    0.32
  -1  -1 -11    3.25    0.33
  -1  -1 -11    2.50    0.30
   1   2  11    6.51    0.41
   1   2  11    5.69    0.39
   1  -2  11    6.50    0.52
   1  -2  11    5.81    0.39
   1   2 -12  195.69    1.65
   1   2 -12  196.14    1.66
   1  -2 -12  209.45    1.66
   1  -2 -12  196.52    1.61
   1  -2 -12  202.21    1.21
  -1   2  12  218.80    1.73
  -1   2  12  187.59    1.60
  -1   2  12  216.59    1.26
  -1  -2  12  200.42    1.68
  -1  -2  12  192.05    1.63
  -1  -2  12  217.51    1.70
  -1   2 -11    5.42    0.35
  -1   2 -11    5.53    0.38
  -1   2 -11    5.97    0.39
  -1  -2 -11    6.20    0.40
  -1  -2 -11    6.70    0.41
  -1  -2 -11    6.23    0.36
   1   3  11    0.08    0.22
   1   3  11    0.23    0.19
   1  -3  11   -0.32    0.14
   1  -3  11   -0.46    0.19
   1   3 -12   11.75    0.51
   1   3 -12   13.14    0.56
   1   3 -12   13.04    0.52
   1  -3 -12   12.90    0.52
   1  -3 -12   12.76    0.52
   1  -3 -12   13.78    0.33
  -1   3  12   15.16    0.55
  -1   3  12   13.68    0.52
  -1   3  12   13.81    0.34
  -1  -3  12   11.66    0.53
  -1  -3  12   12.68    0.52
  -1  -3  12   14.59    0.55
  -1   3 -11   -0.20    0.16
  -1   3 -11   -0.23    0.18
  -1   3 -11    0.11    0.19
  -1  -3 -11    0.34    0.22
  -1  -3 -11   -0.27    0.18
  -1  -3 -11   -0.23    0.16
   1   4  11   36.28    0.83
   1   4  11   28.69    0.75
   1  -4  11   29.37    0.65
   1  -4  11   30.13    0.65
   1  -4  11   31.32    0.79
   1   4 -12    2.01    0.26
   1   4 -12    2.29    0.34
   1   4 -12    1.81    0.30
   1  -4 -12    1.91    0.27
   1  -4 -12    1.42    0.33
  -1   4  12    1.86    0.33
  -1   4  12    1.23    0.24
  -1  -4  12    1.46    0.31
  -1  -4  12    1.00    0.23
  -1  -4  12    1.61    0.27
  -1   4 -11   29.42    0.69
  -1   4 -11   30.28    0.71
  -1   4 -11   29.98    0.76
  -1  -4 -11   33.28    0.79
  -1  -4 -11   31.46    0.78
  -1  -4 -11   32.04    0.63
  -1  -4 -11   32.22    0.64
   1   5  11   11.98    0.66
   1   5  11    8.84    0.56
   1  -5  11    8.30    0.45
   1  -5  11    9.29    0.47
   1  -5  11    7.32    0.55
   1   5 -12   40.78    0.89
   1   5 -12   38.20    0.94
   1   5 -12   40.88    0.93
   1  -5 -12   41.04    0.85
  -1   5  12   52.19    1.02
  -1   5  12   40.15    0.90
  -1  -5  12   39.96    0.92
  -1  -5  12   43.50    0.96
  -1   5 -11    7.44    0.47
  -1   5 -11    8.54    0.54
  -1   5 -11    8.65    0.56
  -1  -5 -11    9.10    0.55
  -1  -5 -11    9.99    0.61
  -1  -5 -11    8.74    0.42
  -1  -5 -11    9.03    0.43
   1   6  11    5.70    0.58
   1   6  11    5.12    0.63
   1  -6  11    3.18    0.36
   1  -6  11    3.63    0.42
   1  -6  11    4.75    0.47
   1   6 -12    4.35    0.48
   1   6 -12    4.62    0.47
   1   6 -12    4.63    0.56
   1  -6 -12    4.35    0.46
   1  -6 -12    5.22    0.53
  -1   6  12    4.95    0.58
  -1   6  12    3.13    0.38
  -1  -6  12    5.30    0.59
  -1  -6  12    4.16    0.43
  -1  -6  12    3.45    0.40
  -1   6 -11    3.15    0.35
  -1   6 -11    3.56    0.38
  -1   6 -11    4.46    0.43
  -1  -6 -11    3.11    0.40
  -1  -6 -11    3.54    0.43
  -1  -6 -11    5.34    0.43
  -1  -6 -11    4.04    0.40
   1   7  11    5.78    0.68
   1   7  11    2.59    0.76
   1  -7  11    3.29    0.34
   1  -7  11    3.15    0.37
   1  -7  11    4.71    0.52
   1   7 -12    2.00    0.31
   1   7 -12    2.88    0.47
   1   7 -12    2.73    0.42
   1  -7 -12    3.07    0.33
   1  -7 -12    3.97    0.45
  -1   7  12    4.74    0.50
  -1   7  12    2.19    0.39
  -1  -7  12    2.65    0.47
  -1  -7  12    3.01    0.41
  -1   7 -11    3.32    0.39
  -1   7 -11    3.68    0.50
  -1   7 -11    3.69    0.42
  -1  -7 -11    3.90    0.46
  -1  -7 -11    2.90    0.43
  -1  -7 -11    3.90    0.35
  -1  -7 -11    3.34    0.34
   1   8  11    0.67    0.44
   1   8  11    0.08    0.44
   1  -8  11    1.60    0.30
   1  -8  11    0.98    0.36
   1  -8  11    1.32    0.44
   1   8 -12   37.79    1.10
   1   8 -12   38.47    1.15
   1   8 -12   37.01    1.12
   1  -8 -12   38.34    1.02
   1  -8 -12   41.06    1.08
  -1   8  12   38.48    1.84
  -1   8  12   35.63    1.09
  -1  -8  12   40.80    1.10
  -1  -8  12   39.66    1.14
  -1  -8  12   42.21    1.15
  -1   8 -11    0.09    0.36
  -1   8 -11   -0.91    0.35
  -1   8 -11   -0.90    0.36
  -1  -8 -11    0.11    0.33
  -1  -8 -11   -0.39    0.47
  -1  -8 -11   -0.46    0.30
  -1  -8 -11    0.88    0.30
   1   9  11    0.83    0.47
   1   9  11    0.68    0.56
   1  -9  11    0.23    0.41
   1  -9  11    2.35    0.51
   1   9 -12   13.44    1.00
   1   9 -12   13.38    1.37
   1  -9 -12    1.39    0.48
  -1   9  12   18.09    1.05
  -1   9  12   14.66    1.00
  -1  -9  12   13.83    0.97
  -1  -9  12    8.00    0.95
  -1  -9  12   16.39    0.97
  -1   9 -11   -0.02    0.43
  -1   9 -11    1.21    0.43
  -1  -9 -11    0.31    0.42
  -1  -9 -11    0.60    0.53
  -1  -9 -11    1.18    0.37
  -1  -9 -11    1.96    0.38
   1  10  11    3.02    0.64
   1  10  11    3.73    0.78
   1 -10  11    0.25    0.56
   1 -10  11    3.14    0.70
   1  10 -12   -0.57    0.61
   1  10 -12    1.48    0.65
   1 -10 -12    1.17    0.83
  -1  10  12    0.12    0.50
  -1  10  12    1.69    0.65
  -1 -10  12    0.45    0.63
  -1 -10  12    1.25    0.61
  -1  10 -11    4.28    0.60
  -1  10 -11    4.10    0.64
  -1 -10 -11    3.44    0.67
  -1 -10 -11   -1.63    0.61
  -1 -10 -11    0.80    0.41
  -1 -10 -11    3.93    0.58
   1  11  11    2.36    0.83
   1 -11  11    1.24    0.68
   1  11 -12    1.39    0.75
  -1  11  12    0.86    0.68
  -1 -11  12    1.42    0.71
  -1  11 -11    3.58    0.68
   1   0  12    9.56    0.45
   1   0  12    6.21    0.40
   1   0  12    8.73    0.45
   1   0 -13    0.28    0.20
   1   0 -13    0.13    0.19
   1   0 -13   -0.17    0.14
  -1   0  13    0.48    0.23
  -1   0  13    0.36    0.18
  -1   0  13   -0.15    0.16
  -1   0 -12    8.15    0.43
  -1   0 -12    7.76    0.44
  -1   0 -12    7.48    0.53
   1   1  12   31.51    0.70
   1   1  12   35.89    0.73
   1  -1  12   30.55    0.64
   1  -1  12   36.67    0.78
   1   1 -13    1.90    0.26
   1   1 -13    2.02    0.28
   1   1 -13    1.68    0.23
   1  -1 -13    1.89    0.24
   1  -1 -13    1.99    0.27
   1  -1 -13    1.59    0.20
  -1   1  13    1.40    0.26
  -1   1  13    0.86    0.21
  -1   1  13    1.77    0.22
  -1  -1  13    2.27    0.31
  -1  -1  13    1.51    0.24
  -1  -1  13    2.10    0.25
  -1   1 -12   31.57    0.70
  -1   1 -12   32.35    0.70
  -1   1 -12   35.36    0.74
  -1  -1 -12   32.76    0.73
  -1  -1 -12   32.60    0.73
  -1  -1 -12   35.96    0.72
   1   2  12   -0.25    0.20
   1   2  12   -0.17    0.19
   1  -2  12    0.47    0.19
   1  -2  12   -0.11    0.18
   1   2 -13    1.46    0.25
   1   2 -13    1.34    0.25
   1   2 -13    1.03    0.24
   1  -2 -13    1.59    0.25
   1  -2 -13    1.54    0.23
   1  -2 -13    1.34    0.18
  -1   2  13    1.59    0.23
  -1   2  13    0.47    0.23
  -1   2  13    1.22    0.19
  -1  -2  13    1.26    0.26
  -1  -2  13    1.44    0.28
  -1  -2  13    0.92    0.24
  -1   2 -12    0.09    0.18
  -1   2 -12   -0.06    0.20
  -1   2 -12    0.12    0.18
  -1  -2 -12    0.01    0.15
  -1  -2 -12    0.20    0.22
  -1  -2 -12    0.00    0.17
   1   3  12   -0.26    0.20
   1   3  12    0.32    0.21
   1  -3  12    0.32    0.18
   1  -3  12   -0.06    0.19
   1   3 -13  146.63    1.54
   1   3 -13  143.44    1.55
   1   3 -13  147.89    1.54
   1  -3 -13  150.03    1.52
   1  -3 -13  149.84    1.00
  -1   3  13  165.99    1.63
  -1   3  13  139.87    1.49
  -1   3  13  160.29    1.04
  -1  -3  13  153.51    1.58
  -1  -3  13  142.72    1.51
  -1  -3  13  156.13    1.60
  -1   3 -12    0.18    0.20
  -1   3 -12   -0.06    0.19
  -1   3 -12    0.21    0.21
  -1  -3 -12   -0.15    0.20
  -1  -3 -12    0.15    0.19
  -1  -3 -12    0.19    0.19
   1   4  12   12.33    0.61
   1   4  12    8.46    0.55
   1  -4  12    9.84    0.48
   1  -4  12   10.91    0.47
   1  -4  12   10.73    0.55
   1   4 -13   34.51    0.83
   1   4 -13   34.07    0.88
   1   4 -13   34.06    0.82
   1  -4 -13   34.38    0.81
   1  -4 -13   36.67    0.84
  -1   4  13   38.44    0.87
  -1   4  13   31.45    0.80
  -1  -4  13   32.62    0.83
  -1  -4  13   33.72    0.81
  -1  -4  13   36.27    0.87
  -1   4 -12    9.49    0.50
  -1   4 -12   10.45    0.54
  -1   4 -12   10.61    0.57
  -1  -4 -12   12.15    0.56
  -1  -4 -12   10.69    0.58
  -1  -4 -12   10.69    0.46
  -1  -4 -12    9.85    0.45
   1   5  12   16.60    0.75
   1  -5  12   13.15    0.53
   1  -5  12   14.59    0.54
   1  -5  12   14.53    0.66
   1   5 -13   81.03    1.28
   1   5 -13   82.02    1.33
   1   5 -13   85.27    1.30
   1  -5 -13   85.67    1.23
   1  -5 -13   89.19    1.28
  -1   5  13  101.47    1.40
  -1   5  13   82.55    1.24
  -1  -5  13   80.52    1.29
  -1  -5  13   87.72    1.34
  -1  -5  13   92.35    1.38
  -1   5 -12   14.09    0.59
  -1   5 -12   13.23    0.64
  -1   5 -12   14.93    0.66
  -1  -5 -12   16.17    0.68
  -1  -5 -12   13.96    0.70
  -1  -5 -12   15.14    0.52
  -1  -5 -12   14.55    0.51
   1   6  12    7.01    0.71
   1   6  12    6.42    0.77
   1  -6  12    6.60    0.51
   1  -6  12    5.17    0.47
   1  -6  12    4.82    0.58
   1   6 -13   16.05    0.75
   1   6 -13   14.88    0.77
   1   6 -13   14.97    0.74
   1  -6 -13   16.89    0.68
  -1   6  13   21.22    0.81
  -1   6  13   13.71    0.72
  -1  -6  13   16.20    0.75
  -1  -6  13   15.28    0.74
  -1  -6  13   17.71    0.77
  -1   6 -12    5.20    0.55
  -1   6 -12    7.29    0.63
  -1   6 -12    5.08    0.57
  -1  -6 -12    5.38    0.64
  -1  -6 -12    6.89    0.47
  -1  -6 -12    5.94    0.46
   1   7  12    6.48    0.72
   1   7  12    7.11    0.86
   1  -7  12    5.21    0.54
   1  -7  12    4.94    0.44
   1   7 -13   16.72    0.79
   1   7 -13   16.60    0.91
   1   7 -13   15.78    0.86
   1  -7 -13   16.65    0.73
  -1   7  13   23.09    1.02
  -1   7  13   16.06    0.83
  -1  -7  13   19.77    0.88
  -1  -7  13   17.49    0.86
  -1  -7  13   18.84    0.86
  -1   7 -12    5.35    0.58
  -1   7 -12    5.94    0.68
  -1   7 -12    5.72    0.65
  -1  -7 -12    6.66    0.68
  -1  -7 -12    7.06    0.77
  -1  -7 -12    6.59    0.53
  -1  -7 -12    6.55    0.48
   1   8  12    8.98    0.85
   1   8  12    8.86    0.97
   1  -8  12    6.40    0.66
   1  -8  12   10.29    0.71
   1  -8  12    8.71    0.82
   1   8 -13    1.20    0.49
   1   8 -13    1.35    0.45
   1  -8 -13    1.25    0.40
   1  -8 -13    2.32    0.46
  -1   8  13    2.07    0.49
  -1  -8  13    1.49    0.48
  -1  -8  13    1.10    0.45
  -1  -8  13    3.10    0.50
  -1   8 -12    9.24    0.81
  -1   8 -12    5.96    0.56
  -1  -8 -12   10.90    0.81
  -1  -8 -12    8.46    0.86
  -1  -8 -12    8.52    0.59
  -1  -8 -12   10.22    0.58
   1   9  12    3.05    0.63
   1  -9  12    2.14    0.50
   1  -9  12    2.38    0.59
   1   9 -13    7.26    0.70
   1   9 -13    7.01    0.68
   1  -9 -13    0.50    0.48
  -1   9  13   11.05    0.94
  -1   9  13    8.16    0.97
  -1  -9  13    7.33    0.72
  -1  -9  13   -1.18    0.49
  -1  -9  13    8.00    0.95
  -1   9 -12    2.44    0.52
  -1   9 -12    2.23    0.54
  -1  -9 -12    3.43    0.59
  -1  -9 -12    2.86    0.64
  -1  -9 -12    2.61    0.42
  -1  -9 -12    5.17    0.61
   1  10  12    2.16    0.83
   1  10  12    0.20    0.70
   1 -10  12    0.25    0.58
   1  10 -13    1.46    0.62
  -1  10  13   -0.15    0.58
  -1 -10  13    1.66    0.68
  -1  10 -12   -0.66    0.53
  -1 -10 -12    0.15    0.63
  -1 -10 -12   -0.26    0.62
  -1 -10 -12    1.20    0.42
   1  11  12    1.15    0.74
   1 -11  12    0.64    0.70
   1  11 -13    0.39    0.77
  -1  11  13    1.45    0.75
  -1 -11  13    0.31    0.79
  -1  11 -12   -1.53    0.65
   1   0  13   -0.14    0.20
   1   0  13   -0.35    0.21
   1   0  13   -0.02    0.21
   1   0 -14    3.24    0.39
   1   0 -14    3.62    0.36
   1   0 -14    3.37    0.32
  -1   0  14    3.72    0.42
  -1   0  14    3.47    0.34
  -1   0  14    3.30    0.36
  -1   0 -13   -0.19    0.19
  -1   0 -13    0.19    0.20
  -1   0 -13   -0.27    0.19
   1   1  13   11.84    0.56
   1   1  13   11.19    0.52
   1  -1  13   12.51    0.50
   1  -1  13    8.77    0.46
   1  -1  13   11.95    0.55
   1   1 -14    0.45    0.22
   1   1 -14    0.32    0.25
   1   1 -14    0.50    0.20
   1  -1 -14    0.59    0.22
   1  -1 -14    0.85    0.23
   1  -1 -14    0.51    0.19
  -1   1  14    0.31    0.21
  -1   1  14    0.24    0.20
  -1   1  14    0.37    0.19
  -1  -1  14    0.46    0.24
  -1  -1  14    0.86    0.24
  -1  -1  14    0.52    0.20
  -1   1 -13   10.95    0.50
  -1   1 -13   10.96    0.51
  -1   1 -13   12.03    0.52
  -1  -1 -13   10.82    0.50
  -1  -1 -13   11.19    0.53
  -1  -1 -13   11.27    0.49
   1   2  13   33.62    0.80
   1  -2  13   28.15    0.68
   1  -2  13   31.23    0.79
   1   2 -14    6.36    0.46
   1   2 -14    5.45    0.47
   1   2 -14    6.89    0.44
   1  -2 -14    5.09    0.46
   1  -2 -14    6.82    0.48
   1  -2 -14    5.81    0.33
  -1   2  14    7.31    0.50
  -1   2  14    5.17    0.45
  -1   2  14    6.49    0.36
  -1  -2  14    6.09    0.47
  -1  -2  14    5.69    0.46
  -1  -2  14    5.42    0.43
  -1   2 -13   26.44    0.70
  -1   2 -13   26.83    0.71
  -1   2 -13   28.24    0.75
  -1  -2 -13   29.20    0.74
  -1  -2 -13   28.82    0.77
   1   3  13    7.32    0.57
   1  -3  13    5.43    0.44
   1  -3  13    7.30    0.52
   1   3 -14   -0.08    0.24
   1   3 -14   -0.09    0.26
   1   3 -14   -0.08    0.23
   1  -3 -14    0.48    0.21
   1  -3 -14    0.12    0.27
   1  -3 -14    0.24    0.17
  -1   3  14    0.08    0.25
  -1   3  14   -0.13    0.24
  -1   3  14    0.12    0.18
  -1  -3  14    0.19    0.26
  -1  -3  14    0.32    0.24
  -1  -3  14    0.09    0.24
  -1   3 -13    6.18    0.46
  -1   3 -13    6.07    0.49
  -1   3 -13    5.98    0.44
  -1  -3 -13    7.11    0.51
  -1  -3 -13    5.74    0.50
  -1  -3 -13    7.08    0.44
   1   4  13    2.54    0.34
   1   4  13    2.85    0.45
   1  -4  13    2.05    0.29
   1  -4  13    3.90    0.40
   1  -4  13    2.56    0.34
   1   4 -14  115.89    1.48
   1   4 -14  114.82    1.51
   1   4 -14  115.87    1.47
   1  -4 -14  121.36    1.47
   1  -4 -14  120.26    1.48
  -1   4  14  138.58    1.61
  -1   4  14  109.87    1.43
  -1  -4  14  115.93    1.51
  -1  -4  14  110.35    2.17
  -1  -4  14  126.11    1.58
  -1   4 -13    2.88    0.33
  -1   4 -13    3.27    0.36
  -1   4 -13    2.11    0.31
  -1  -4 -13    3.00    0.34
  -1  -4 -13    2.98    0.37
  -1  -4 -13    2.99    0.31
  -1  -4 -13    2.73    0.30
   1   5  13   21.64    0.83
   1   5  13   16.01    0.75
   1  -5  13   16.41    0.61
   1  -5  13   16.72    0.62
   1  -5  13   17.03    0.74
   1   5 -14    2.18    0.39
   1   5 -14    2.20    0.41
   1   5 -14    2.65    0.38
   1  -5 -14    2.94    0.36
   1  -5 -14    3.05    0.36
  -1   5  14    4.20    0.50
  -1   5  14    2.55    0.36
  -1  -5  14    2.41    0.41
  -1  -5  14    3.12    0.40
  -1  -5  14    3.72    0.45
  -1   5 -13   14.26    0.64
  -1   5 -13   18.43    0.74
  -1   5 -13   17.70    0.70
  -1  -5 -13   17.39    0.71
  -1  -5 -13   18.09    0.77
  -1  -5 -13   17.08    0.57
  -1  -5 -13   17.13    0.58
   1   6  13    3.90    0.51
   1   6  13    3.32    0.44
   1  -6  13    3.41    0.37
   1  -6  13    3.22    0.37
   1  -6  13    3.39    0.46
   1   6 -14    8.98    0.70
   1   6 -14   10.37    0.78
   1   6 -14   10.06    0.69
   1  -6 -14   11.04    0.65
   1  -6 -14   11.06    0.76
  -1   6  14   13.27    0.79
  -1   6  14   10.16    0.70
  -1  -6  14   10.45    0.76
  -1  -6  14   10.16    0.70
  -1   6 -13    2.63    0.38
  -1   6 -13    4.25    0.44
  -1   6 -13    3.04    0.39
  -1  -6 -13    3.67    0.42
  -1  -6 -13    3.71    0.43
  -1  -6 -13    4.79    0.48
  -1  -6 -13    3.27    0.33
   1   7  13    2.12    0.46
   1   7  13    1.53    0.38
   1  -7  13    2.02    0.37
   1  -7  13    0.46    0.41
   1   7 -14    3.55    0.56
   1   7 -14    2.72    0.51
   1   7 -14    2.45    0.50
   1  -7 -14    2.40    0.34
   1  -7 -14    2.99    0.48
  -1   7  14    3.43    0.46
  -1   7  14    2.76    0.47
  -1  -7  14    3.75    0.54
  -1  -7  14    3.65    0.51
  -1  -7  14    2.91    0.50
  -1   7 -13    1.42    0.36
  -1   7 -13    2.40    0.43
  -1   7 -13    0.77    0.40
  -1  -7 -13    1.84    0.40
  -1  -7 -13    1.42    0.45
  -1  -7 -13    0.50    0.31
  -1  -7 -13    0.94    0.31
   1   8  13    0.12    0.49
   1   8  13    1.14    0.51
   1  -8  13    0.34    0.45
   1  -8  13   -0.96    0.45
   1   8 -14    1.19    0.55
   1  -8 -14   -0.08    0.40
  -1   8  14    1.02    0.49
  -1   8  14   -0.55    0.48
  -1  -8  14    0.79    0.50
  -1  -8  14    0.60    0.45
  -1  -8  14   -0.12    0.42
  -1   8 -13    0.16    0.40
  -1   8 -13    0.17    0.45
  -1  -8 -13    0.29    0.45
  -1  -8 -13   -0.33    0.44
  -1  -8 -13    1.17    0.36
  -1  -8 -13   -0.13    0.33
   1   9  13    0.46    0.51
   1   9  13    3.00    0.67
   1  -9  13   -0.26    0.48
   1  -9  13    1.01    0.59
   1   9 -14   -0.19    0.56
   1   9 -14    0.57    0.61
   1  -9 -14    0.19    0.47
  -1   9  14    2.68    0.62
  -1   9  14    1.53    0.56
  -1  -9  14    1.34    0.70
  -1  -9  14    0.62    0.58
  -1  -9  14    2.55    0.63
  -1   9 -13    1.20    0.47
  -1   9 -13    1.08    0.52
  -1  -9 -13    1.31    0.57
  -1  -9 -13   -0.03    0.60
  -1  -9 -13    0.57    0.37
  -1  -9 -13    0.84    0.39
   1  10  13    3.08    0.81
   1  10  13    1.42    0.86
   1 -10  13    0.50    0.60
   1  10 -14   -1.49    0.62
  -1 -10  14   -0.69    0.63
  -1  10 -13    2.41    0.68
  -1 -10 -13   -0.61    0.68
  -1 -10 -13    1.10    0.43
   1  11  13    0.23    0.87
   1 -11  13    0.65    0.81
   1  11 -14    0.96    0.80
  -1  11  14   -0.71    0.76
  -1 -11  14    0.31    0.78
  -1  11 -13   -0.60    0.70
   1   0  14    7.05    0.48
   1   0  14   10.28    0.54
   1   0 -15    0.09    0.24
   1   0 -15    0.12    0.25
  -1   0  15   -0.39    0.23
  -1   0  15    0.24    0.23
  -1   0  15    0.26    0.23
  -1   0 -14    7.18    0.49
  -1   0 -14    8.43    0.53
  -1   0 -14    8.84    0.49
   1   1  14   13.14    0.62
   1   1  14   12.15    0.57
   1   1  14   13.59    0.58
   1  -1  14   13.62    0.54
   1  -1  14    9.94    0.51
   1  -1  14   12.88    0.60
   1   1 -15    5.22    0.49
   1   1 -15    4.67    0.47
   1   1 -15    5.80    0.42
   1  -1 -15    4.60    0.46
   1  -1 -15    5.30    0.50
   1  -1 -15    5.51    0.38
  -1   1  15    5.29    0.53
  -1   1  15    3.66    0.44
  -1   1  15    6.30    0.41
  -1  -1  15    4.87    0.49
  -1  -1  15    4.50    0.47
  -1  -1  15    5.44    0.45
  -1   1 -14   11.73    0.54
  -1   1 -14   12.60    0.57
  -1   1 -14   11.77    0.56
  -1  -1 -14   11.24    0.57
  -1  -1 -14   12.19    0.57
  -1  -1 -14   13.44    0.54
   1   2  14   42.72    0.94
   1   2  14   31.58    0.82
   1   2  14   39.27    0.82
   1  -2  14   24.58    0.67
   1  -2  14   35.80    0.80
   1  -2  14   37.18    0.88
   1   2 -15  192.70    1.84
   1   2 -15  193.23    1.86
   1   2 -15  197.60    1.79
   1  -2 -15  203.08    1.94
   1  -2 -15  199.90    1.86
   1  -2 -15  199.83    1.42
  -1   2  15  225.17    2.00
  -1   2  15  186.58    1.81
  -1   2  15  217.19    1.49
  -1  -2  15  203.15    1.90
  -1  -2  15  200.12    1.88
  -1  -2  15  213.64    1.88
  -1   2 -14   35.01    0.82
  -1   2 -14   34.63    0.83
  -1   2 -14   38.09    0.88
  -1  -2 -14   37.81    0.89
  -1  -2 -14   36.34    0.87
  -1  -2 -14   37.28    0.77
   1   3  14   35.54    0.93
   1   3  14   28.19    0.80
   1  -3  14   29.48    0.74
   1  -3  14   33.55    0.88
   1   3 -15   13.18    0.60
   1   3 -15   12.70    0.66
   1   3 -15   13.61    0.59
   1  -3 -15   13.96    0.66
   1  -3 -15   14.08    0.65
   1  -3 -15   13.03    0.43
  -1   3  15   15.43    0.67
  -1   3  15   12.62    0.65
  -1   3  15   13.43    0.45
  -1  -3  15   12.15    0.66
  -1  -3  15   11.30    0.60
  -1  -3  15   12.43    0.60
  -1   3 -14   28.35    0.77
  -1   3 -14   29.91    0.81
  -1   3 -14   32.04    0.84
  -1  -3 -14   29.78    0.82
  -1  -3 -14   29.79    0.85
  -1  -3 -14   29.87    0.75
   1   4  14    6.63    0.62
   1   4  14    5.22    0.47
   1  -4  14    4.83    0.50
   1  -4  14    5.40    0.47
   1  -4  14    6.90    0.57
   1   4 -15    1.67    0.30
   1   4 -15    2.56    0.42
   1   4 -15    2.07    0.35
   1  -4 -15    1.80    0.33
   1  -4 -15    0.99    0.29
   1  -4 -15    2.06    0.23
  -1   4  15    2.13    0.39
  -1   4  15    1.89    0.36
  -1  -4  15    2.35    0.40
  -1  -4  15    1.70    0.37
  -1  -4  15    3.25    0.42
  -1   4 -14    5.72    0.53
  -1   4 -14    5.66    0.54
  -1   4 -14    7.01    0.54
  -1  -4 -14    5.86    0.59
  -1  -4 -14    7.32    0.65
  -1  -4 -14    5.51    0.44
   1   5  14    4.37    0.49
   1   5  14    5.13    0.63
   1  -5  14    3.28    0.38
   1  -5  14    4.82    0.54
   1  -5  14    4.80    0.58
   1   5 -15    0.35    0.30
   1   5 -15    0.15    0.37
   1   5 -15   -0.42    0.31
   1  -5 -15   -0.07    0.29
   1  -5 -15    0.39    0.36
  -1   5  15    0.08    0.31
  -1   5  15   -0.16    0.32
  -1  -5  15    0.24    0.34
  -1  -5  15    0.36    0.34
  -1  -5  15    0.74    0.32
  -1   5 -14    3.61    0.41
  -1   5 -14    4.40    0.44
  -1   5 -14    3.13    0.42
  -1  -5 -14    4.96    0.60
  -1  -5 -14    3.52    0.42
  -1  -5 -14    4.68    0.47
   1   6  14    5.24    0.53
   1   6  14    3.55    0.53
   1  -6  14    4.40    0.54
   1  -6  14    5.10    0.57
   1  -6  14    4.37    0.54
   1   6 -15    0.13    0.30
   1   6 -15    0.40    0.43
   1   6 -15    1.22    0.40
   1  -6 -15    0.73    0.30
   1  -6 -15    0.45    0.40
  -1   6  15    1.12    0.40
  -1   6  15    1.57    0.42
  -1  -6  15    1.87    0.45
  -1  -6  15    1.74    0.44
  -1  -6  15    1.03    0.39
  -1   6 -14    3.69    0.39
  -1   6 -14    4.29    0.53
  -1   6 -14    4.55    0.52
  -1  -6 -14    4.73    0.52
  -1  -6 -14    5.26    0.56
  -1  -6 -14    4.20    0.48
  -1  -6 -14    3.90    0.41
   1   7  14   24.38    1.08
   1   7  14   20.02    0.98
   1  -7  14   18.02    0.77
   1  -7  14   20.15    0.93
   1   7 -15    3.74    0.47
   1   7 -15    4.09    0.59
   1  -7 -15    2.94    0.40
   1  -7 -15    4.34    0.55
  -1   7  15    6.62    0.65
  -1   7  15    3.46    0.51
  -1  -7  15    3.79    0.57
  -1  -7  15    2.34    0.55
  -1  -7  15    4.54    0.56
  -1   7 -14   14.99    0.90
  -1   7 -14   24.81    1.24
  -1  -7 -14   18.92    0.97
  -1  -7 -14   21.45    1.03
  -1  -7 -14   19.85    0.70
  -1  -7 -14   21.23    0.74
   1   8  14    0.95    0.56
   1   8  14   -1.31    0.47
   1  -8  14    1.28    0.43
   1  -8  14    0.00    0.45
   1   8 -15   11.84    0.98
   1   8 -15   14.99    1.47
   1  -8 -15   14.74    0.94
   1  -8 -15    1.57    0.50
  -1   8  15   18.44    1.22
  -1   8  15   11.99    1.03
  -1  -8  15    3.06    0.54
  -1  -8  15   17.26    0.98
  -1   8 -14    0.18    0.40
  -1   8 -14    0.78    0.47
  -1  -8 -14    0.80    0.51
  -1  -8 -14    1.10    0.53
  -1  -8 -14   -0.27    0.36
  -1  -8 -14    0.30    0.36
   1   9  14   -1.16    0.61
   1   9  14    0.18    0.70
   1  -9  14    0.15    0.67
   1  -9  14   -0.01    0.55
   1   9 -15    7.50    1.10
   1   9 -15    8.04    0.82
  -1   9  15   12.17    1.23
  -1   9  15    7.38    0.82
  -1  -9  15    0.10    0.56
  -1  -9  15    8.50    1.02
  -1   9 -14    0.74    0.56
  -1   9 -14   -1.41    0.49
  -1  -9 -14    0.07    0.65
  -1  -9 -14    0.90    0.51
  -1  -9 -14    0.63    0.40
  -1  -9 -14    0.30    0.42
   1  10  14    0.30    0.76
   1 -10  14    0.02    0.64
   1  10 -15    7.37    0.92
  -1  10  15   12.00    1.30
  -1 -10  15    7.72    0.84
  -1  10 -14    0.13    0.71
  -1 -10 -14    0.95    0.85
   1   0  15    0.49    0.34
   1   0  15   -0.46    0.22
   1   0  15    0.71    0.28
   1   0 -16   15.36    0.65
   1   0 -16   14.86    0.66
   1   0 -16   15.54    0.56
  -1   0  16   16.83    0.73
  -1   0  16   15.70    0.65
  -1   0  16   17.74    0.63
  -1   0 -15    0.27    0.25
  -1   0 -15    0.15    0.24
  -1   0 -15    0.33    0.26
   1   1  15   15.56    0.70
   1   1  15   12.14    0.59
   1   1  15   14.52    0.62
   1  -1  15   14.84    0.60
   1  -1  15   12.62    0.60
   1  -1  15   14.16    0.66
   1   1 -16  109.46    1.45
   1   1 -16  102.28    1.42
   1   1 -16  106.92    1.32
   1  -1 -16   93.97    1.96
   1  -1 -16  104.82    1.43
   1  -1 -16  109.03    1.37
  -1   1  16  113.96    1.49
  -1   1  16  100.96    1.39
  -1   1  16  116.34    1.24
  -1  -1  16  115.01    1.50
  -1  -1  16   98.27    1.38
  -1  -1  16  113.46    1.38
  -1   1 -15   13.36    0.63
  -1   1 -15   12.88    0.63
  -1   1 -15   13.38    0.60
  -1  -1 -15   13.72    0.64
  -1  -1 -15   14.49    0.64
  -1  -1 -15   14.87    0.59
   1   2  15   32.08    0.90
   1   2  15   24.60    0.78
   1   2  15   28.19    0.76
   1  -2  15   28.73    0.76
   1  -2  15   27.22    0.77
   1  -2  15   29.01    0.85
   1   2 -16    3.44    0.42
   1   2 -16    2.50    0.40
   1   2 -16    3.57    0.38
   1  -2 -16    4.18    0.48
   1  -2 -16    3.36    0.41
   1  -2 -16    3.37    0.30
  -1   2  16    4.31    0.54
  -1   2  16    2.75    0.35
  -1   2  16    3.69    0.39
  -1  -2  16    3.33    0.38
  -1  -2  16    4.05    0.44
  -1  -2  16    4.16    0.50
  -1   2 -15   25.91    0.74
  -1   2 -15   24.58    0.78
  -1   2 -15   26.59    0.79
  -1  -2 -15   27.78    0.84
  -1  -2 -15   26.91    0.82
  -1  -2 -15   29.45    0.74
   1   3  15   56.30    1.14
   1   3  15   47.41    1.05
   1  -3  15   48.27    0.94
   1  -3  15   52.03    1.10
   1   3 -16   44.00    1.00
   1   3 -16   42.84    1.03
   1   3 -16   43.38    0.96
   1  -3 -16   45.92    1.01
   1  -3 -16   46.96    1.05
   1  -3 -16   45.22    0.71
  -1   3  16   51.67    1.11
  -1   3  16   41.54    0.99
  -1   3  16   50.54    0.76
  -1  -3  16   44.12    1.03
  -1  -3  16   44.15    1.01
  -1  -3  16   48.85    1.04
  -1   3 -15   45.11    0.97
  -1   3 -15   47.21    1.02
  -1   3 -15   46.88    1.02
  -1  -3 -15   51.52    1.10
  -1  -3 -15   47.35    1.06
  -1  -3 -15   51.72    0.91
   1   4  15   61.98    1.22
   1   4  15   48.16    1.11
   1  -4  15   49.55    1.04
   1  -4  15   51.50    1.02
   1  -4  15   54.20    1.18
   1   4 -16    1.29    0.36
   1   4 -16    2.19    0.42
   1   4 -16    1.26    0.34
   1  -4 -16    1.32    0.33
   1  -4 -16    1.33    0.35
   1  -4 -16    1.44    0.25
  -1   4  16    1.83    0.41
  -1   4  16    2.26    0.43
  -1  -4  16    1.60    0.37
  -1  -4  16    1.28    0.34
  -1  -4  16    0.58    0.31
  -1   4 -15   50.41    1.04
  -1   4 -15   51.83    1.08
  -1   4 -15   53.29    1.14
  -1  -4 -15   56.80    1.19
  -1  -4 -15   59.54    1.25
  -1  -4 -15   54.48    0.93
   1   5  15    0.80    0.39
   1   5  15    0.46    0.35
   1  -5  15    0.25    0.32
   1  -5  15    0.01    0.32
   1  -5  15    0.72    0.38
   1   5 -16   28.90    0.98
   1   5 -16   29.81    1.04
   1   5 -16   28.81    0.92
   1  -5 -16   31.76    0.96
   1  -5 -16   35.35    1.04
  -1   5  16   36.96    1.08
  -1   5  16   31.25    0.95
  -1  -5  16   29.47    1.01
  -1  -5  16   28.76    1.11
  -1   5 -15    0.35    0.29
  -1   5 -15    1.08    0.37
  -1   5 -15    0.89    0.38
  -1  -5 -15   -0.22    0.60
  -1  -5 -15    0.38    0.35
  -1  -5 -15    0.05    0.26
  -1  -5 -15    0.12    0.30
   1   6  15    9.41    0.90
   1   6  15    6.43    0.79
   1  -6  15    5.77    0.62
   1  -6  15    5.64    0.67
   1  -6  15    7.17    0.70
   1   6 -16   70.70    1.40
   1   6 -16   70.53    1.46
   1   6 -16   68.89    1.40
   1  -6 -16   75.26    1.39
   1  -6 -16   79.57    1.46
  -1   6  16   92.36    1.60
  -1   6  16   68.92    1.37
  -1  -6  16   74.57    1.45
  -1  -6  16   76.33    1.44
  -1  -6  16   80.79    1.53
  -1   6 -15    7.61    0.74
  -1   6 -15    7.88    0.80
  -1   6 -15    7.33    0.75
  -1  -6 -15    7.79    0.82
  -1  -6 -15    5.99    0.58
  -1  -6 -15    6.92    0.55
  -1  -6 -15    8.15    0.58
   1   7  15    9.87    0.94
   1   7  15    4.96    0.64
   1  -7  15    6.34    0.68
   1  -7  15    5.77    0.59
   1   7 -16   35.06    1.27
   1  -7 -16   34.73    1.09
   1  -7 -16   23.12    1.03
  -1   7  16   49.62    2.08
  -1   7  16   35.22    1.27
  -1  -7  16   36.45    1.21
  -1  -7  16   35.95    1.21
  -1  -7  16   39.48    1.23
  -1   7 -15    7.46    0.77
  -1   7 -15    5.99    0.63
  -1  -7 -15    7.07    0.68
  -1  -7 -15    6.32    0.77
  -1  -7 -15    6.86    0.66
   1   8  15    3.87    0.59
   1   8  15    3.20    0.90
   1  -8  15    0.62    0.44
   1  -8  15    2.95    0.56
   1   8 -16    1.35    0.53
   1   8 -16   -0.23    0.56
   1  -8 -16    0.02    0.60
  -1   8  16   -0.19    0.59
  -1   8  16   -0.68    0.55
  -1  -8  16   -0.83    0.56
  -1  -8  16    0.89    0.59
  -1  -8  16   -0.20    0.54
  -1   8 -15    3.84    0.55
  -1   8 -15    2.58    0.53
  -1  -8 -15    3.74    0.58
  -1  -8 -15    4.96    0.69
  -1  -8 -15    3.62    0.45
   1   9  15    2.30    0.63
   1   9  15    1.76    0.68
   1  -9  15    1.52    0.62
   1   9 -16   11.19    0.95
  -1   9  16   16.50    1.48
  -1  -9  16    0.07    0.68
  -1  -9  16   16.87    1.16
  -1   9 -15    2.28    0.63
  -1  -9 -15   -0.07    0.54
  -1  -9 -15    0.67    0.41
   1  10  15    0.84    0.80
   1 -10  15    1.19    0.72
   1  10 -16    5.51    0.93
  -1  10  16    5.59    0.75
  -1 -10  16    3.48    0.81
  -1  10 -15    2.50    0.73
   1   0  16   43.99    1.00
   1   0  16   32.15    0.84
   1   0  16   43.90    0.98
   1   0 -17   -0.13    0.30
   1   0 -17    0.05    0.30
   1   0 -17    0.20    0.25
  -1   0  17   -0.06    0.30
  -1   0  17    0.42    0.28
  -1   0 -16   38.33    0.98
  -1   0 -16   38.67    0.96
  -1   0 -16   38.10    0.91
   1   1  16   18.92    0.80
   1   1  16   15.56    0.69
   1   1  16   15.64    0.68
   1  -1  16   17.54    0.75
   1  -1  16   14.46    0.65
   1  -1  16   18.55    0.74
   1   1 -17   14.29    0.70
   1   1 -17   14.67    0.72
   1   1 -17   15.37    0.63
   1  -1 -17   16.59    0.72
   1  -1 -17   17.08    0.75
   1  -1 -17   14.22    0.65
  -1   1  17   16.01    0.77
  -1   1  17   12.68    0.63
  -1   1  17   17.30    0.61
  -1  -1  17   14.89    0.74
  -1  -1  17   14.21    0.70
  -1  -1  17   16.76    0.68
  -1   1 -16   15.63    0.70
  -1   1 -16   13.90    0.66
  -1   1 -16   16.34    0.66
  -1  -1 -16   14.79    0.70
  -1  -1 -16   16.56    0.71
  -1  -1 -16   15.72    0.62
   1   2  16   32.21    0.97
   1   2  16   22.58    0.82
   1   2  16   27.57    0.82
   1  -2  16   26.71    0.79
   1  -2  16   24.30    0.77
   1  -2  16   26.85    0.86
   1   2 -17   10.10    0.65
   1   2 -17   10.50    0.70
   1   2 -17   12.26    0.64
   1  -2 -17   11.64    0.66
   1  -2 -17   11.65    0.67
   1  -2 -17   11.85    0.50
  -1   2  17   12.28    0.74
  -1   2  17   10.26    0.64
  -1   2  17   13.36    0.54
  -1  -2  17   12.27    0.73
  -1  -2  17   10.16    0.71
  -1  -2  17   12.26    0.64
  -1   2 -16   22.54    0.78
  -1   2 -16   23.87    0.82
  -1   2 -16   24.53    0.79
  -1  -2 -16   23.75    0.84
  -1  -2 -16   26.57    0.89
  -1  -2 -16   23.85    0.74
   1   3  16    3.98    0.47
   1   3  16    3.08    0.43
   1  -3  16    2.25    0.47
   1  -3  16    3.54    0.40
   1  -3  16    3.39    0.41
   1   3 -17   19.21    0.81
   1   3 -17   21.48    0.84
   1   3 -17   20.20    0.76
   1  -3 -17   21.24    0.86
   1  -3 -17   21.74    0.85
   1  -3 -17   20.82    0.57
  -1   3  17   27.75    0.93
  -1   3  17   19.47    0.82
  -1   3  17   25.20    0.62
  -1  -3  17   21.56    0.85
  -1  -3  17   20.97    0.81
  -1  -3  17   24.75    0.85
  -1   3 -16    2.81    0.41
  -1   3 -16    3.17    0.45
  -1   3 -16    3.19    0.45
  -1  -3 -16    4.25    0.49
  -1  -3 -16    3.36    0.46
  -1  -3 -16    4.53    0.50
   1   4  16    2.54    0.41
   1   4  16    1.78    0.40
   1  -4  16    1.97    0.37
   1  -4  16    1.70    0.47
   1   4 -17   62.19    1.27
   1   4 -17   61.80    1.28
   1   4 -17   62.81    1.23
   1  -4 -17   62.53    1.23
   1  -4 -17   64.52    1.27
   1  -4 -17   62.10    0.79
  -1   4  17   71.85    1.38
  -1   4  17   58.68    1.26
  -1  -4  17   60.95    1.29
  -1  -4  17   60.11    1.26
  -1  -4  17   72.71    2.15
  -1   4 -16    2.09    0.35
  -1   4 -16    3.08    0.41
  -1   4 -16    2.06    0.37
  -1  -4 -16    2.51    0.41
  -1  -4 -16    2.52    0.46
  -1  -4 -16    1.63    0.36
   1   5  16    1.80    0.42
   1   5  16    0.76    0.44
   1  -5  16    1.33    0.39
   1  -5  16    1.03    0.36
   1  -5  16    0.81    0.40
   1   5 -17    0.33    0.38
   1   5 -17    0.63    0.47
   1   5 -17   -0.56    0.37
   1  -5 -17    0.18    0.40
   1  -5 -17    0.69    0.40
  -1   5  17   -0.28    0.44
  -1   5  17    0.25    0.37
  -1  -5  17    0.73    0.46
  -1  -5  17    0.06    0.41
  -1  -5  17   -0.24    0.36
  -1   5 -16    0.95    0.39
  -1   5 -16    1.89    0.38
  -1   5 -16    0.99    0.36
  -1  -5 -16    1.95    0.50
  -1  -5 -16    1.03    0.42
  -1  -5 -16    0.82    0.34
  -1  -5 -16    0.75    0.36
   1   6  16    1.23    0.51
   1   6  16    1.76    0.47
   1  -6  16    0.48    0.39
   1  -6  16   -0.34    0.41
   1  -6  16    1.17    0.45
   1   6 -17   20.10    0.93
   1   6 -17   22.62    1.09
   1  -6 -17   17.40    0.97
   1  -6 -17   21.39    1.01
  -1   6  17   21.31    1.06
  -1   6  17   19.43    1.01
  -1  -6  17   16.62    1.02
  -1  -6  17   18.35    0.99
  -1  -6  17   22.19    0.96
  -1   6 -16    0.35    0.46
  -1   6 -16    1.52    0.47
  -1  -6 -16   -0.59    0.47
  -1  -6 -16    0.60    0.50
  -1  -6 -16   -0.29    0.31
  -1  -6 -16    0.98    0.35
   1   7  16    0.40    0.56
   1   7  16    0.88    0.59
   1  -7  16    1.18    0.47
   1  -7  16    1.13    0.51
   1   7 -17    5.40    0.77
   1   7 -17    5.95    0.75
   1  -7 -17    5.74    0.64
   1  -7 -17    0.35    0.48
  -1   7  17    6.83    0.71
  -1   7  17    3.62    0.64
  -1  -7  17    2.58    0.62
  -1  -7  17    5.74    0.76
  -1  -7  17    6.56    0.69
  -1   7 -16   -0.90    0.44
  -1   7 -16    1.03    0.52
  -1  -7 -16    0.36    0.47
  -1  -7 -16   -1.20    0.50
  -1  -7 -16    0.80    0.40
  -1  -7 -16    0.21    0.37
   1   8  16    4.19    0.69
   1   8  16    0.96    0.70
   1  -8  16   -0.32    0.54
   1  -8  16    3.57    0.65
   1   8 -17    3.13    0.64
   1   8 -17    3.52    0.72
   1  -8 -17    0.89    0.64
  -1   8  17    6.79    0.80
  -1   8  17    3.37    0.78
  -1  -8  17    3.09    0.66
  -1   8 -16    3.82    0.67
  -1   8 -16    2.00    0.61
  -1  -8 -16    3.23    0.65
  -1  -8 -16    2.85    0.70
  -1  -8 -16   -0.23    0.42
  -1  -8 -16    1.88    0.58
   1   9  16   -1.55    0.66
   1   9  16   -0.74    0.92
   1  -9  16    1.24    0.64
   1   9 -17   -0.16    0.69
  -1   9  17   -1.03    0.64
  -1  -9  17    0.25    0.64
  -1   9 -16    1.25    0.70
  -1  -9 -16    1.42    0.84
  -1  -9 -16   -0.52    0.82
  -1  -9 -16   -0.46    0.53
   1  10  16   -1.29    0.90
   1 -10  16    0.85    0.84
   1  10 -17    3.15    0.94
  -1  10  17    3.30    0.83
  -1 -10  17    2.82    0.85
  -1  10 -16   -2.15    0.76
   1   0  17    1.17    0.41
   1   0  17   -0.04    0.31
   1   0  17    0.15    0.34
   1   0 -18    9.29    0.70
   1   0 -18    7.51    0.68
   1   0 -18    8.42    0.55
  -1   0  18    9.62    0.72
  -1   0  18    7.43    0.66
  -1   0  18    9.91    0.58
  -1   0 -17   -0.03    0.33
  -1   0 -17   -0.25    0.34
  -1   0 -17    0.49    0.32
   1   1  17   28.17    0.94
   1   1  17   23.38    0.82
   1   1  17   26.56    0.84
   1  -1  17   26.07    0.83
   1  -1  17   29.11    0.93
   1   1 -18   53.07    1.16
   1   1 -18   55.66    1.21
   1   1 -18   56.50    1.07
   1  -1 -18   54.29    1.16
   1  -1 -18   56.39    1.21
   1  -1 -18   56.23    0.97
  -1   1  18   62.43    1.24
  -1   1  18   52.61    1.13
  -1   1  18   61.90    1.02
  -1  -1  18   60.77    1.26
  -1  -1  18   51.56    1.14
  -1  -1  18   60.59    1.14
  -1   1 -17   23.43    0.88
  -1   1 -17   27.09    0.91
  -1   1 -17   24.97    0.81
  -1  -1 -17   23.98    0.82
  -1  -1 -17   25.25    0.89
  -1  -1 -17   26.42    0.78
   1   2  17   40.91    1.10
   1   2  17   33.30    0.97
   1   2  17   35.67    0.94
   1  -2  17   34.91    0.91
   1  -2  17   31.41    0.89
   1  -2  17   40.52    1.08
   1   2 -18    0.86    0.38
   1   2 -18    1.91    0.41
   1  -2 -18    1.45    0.39
   1  -2 -18    2.08    0.40
   1  -2 -18    1.61    0.30
  -1   2  18    1.72    0.46
  -1   2  18    0.69    0.35
  -1   2  18    2.16    0.33
  -1  -2  18    1.97    0.43
  -1  -2  18    1.77    0.45
  -1  -2  18    1.94    0.36
  -1   2 -17   31.05    0.93
  -1   2 -17   32.19    0.99
  -1   2 -17   33.48    0.97
  -1  -2 -17   33.54    1.01
  -1  -2 -17   33.49    1.01
  -1  -2 -17   34.53    0.84
   1   3  17   23.92    0.93
   1   3  17   19.72    0.87
   1  -3  17   19.36    0.79
   1  -3  17   19.76    0.78
   1  -3  17   16.46    1.02
   1   3 -18    0.02    0.45
   1   3 -18    0.38    0.40
   1   3 -18   -0.15    0.37
   1  -3 -18   -0.56    0.35
   1  -3 -18   -0.32    0.36
   1  -3 -18    0.31    0.26
  -1   3  18   -0.59    0.39
  -1   3  18    0.34    0.33
  -1   3  18    0.45    0.26
  -1  -3  18    0.02    0.35
  -1  -3  18   -0.11    0.36
  -1  -3  18    0.10    0.35
  -1   3 -17   19.41    0.83
  -1   3 -17   18.29    0.85
  -1   3 -17   19.76    0.81
  -1  -3 -17   21.10    0.90
  -1  -3 -17   22.75    0.92
  -1  -3 -17   20.07    0.72
   1   4  17   31.98    1.06
   1   4  17   25.76    1.00
   1  -4  17   27.20    0.90
   1  -4  17   26.13    0.99
   1   4 -18    6.96    0.76
   1   4 -18    6.99    0.76
   1   4 -18    7.25    0.69
   1  -4 -18    8.99    0.78
   1  -4 -18    7.20    0.75
   1  -4 -18    7.38    0.49
  -1   4  18    7.74    0.80
  -1   4  18    8.14    0.76
  -1  -4  18    6.33    0.76
  -1  -4  18   10.69    0.79
  -1  -4  18    9.26    0.80
  -1   4 -17   24.97    0.91
  -1   4 -17   15.72    1.18
  -1   4 -17   25.61    0.94
  -1  -4 -17   24.42    0.98
  -1  -4 -17   27.67    1.08
  -1  -4 -17   26.98    0.78
   1   5  17   28.77    1.14
   1   5  17   21.52    1.06
   1  -5  17   23.52    0.91
   1  -5  17   21.62    0.86
   1  -5  17   26.28    1.03
   1   5 -18   22.48    1.23
   1   5 -18   24.85    1.05
   1  -5 -18   24.10    1.02
   1  -5 -18   29.95    1.16
  -1   5  18   28.40    1.14
  -1   5  18   24.14    1.06
  -1  -5  18   21.92    1.05
  -1  -5  18   22.84    1.01
  -1  -5  18   27.32    1.05
  -1   5 -17   22.71    0.94
  -1  -5 -17   21.62    1.02
  -1  -5 -17   24.64    1.08
  -1  -5 -17   26.28    0.81
  -1  -5 -17   24.24    0.76
   1   6  17   -0.47    0.50
   1   6  17   -0.86    0.49
   1  -6  17   -1.09    0.38
   1  -6  17    0.17    0.44
   1   6 -18   10.68    1.04
   1  -6 -18   14.75    0.95
   1  -6 -18    6.04    0.62
  -1   6  18   12.08    1.34
  -1   6  18   11.41    0.96
  -1  -6  18   13.08    1.05
  -1  -6  18   15.11    1.04
  -1  -6  18   12.76    0.90
  -1   6 -17   -1.10    0.44
  -1   6 -17   -0.36    0.47
  -1  -6 -17    0.53    0.49
  -1  -6 -17    0.16    0.52
  -1  -6 -17   -0.22    0.35
  -1  -6 -17   -0.54    0.38
   1   7  17   -1.00    0.54
   1   7  17    1.91    0.58
   1  -7  17    1.11    0.50
   1  -7  17    0.70    0.51
   1   7 -18   25.99    1.24
   1   7 -18   32.96    1.37
   1  -7 -18   -0.97    0.55
  -1   7  18   34.80    1.41
  -1   7  18   27.46    1.27
  -1  -7  18    1.35    0.65
  -1  -7  18   26.30    1.25
  -1  -7  18   33.49    1.26
  -1   7 -17   -0.43    0.47
  -1   7 -17    1.94    0.60
  -1  -7 -17    0.98    0.54
  -1  -7 -17    1.01    0.65
  -1  -7 -17    1.71    0.42
  -1  -7 -17   -0.41    0.42
   1   8  17    2.51    0.70
   1   8  17    2.93    0.71
   1  -8  17    3.14    0.69
   1   8 -18    0.37    0.75
   1   8 -18    1.20    0.78
  -1   8  18    3.29    0.74
  -1  -8  18   -0.38    0.72
  -1  -8  18    3.08    0.65
  -1   8 -17    2.35    0.74
  -1  -8 -17    1.88    0.66
  -1  -8 -17   -0.19    0.76
  -1  -8 -17   -0.12    0.43
   1   9  17   -2.39    1.37
   1  -9  17    1.55    0.76
   1   9 -18    0.32    0.81
  -1   9  18   -0.14    0.75
  -1  -9  18    2.39    0.84
  -1   9 -17    2.79    0.81
  -1  -9 -17   -2.29    0.88
   1   0  18  102.19    1.54
   1   0  18   81.69    1.39
   1   0  18   98.78    1.52
   1   0 -19   -0.25    0.36
   1   0 -19    0.06    0.38
   1   0 -19    0.20    0.31
  -1   0  19   -0.84    0.37
  -1   0  19   -0.69    0.38
  -1   0  19   -0.46    0.30
  -1   0 -18   87.79    1.48
  -1   0 -18   91.51    1.52
  -1   0 -18   90.84    1.41
   1   1  18   74.93    1.38
   1   1  18   61.50    1.24
   1   1  18   71.02    1.26
   1  -1  18   76.08    1.68
   1  -1  18   59.73    1.19
   1  -1  18   72.02    1.37
   1   1 -19    2.35    0.40
   1   1 -19    1.84    0.45
   1   1 -19    1.95    0.37
   1  -1 -19    1.79    0.45
   1  -1 -19    2.73    0.46
   1  -1 -19    1.64    0.36
  -1   1  19    2.51    0.51
  -1   1  19    2.39    0.39
  -1  -1  19    1.92    0.43
  -1  -1  19    1.44    0.43
  -1  -1  19    2.82    0.43
  -1   1 -18   61.42    1.29
  -1   1 -18   64.84    1.31
  -1   1 -18   62.22    1.23
  -1  -1 -18   64.19    1.32
  -1  -1 -18   63.37    1.29
  -1  -1 -18   64.30    1.18
   1   2  18    2.57    0.47
   1   2  18    0.91    0.42
   1   2  18    1.41    0.37
   1  -2  18    0.93    0.37
   1  -2  18    3.02    0.38
   1  -2  18    1.23    0.51
   1   2 -19   14.14    0.79
   1   2 -19   15.06    0.86
   1   2 -19   18.35    0.78
   1  -2 -19   18.55    0.86
   1  -2 -19   18.50    0.89
   1  -2 -19   16.52    0.66
  -1   2  19   20.77    0.96
  -1   2  19   14.95    0.83
  -1   2  19   20.42    0.72
  -1  -2  19   20.24    0.94
  -1  -2  19   15.58    0.86
  -1  -2  19   21.40    0.88
  -1   2 -18    1.73    0.43
  -1   2 -18    1.72    0.45
  -1   2 -18    1.20    0.39
  -1  -2 -18    1.45    0.43
  -1  -2 -18    0.69    0.38
  -1  -2 -18    1.74    0.34
   1   3  18   -0.31    0.44
   1   3  18   -0.21    0.38
   1  -3  18    1.01    0.39
   1  -3  18    1.82    0.41
   1  -3  18    0.21    0.41
   1   3 -19   19.05    0.95
   1   3 -19   20.65    0.95
   1   3 -19   18.48    0.87
   1  -3 -19   22.29    0.92
   1  -3 -19   21.66    0.97
  -1   3  19   24.84    1.04
  -1   3  19   17.72    0.90
  -1   3  19   23.45    0.71
  -1  -3  19   22.31    1.00
  -1  -3  19   21.66    0.94
  -1  -3  19   23.40    0.92
  -1   3 -18    0.45    0.38
  -1   3 -18   -0.31    0.42
  -1  -3 -18    0.16    0.45
  -1  -3 -18   -0.14    0.40
  -1  -3 -18    0.56    0.33
   1   4  18    2.28    0.51
   1   4  18    0.20    0.54
   1  -4  18    2.00    0.47
   1  -4  18    0.00    0.35
   1   4 -19   47.79    1.25
   1   4 -19   45.82    1.25
   1   4 -19   44.38    1.19
   1  -4 -19   47.43    1.25
   1  -4 -19   49.86    1.28
   1  -4 -19   49.15    0.83
  -1   4  19   55.14    1.37
  -1   4  19   44.90    1.27
  -1  -4  19   50.22    1.31
  -1  -4  19   51.64    1.32
  -1  -4  19   54.77    1.30
  -1   4 -18    1.46    0.51
  -1  -4 -18    1.94    0.48
  -1  -4 -18    0.85    0.47
  -1  -4 -18    1.33    0.38
   1   5  18    2.54    0.56
   1   5  18    3.16    0.49
   1  -5  18    1.06    0.42
   1  -5  18    2.86    0.72
   1  -5  18    1.46    0.55
   1   5 -19    1.06    0.50
   1   5 -19    2.00    0.52
   1  -5 -19    0.61    0.46
   1  -5 -19    0.70    0.50
  -1   5  19    0.78    0.50
  -1  -5  19   -0.08    0.52
  -1  -5  19   -0.86    0.53
  -1  -5  19    1.40    0.48
  -1   5 -18    2.24    0.47
  -1   5 -18    2.66    0.53
  -1  -5 -18    2.44    0.56
  -1  -5 -18    2.19    0.52
  -1  -5 -18    3.22    0.43
  -1  -5 -18    0.83    0.40
   1   6  18    2.16    0.61
   1   6  18    2.00    0.65
   1  -6  18    0.20    0.42
   1  -6  18    2.94    0.57
   1   6 -19    8.31    1.03
   1   6 -19   17.73    1.15
   1  -6 -19   11.21    1.04
   1  -6 -19   -0.51    0.53
  -1   6  19   12.92    1.17
  -1   6  19   13.25    1.14
  -1  -6  19    0.45    0.56
  -1  -6  19   10.69    1.15
  -1  -6  19   13.60    1.02
  -1   6 -18    1.51    0.52
  -1   6 -18    1.30    0.53
  -1  -6 -18    0.87    0.59
  -1  -6 -18    1.80    0.65
  -1  -6 -18    2.65    0.43
  -1  -6 -18    1.49    0.46
   1   7  18   -0.44    0.55
   1   7  18    0.31    0.79
   1  -7  18   -1.08    0.57
   1   7 -19    1.21    0.64
   1   7 -19    1.88    0.73
   1  -7 -19   -0.86    0.63
  -1   7  19    0.65    0.61
  -1   7  19    2.12    0.69
  -1  -7  19    0.86    0.69
  -1  -7  19    0.80    0.60
  -1   7 -18    0.57    0.57
  -1  -7 -18    0.44    0.66
  -1  -7 -18    0.40    0.63
  -1  -7 -18    2.34    0.44
  -1  -7 -18    0.12    0.47
   1   8  18    1.80    0.71
   1   8  18    4.68    0.85
   1  -8  18    0.10    0.66
   1   8 -19    5.06    0.78
  -1   8  19    6.53    0.84
  -1  -8  19    3.76    0.76
  -1   8 -18    4.70    0.78
  -1  -8 -18    3.35    0.93
  -1  -8 -18   -0.29    0.70
  -1  -8 -18   -0.76    0.50
   1   9  18   -1.45    0.82
   1  -9  18    1.43    0.81
   1   9 -19    1.53    0.80
  -1   9  19    0.75    0.99
  -1  -9  19    0.16    0.80
  -1   9 -18    1.76    0.86
   1   0  19    0.58    0.41
   1   0  19    0.78    0.45
   1   0  19   -0.19    0.38
   1   0 -20    8.44    0.78
   1   0 -20    8.55    0.84
   1   0 -20    9.63    0.65
  -1   0  20   10.07    0.82
  -1   0  20    9.43    0.80
  -1   0  20   10.51    0.67
  -1   0 -19    0.20    0.40
  -1   0 -19    1.09    0.45
  -1   0 -19   -0.64    0.41
   1   1  19   17.52    0.90
   1   1  19   15.90    0.83
   1   1  19   20.56    0.87
   1  -1  19   18.74    0.96
   1  -1  19   16.58    0.86
   1  -1  19   17.30    0.93
   1   1 -20   38.53    1.14
   1   1 -20   40.32    1.18
   1   1 -20   36.13    1.01
   1  -1 -20   37.90    1.10
   1  -1 -20   38.23    1.19
   1  -1 -20   37.00    0.92
  -1   1  20   45.91    1.22
  -1   1  20   34.28    1.11
  -1   1  20   43.98    0.98
  -1  -1  20   42.84    1.19
  -1  -1  20   36.47    1.11
  -1  -1  20   43.81    1.07
  -1   1 -19   18.53    0.91
  -1   1 -19   17.41    0.90
  -1   1 -19   16.38    0.86
  -1  -1 -19   17.76    1.00
  -1  -1 -19   17.18    0.92
  -1  -1 -19   17.83    0.78
   1   2  19   47.06    1.25
   1   2  19   36.03    1.10
   1  -2  19   38.07    1.17
   1  -2  19   36.99    1.09
   1  -2  19   40.34    1.18
   1   2 -20    0.71    0.38
   1   2 -20   -0.35    0.43
   1   2 -20    1.06    0.44
   1  -2 -20    0.65    0.48
   1  -2 -20    0.24    0.43
   1  -2 -20    0.76    0.36
  -1   2  20    0.78    0.52
  -1   2  20    0.36    0.42
  -1   2  20    0.79    0.36
  -1  -2  20    0.44    0.46
  -1  -2  20    0.39    0.44
  -1   2 -19   34.21    1.12
  -1   2 -19   34.33    1.07
  -1  -2 -19   38.94    1.19
  -1  -2 -19   42.15    1.24
  -1  -2 -19   38.51    1.00
   1   3  19    0.58    0.44
   1   3  19   -0.48    0.42
   1  -3  19   -0.32    0.39
   1  -3  19   -0.30    0.40
   1  -3  19   -0.30    0.39
   1   3 -20    2.29    0.52
   1   3 -20    2.01    0.52
   1   3 -20    1.83    0.50
   1  -3 -20    1.45    0.51
   1  -3 -20    2.21    0.55
   1  -3 -20    1.87    0.37
  -1   3  20    1.99    0.50
  -1   3  20    1.86    0.50
  -1   3  20    1.68    0.39
  -1  -3  20    2.21    0.52
  -1  -3  20    1.05    0.40
  -1  -3  20    2.29    0.49
  -1   3 -19   -0.13    0.51
  -1   3 -19   -0.55    0.44
  -1  -3 -19    0.72    0.55
  -1  -3 -19   -0.24    0.40
  -1  -3 -19    0.37    0.39
   1   4  19    2.52    0.57
   1   4  19    1.12    0.51
   1  -4  19    1.77    0.51
   1  -4  19    0.92    0.47
   1   4 -20    5.01    0.59
   1   4 -20    5.82    0.64
   1  -4 -20    6.97    0.68
   1  -4 -20    4.69    0.60
   1  -4 -20    5.00    0.59
  -1   4  20    6.17    0.65
  -1  -4  20    5.47    0.63
  -1  -4  20    8.61    0.95
  -1  -4  20    7.98    0.87
  -1   4 -19    1.13    0.47
  -1   4 -19    0.06    0.53
  -1  -4 -19    0.94    0.54
  -1  -4 -19   -1.03    0.43
  -1  -4 -19    1.41    0.41
   1   5  19    7.56    0.81
   1   5  19    6.18    0.69
   1  -5  19    1.07    0.46
   1  -5  19    5.79    0.71
   1   5 -20   32.27    1.28
   1   5 -20   28.02    1.20
   1  -5 -20   29.78    1.22
   1  -5 -20    3.25    0.61
  -1   5  20   33.20    1.41
  -1   5  20   27.72    1.49
  -1  -5  20   20.41    1.08
  -1  -5  20   23.20    1.27
  -1  -5  20   30.54    1.16
  -1   5 -19    5.55    0.62
  -1   5 -19    6.51    0.67
  -1  -5 -19    7.23    0.73
  -1  -5 -19    8.08    0.77
  -1  -5 -19    5.40    0.67
   1   6  19    0.73    0.68
   1   6  19    1.49    0.58
   1  -6  19    0.31    0.48
   1  -6  19    1.73    0.59
   1   6 -20    1.82    0.61
   1   6 -20    2.32    0.66
   1  -6 -20    0.42    0.56
  -1   6  20    3.96    0.70
  -1   6  20    2.65    0.75
  -1  -6  20   -0.37    0.54
  -1  -6  20    5.18    0.82
  -1  -6  20    3.69    0.68
  -1   6 -19    0.41    0.58
  -1   6 -19    1.36    0.60
  -1  -6 -19    1.04    0.62
  -1  -6 -19   -0.38    0.62
  -1  -6 -19    1.88    0.45
  -1  -6 -19    0.81    0.43
   1   7  19   -0.42    0.69
   1   7  19   -0.61    0.80
   1  -7  19    0.75    0.64
   1   7 -20   19.88    1.43
  -1   7  20   17.85    1.45
  -1  -7  20   -1.94    0.76
  -1  -7  20   15.46    1.28
  -1   7 -19    3.40    0.67
  -1  -7 -19    2.03    0.71
  -1  -7 -19    2.28    0.81
  -1  -7 -19    0.85    0.47
   1   8  19    1.92    0.77
   1   8  19   -1.72    0.97
   1  -8  19    1.87    0.80
   1   8 -20    2.72    0.90
  -1   8  20    0.00    0.78
  -1  -8  20   -0.06    0.72
  -1   8 -19    0.67    0.72
  -1  -8 -19    1.63    0.74
  -1  -8 -19    1.95    0.97
   1   0  20    8.88    0.92
   1   0  20    4.61    0.56
   1   0  20    7.38    0.82
   1   0 -21    1.03    0.48
   1   0 -21    0.30    0.49
   1   0 -21    0.11    0.43
  -1   0  21   -0.76    0.44
  -1   0  21    1.32    0.48
  -1   0  21   -0.03    0.36
  -1   0 -20    7.51    0.92
  -1   0 -20    5.45    0.57
   1   1  20    1.29    0.54
   1   1  20    0.48    0.40
   1   1  20    1.85    0.74
   1  -1  20    1.78    0.52
   1  -1  20   -0.21    0.45
   1  -1  20    0.82    0.47
   1   1 -21    3.92    0.57
   1   1 -21    2.02    0.58
   1   1 -21    2.98    0.48
   1  -1 -21    2.19    0.55
   1  -1 -21    2.81    0.52
   1  -1 -21    2.53    0.47
  -1   1  21    3.75    0.62
  -1   1  21    2.83    0.50
  -1   1  21    3.39    0.46
  -1  -1  21    2.09    0.56
  -1  -1  21    3.72    0.54
  -1   1 -20    0.21    0.73
  -1   1 -20    1.21    0.60
  -1   1 -20   -0.17    0.46
  -1  -1 -20    0.60    0.71
  -1  -1 -20    0.23    0.46
  -1  -1 -20    0.18    0.45
   1   2  20   15.82    1.01
   1   2  20   11.73    0.90
   1  -2  20    8.93    0.97
   1  -2  20   14.93    0.93
   1   2 -21   12.84    0.87
   1   2 -21   12.87    0.95
   1   2 -21   12.39    0.83
   1  -2 -21   11.78    0.97
   1  -2 -21   13.96    0.98
   1  -2 -21   13.84    0.74
  -1   2  21   14.08    1.05
  -1   2  21   11.17    0.88
  -1   2  21   13.97    0.74
  -1  -2  21   13.37    0.99
  -1  -2  21   13.81    0.91
  -1  -2  21   14.19    0.85
  -1   2 -20   10.96    0.94
  -1   2 -20   10.89    0.87
  -1  -2 -20   10.71    1.18
  -1  -2 -20   14.42    0.97
  -1  -2 -20   14.73    0.82
   1   3  20    8.07    0.93
   1   3  20    6.09    0.66
   1  -3  20    1.66    0.45
   1  -3  20    8.32    0.99
   1  -3  20    9.26    0.95
   1   3 -21    2.68    0.62
   1   3 -21    2.14    0.58
   1  -3 -21    1.57    0.45
   1  -3 -21    2.40    0.54
   1  -3 -21    3.77    0.47
  -1   3  21    4.60    0.66
  -1   3  21    3.14    0.61
  -1   3  21    3.94    0.46
  -1  -3  21    3.24    0.64
  -1  -3  21    3.15    0.59
  -1  -3  21    3.62    0.58
  -1   3 -20    5.76    0.61
  -1   3 -20    6.11    0.65
  -1  -3 -20    7.37    0.74
  -1  -3 -20    6.56    0.78
   1   4  20    0.87    0.60
   1   4  20   -0.14    0.60
   1  -4  20    2.84    0.81
   1  -4  20    0.53    0.51
   1   4 -21    0.34    0.49
   1   4 -21    0.04    0.56
   1  -4 -21   -0.51    0.55
   1  -4 -21   -0.41    0.52
  -1   4  21   -0.12    0.59
  -1   4  21   -0.14    0.61
  -1  -4  21   -0.29    0.59
  -1  -4  21    2.27    0.64
  -1  -4  21    0.94    0.56
  -1   4 -20   -0.11    0.51
  -1   4 -20   -0.37    0.49
  -1  -4 -20   -0.90    0.56
  -1  -4 -20   -0.07    0.41
   1   5  20    1.52    0.58
   1   5  20   -0.49    0.70
   1  -5  20    0.34    0.56
   1  -5  20   -0.43    0.53
   1   5 -21    4.08    0.74
   1  -5 -21    3.91    0.69
   1  -5 -21   -0.63    0.61
  -1   5  21    5.51    0.91
  -1   5  21    1.91    0.66
  -1  -5  21   -0.06    0.70
  -1  -5  21    0.96    0.61
  -1  -5  21    4.22    0.68
  -1   5 -20    0.47    0.56
  -1   5 -20    0.84    0.62
  -1  -5 -20   -0.20    0.60
  -1  -5 -20   -0.18    0.57
  -1  -5 -20    0.35    0.46
  -1  -5 -20   -0.76    0.47
   1   6  20    0.46    0.70
   1   6  20    1.79    0.86
   1  -6  20    2.58    0.69
   1   6 -21   -1.16    0.66
   1   6 -21    1.59    0.70
   1  -6 -21    0.14    0.67
  -1   6  21   -1.50    0.62
  -1   6  21   -1.65    0.77
  -1  -6  21   -0.44    0.65
  -1  -6  21    1.84    0.70
  -1   6 -20    2.10    0.69
  -1  -6 -20    2.21    0.84
  -1  -6 -20    0.31    0.72
  -1  -6 -20    3.25    0.54
  -1  -6 -20   -0.08    0.60
   1   7  20   -1.47    0.78
   1   7  20   -0.83    0.73
   1  -7  20   -0.33    0.62
   1   7 -21   -1.24    0.74
  -1   7  21    1.13    0.80
  -1  -7  21    1.40    0.75
  -1   7 -20   -0.40    0.69
  -1  -7 -20    0.46    0.81
  -1  -7 -20    0.15    0.71
  -1  -7 -20    0.06    0.52
   1   8  20    3.39    1.22
   1  -8  20    4.63    0.83
   1   8 -21    2.73    0.90
  -1   8  21    0.99    0.99
  -1  -8  21    2.03    0.91
  -1   8 -20    6.82    0.91
   1   0  21    1.40    0.51
   1   0  21   -0.77    0.47
   1   0  21    0.06    0.45
   1   0 -22    9.76    0.95
   1   0 -22    9.49    1.01
   1   0 -22    7.71    0.77
  -1   0  22    7.37    0.72
  -1   0  22    8.52    0.99
  -1   0  22    8.56    0.90
  -1   0 -21    0.64    0.53
  -1   0 -21   -0.84    0.48
  -1   0 -21   -0.33    0.46
   1   1  21    0.95    0.61
   1   1  21    2.39    0.55
   1   1  21    2.03    0.52
   1  -1  21    0.73    0.54
   1  -1  21    1.33    0.51
   1  -1  21    3.60    0.59
   1   1 -22    0.88    0.55
   1   1 -22    1.09    0.49
   1  -1 -22    0.01    0.51
   1  -1 -22    1.20    0.56
   1  -1 -22    1.15    0.46
  -1   1  22    0.07    0.57
  -1   1  22    0.81    0.56
  -1   1  22    1.73    0.48
  -1  -1  22    0.53    0.56
  -1  -1  22    1.11    0.54
  -1  -1  22   -0.23    0.41
  -1   1 -21    1.95    0.47
  -1   1 -21    1.68    0.48
  -1  -1 -21    0.91    0.54
  -1  -1 -21    1.61    0.55
   1   2  21    1.91    0.59
   1   2  21    3.91    0.65
   1  -2  21    0.45    0.85
   1  -2  21    7.20    0.76
   1   2 -22    4.64    0.87
   1   2 -22    3.86    0.69
   1  -2 -22    2.99    0.65
   1  -2 -22    3.82    0.61
   1  -2 -22    3.68    0.51
  -1   2  22    4.03    0.69
  -1   2  22    2.68    0.52
  -1  -2  22    2.53    0.60
  -1  -2  22    2.71    0.51
  -1  -2  22    2.97    0.59
  -1   2 -21    5.73    0.67
  -1   2 -21    7.01    0.69
  -1  -2 -21    8.14    0.82
  -1  -2 -21    5.48    0.65
   1   3  21    0.09    0.58
   1   3  21    1.67    0.57
   1  -3  21    0.26    0.48
   1  -3  21    1.22    0.57
   1   3 -22    0.81    0.62
   1   3 -22    1.34    0.60
   1  -3 -22    3.20    0.71
   1  -3 -22    0.16    0.55
   1  -3 -22    0.98    0.47
  -1   3  22    2.00    0.60
  -1   3  22   -1.03    0.59
  -1   3  22   -0.20    0.44
  -1  -3  22    0.61    0.62
  -1  -3  22    1.25    0.60
  -1  -3  22    1.38    0.51
  -1   3 -21    1.93    0.58
  -1   3 -21    2.92    0.60
  -1  -3 -21    2.13    0.63
  -1  -3 -21    2.12    0.63
  -1  -3 -21    2.30    0.52
   1   4  21    1.92    0.65
   1   4  21   -1.32    0.69
   1  -4  21   -0.69    0.51
   1  -4  21    0.25    0.55
   1   4 -22    3.37    0.63
   1   4 -22    3.83    0.72
   1  -4 -22    3.18    0.64
   1  -4 -22    0.15    0.72
   1  -4 -22    2.96    0.50
  -1   4  22    4.41    0.89
  -1   4  22    2.80    0.75
  -1  -4  22    0.53    0.59
  -1  -4  22    5.80    0.80
  -1  -4  22    2.78    0.68
  -1   4 -21    1.19    0.60
  -1   4 -21    0.75    0.60
  -1  -4 -21    1.09    0.60
  -1  -4 -21   -1.00    0.55
  -1  -4 -21    0.63    0.51
   1   5  21    1.10    0.64
   1   5  21    1.77    0.82
   1  -5  21    3.60    0.67
   1   5 -22    7.46    0.85
   1   5 -22    5.75    0.82
   1  -5 -22   -0.66    0.68
  -1   5  22   10.36    1.00
  -1   5  22    6.93    0.82
  -1  -5  22   -0.10    0.72
  -1  -5  22    9.27    1.13
  -1   5 -21    1.49    0.70
  -1  -5 -21    2.07    0.73
  -1  -5 -21    2.34    0.73
  -1  -5 -21    3.49    0.55
  -1  -5 -21    2.49    0.55
   1   6  21    1.24    0.86
   1   6  21    0.92    0.99
   1  -6  21    1.70    0.77
   1   6 -22    2.69    0.70
  -1   6  22    3.50    0.76
  -1  -6  22    5.97    0.89
  -1   6 -21    0.88    0.76
  -1  -6 -21   -0.72    0.79
  -1  -6 -21   -2.49    0.86
  -1  -6 -21    0.65    0.55
   1   7  21    1.31    1.39
   1  -7  21    1.21    0.67
   1   7 -22    3.73    0.89
  -1   7  22    0.72    0.85
  -1  -7  22    1.72    0.91
  -1   7 -21    2.03    0.83
   1   0  22    1.45    0.61
   1   0  22   15.46    1.07
   1   0 -23    1.21    0.66
   1   0 -23    1.13    0.67
   1   0 -23   -0.31    0.55
  -1   0  23   -0.27    0.59
  -1   0  23    0.59    0.68
  -1   0  23    0.52    0.46
  -1   0 -22    9.93    1.23
   1   1  22   -1.17    0.57
   1   1  22   -0.85    0.89
   1   1  22    0.32    0.58
   1  -1  22    0.17    0.60
   1  -1  22    0.84    0.53
   1   1 -23    3.21    0.72
   1   1 -23    4.33    0.69
   1  -1 -23    3.93    0.77
   1  -1 -23    1.35    0.62
   1  -1 -23    3.72    0.62
  -1   1  23    4.98    0.72
  -1   1  23    5.12    1.07
  -1   1  23    7.84    0.89
  -1  -1  23    4.55    0.67
  -1  -1  23    4.90    0.70
  -1  -1  23    5.22    0.62
  -1   1 -22   -0.42    0.58
  -1   1 -22    1.09    0.51
  -1  -1 -22    1.64    0.81
  -1  -1 -22    0.11    0.56
  -1  -1 -22    0.38    0.73
   1   2  22    0.60    0.64
   1   2  22   -1.66    0.75
   1  -2  22    0.54    0.63
   1  -2  22   -0.65    0.59
   1   2 -23    1.17    0.64
   1   2 -23    1.22    0.59
   1  -2 -23    1.28    0.71
   1  -2 -23    0.19    0.53
  -1   2  23    1.38    0.58
  -1   2  23    0.66    0.62
  -1   2  23    1.07    0.48
  -1  -2  23   -0.24    0.62
  -1  -2  23   -0.54    0.52
  -1  -2  23    0.80    0.57
  -1   2 -22    0.64    0.63
  -1   2 -22    0.77    0.62
  -1  -2 -22   -1.90    0.74
  -1  -2 -22   -0.43    0.62
  -1  -2 -22    0.24    0.55
   1   3  22   -1.37    0.69
   1   3  22    0.80    0.83
   1  -3  22   -0.20    0.59
   1  -3  22    0.97    0.63
   1   3 -23   20.62    1.26
   1   3 -23   17.75    1.25
   1  -3 -23   14.27    1.24
   1  -3 -23   -0.96    0.66
   1  -3 -23   16.83    0.95
  -1   3  23   24.37    1.34
  -1   3  23   15.79    1.22
  -1   3  23   21.27    0.95
  -1  -3  23    0.30    0.66
  -1  -3  23   19.41    1.26
  -1  -3  23   18.53    1.11
  -1   3 -22    0.75    0.54
  -1  -3 -22    0.46    0.66
  -1  -3 -22   -0.14    0.69
  -1  -3 -22    0.36    0.57
   1   4  22    0.28    0.71
   1  -4  22    0.48    0.73
   1   4 -23    1.59    0.71
   1   4 -23   -1.54    0.65
   1  -4 -23   -0.89    0.75
  -1   4  23    0.14    0.75
  -1   4  23    0.46    0.73
  -1  -4  23    0.69    0.75
  -1  -4  23    1.73    0.64
  -1   4 -22    0.28    0.75
  -1  -4 -22   -0.76    0.69
  -1  -4 -22   -0.20    0.64
   1   5  22    1.87    0.80
   1  -5  22    0.34    0.73
   1   5 -23    6.28    0.86
  -1   5  23   13.88    1.44
  -1  -5  23   12.13    1.29
  -1   5 -22    1.40    0.75
  -1  -5 -22    0.18    1.21
  -1  -5 -22   -0.89    0.71
  -1  -5 -22    1.52    0.58
   1  -6  22    3.81    0.83
   1   6 -23   -1.01    0.80
  -1   6  23   -1.54    0.78
  -1  -6  23   -1.37    0.78
  -1   6 -22    0.91    0.83
  -1  -6 -22   -2.36    0.89
  -1  -6 -22    0.82    0.62
   1   0  23    0.02    0.70
   1   0  23   -1.21    0.58
   1   0 -24   15.04    1.29
   1   0 -24    9.03    0.90
   1   0 -24   18.73    1.20
  -1   0  24   15.72    1.30
  -1   0  24   20.15    1.04
  -1   0 -23    0.48    0.90
  -1   0 -23   -0.91    0.57
   1   1  23   -0.05    0.65
   1   1  23   -0.15    0.58
   1  -1  23    0.04    0.71
   1  -1  23   -1.03    0.56
   1   1 -24   -0.69    0.66
   1   1 -24    0.01    0.66
   1  -1 -24   -1.19    0.67
   1  -1 -24    0.17    0.65
   1  -1 -24   -0.21    0.61
  -1   1  24    0.75    0.73
  -1   1  24   -0.96    0.69
  -1   1  24   -0.62    0.57
  -1  -1  24   -0.73    0.69
  -1  -1  24    3.55    0.79
  -1  -1  24    0.63    0.55
  -1   1 -23    0.65    0.65
  -1  -1 -23    0.40    0.85
  -1  -1 -23   -0.25    0.63
   1   2  23    0.88    0.66
   1  -2  23   10.49    1.19
   1   2 -24    8.28    0.90
   1   2 -24    6.98    0.93
   1  -2 -24    8.54    1.01
   1  -2 -24    1.16    0.74
   1  -2 -24    5.77    0.70
  -1   2  24   10.30    1.06
  -1   2  24    6.73    0.91
  -1   2  24   12.28    1.00
  -1  -2  24   -0.84    0.70
  -1  -2  24    9.28    1.29
  -1  -2  24   10.77    1.01
  -1   2 -23    9.86    1.17
  -1  -2 -23    8.34    1.35
  -1  -2 -23    7.06    0.90
   1   3  23   -0.01    0.76
   1  -3  23   -1.06    0.71
   1   3 -24    3.75    0.81
   1   3 -24    1.27    0.79
   1  -3 -24   -0.10    0.72
  -1   3  24    0.99    0.78
  -1   3  24    3.71    0.58
  -1  -3  24   -0.10    0.74
  -1  -3  24    2.31    0.62
  -1  -3 -23   -1.14    0.69
  -1  -3 -23    0.90    0.64
   1  -4  23    2.70    0.80
   1   4 -24    1.28    0.83
  -1   4  24    1.04    0.86
  -1  -4  24   -1.60    0.67
  -1   4 -23    2.61    0.85
  -1  -4 -23    1.67    0.86
   1  -5  23    1.04    0.89
   1   5 -24   -0.42    0.86
  -1   5  24   -0.56    0.89
  -1  -5  24    0.85    0.80
  -1   5 -23    0.67    0.73
  -1  -5 -23   -0.41    0.82
  -1  -5 -23    1.51    0.70
   1   0  24    3.41    0.73
   1   0 -25    0.43    0.71
   1   0 -25    0.14    0.80
  -1   0  25    1.13    0.80
  -1   0  25   -2.08    0.85
  -1   0  25   -0.43    0.60
  -1   0 -24    0.97    0.63
   1   1  24    3.40    0.72
   1  -1  24    2.34    0.82
   1   1 -25   -0.01    0.69
   1   1 -25    2.13    0.76
   1  -1 -25    0.44    0.85
   1  -1 -25    1.00    0.82
   1  -1 -25   -1.95    0.75
  -1   1  25   -0.21    0.85
  -1   1  25   12.22    1.52
  -1   1  25    0.68    0.68
  -1  -1  25   -0.71    0.86
  -1  -1  25    0.03    0.85
  -1  -1  25    0.91    0.62
  -1   1 -24    2.30    0.67
  -1  -1 -24    1.49    0.74
   1  -2  24    2.05    0.71
   1   2 -25   -2.38    0.82
   1  -2 -25    0.51    0.79
  -1   2  25    0.77    0.88
  -1   2  25    3.45    0.92
  -1   2  25    0.31    0.63
  -1  -2  25    1.20    0.78
  -1  -2  25   -1.28    0.61
  -1   2 -24    1.11    0.64
  -1  -2 -24   -0.08    0.77
   1  -3  24   -0.31    0.76
   1   3 -25   14.35    1.67
  -1   3  25   11.86    1.11
  -1   3  25   11.88    1.14
  -1  -3  25   13.67    1.22
  -1   3 -24    1.01    0.76
  -1  -3 -24    0.14    0.80
   1  -4  24    3.51    0.82
   1   4 -25    0.08    0.78
  -1   4  25    3.39    0.98
  -1  -4  25    0.38    0.79
  -1   4 -24    0.85    0.85
  -1  -4 -24    1.49    0.97
   1   0  25    0.14    0.74
   1   0 -26    2.44    0.94
  -1   0  26   -1.43    0.92
  -1   0  26    2.45    0.75
  -1   0 -25   -0.17    0.87
   1   1  25    0.04    0.77
   1  -1  25    0.65    0.78
   1   1 -26    1.83    1.04
   1  -1 -26   -1.73    0.92
  -1   1  26   -1.09    0.90
  -1   1  26    0.15    0.78
  -1  -1  26    3.37    0.74
  -1   1 -25    0.83    0.80
  -1  -1 -25   -0.14    0.82
   1  -2  25    0.93    0.87
   1   2 -26    1.94    0.85
  -1   2  26    1.86    0.93
  -1   2  26    8.46    0.83
  -1  -2  26   10.84    1.21
  -1   2 -25    2.35    0.86
  -1  -2 -25   -0.01    0.81
   1   3 -26   -1.63    0.96
  -1   3 -25    3.33    0.91
  -1  -3 -25    6.26    1.11
   2   0  -1    0.00    0.05
   2   0  -1   -0.04    0.06
   2   0  -1   -0.10    0.10
  -2   0   1   -0.12    0.07
  -2   0   1    0.04    0.06
  -2   0   1   -0.07    0.08
   2   1  -1   19.76    0.33
   2   1  -1   19.05    0.32
   2   1  -1   19.67    0.42
  -2   1   1   18.72    0.37
  -2  -1   1   19.58    0.34
  -2  -1   1   20.48    0.36
  -2  -1   1   20.26    0.44
   2   2  -1   61.10    0.66
   2   2  -1   54.21    0.67
   2   2  -1   59.87    0.75
  -2   2   1   61.69    0.64
  -2   2   1   63.04    0.65
  -2  -2   1   60.47    0.67
  -2  -2   1   60.75    0.68
  -2  -2   1   60.55    0.76
   2   3  -1  678.04    2.45
   2   3  -1  533.22    2.17
   2   3  -1  668.68    2.60
  -2   3   1  715.60    1.43
  -2   3   1  636.38    1.33
  -2   3   1  704.49    2.15
  -2  -3   1  657.32    2.45
  -2  -3   1  681.38    2.52
  -2  -3   1  674.55    2.64
   2   4  -1   31.19    0.62
   2   4  -1   28.84    0.60
  -2   4   1   33.92    0.42
  -2   4   1   31.09    0.40
  -2   4   1   31.65    0.49
  -2  -4   1   31.50    0.63
  -2  -4   1   32.14    0.65
  -2  -4   1   28.89    0.62
   2   5  -1  179.51    1.54
   2   5  -1  173.98    1.52
   2  -5  -1  173.76    0.81
   2  -5  -1  162.93    0.78
   2  -5  -1  167.28    1.13
  -2   5   1  187.86    1.13
  -2   5   1  173.00    1.08
  -2   5   1  175.99    1.15
  -2  -5   1  181.99    1.56
  -2  -5   1  178.26    1.56
  -2  -5   1  165.94    1.48
   2   6  -1   41.82    0.85
   2   6  -1   42.19    0.86
   2   6  -1   37.30    0.80
   2  -6  -1   42.00    0.53
   2  -6  -1   37.52    0.49
   2  -6  -1   40.40    0.63
  -2   6   1   44.83    0.66
  -2   6   1   40.86    0.64
  -2   6   1   40.38    0.61
  -2  -6   1   44.19    0.88
  -2  -6   1   42.61    0.89
  -2  -6   1   37.88    0.81
   2   7  -1   10.12    0.56
   2   7  -1    8.79    0.57
   2   7  -1    7.32    0.52
   2  -7  -1    9.08    0.36
   2  -7  -1    8.24    0.34
   2  -7  -1   10.21    0.42
  -2   7   1    8.66    0.42
  -2   7   1    8.19    0.42
  -2   7   1    7.65    0.39
  -2  -7   1    9.33    0.62
  -2  -7   1    9.84    0.60
  -2  -7   1    9.45    0.56
   2   8  -1   -0.77    0.53
   2   8  -1    0.71    0.29
   2   8  -1   -0.48    0.30
   2  -8  -1   -0.51    0.22
   2  -8  -1   -0.28    0.21
   2  -8  -1    0.76    0.24
  -2   8   1   -0.04    0.25
  -2   8   1    0.25    0.27
  -2   8   1    0.09    0.22
  -2  -8   1   -0.60    0.27
  -2  -8   1    0.69    0.31
   2   9  -1   26.12    0.98
   2   9  -1   27.58    0.99
   2   9  -1   24.72    0.86
   2  -9  -1   26.55    0.68
   2  -9  -1   24.81    0.65
   2  -9  -1   27.14    0.71
  -2   9   1   29.18    0.79
  -2   9   1   27.29    0.79
  -2   9   1   26.26    0.67
  -2  -9   1   28.72    1.01
  -2  -9   1   27.53    0.96
  -2  -9   1   28.28    0.94
   2  10  -1    0.23    0.45
   2  10  -1    0.23    0.45
   2  10  -1   -0.12    0.46
   2 -10  -1    0.41    0.35
   2 -10  -1    0.76    0.33
  -2  10   1   -0.24    0.38
  -2 -10   1    0.25    0.54
  -2 -10   1    0.14    0.52
   2  11  -1    3.77    0.69
   2  11  -1    3.67    0.68
   2  11  -1    1.74    0.68
   2 -11  -1    1.48    0.48
   2 -11  -1    1.33    0.41
  -2  11   1    2.13    0.53
  -2  11   1    2.29    0.48
  -2  11   1    3.84    0.48
  -2 -11   1    5.58    0.76
  -2 -11   1    0.11    0.65
  -2 -11   1    2.00    0.61
   2  12  -1    1.23    0.65
   2 -12  -1   -1.20    0.66
  -2  12   1    3.04    0.63
  -2 -12   1   -0.72    0.67
   2   0   0   25.34    0.25
   2   0   0   23.11    0.24
   2   0  -2  436.49    1.18
   2   0  -2  394.64    1.11
   2   0  -2  431.94    1.75
  -2   0   2  408.90    1.28
  -2   0   2  368.78    1.31
  -2   0   2  425.20    1.75
  -2   0   0   24.50    0.30
  -2   0   0   25.98    0.31
   2   1   0  151.15    0.84
   2   1   0  138.32    0.80
   2   1   0  152.63    1.13
   2   1  -2  118.79    0.78
   2   1  -2  107.77    0.75
   2   1  -2  114.89    0.97
  -2   1   2  109.30    0.55
  -2   1   2  103.07    0.53
  -2   1   2  109.77    0.85
  -2  -1   2  116.03    0.82
  -2  -1   2  109.75    0.79
  -2  -1   2  110.70    0.96
  -2   1   0  146.65    1.04
  -2  -1   0  150.31    0.89
  -2  -1   0  152.31    0.91
   2   2   0    3.94    0.21
   2   2   0    3.60    0.21
   2   2   0    3.81    0.25
   2   2  -2    3.30    0.20
   2   2  -2    3.12    0.23
  -2   2   2    3.04    0.18
  -2   2   2    2.99    0.20
  -2  -2   2    2.94    0.20
  -2  -2   2    2.72    0.23
  -2  -2   2    2.69    0.23
  -2   2   0    4.27    0.23
  -2  -2   0    4.18    0.22
  -2  -2   0    3.74    0.24
  -2  -2   0    3.84    0.27
   2   3   0    0.26    0.14
   2   3   0    0.29    0.14
   2   3   0    1.15    0.16
   2   3  -2  122.44    1.06
   2   3  -2  111.11    1.01
   2   3  -2  111.93    1.09
  -2   3   2  131.69    0.69
  -2   3   2  112.48    0.63
  -2   3   2  124.96    0.87
  -2  -3   2  121.85    1.08
  -2  -3   2  123.44    1.09
  -2  -3   2  116.47    1.13
  -2   3   0    2.67    0.21
  -2  -3   0    0.62    0.16
  -2  -3   0    0.30    0.19
  -2  -3   0    1.21    0.20
   2   4   0   17.71    0.49
   2   4   0   18.14    0.49
   2  -4   0   18.58    0.43
   2   4  -2   84.47    0.98
   2   4  -2   77.95    1.14
   2   4  -2   78.01    0.97
  -2   4   2   87.91    0.69
  -2   4   2   78.30    0.64
  -2   4   2   82.15    0.71
  -2  -4   2   81.78    0.97
  -2  -4   2   83.15    0.99
  -2  -4   2   78.93    0.98
  -2   4   0   19.50    0.32
  -2   4   0   18.83    0.32
  -2   4   0   18.40    0.41
  -2  -4   0   18.71    0.50
  -2  -4   0   18.90    0.52
  -2  -4   0   17.77    0.51
   2   5   0    0.19    0.17
   2   5   0    0.87    0.23
   2  -5   0    1.10    0.18
   2   5  -2   16.18    0.52
   2   5  -2   16.00    0.54
   2   5  -2   12.72    0.57
   2  -5  -2   14.20    0.32
   2  -5  -2   15.23    0.30
  -2   5   2   16.91    0.39
  -2   5   2   15.66    0.39
  -2   5   2   15.37    0.36
  -2  -5   2   16.44    0.53
  -2  -5   2   15.74    0.55
  -2  -5   2   15.46    0.54
  -2   5   0    0.89    0.13
  -2   5   0    1.00    0.16
  -2   5   0    1.01    0.16
  -2  -5   0    0.63    0.20
  -2  -5   0    0.46    0.24
  -2  -5   0    0.76    0.22
   2   6   0   98.20    1.25
   2   6   0   87.58    1.14
   2  -6   0  100.19    0.75
   2  -6   0   86.85    0.70
   2  -6   0   96.67    0.98
   2   6  -2    3.37    0.33
   2   6  -2    1.98    0.26
   2   6  -2    3.11    0.34
   2  -6  -2    3.07    0.21
   2  -6  -2    2.65    0.25
   2  -6  -2    2.93    0.28
  -2   6   2    2.29    0.27
  -2   6   2    2.52    0.24
  -2   6   2    2.63    0.25
  -2  -6   2    3.47    0.40
  -2  -6   2    3.36    0.42
  -2  -6   2    2.88    0.34
  -2   6   0  101.43    0.96
  -2   6   0   95.94    0.93
  -2   6   0   92.73    0.95
  -2  -6   0  100.51    1.29
  -2  -6   0   99.66    1.29
  -2  -6   0   87.81    1.15
   2   7   0    2.68    0.32
   2   7   0    2.62    0.35
   2   7   0    2.84    0.36
   2  -7   0    3.27    0.31
   2  -7   0    2.50    0.29
   2  -7   0    3.16    0.39
   2   7  -2   56.26    1.06
   2   7  -2   48.70    0.95
   2  -7  -2   57.05    0.71
   2  -7  -2   52.59    0.69
   2  -7  -2   55.12    0.71
  -2   7   2   59.62    0.87
  -2   7   2   52.78    0.82
  -2   7   2   52.74    0.68
  -2  -7   2   60.24    1.10
  -2  -7   2   56.08    1.07
  -2  -7   2   53.00    0.99
  -2   7   0    3.13    0.35
  -2   7   0    4.56    0.38
  -2   7   0    3.16    0.35
  -2  -7   0    4.60    0.50
  -2  -7   0    4.00    0.44
  -2  -7   0    3.71    0.38
   2   8   0   18.38    0.83
   2   8   0   18.92    0.83
   2   8   0   16.54    0.70
   2  -8   0   19.95    0.53
   2  -8   0   15.60    0.50
   2  -8   0   17.86    0.60
   2   8  -2   83.88    1.38
   2   8  -2   75.67    1.24
   2  -8  -2   85.52    0.96
   2  -8  -2   78.72    0.92
   2  -8  -2   81.47    0.90
  -2   8   2   91.19    1.16
  -2   8   2   81.47    1.10
  -2   8   2   77.73    0.87
  -2  -8   2   84.88    1.38
  -2  -8   2   85.64    1.34
  -2   8   0   19.18    0.63
  -2   8   0   17.99    0.61
  -2   8   0   17.23    0.57
  -2  -8   0   15.29    1.01
  -2  -8   0   18.03    0.81
  -2  -8   0   18.11    0.72
   2   9   0    2.10    0.47
   2   9   0    2.95    0.49
   2   9   0    3.34    0.45
   2  -9   0    3.64    0.34
   2  -9   0    2.87    0.33
   2  -9   0    4.39    0.40
   2   9  -2    5.16    0.58
   2   9  -2    4.52    0.53
   2   9  -2    5.77    0.62
   2  -9  -2    4.54    0.38
   2  -9  -2    5.23    0.49
   2  -9  -2    4.24    0.46
  -2   9   2    6.38    0.60
  -2   9   2    3.34    0.40
  -2   9   2    5.25    0.47
  -2  -9   2    7.92    0.79
  -2  -9   2    5.23    0.58
  -2  -9   2    5.13    0.52
  -2   9   0    4.40    0.54
  -2   9   0    2.48    0.38
  -2  -9   0    2.34    0.51
  -2  -9   0    2.74    0.54
  -2  -9   0    4.37    0.48
   2  10   0    0.95    0.46
   2  10   0    1.86    0.48
   2  10   0   -0.26    0.47
   2 -10   0    0.75    0.34
   2 -10   0    0.24    0.35
   2  10  -2    2.17    0.59
   2  10  -2    3.47    0.47
   2  10  -2    2.63    0.58
   2 -10  -2    2.52    0.39
   2 -10  -2    3.49    0.38
  -2  10   2    4.95    0.48
  -2  10   2    3.09    0.45
  -2  10   2    3.68    0.38
  -2 -10   2    3.51    0.63
  -2 -10   2    3.42    0.58
  -2 -10   2    5.15    0.56
  -2  10   0    0.22    0.40
  -2  10   0    0.23    0.37
  -2  10   0    1.22    0.66
  -2 -10   0    1.07    0.49
  -2 -10   0    0.26    0.49
  -2 -10   0    1.03    0.48
   2  11   0   -0.71    0.63
   2  11   0    0.67    0.61
   2  11   0   -0.14    0.56
   2 -11   0   -0.37    0.70
   2 -11   0   -0.48    0.44
   2  11  -2    0.41    0.66
   2  11  -2   -1.18    0.59
   2 -11  -2    0.50    0.45
  -2  11   2   -0.03    0.44
  -2  11   2   -0.38    0.49
  -2  11   2   -0.07    0.40
  -2 -11   2   -0.40    0.66
  -2 -11   2   -1.28    0.52
  -2 -11   2    0.48    0.52
  -2  11   0    0.23    0.48
  -2  11   0    1.27    0.45
  -2 -11   0   -0.53    0.72
  -2 -11   0   -0.06    0.55
  -2 -11   0   -0.66    0.56
   2  12   0    1.87    0.67
   2 -12   0    2.11    0.56
   2  12  -2   -1.39    0.73
  -2  12   2   -0.92    0.54
  -2 -12   2    0.22    0.68
  -2  12   0    1.16    0.60
  -2 -12   0    1.04    0.67
   2   0   1    0.25    0.06
   2   0   1    0.07    0.05
   2   0  -3    0.12    0.07
   2   0  -3   -0.02    0.07
  -2   0   3    0.16    0.07
  -2   0   3    0.31    0.11
  -2   0  -1   -0.02    0.06
  -2   0  -1    1.17    0.11
  -2   0  -1   -0.03    0.09
   2   1   1  158.00    0.87
   2   1   1  147.32    0.84
   2   1   1  155.22    1.15
   2   1  -3   20.36    0.36
   2   1  -3   18.07    0.34
   2   1  -3   19.99    0.43
   2  -1  -3   20.12    0.23
   2  -1  -3   18.59    0.22
   2  -1  -3   20.57    0.38
  -2   1   3   18.94    0.28
  -2   1   3   18.42    0.27
  -2   1   3   19.41    0.37
  -2  -1   3   19.39    0.37
  -2  -1   3   18.60    0.36
  -2  -1   3   19.07    0.42
  -2   1  -1  160.00    1.12
  -2  -1  -1  160.21    0.93
  -2  -1  -1  161.93    0.95
  -2  -1  -1  152.54    1.15
   2   2   1   16.45    0.36
   2   2   1   18.31    0.38
   2   2   1   17.28    0.43
   2   2  -3   67.34    0.72
   2   2  -3   68.44    0.81
  -2   2   3   68.66    0.50
  -2   2   3   61.70    0.47
  -2   2   3   65.01    0.61
  -2  -2   3   69.34    0.75
  -2  -2   3   64.38    0.72
  -2  -2   3   68.38    0.81
  -2   2  -1   18.20    0.41
  -2  -2  -1   18.26    0.39
  -2  -2  -1   18.83    0.41
  -2  -2  -1   17.73    0.43
   2   3   1    0.13    0.10
   2   3   1    0.18    0.12
   2   3   1    0.50    0.14
   2  -3   1    0.38    0.15
   2   3  -3  340.74    1.78
   2   3  -3  318.46    1.72
   2   3  -3  328.52    1.86
  -2   3   3  356.52    1.25
  -2   3   3  313.03    1.16
  -2   3   3  310.42    1.27
  -2   3   3  354.53    1.36
  -2  -3   3  333.70    1.79
  -2  -3   3  326.38    1.78
  -2  -3   3  327.85    1.88
  -2   3  -1    0.26    0.13
  -2  -3  -1    0.14    0.14
  -2  -3  -1    0.16    0.14
  -2  -3  -1    0.62    0.16
   2   4   1    4.14    0.29
   2   4   1    3.77    0.30
   2  -4   1    3.80    0.29
   2   4  -3   46.61    0.75
   2   4  -3   43.39    0.74
   2   4  -3   43.88    0.74
   2  -4  -3   43.56    0.41
   2  -4  -3   44.67    0.42
  -2   4   3   50.44    0.56
  -2   4   3   43.59    0.52
  -2   4   3   46.38    0.50
  -2  -4   3   47.07    0.76
  -2  -4   3   46.65    0.77
  -2  -4   3   43.31    0.76
  -2   4  -1    4.57    0.19
  -2   4  -1    4.37    0.20
  -2   4  -1    4.49    0.28
  -2  -4  -1    3.95    0.32
  -2  -4  -1    4.34    0.35
  -2  -4  -1    3.91    0.31
   2   5   1   15.34    0.52
   2   5   1   15.66    0.52
   2   5   1   14.25    0.49
   2  -5   1   16.32    0.46
   2   5  -3   32.27    0.70
   2   5  -3   31.09    0.69
   2   5  -3   29.81    0.67
   2  -5  -3   29.94    0.43
  -2   5   3   34.83    0.55
  -2   5   3   28.72    0.50
  -2   5   3   30.78    0.44
  -2  -5   3   30.87    0.68
  -2  -5   3   32.95    0.72
  -2  -5   3   30.78    0.69
  -2   5  -1   16.98    0.37
  -2   5  -1   15.65    0.37
  -2   5  -1   17.70    0.45
  -2  -5  -1   16.71    0.55
  -2  -5  -1   17.26    0.59
  -2  -5  -1   14.88    0.52
   2   6   1   50.08    0.93
   2   6   1   48.44    0.91
   2   6   1   46.63    0.85
   2  -6   1   52.24    0.54
   2  -6   1   42.99    0.50
   2  -6   1   49.22    0.76
   2   6  -3    1.89    0.26
   2   6  -3    1.22    0.27
   2   6  -3    1.92    0.26
   2  -6  -3    2.29    0.25
   2  -6  -3    2.66    0.26
  -2   6   3    2.66    0.29
  -2   6   3    2.19    0.27
  -2   6   3    2.04    0.19
  -2  -6   3    2.89    0.35
  -2  -6   3    2.47    0.32
  -2  -6   3    1.81    0.30
  -2   6  -1   49.66    0.69
  -2   6  -1   47.73    0.74
  -2  -6  -1   52.67    0.98
  -2  -6  -1   49.52    0.96
  -2  -6  -1   45.60    0.85
   2   7   1    5.00    0.49
   2   7   1    5.04    0.49
   2   7   1    4.81    0.46
   2  -7   1    5.33    0.31
   2  -7   1    4.75    0.32
   2  -7   1    6.25    0.44
   2   7  -3   32.67    0.85
   2   7  -3   30.65    0.84
   2   7  -3   27.39    0.75
   2  -7  -3   31.28    0.57
   2  -7  -3   29.45    0.56
   2  -7  -3   32.53    0.53
  -2   7   3   34.00    0.69
  -2   7   3   28.90    0.64
  -2   7   3   29.85    0.49
  -2  -7   3   33.20    0.86
  -2  -7   3   30.75    0.84
  -2  -7   3   31.40    0.83
  -2   7  -1    5.28    0.39
  -2   7  -1    4.64    0.40
  -2  -7  -1    5.86    0.55
  -2  -7  -1    5.39    0.57
  -2  -7  -1    5.62    0.47
   2   8   1   26.52    0.89
   2   8   1   23.86    0.77
   2  -8   1   26.60    0.57
   2  -8   1   23.78    0.56
   2  -8   1   27.06    0.72
   2   8  -3    0.27    0.30
   2  -8  -3    0.08    0.23
  -2   8   3   -0.11    0.24
  -2   8   3   -0.17    0.25
  -2  -8   3    0.58    0.35
  -2  -8   3   -0.34    0.36
  -2  -8   3   -0.36    0.32
  -2   8  -1   25.06    0.69
  -2   8  -1   28.12    0.79
  -2   8  -1   24.27    0.65
  -2  -8  -1   26.13    1.13
  -2  -8  -1   26.73    0.93
  -2  -8  -1   25.69    0.81
   2   9   1    0.92    0.44
   2   9   1    1.27    0.44
   2   9   1    1.13    0.38
   2  -9   1    0.98    0.27
   2  -9   1    1.79    0.28
   2  -9   1    1.42    0.36
   2   9  -3    6.69    0.76
   2   9  -3    3.90    0.43
   2   9  -3    5.61    0.69
   2  -9  -3    3.95    0.49
   2  -9  -3    6.72    0.53
  -2   9   3    4.95    0.55
  -2   9   3    5.01    0.56
  -2   9   3    4.46    0.41
  -2  -9   3    5.69    0.59
  -2  -9   3    4.67    0.56
  -2  -9   3    7.39    0.69
  -2   9  -1    1.52    0.33
  -2   9  -1    0.74    0.29
  -2   9  -1    2.19    0.33
  -2  -9  -1    1.57    0.44
  -2  -9  -1    1.08    0.47
  -2  -9  -1    1.22    0.39
   2  10   1    1.12    0.54
   2  10   1    3.13    0.60
   2  10   1    2.54    0.52
   2 -10   1    2.80    0.38
   2 -10   1    2.24    0.44
   2  10  -3    4.26    0.57
   2  10  -3    1.23    0.50
   2  10  -3    2.17    0.58
   2 -10  -3    1.42    0.38
  -2  10   3    6.25    0.70
  -2  10   3    2.70    0.43
  -2 -10   3    8.29    1.00
  -2 -10   3    3.36    0.59
  -2 -10   3    2.27    0.50
  -2  10  -1    2.84    0.43
  -2  10  -1    2.64    0.43
  -2  10  -1    2.49    0.42
  -2 -10  -1    2.85    0.62
  -2 -10  -1    1.95    0.59
  -2 -10  -1    1.87    0.49
   2  11   1   12.52    1.34
   2  11   1   12.94    1.19
   2  11   1    9.19    1.05
   2 -11   1   12.09    1.24
   2 -11   1    8.12    0.84
   2  11  -3    3.79    0.75
   2  11  -3    5.02    0.69
   2 -11  -3    3.66    0.51
  -2  11   3    9.28    0.83
  -2  11   3    7.12    0.88
  -2 -11   3    5.58    0.78
  -2 -11   3   -0.68    0.62
  -2 -11   3    7.36    0.75
  -2  11  -1    7.44    0.89
  -2  11  -1    8.06    0.86
  -2  11  -1   10.42    0.87
  -2 -11  -1    7.27    0.82
  -2 -11  -1    0.37    0.54
  -2 -11  -1   11.39    0.96
   2  12   1    3.76    0.79
   2  12  -3    1.03    0.78
  -2 -12   3    2.62    0.76
  -2  12  -1    4.58    0.62
  -2 -12  -1    4.86    0.75
   2   0   2   18.31    0.25
   2   0  -4  138.97    0.82
   2   0  -4  129.88    0.79
   2   0  -4  140.93    1.00
  -2   0   4  139.11    0.87
  -2   0   4  131.99    0.85
  -2   0   4  141.80    1.01
  -2   0  -2   20.29    0.30
  -2   0  -2   19.28    0.29
  -2   0  -2   19.68    0.43
   2   1   2  183.26    0.96
   2   1   2  189.12    0.98
   2   1  -4   11.23    0.30
   2   1  -4    9.86    0.28
   2   1  -4   10.82    0.33
   2  -1  -4   10.53    0.22
   2  -1  -4   10.35    0.22
   2  -1  -4   11.38    0.29
  -2   1   4   10.96    0.26
  -2   1   4   10.44    0.25
  -2   1   4   10.47    0.29
  -2  -1   4   10.91    0.30
  -2  -1   4   11.27    0.30
  -2  -1   4   11.24    0.35
  -2   1  -2  183.14    0.67
  -2   1  -2  192.61    1.28
  -2  -1  -2  193.50    1.05
  -2  -1  -2  186.17    1.04
  -2  -1  -2  177.53    1.26
   2   2   2   94.44    0.82
   2   2   2   93.53    0.82
   2   2   2   96.45    0.97
   2   2  -4    1.17    0.14
   2   2  -4    1.10    0.17
   2  -2  -4    1.32    0.11
   2  -2  -4    1.29    0.12
  -2   2   4    1.45    0.16
  -2   2   4    1.03    0.10
  -2   2   4    1.73    0.17
  -2  -2   4    1.67    0.20
  -2  -2   4    1.25    0.16
  -2  -2   4    1.60    0.19
  -2   2  -2   99.57    0.94
  -2  -2  -2   96.93    0.86
  -2  -2  -2   98.94    0.88
  -2  -2  -2   93.78    0.96
   2   3   2   32.97    0.57
   2   3   2   94.43    0.94
   2   3   2   94.70    1.00
   2  -3   2   93.50    0.93
   2   3  -4    0.03    0.11
   2   3  -4    0.13    0.12
   2   3  -4    0.26    0.14
   2  -3  -4    0.20    0.09
   2  -3  -4    0.26    0.08
  -2   3   4   -0.05    0.10
  -2   3   4    0.16    0.09
  -2   3   4    0.08    0.09
  -2   3   4    0.08    0.11
  -2  -3   4    0.47    0.13
  -2  -3   4    0.49    0.13
  -2  -3   4    0.15    0.14
  -2   3  -2   91.15    0.52
  -2   3  -2   96.91    0.94
  -2  -3  -2   97.37    0.97
  -2  -3  -2   99.30    1.00
  -2  -3  -2   93.87    1.01
   2   4   2    2.61    0.29
   2   4   2    2.29    0.28
   2  -4   2    2.72    0.25
   2   4  -4    6.27    0.34
   2   4  -4    6.28    0.38
   2   4  -4    5.58    0.35
   2  -4  -4    5.82    0.22
   2  -4  -4    6.55    0.22
  -2   4   4    6.74    0.27
  -2   4   4    5.41    0.25
  -2   4   4    6.04    0.20
  -2   4   4    6.75    0.21
  -2  -4   4    6.03    0.34
  -2  -4   4    6.15    0.36
  -2  -4   4    5.57    0.36
  -2   4  -2    2.67    0.21
  -2   4  -2    2.49    0.18
  -2   4  -2    2.53    0.26
  -2  -4  -2    2.26    0.28
  -2  -4  -2    5.73    0.37
  -2  -4  -2    2.05    0.23
   2   5   2   21.76    0.61
   2   5   2   21.36    0.59
   2   5   2   19.39    0.55
   2  -5   2   21.13    0.54
   2   5  -4    0.18    0.17
   2   5  -4    0.45    0.20
   2   5  -4    0.18    0.17
   2  -5  -4    0.50    0.13
   2  -5  -4    0.31    0.13
  -2   5   4    0.16    0.14
  -2   5   4   -0.13    0.13
  -2  -5   4    0.29    0.19
  -2  -5   4    0.54    0.22
  -2  -5   4    0.43    0.20
  -2   5  -2   20.69    0.42
  -2   5  -2   19.72    0.41
  -2   5  -2   21.96    0.52
  -2  -5  -2   22.56    0.62
  -2  -5  -2   22.01    0.63
  -2  -5  -2   19.18    0.58
   2   6   2   35.47    0.83
   2   6   2   35.09    0.82
   2   6   2   31.20    0.72
   2  -6   2   36.50    0.46
   2  -6   2   30.72    0.44
   2  -6   2   34.79    0.69
   2   6  -4   22.98    0.69
   2   6  -4   20.94    0.69
   2   6  -4   21.47    0.64
   2  -6  -4   23.47    0.47
   2  -6  -4   22.36    0.47
  -2   6   4   24.18    0.54
  -2   6   4   23.11    0.53
  -2  -6   4   25.52    0.70
  -2  -6   4   22.30    0.70
  -2  -6   4   23.51    0.69
  -2   6  -2   35.31    0.61
  -2   6  -2   34.31    0.58
  -2   6  -2   32.59    0.66
  -2  -6  -2   35.40    0.84
  -2  -6  -2   35.41    0.84
  -2  -6  -2   33.68    0.75
   2   7   2    0.63    0.29
   2   7   2    0.02    0.31
   2   7   2    0.27    0.26
   2  -7   2    0.54    0.16
   2  -7   2   -0.10    0.18
   2  -7   2    0.60    0.26
   2   7  -4    0.01    0.27
   2   7  -4   -0.29    0.28
   2   7  -4   -0.54    0.28
   2  -7  -4   -0.28    0.16
   2  -7  -4   -0.35    0.21
  -2   7   4    0.03    0.21
  -2  -7   4   -0.34    0.23
  -2  -7   4   -0.09    0.26
  -2  -7   4    0.04    0.28
  -2   7  -2   -0.29    0.19
  -2   7  -2   -0.11    0.20
  -2   7  -2    0.38    0.24
  -2  -7  -2    0.44    0.33
  -2  -7  -2    0.91    0.30
  -2  -7  -2    0.50    0.29
   2   8   2   19.24    0.83
   2   8   2   17.20    0.79
   2   8   2   16.60    0.69
   2  -8   2   17.90    0.49
   2  -8   2   15.99    0.49
   2  -8   2   19.18    0.69
   2   8  -4   23.71    0.87
   2   8  -4   24.25    0.79
   2  -8  -4   23.74    0.61
   2  -8  -4   24.96    0.63
  -2   8   4   25.41    0.78
  -2   8   4   24.28    0.71
  -2  -8   4   26.74    0.92
  -2  -8   4   24.45    0.89
  -2  -8   4   25.25    0.86
  -2   8  -2   17.74    0.63
  -2   8  -2   18.87    0.89
  -2   8  -2   17.25    0.61
  -2  -8  -2   18.85    1.01
  -2  -8  -2   15.61    0.82
  -2  -8  -2   16.00    0.73
   2   9   2    8.29    0.76
   2   9   2   11.24    0.89
   2   9   2    8.10    0.66
   2  -9   2    8.02    0.48
   2  -9   2    7.92    0.52
   2  -9   2    9.35    0.65
   2   9  -4    0.44    0.41
   2   9  -4    0.85    0.39
   2   9  -4    1.28    0.42
   2  -9  -4    1.70    0.30
   2  -9  -4    1.16    0.32
  -2   9   4    1.23    0.30
  -2   9   4    1.98    0.39
  -2  -9   4    1.91    0.53
  -2  -9   4    1.70    0.45
  -2  -9   4    1.65    0.39
  -2   9  -2    8.82    0.62
  -2   9  -2    9.04    0.61
  -2   9  -2    8.61    0.61
  -2  -9  -2    6.86    0.62
  -2  -9  -2   10.29    0.84
  -2  -9  -2    7.66    0.66
   2  10   2    0.86    0.54
   2  10   2   -0.24    0.46
   2 -10   2    0.94    0.35
   2 -10   2    1.17    0.44
   2  10  -4    1.50    0.52
   2  10  -4    0.19    0.45
   2  10  -4   -0.20    0.50
   2 -10  -4    2.83    0.42
  -2  10   4    0.52    0.36
  -2  10   4    3.59    0.65
  -2 -10   4    2.42    0.56
  -2 -10   4    2.07    0.55
  -2 -10   4    1.23    0.48
  -2  10  -2    0.50    0.39
  -2  10  -2    0.43    0.35
  -2  10  -2    0.48    0.37
  -2 -10  -2    0.17    0.56
  -2 -10  -2    0.46    0.43
  -2 -10  -2    1.02    0.49
   2  11   2    4.83    0.80
   2  11   2    1.98    0.71
   2  11   2    2.53    0.75
   2 -11   2    2.16    0.46
   2 -11   2    3.04    0.55
   2  11  -4    1.14    0.68
   2  11  -4   -1.00    0.55
   2 -11  -4    0.05    0.48
  -2  11   4   -0.53    0.44
  -2 -11   4    0.88    0.63
  -2 -11   4   -0.89    0.53
  -2  11  -2    2.35    0.51
  -2  11  -2    0.88    0.44
  -2  11  -2    2.64    0.55
  -2 -11  -2    2.04    0.72
  -2 -11  -2   -1.26    0.54
  -2 -11  -2    3.56    0.59
   2  12   2    1.66    0.74
   2 -12   2   -0.05    0.59
   2  12  -4    0.49    0.75
  -2  12   4    0.10    0.56
  -2 -12   4   -1.13    0.76
  -2 -12  -2   -1.74    0.61
   2   0   3    0.19    0.07
   2   0   3   -0.02    0.07
   2   0  -5    0.16    0.08
   2   0  -5   -0.07    0.09
  -2   0   5    0.16    0.10
  -2   0   5    0.20    0.09
  -2   0   5    0.21    0.10
  -2   0  -3    0.13    0.08
  -2   0  -3   -0.03    0.07
  -2   0  -3   -0.33    0.12
   2   1   3   46.83    0.52
   2   1   3   44.81    0.51
   2   1  -5   69.96    0.71
   2   1  -5   64.75    0.69
   2   1  -5   69.83    0.78
   2  -1  -5   69.90    0.59
   2  -1  -5   66.00    0.57
   2  -1  -5   73.80    0.68
  -2   1   5   70.73    0.64
  -2   1   5   59.61    0.70
  -2   1   5   70.68    0.67
  -2  -1   5   70.88    0.74
  -2  -1   5   68.37    0.72
  -2  -1   5   68.98    0.78
  -2   1  -3   48.59    0.41
  -2   1  -3   44.26    0.40
  -2   1  -3   47.70    0.68
  -2  -1  -3   49.62    0.57
  -2  -1  -3   47.60    0.56
   2   2   3   62.47    0.69
   2   2   3   61.67    0.69
   2   2  -5    1.60    0.17
   2   2  -5    0.40    0.14
   2   2  -5    1.82    0.19
   2  -2  -5    1.78    0.15
   2  -2  -5    1.66    0.15
   2  -2  -5    1.76    0.16
  -2   2   5    1.83    0.19
  -2   2   5    1.52    0.17
  -2   2   5    1.78    0.16
  -2  -2   5    1.69    0.21
  -2  -2   5    1.84    0.21
  -2  -2   5    2.06    0.24
  -2   2  -3   58.25    0.42
  -2   2  -3   57.13    0.42
  -2   2  -3   63.10    0.78
  -2  -2  -3   64.57    0.73
  -2  -2  -3   63.70    0.73
  -2  -2  -3   60.56    0.79
   2   3   3    3.76    0.27
   2   3   3   10.07    0.36
   2   3   3    9.91    0.38
   2  -3   3    9.14    0.37
   2   3  -5  135.82    1.18
   2   3  -5  130.67    1.16
   2   3  -5  132.85    1.23
   2  -3  -5  128.24    0.80
   2  -3  -5  138.18    0.82
  -2   3   5  144.45    0.96
  -2   3   5  128.44    0.90
  -2   3   5  135.88    0.76
  -2   3   5  139.19    0.76
  -2  -3   5  134.45    1.20
  -2  -3   5  133.54    1.19
  -2  -3   5  131.22    1.24
  -2   3  -3    8.74    0.21
  -2   3  -3    8.43    0.21
  -2   3  -3    9.94    0.37
  -2  -3  -3    9.89    0.36
  -2  -3  -3    9.38    0.38
  -2  -3  -3    9.86    0.38
   2   4   3  112.76    1.15
   2   4   3  108.68    1.13
   2  -4   3  112.00    1.11
   2   4  -5    1.73    0.23
   2   4  -5    1.54    0.25
   2  -4  -5    1.60    0.19
   2  -4  -5    1.91    0.19
  -2   4   5    2.24    0.22
  -2   4   5    1.60    0.17
  -2  -4   5    1.88    0.24
  -2  -4   5    1.58    0.22
  -2   4  -3  106.63    0.75
  -2   4  -3  101.70    0.74
  -2   4  -3  111.20    1.10
  -2  -4  -3  119.17    1.20
  -2  -4  -3  118.78    1.21
  -2  -4  -3  107.53    1.14
   2   5   3   90.11    1.13
   2   5   3   90.80    1.14
   2   5   3   83.15    1.07
   2  -5   3   89.63    1.05
   2   5  -5   34.76    0.75
   2   5  -5   33.29    0.74
   2   5  -5   34.18    0.74
   2  -5  -5   34.11    0.52
   2  -5  -5   36.20    0.53
  -2   5   5   39.34    0.63
  -2   5   5   31.90    0.57
  -2  -5   5   35.66    0.75
  -2  -5   5   36.14    0.78
  -2  -5   5   34.42    0.76
  -2   5  -3   88.03    0.81
  -2   5  -3   82.69    0.78
  -2   5  -3   89.35    1.02
  -2  -5  -3   96.72    1.19
  -2  -5  -3   93.20    1.18
  -2  -5  -3   84.32    1.07
   2   6   3   13.78    0.60
   2   6   3   12.14    0.62
   2   6   3   12.07    0.53
   2  -6   3   12.98    0.32
   2  -6   3   11.46    0.33
   2  -6   3   12.97    0.52
   2   6  -5   17.15    0.64
   2   6  -5   18.26    0.67
   2   6  -5   16.78    0.60
   2  -6  -5   19.12    0.47
   2  -6  -5   18.72    0.47
  -2   6   5   21.22    0.57
  -2   6   5   18.52    0.51
  -2  -6   5   19.83    0.63
  -2  -6   5   18.11    0.65
  -2  -6   5   19.48    0.67
  -2   6  -3   11.70    0.42
  -2   6  -3   11.53    0.39
  -2   6  -3   11.65    0.47
  -2  -6  -3   13.70    0.58
  -2  -6  -3   12.47    0.61
  -2  -6  -3   12.14    0.56
   2   7   3   50.49    1.06
   2   7   3   40.38    1.52
   2   7   3   45.77    0.90
   2  -7   3   51.12    0.64
   2  -7   3   43.43    0.62
   2  -7   3   50.15    0.91
   2   7  -5    2.20    0.31
   2   7  -5    2.25    0.37
   2   7  -5    2.84    0.35
   2  -7  -5    2.91    0.35
   2  -7  -5    2.93    0.27
  -2   7   5    2.64    0.30
  -2   7   5    2.77    0.28
  -2  -7   5    2.00    0.30
  -2  -7   5    1.91    0.32
  -2  -7   5    2.56    0.38
  -2   7  -3   48.07    0.80
  -2   7  -3   45.36    0.76
  -2   7  -3   47.25    0.85
  -2  -7  -3   51.58    1.08
  -2  -7  -3   50.94    1.06
  -2  -7  -3   43.78    0.90
   2   8   3   30.84    0.97
   2   8   3   31.37    1.04
   2   8   3   28.30    0.82
   2  -8   3   31.27    0.59
   2  -8   3   25.94    0.58
   2  -8   3   31.95    0.83
   2   8  -5    8.52    0.93
   2   8  -5   10.31    0.73
   2   8  -5   10.03    0.64
   2  -8  -5    8.48    0.47
   2  -8  -5    7.74    0.52
  -2   8   5    7.20    0.89
  -2   8   5    6.76    0.60
  -2  -8   5    9.37    0.71
  -2  -8   5    9.71    0.73
  -2  -8   5    9.27    0.65
  -2   8  -3   30.24    0.75
  -2   8  -3   24.97    0.76
  -2  -8  -3   32.78    1.61
  -2  -8  -3   33.33    1.01
  -2  -8  -3   28.81    0.85
   2   9   3    1.66    0.45
   2   9   3    2.49    0.49
   2   9   3    1.96    0.41
   2  -9   3    3.48    0.40
   2  -9   3    1.23    0.29
   2  -9   3    2.18    0.42
   2   9  -5   15.52    0.86
   2   9  -5   15.50    0.90
   2   9  -5   13.57    0.84
   2  -9  -5   14.64    0.60
   2  -9  -5   17.56    0.68
  -2   9   5   17.74    0.75
  -2  -9   5   17.80    0.91
  -2  -9   5   17.44    0.89
  -2   9  -3    1.98    0.37
  -2   9  -3    0.11    0.27
  -2   9  -3    1.84    0.36
  -2  -9  -3    0.98    0.45
  -2  -9  -3    2.32    0.51
  -2  -9  -3    0.89    0.38
   2  10   3    0.80    0.49
   2  10   3    2.45    0.65
   2  10   3    0.72    0.47
   2 -10   3    0.76    0.36
   2 -10   3    0.32    0.40
   2  10  -5   -0.27    0.49
   2  10  -5    0.16    0.47
   2  10  -5    1.67    0.49
   2 -10  -5    0.75    0.40
  -2  10   5   -0.15    0.38
  -2 -10   5    3.21    0.56
  -2 -10   5    0.45    0.54
  -2 -10   5    0.88    0.52
  -2  10  -3    0.74    0.39
  -2  10  -3   -0.78    0.34
  -2  10  -3    0.18    0.42
  -2 -10  -3    0.33    0.49
  -2 -10  -3    1.56    0.50
  -2 -10  -3    2.34    0.50
   2  11   3    1.55    0.78
   2  11   3    0.09    0.80
   2 -11   3   -0.05    0.44
   2 -11   3    1.39    0.57
   2  11  -5    2.28    0.61
   2  11  -5    0.93    0.63
   2 -11  -5    2.56    0.62
  -2  11   5    1.97    0.52
  -2  11   5    2.19    0.69
  -2 -11   5    3.02    0.79
  -2 -11   5    0.27    0.59
  -2 -11   5    2.15    0.66
  -2  11  -3    0.50    0.54
  -2  11  -3   -0.13    0.47
  -2  11  -3    1.24    0.56
  -2 -11  -3   -0.45    0.70
  -2 -11  -3   -0.33    0.55
  -2 -11  -3    1.54    0.70
   2  12   3    0.04    0.81
   2  12   3    1.35    1.05
   2  12  -5    1.64    0.78
  -2  12   5    1.56    0.60
  -2 -12   5    0.13    0.70
  -2  12  -3   -0.25    0.57
  -2 -12  -3   -0.81    0.65
   2   0   4    4.79    0.18
   2   0   4    4.33    0.18
   2   0  -6  247.06    1.28
   2   0  -6  234.41    1.25
   2   0  -6  245.44    1.36
  -2   0   6  242.08    1.33
  -2   0   6  233.44    1.29
  -2   0   6  245.88    1.37
  -2   0  -4    6.39    0.29
  -2   0  -4    4.32    0.20
  -2   0  -4    4.98    0.28
   2   1   4   10.59    0.28
   2   1   4    8.58    0.27
   2  -1   4   10.44    0.19
   2  -1   4    9.52    0.18
   2   1  -6  375.15    1.70
   2   1  -6  376.34    1.82
   2  -1  -6  366.78    1.47
   2  -1  -6  362.92    1.46
   2  -1  -6  385.74    1.55
  -2   1   6  366.27    1.57
  -2   1   6  357.53    1.54
  -2   1   6  374.29    1.53
  -2  -1   6  367.50    1.74
  -2  -1   6  355.09    1.70
  -2  -1   6  374.94    1.83
  -2   1  -4   10.45    0.25
  -2   1  -4    9.75    0.24
  -2   1  -4   10.50    0.38
  -2  -1  -4   10.49    0.31
  -2  -1  -4    9.45    0.29
  -2  -1  -4    9.60    0.35
   2   2   4  161.14    1.15
   2   2   4  151.04    1.11
   2   2  -6    1.64    0.18
   2   2  -6    1.67    0.19
   2   2  -6    1.70    0.20
   2  -2  -6    1.95    0.17
   2  -2  -6    1.90    0.18
   2  -2  -6    1.93    0.16
  -2   2   6    2.23    0.21
  -2   2   6    1.81    0.21
  -2   2   6    1.53    0.16
  -2  -2   6    1.60    0.18
  -2  -2   6    1.33    0.16
  -2  -2   6    1.99    0.24
  -2   2  -4  154.53    0.79
  -2   2  -4  146.75    0.77
  -2   2  -4  164.90    1.29
  -2  -2  -4  167.22    1.20
  -2  -2  -4  161.79    1.19
  -2  -2  -4  154.12    1.27
   2   3   4  124.16    1.11
   2   3   4  190.63    1.38
   2  -3   4  194.48    1.47
   2   3  -6   52.14    0.77
   2   3  -6   50.22    0.79
   2  -3  -6   48.80    0.55
   2  -3  -6   52.99    0.58
  -2   3   6   56.13    0.66
  -2   3   6   52.11    0.71
  -2  -3   6   51.71    0.78
  -2  -3   6   50.16    0.77
  -2  -3   6   51.01    0.80
  -2   3  -4  180.87    0.91
  -2   3  -4  173.13    0.91
  -2   3  -4  200.16    1.47
  -2  -3  -4  201.51    1.45
  -2  -3  -4  201.75    1.46
  -2  -3  -4  191.64    1.46
   2   4   4   65.65    0.91
   2   4   4   62.45    0.87
   2  -4   4   64.96    0.90
   2   4  -6   18.04    0.53
   2   4  -6   16.83    0.53
   2   4  -6   18.21    0.57
   2  -4  -6   16.91    0.41
   2  -4  -6   18.13    0.39
  -2   4   6   19.09    0.45
  -2   4   6   15.13    0.49
  -2  -4   6   16.83    0.52
  -2  -4   6   18.32    0.53
  -2   4  -4   61.90    0.62
  -2   4  -4   58.66    0.61
  -2   4  -4   65.44    0.89
  -2  -4  -4   69.24    0.95
  -2  -4  -4   67.52    0.96
  -2  -4  -4   62.42    0.90
   2   5   4    4.01    0.39
   2   5   4    0.18    0.20
   2   5   4    0.10    0.23
   2  -5   4    0.68    0.12
   2  -5   4   -0.06    0.10
   2  -5   4    0.17    0.19
   2   5  -6   27.05    0.68
   2   5  -6   25.70    0.68
   2   5  -6   26.18    0.68
   2  -5  -6   26.42    0.50
   2  -5  -6   27.44    0.51
  -2   5   6   31.47    0.60
  -2   5   6   23.47    0.64
  -2  -5   6   27.65    0.68
  -2  -5   6   27.19    0.71
  -2  -5   6   27.28    0.71
  -2   5  -4   -0.35    0.14
  -2   5  -4   -0.21    0.12
  -2   5  -4    0.56    0.19
  -2  -5  -4   -0.20    0.19
  -2  -5  -4    0.31    0.23
  -2  -5  -4   -0.28    0.22
   2   6   4   88.33    1.24
   2   6   4   86.04    1.23
   2   6   4   83.78    1.12
   2  -6   4   92.72    0.76
   2  -6   4   78.27    0.70
   2  -6   4   89.42    1.16
   2   6  -6   55.43    1.02
   2   6  -6   54.94    1.01
   2   6  -6   53.41    0.99
   2  -6  -6   53.27    0.74
   2  -6  -6   57.87    0.77
  -2   6   6   65.26    0.92
  -2  -6   6   58.06    1.03
  -2  -6   6   53.70    1.00
  -2  -6   6   55.38    1.03
  -2   6  -4   86.53    0.94
  -2   6  -4   82.30    0.91
  -2   6  -4   78.84    1.10
  -2  -6  -4   92.53    1.28
  -2  -6  -4   87.42    1.27
  -2  -6  -4   81.47    1.13
   2   7   4   27.45    0.82
   2   7   4   24.35    0.83
   2   7   4   25.58    0.71
   2  -7   4   28.42    0.51
   2  -7   4   24.47    0.51
   2  -7   4   27.56    0.75
   2   7  -6    3.55    0.42
   2   7  -6    3.33    0.40
   2   7  -6    4.00    0.50
   2  -7  -6    4.47    0.38
   2  -7  -6    4.25    0.39
  -2   7   6    6.11    0.43
  -2  -7   6    4.16    0.41
  -2  -7   6    4.33    0.44
  -2  -7   6    4.63    0.51
  -2   7  -4   27.45    0.65
  -2   7  -4   25.40    0.62
  -2   7  -4   25.63    0.71
  -2  -7  -4   28.82    0.85
  -2  -7  -4   28.73    0.89
  -2  -7  -4   24.15    0.72
   2   8   4   19.23    0.86
   2   8   4   17.33    0.83
   2   8   4   16.47    0.72
   2  -8   4   18.80    0.50
   2  -8   4   15.42    0.52
   2  -8   4   19.96    0.74
   2   8  -6   12.98    1.05
   2   8  -6   12.19    0.75
   2   8  -6   10.99    0.71
   2  -8  -6   13.23    0.55
   2  -8  -6   12.93    0.56
  -2  -8   6   12.82    0.76
  -2  -8   6   11.14    0.69
  -2  -8   6   11.86    0.73
  -2   8  -4   17.94    0.64
  -2   8  -4   16.12    0.62
  -2   8  -4   19.00    0.70
  -2  -8  -4   20.10    0.89
  -2  -8  -4   18.21    0.72
   2   9   4    3.53    0.51
   2   9   4    2.27    0.50
   2   9   4    1.93    0.44
   2  -9   4    3.28    0.33
   2  -9   4    2.23    0.33
   2  -9   4    3.51    0.47
   2   9  -6    4.55    0.54
   2   9  -6    7.65    0.84
   2   9  -6    5.36    0.62
   2  -9  -6    4.82    0.50
   2  -9  -6    3.96    0.42
  -2   9   6    4.78    0.56
  -2   9   6    4.49    0.55
  -2  -9   6    4.34    0.52
  -2  -9   6    3.54    0.51
  -2  -9   6    5.39    0.56
  -2   9  -4    2.02    0.36
  -2   9  -4    2.14    0.37
  -2   9  -4    1.78    0.38
  -2  -9  -4    2.18    0.46
  -2  -9  -4    2.37    0.46
  -2  -9  -4    1.68    0.41
   2  10   4    1.36    0.51
   2  10   4    0.78    0.55
   2  10   4    0.60    0.47
   2 -10   4    1.68    0.44
   2 -10   4    1.60    0.50
   2  10  -6    9.24    1.13
   2  10  -6    9.38    0.99
   2 -10  -6    8.26    0.74
  -2  10   6    8.45    0.75
  -2  10   6    6.80    0.74
  -2 -10   6   10.21    1.04
  -2 -10   6    5.97    0.64
  -2 -10   6    7.26    0.70
  -2  10  -4    0.43    0.40
  -2  10  -4    0.36    0.38
  -2  10  -4   -0.02    0.47
  -2 -10  -4    0.27    0.44
  -2 -10  -4   -0.67    0.43
  -2 -10  -4    0.48    0.42
   2  11   4    0.78    0.59
   2  11   4    0.44    0.74
   2  11   4    0.51    0.61
   2 -11   4    2.14    0.44
   2 -11   4    0.53    0.57
   2  11  -6    2.30    0.68
   2  11  -6    0.88    0.93
  -2  11   6    0.84    0.49
  -2  11   6    0.58    0.76
  -2 -11   6   -0.42    0.72
  -2 -11   6   -0.98    0.65
  -2 -11   6    0.59    0.63
  -2  11  -4    0.17    0.55
  -2  11  -4   -0.73    0.46
  -2  11  -4    0.52    0.59
  -2 -11  -4   -0.18    0.65
  -2 -11  -4    2.16    0.70
   2  12   4    0.51    0.83
   2 -12   4    1.68    0.69
  -2  12   6    1.29    0.64
  -2 -12   6    0.26    0.70
  -2  12  -4    1.11    0.62
  -2 -12  -4   -0.01    0.70
   2   0   5    0.14    0.09
   2   0   5    0.05    0.10
   2   0  -7    0.01    0.10
   2   0  -7    0.02    0.12
   2   0  -7    0.31    0.12
  -2   0   7   -0.22    0.13
  -2   0   7   -0.06    0.11
  -2   0   7    0.15    0.13
  -2   0  -5   -0.07    0.09
  -2   0  -5    0.45    0.15
   2   1   5   42.92    0.56
   2   1   5   37.65    0.53
   2  -1   5   44.30    0.43
   2  -1   5   37.86    0.40
   2   1  -7  356.90    1.75
   2   1  -7  382.50    1.88
   2  -1  -7  368.75    1.61
   2  -1  -7  361.81    1.59
   2  -1  -7  377.60    1.56
  -2   1   7  368.92    1.70
  -2   1   7  350.50    1.64
  -2   1   7  368.09    1.55
  -2  -1   7  372.17    1.84
  -2  -1   7  363.53    1.81
  -2  -1   7  373.32    1.87
  -2   1  -5   42.56    0.50
  -2   1  -5   38.45    0.47
  -2   1  -5   42.77    0.70
  -2  -1  -5   43.46    0.59
  -2  -1  -5   41.69    0.58
  -2  -1  -5   41.49    0.69
   2   2   5    4.81    0.34
   2   2   5    4.04    0.28
   2  -2   5    5.18    0.16
   2  -2   5    5.25    0.34
   2   2  -7   10.42    0.36
   2   2  -7    8.98    0.38
   2   2  -7    8.94    0.37
   2  -2  -7    9.25    0.30
   2  -2  -7    9.62    0.30
   2  -2  -7   10.14    0.26
  -2   2   7    9.57    0.33
  -2   2   7    9.55    0.32
  -2   2   7    9.75    0.27
  -2  -2   7    9.29    0.37
  -2  -2   7    9.42    0.37
  -2   2  -5    4.68    0.23
  -2   2  -5    4.50    0.21
  -2   2  -5    6.30    0.34
  -2  -2  -5    5.79    0.29
  -2  -2  -5    5.44    0.30
  -2  -2  -5    4.77    0.30
   2   3   5  531.81    2.35
   2   3   5  546.35    2.38
   2  -3   5  568.08    2.58
   2   3  -7  172.08    1.40
   2   3  -7  160.34    1.43
   2   3  -7  168.69    1.44
   2  -3  -7  165.05    1.09
   2  -3  -7  171.60    1.11
  -2   3   7  187.87    1.27
  -2   3   7  158.40    1.16
  -2  -3   7  166.86    1.41
  -2  -3   7  167.10    1.41
  -2  -3   7  168.48    1.46
  -2   3  -5  496.61    1.65
  -2   3  -5  483.72    1.65
  -2   3  -5  586.28    2.60
  -2  -3  -5  580.92    2.51
  -2  -3  -5  547.45    2.46
  -2  -3  -5  539.14    2.47
   2   4   5  377.19    2.17
   2  -4   5  400.59    2.25
   2   4  -7   12.97    0.48
   2   4  -7   12.67    0.49
   2   4  -7   12.05    0.48
   2  -4  -7   13.15    0.40
   2  -4  -7   13.99    0.38
  -2   4   7   15.65    0.45
  -2   4   7   12.21    0.42
  -2  -4   7   12.80    0.49
  -2  -4   7   13.34    0.50
  -2  -4   7   14.21    0.53
  -2   4  -5  367.65    1.56
  -2   4  -5  344.16    1.52
  -2   4  -5  404.81    2.24
  -2  -4  -5  417.33    2.31
  -2  -4  -5  403.24    2.29
  -2  -4  -5  381.03    2.14
   2   5   5    0.23    0.18
   2   5   5   -0.30    0.21
   2  -5   5    0.55    0.12
   2  -5   5    0.10    0.13
   2  -5   5    0.23    0.22
   2   5  -7   21.73    0.63
   2   5  -7   21.79    0.65
   2   5  -7   21.15    0.64
   2  -5  -7   22.10    0.50
   2  -5  -7   22.98    0.50
  -2   5   7   24.02    0.57
  -2   5   7   19.98    0.66
  -2  -5   7   22.30    0.66
  -2  -5   7   21.99    0.65
  -2  -5   7   21.30    0.66
  -2   5  -5   -0.21    0.14
  -2   5  -5   -0.09    0.14
  -2   5  -5   -0.53    0.20
  -2  -5  -5    0.10    0.22
  -2  -5  -5    0.36    0.23
  -2  -5  -5    0.49    0.23
   2   6   5  130.44    1.51
   2   6   5  119.12    1.31
   2  -6   5  127.83    0.91
   2  -6   5  110.52    0.86
   2  -6   5  122.38    1.39
   2   6  -7   79.36    1.20
   2   6  -7   77.37    1.20
   2   6  -7   77.18    1.20
   2  -6  -7   78.00    0.92
   2  -6  -7   78.80    0.93
  -2   6   7   93.09    1.13
  -2   6   7   76.20    1.08
  -2  -6   7   82.82    1.23
  -2  -6   7   75.28    1.17
  -2  -6   7   77.26    1.22
  -2   6  -5  120.99    1.12
  -2   6  -5  113.99    1.09
  -2   6  -5  116.39    1.32
  -2  -6  -5  128.67    1.52
  -2  -6  -5  126.13    1.51
  -2  -6  -5  119.19    1.33
   2   7   5    4.91    0.56
   2   7   5    5.62    0.59
   2   7   5    5.60    0.49
   2  -7   5    5.63    0.33
   2  -7   5    4.28    0.37
   2  -7   5    5.70    0.53
   2   7  -7    5.19    0.56
   2   7  -7    5.49    0.59
   2   7  -7    5.05    0.53
   2  -7  -7    5.29    0.41
   2  -7  -7    5.56    0.44
  -2   7   7    6.73    0.54
  -2   7   7    5.64    0.44
  -2  -7   7    5.23    0.56
  -2  -7   7    4.94    0.56
  -2  -7   7    6.84    0.55
  -2   7  -5    4.29    0.42
  -2   7  -5    3.69    0.41
  -2   7  -5    4.80    0.52
  -2  -7  -5    4.46    0.44
  -2  -7  -5    5.54    0.54
  -2  -7  -5    5.16    0.51
   2   8   5   16.65    0.78
   2   8   5   15.61    0.83
   2   8   5   14.96    0.71
   2  -8   5   16.58    0.51
   2  -8   5   15.24    0.53
   2  -8   5   17.86    0.74
   2   8  -7    5.73    0.66
   2   8  -7    5.74    0.65
   2   8  -7    4.76    0.50
   2  -8  -7    5.93    0.50
   2  -8  -7    6.90    0.53
  -2   8   7    5.65    0.52
  -2   8   7    6.85    0.54
  -2  -8   7    6.75    0.65
  -2  -8   7    5.73    0.68
  -2  -8   7    6.22    0.66
  -2   8  -5   17.43    0.65
  -2   8  -5   13.80    0.60
  -2   8  -5   15.47    0.72
  -2  -8  -5   13.67    1.25
  -2  -8  -5   18.17    0.86
  -2  -8  -5   16.01    0.70
   2   9   5   13.48    0.94
   2   9   5   13.73    0.94
   2   9   5    9.89    0.76
   2  -9   5   10.56    0.51
   2  -9   5    8.40    0.57
   2  -9   5   12.19    0.78
   2   9  -7    2.94    0.49
   2   9  -7    1.52    0.52
   2   9  -7    1.56    0.49
   2  -9  -7    1.33    0.32
   2  -9  -7    1.76    0.37
  -2   9   7    1.68    0.43
  -2   9   7    1.74    0.37
  -2  -9   7    1.41    0.43
  -2  -9   7    2.07    0.41
  -2  -9   7    2.61    0.49
  -2   9  -5   10.25    0.69
  -2   9  -5    8.53    0.67
  -2   9  -5    9.05    0.74
  -2  -9  -5    9.07    0.84
  -2  -9  -5    9.18    0.86
  -2  -9  -5   10.21    0.75
   2  10   5    3.02    0.59
   2  10   5    3.64    0.64
   2  10   5    2.31    0.56
   2 -10   5    3.37    0.54
   2  10  -7    5.42    0.73
   2 -10  -7    3.78    0.54
  -2  10   7    3.56    0.47
  -2  10   7    4.54    0.50
  -2 -10   7    6.23    0.65
  -2 -10   7    4.43    0.60
  -2 -10   7    6.03    0.71
  -2  10  -5    3.39    0.51
  -2  10  -5    1.75    0.41
  -2  10  -5    3.86    0.56
  -2 -10  -5    1.29    0.51
  -2 -10  -5    3.24    0.66
  -2 -10  -5    2.99    0.48
   2  11   5    1.71    0.70
   2  11   5   -1.77    0.74
   2  11   5    0.47    0.60
   2 -11   5    0.41    0.48
   2 -11   5    0.25    0.59
   2  11  -7   15.85    1.31
   2  11  -7   15.24    1.51
  -2  11   7   16.90    1.06
  -2 -11   7   19.55    1.54
  -2 -11   7    2.30    0.70
  -2 -11   7   15.27    1.25
  -2  11  -5    0.41    0.65
  -2  11  -5   -0.96    0.48
  -2  11  -5   -0.01    0.61
  -2 -11  -5    1.92    0.65
  -2 -11  -5   -1.77    0.83
   2 -12   5   -0.15    0.75
   2  12  -7    1.00    0.81
  -2 -12   7    1.62    0.79
  -2  12  -5    0.36    0.62
  -2 -12  -5    1.87    0.66
   2   0   6   72.64    0.69
   2   0   6   62.39    0.64
   2   0  -8  100.97    0.94
   2   0  -8  102.02    0.93
  -2   0   8  103.16    0.99
  -2   0   8   97.99    0.96
  -2   0   8  105.32    0.96
  -2   0  -6   70.57    0.74
  -2   0  -6   67.52    0.72
  -2   0  -6   74.09    0.93
   2   1   6  243.18    1.37
   2   1   6  219.43    1.30
   2  -1   6  245.15    1.11
   2  -1   6  209.47    1.03
   2  -1   6  235.25    1.66
   2   1  -8    1.26    0.17
   2   1  -8    0.46    0.16
   2   1  -8    1.38    0.19
   2  -1  -8    0.80    0.14
   2  -1  -8    0.94    0.15
   2  -1  -8    1.54    0.19
  -2   1   8    1.19    0.19
  -2   1   8    0.94    0.15
  -2   1   8    0.93    0.16
  -2  -1   8    1.16    0.18
  -2  -1   8    0.82    0.14
  -2  -1   8    1.06    0.18
  -2   1  -6  226.34    1.21
  -2   1  -6  219.91    1.20
  -2   1  -6  237.62    1.65
  -2  -1  -6  244.96    1.44
  -2  -1  -6  228.38    1.40
  -2  -1  -6  241.25    1.64
   2   2   6    0.31    0.16
   2   2   6   -0.02    0.14
   2  -2   6    0.27    0.10
   2  -2   6    0.13    0.09
   2  -2   6    0.05    0.16
   2   2  -8  219.99    1.53
   2   2  -8  213.18    1.52
   2   2  -8  220.20    1.58
   2  -2  -8  218.77    1.32
   2  -2  -8  218.16    1.32
   2  -2  -8  221.71    1.09
  -2   2   8  238.54    1.47
  -2   2   8  207.87    1.36
  -2   2   8  224.03    1.11
  -2  -2   8  221.85    1.58
  -2  -2   8  214.54    1.54
  -2  -2   8  222.70    1.61
  -2   2  -6    0.18    0.12
  -2   2  -6    0.21    0.12
  -2   2  -6    0.38    0.17
  -2  -2  -6    0.01    0.14
  -2  -2  -6    0.15    0.13
  -2  -2  -6    0.36    0.17
  -2  -2  -6   -0.07    0.16
   2   3   6   31.26    0.66
   2   3   6   29.44    0.63
   2  -3   6   31.40    0.38
   2  -3   6   30.05    0.37
   2  -3   6   32.08    0.70
   2   3  -8  269.52    1.81
   2  -3  -8  264.15    1.50
   2  -3  -8  288.57    1.54
  -2   3   8  312.29    1.73
  -2   3   8  269.15    1.59
  -2  -3   8  286.47    1.89
  -2  -3   8  280.93    1.87
  -2  -3   8  283.15    1.93
  -2   3  -6   28.37    0.47
  -2   3  -6   28.27    0.47
  -2   3  -6   31.88    0.67
  -2  -3  -6   32.63    0.66
  -2  -3  -6   30.95    0.65
  -2  -3  -6   30.61    0.64
   2   4   6   85.65    1.08
   2  -4   6   85.27    0.80
   2  -4   6   91.71    0.66
   2  -4   6   92.29    1.17
   2   4  -8   28.74    0.67
   2   4  -8   26.91    0.67
   2   4  -8   27.31    0.67
   2  -4  -8   27.86    0.54
   2  -4  -8   30.34    0.56
  -2   4   8   33.22    0.63
  -2   4   8   26.73    0.57
  -2  -4   8   28.39    0.68
  -2  -4   8   27.14    0.67
  -2  -4   8   27.74    0.69
  -2   4  -6   84.86    0.81
  -2   4  -6   81.57    0.82
  -2   4  -6   87.15    1.27
  -2  -4  -6   96.93    1.16
  -2  -4  -6   89.71    1.08
   2   5   6    1.56    0.29
   2   5   6    1.00    0.21
   2  -5   6    1.02    0.14
   2  -5   6    0.98    0.15
   2  -5   6    1.26    0.25
   2   5  -8   12.06    0.54
   2   5  -8   11.14    0.55
   2   5  -8   11.64    0.52
   2  -5  -8   11.85    0.43
   2  -5  -8   11.52    0.41
  -2   5   8   14.29    0.50
  -2   5   8   11.27    0.45
  -2  -5   8   12.43    0.54
  -2  -5   8   13.13    0.55
  -2   5  -6    0.81    0.18
  -2   5  -6    0.88    0.17
  -2   5  -6    0.95    0.25
  -2  -5  -6    0.85    0.23
  -2  -5  -6    1.05    0.29
  -2  -5  -6    1.29    0.26
   2   6   6   12.92    0.61
   2   6   6   12.25    0.61
   2  -6   6   13.06    0.37
   2  -6   6   11.41    0.37
   2  -6   6   13.23    0.59
   2   6  -8   71.03    1.16
   2   6  -8   69.59    1.17
   2   6  -8   66.95    1.15
   2  -6  -8   68.83    0.91
   2  -6  -8   73.40    0.94
  -2   6   8   84.76    1.12
  -2   6   8   67.12    0.98
  -2  -6   8   70.55    1.16
  -2  -6   8   68.08    1.15
  -2  -6   8   73.82    1.21
  -2   6  -6   11.90    0.45
  -2   6  -6   11.79    0.45
  -2   6  -6   12.00    0.53
  -2  -6  -6   10.98    0.59
  -2  -6  -6   12.39    0.67
  -2  -6  -6   12.47    0.56
   2   7   6    5.44    0.56
   2   7   6    5.71    0.54
   2  -7   6    4.30    0.34
   2  -7   6    4.05    0.38
   2  -7   6    5.58    0.55
   2   7  -8   20.37    0.81
   2   7  -8   22.32    0.81
   2   7  -8   21.67    0.77
   2  -7  -8   22.49    0.62
   2  -7  -8   23.12    0.66
  -2   7   8   26.13    0.74
  -2   7   8   21.90    0.68
  -2  -7   8   23.29    1.09
  -2  -7   8   21.67    0.79
  -2  -7   8   21.98    0.80
  -2   7  -6    6.38    0.49
  -2   7  -6    5.79    0.47
  -2   7  -6    5.66    0.53
  -2  -7  -6    3.61    0.36
  -2  -7  -6    5.69    0.63
  -2  -7  -6    4.88    0.57
   2   8   6    4.07    0.48
   2   8   6    2.55    0.47
   2  -8   6    4.90    0.42
   2  -8   6    4.98    0.48
   2  -8   6    5.21    0.62
   2   8  -8   32.13    1.03
   2   8  -8   29.47    0.99
   2   8  -8   27.74    0.95
   2  -8  -8   28.96    0.75
   2  -8  -8   31.25    0.79
  -2   8   8   34.73    0.89
  -2   8   8   28.83    0.82
  -2  -8   8   31.27    0.95
  -2  -8   8   30.17    0.98
  -2   8  -6    3.43    0.37
  -2   8  -6    4.54    0.56
  -2   8  -6    3.52    0.44
  -2  -8  -6    2.92    0.42
  -2  -8  -6    2.92    0.43
  -2  -8  -6    4.11    0.44
   2   9   6   17.07    0.93
   2   9   6   13.91    0.98
   2  -9   6   15.02    0.59
   2  -9   6   16.01    0.66
   2  -9   6   17.69    0.85
   2   9  -8    0.58    0.49
   2   9  -8   -0.29    0.44
   2   9  -8   -0.32    0.49
   2  -9  -8    0.80    0.33
   2  -9  -8   -0.32    0.36
  -2   9   8    0.09    0.38
  -2  -9   8    0.80    0.51
  -2  -9   8    0.95    0.47
  -2  -9   8    0.15    0.45
  -2   9  -6   16.19    0.75
  -2   9  -6   14.12    0.75
  -2   9  -6   16.25    0.83
  -2  -9  -6   17.79    0.92
  -2  -9  -6   17.65    1.01
  -2  -9  -6   15.63    0.82
   2  10   6   -0.16    0.52
   2  10   6   -0.70    0.65
   2 -10   6    1.17    0.60
   2  10  -8   -0.32    0.58
   2  10  -8   -1.14    0.49
   2 -10  -8    0.09    0.47
  -2  10   8   -0.37    0.35
  -2  10   8    0.23    0.45
  -2 -10   8    1.06    0.57
  -2 -10   8   -1.23    0.52
  -2 -10   8    0.14    0.54
  -2  10  -6    0.89    0.48
  -2  10  -6    1.38    0.53
  -2 -10  -6    1.68    0.55
  -2 -10  -6    2.28    0.58
  -2 -10  -6    0.79    0.51
   2  11   6    0.30    0.59
   2  11   6    1.08    0.76
   2 -11   6    1.61    0.66
   2  11  -8   -1.42    0.58
   2  11  -8   -0.13    0.67
  -2  11   8    0.23    0.53
  -2 -11   8    1.92    0.69
  -2 -11   8    1.17    0.68
  -2  11  -6   -0.81    0.53
  -2  11  -6   -1.06    0.67
  -2 -11  -6    2.00    0.79
  -2 -11  -6   -0.08    0.63
  -2 -11  -6    0.24    0.59
   2  12   6    2.16    0.87
   2 -12   6    2.54    0.81
   2  12  -8   -0.26    0.80
  -2  12   8   -0.12    0.66
  -2 -12   8    0.79    0.80
  -2  12  -6    0.42    0.62
  -2 -12  -6    0.46    0.71
   2   0   7    0.29    0.12
   2   0   7   -0.18    0.12
   2   0  -9    0.20    0.12
   2   0  -9   -0.05    0.12
  -2   0   9   -0.29    0.13
  -2   0   9    0.30    0.13
  -2   0   9   -0.07    0.14
  -2   0  -7    0.16    0.14
  -2   0  -7    0.03    0.11
  -2   0  -7    0.03    0.17
   2   1   7   37.33    0.60
   2   1   7   32.68    0.56
   2  -1   7   39.11    0.51
   2  -1   7   32.34    0.47
   2  -1   7   35.92    0.71
   2   1  -9   73.92    0.89
   2   1  -9   73.36    0.90
   2   1  -9   78.55    0.91
   2  -1  -9   77.18    0.85
   2  -1  -9   74.00    0.84
   2  -1  -9   79.25    0.77
  -2   1   9   81.08    0.92
  -2   1   9   71.61    0.86
  -2   1   9   80.29    0.78
  -2  -1   9   77.66    0.94
  -2  -1   9   73.17    0.91
  -2  -1   9   80.81    0.94
  -2   1  -7   31.85    0.66
  -2   1  -7   35.23    0.55
  -2   1  -7   38.35    0.72
  -2  -1  -7   38.66    0.63
  -2  -1  -7   36.39    0.62
  -2  -1  -7   37.24    0.69
   2   2   7  103.67    1.04
   2  -2   7  116.26    0.81
   2  -2   7  105.21    0.77
   2  -2   7  113.60    1.24
   2   2  -9   17.25    0.49
   2   2  -9   18.20    0.52
   2  -2  -9   17.22    0.44
   2  -2  -9   17.87    0.45
   2  -2  -9   17.86    0.35
  -2   2   9   18.96    0.49
  -2   2   9   15.98    0.46
  -2   2   9   18.64    0.36
  -2  -2   9   17.89    0.52
  -2  -2   9   17.79    0.51
  -2  -2   9   18.51    0.52
  -2   2  -7  103.69    0.89
  -2   2  -7   99.87    0.87
  -2   2  -7  114.11    1.39
  -2  -2  -7  117.10    1.13
  -2  -2  -7  108.30    1.10
  -2  -2  -7  109.39    1.16
  -2  -2  -7  114.07    1.18
   2   3   7   34.79    0.68
   2   3   7   32.21    0.67
   2  -3   7   34.95    0.46
   2  -3   7   29.77    0.64
   2  -3   7   34.74    0.75
   2   3  -9   10.13    0.42
   2   3  -9    8.92    0.47
   2   3  -9   10.33    0.44
   2  -3  -9   10.05    0.44
   2  -3  -9   10.14    0.37
  -2   3   9   12.31    0.43
  -2   3   9    9.75    0.39
  -2  -3   9    9.95    0.44
  -2  -3   9    9.91    0.45
  -2  -3   9    9.30    0.44
  -2   3  -7   30.44    0.52
  -2   3  -7   30.55    0.52
  -2   3  -7   32.16    0.74
  -2  -3  -7   33.79    0.69
  -2  -3  -7   33.39    0.71
  -2  -3  -7   33.11    0.68
  -2  -3  -7   33.33    0.71
   2   4   7   85.35    1.17
   2  -4   7   88.84    0.72
   2  -4   7   89.28    0.73
   2  -4   7   89.79    1.18
   2   4  -9   12.85    0.50
   2   4  -9   11.92    0.51
   2   4  -9   12.88    0.52
   2  -4  -9   12.54    0.43
   2  -4  -9   12.48    0.43
  -2   4   9   14.19    0.51
  -2   4   9   11.59    0.45
  -2  -4   9   12.91    0.53
  -2  -4   9   12.97    0.52
  -2  -4   9   12.82    0.53
  -2   4  -7   80.55    0.85
  -2   4  -7   79.58    0.85
  -2   4  -7   88.62    1.16
  -2  -4  -7   91.91    1.17
  -2  -4  -7   90.42    1.17
  -2  -4  -7   84.85    1.07
   2   5   7   42.26    0.87
   2   5   7   36.46    0.97
   2  -5   7   40.35    0.54
   2  -5   7   36.94    0.53
   2  -5   7   41.13    0.88
   2   5  -9   12.80    0.56
   2   5  -9   12.27    0.59
   2   5  -9   12.81    0.56
   2  -5  -9   12.71    0.46
   2  -5  -9   12.28    0.45
  -2   5   9   14.73    0.53
  -2   5   9   11.59    0.49
  -2  -5   9   12.32    0.56
  -2  -5   9   12.25    0.59
  -2  -5   9   12.99    0.60
  -2   5  -7   37.44    0.65
  -2   5  -7   34.91    0.64
  -2   5  -7   37.25    0.80
  -2  -5  -7   42.30    0.88
  -2  -5  -7   41.12    0.89
  -2  -5  -7   41.03    0.82
   2   6   7    0.03    0.27
   2   6   7    0.67    0.27
   2  -6   7    2.33    0.26
   2  -6   7    0.58    0.18
   2  -6   7    0.48    0.28
   2   6  -9   63.62    1.14
   2   6  -9   62.65    1.14
   2   6  -9   59.74    1.11
   2  -6  -9   60.36    0.89
   2  -6  -9   64.31    0.93
  -2   6   9   74.31    1.09
  -2   6   9   59.07    0.97
  -2  -6   9   59.64    1.11
  -2  -6   9   64.71    1.18
  -2   6  -7    0.34    0.21
  -2   6  -7    0.61    0.22
  -2   6  -7    0.64    0.24
  -2  -6  -7    0.43    0.28
  -2  -6  -7   -0.08    0.27
  -2  -6  -7    0.27    0.25
   2   7   7   27.30    0.86
   2   7   7   23.78    0.84
   2  -7   7   26.75    0.56
   2  -7   7   23.37    0.56
   2  -7   7   29.18    0.86
   2   7  -9    5.35    0.61
   2   7  -9    4.10    0.47
   2  -7  -9    5.84    0.45
   2  -7  -9    5.46    0.51
  -2   7   9    7.02    0.60
  -2   7   9    6.84    0.54
  -2  -7   9    4.98    0.59
  -2  -7   9    5.45    0.56
  -2  -7   9    6.14    0.65
  -2   7  -7   24.55    0.69
  -2   7  -7   26.74    0.78
  -2   7  -7   23.41    0.77
  -2  -7  -7   28.08    0.91
  -2  -7  -7   29.56    0.97
  -2  -7  -7   25.91    0.78
   2   8   7    0.85    0.35
   2   8   7    0.35    0.39
   2  -8   7   -0.24    0.23
   2  -8   7    0.67    0.27
   2  -8   7    1.31    0.39
   2   8  -9    7.02    0.72
   2   8  -9    5.93    0.71
   2   8  -9    5.45    0.56
   2  -8  -9    6.38    0.54
   2  -8  -9    7.43    0.59
  -2   8   9    8.03    0.67
  -2   8   9    7.49    0.62
  -2  -8   9    5.42    0.49
  -2  -8   9    6.02    0.63
  -2  -8   9    7.12    0.73
  -2   8  -7   -0.34    0.30
  -2   8  -7    0.30    0.28
  -2   8  -7    0.07    0.37
  -2  -8  -7   -0.11    0.39
  -2  -8  -7    0.52    0.41
  -2  -8  -7   -0.35    0.33
   2   9   7    0.00    0.34
   2   9   7    0.00    0.48
   2  -9   7    0.73    0.32
   2  -9   7    0.82    0.45
   2   9  -9    5.33    0.67
   2   9  -9    8.80    0.84
   2  -9  -9    7.32    0.71
  -2   9   9    7.16    0.71
  -2   9   9    7.80    0.74
  -2  -9   9    8.43    0.87
  -2  -9   9    5.75    0.63
  -2  -9   9   10.47    0.91
  -2   9  -7    0.20    0.33
  -2   9  -7    0.31    0.35
  -2   9  -7    0.32    0.43
  -2  -9  -7    0.87    0.50
  -2  -9  -7    0.19    0.57
  -2  -9  -7    0.19    0.41
   2  10   7    1.81    0.61
   2  10   7    0.12    0.87
   2 -10   7    2.14    0.46
   2 -10   7    2.34    0.54
   2  10  -9    1.06    0.56
   2  10  -9    1.10    0.50
   2 -10  -9   -0.20    0.48
  -2  10   9    1.20    0.42
  -2  10   9    1.01    0.45
  -2 -10   9    0.76    0.70
  -2 -10   9    0.53    0.42
  -2 -10   9    0.96    0.57
  -2  10  -7    1.41    0.51
  -2  10  -7    1.95    0.42
  -2  10  -7    0.43    0.57
  -2 -10  -7   -0.86    0.62
  -2 -10  -7    2.58    0.68
  -2 -10  -7    1.88    0.50
   2  11   7    2.43    0.76
   2  11   7    7.55    1.04
   2 -11   7    7.09    0.85
   2  11  -9    1.04    1.10
   2  11  -9    1.26    0.62
  -2  11   9   -1.19    0.49
  -2 -11   9   -1.22    0.68
  -2 -11   9    1.79    0.70
  -2  11  -7    4.30    0.61
  -2 -11  -7    5.03    0.84
  -2 -11  -7    0.55    0.74
  -2 -11  -7    6.50    0.71
   2  12   7   -0.22    0.80
   2 -12   7    1.35    0.84
   2  12  -9    2.39    0.90
  -2  12   9    2.32    0.74
  -2 -12   9    2.92    0.85
  -2  12  -7    0.42    0.71
  -2 -12  -7    2.38    0.71
   2   0   8  415.43    1.84
   2   0   8  360.52    1.72
   2   0 -10  131.09    1.20
   2   0 -10  116.92    1.14
   2   0 -10  133.17    1.13
  -2   0  10  137.75    1.28
  -2   0  10  130.85    1.23
  -2   0  10  134.89    1.15
  -2   0  -8  392.02    1.91
  -2   0  -8  365.71    1.86
  -2   0  -8  402.11    2.62
   2   1   8   94.40    0.96
   2   1   8   81.69    0.90
   2  -1   8   96.34    0.85
   2  -1   8   81.44    0.79
   2   1 -10  179.32    1.44
   2   1 -10  169.55    1.41
   2   1 -10  182.81    1.42
   2  -1 -10  177.04    1.36
   2  -1 -10  179.86    1.20
  -2   1  10  186.15    1.46
  -2   1  10  165.30    1.36
  -2   1  10  185.96    1.22
  -2  -1  10  170.89    1.45
  -2  -1  10  169.22    1.43
  -2  -1  10  183.91    1.44
  -2   1  -8   80.41    1.06
  -2   1  -8   84.42    0.88
  -2  -1  -8   92.34    0.99
  -2  -1  -8   86.10    0.96
  -2  -1  -8   94.15    1.14
   2   2   8    3.57    0.33
   2  -2   8    4.76    0.27
   2  -2   8    4.15    0.40
   2   2 -10   21.00    0.55
   2   2 -10   20.56    0.58
   2   2 -10   22.04    0.58
   2  -2 -10   21.31    0.65
   2  -2 -10   20.61    0.51
   2  -2 -10   21.18    0.40
  -2   2  10   23.11    0.58
  -2   2  10   19.74    0.51
  -2   2  10   22.40    0.42
  -2  -2  10   20.78    0.59
  -2  -2  10   20.42    0.55
  -2  -2  10   22.16    0.59
  -2   2  -8    4.19    0.33
  -2   2  -8    3.47    0.29
  -2   2  -8    3.80    0.35
  -2  -2  -8    3.37    0.32
  -2  -2  -8    4.45    0.34
  -2  -2  -8    3.61    0.34
  -2  -2  -8    5.36    0.35
   2   3   8    2.49    0.26
   2   3   8    1.92    0.26
   2  -3   8    2.24    0.24
   2  -3   8    2.32    0.23
   2  -3   8    2.79    0.31
   2   3 -10   51.35    0.87
   2   3 -10   49.41    0.88
   2   3 -10   52.30    0.89
   2  -3 -10   49.95    0.75
   2  -3 -10   52.32    0.77
  -2   3  10   61.19    0.88
  -2   3  10   49.51    0.79
  -2  -3  10   51.37    0.89
  -2  -3  10   48.53    0.85
  -2  -3  10   51.44    0.90
  -2   3  -8    2.21    0.26
  -2   3  -8    2.74    0.26
  -2   3  -8    2.47    0.33
  -2  -3  -8    3.01    0.35
  -2  -3  -8    2.04    0.27
  -2  -3  -8    1.64    0.24
  -2  -3  -8    2.59    0.35
   2   4   8    1.93    0.28
   2   4   8    2.23    0.30
   2  -4   8    2.44    0.25
   2  -4   8    2.54    0.24
   2  -4   8    2.29    0.30
   2   4 -10    0.83    0.23
   2   4 -10    0.43    0.26
   2   4 -10    1.44    0.26
   2  -4 -10    1.13    0.20
   2  -4 -10    0.30    0.18
  -2   4  10    0.95    0.23
  -2   4  10    0.07    0.19
  -2  -4  10    0.49    0.21
  -2  -4  10    0.99    0.24
  -2  -4  10    0.63    0.23
  -2   4  -8    2.00    0.21
  -2   4  -8    1.73    0.20
  -2   4  -8    2.81    0.31
  -2  -4  -8    2.38    0.30
  -2  -4  -8    2.95    0.36
  -2  -4  -8    2.50    0.29
   2   5   8    0.25    0.25
   2   5   8   -0.16    0.25
   2  -5   8    0.39    0.15
   2  -5   8    0.32    0.16
   2  -5   8    0.54    0.28
   2   5 -10    4.70    0.45
   2   5 -10    4.24    0.50
   2   5 -10    4.86    0.45
   2  -5 -10    4.73    0.40
   2  -5 -10    6.14    0.41
  -2   5  10    4.97    0.45
  -2   5  10    5.81    0.43
  -2  -5  10    4.37    0.42
  -2  -5  10    4.82    0.49
  -2  -5  10    4.06    0.46
  -2   5  -8    0.20    0.19
  -2   5  -8    0.02    0.19
  -2   5  -8    0.58    0.27
  -2  -5  -8    0.96    0.29
  -2  -5  -8    0.83    0.25
  -2  -5  -8    0.85    0.24
   2   6   8   21.73    0.78
   2   6   8   19.76    0.76
   2  -6   8   22.01    0.49
   2  -6   8   18.39    0.48
   2  -6   8   21.40    0.77
   2   6 -10   32.29    0.88
   2   6 -10   31.77    0.89
   2   6 -10   30.89    0.87
   2  -6 -10   31.38    0.72
   2  -6 -10   33.47    0.74
  -2   6  10   39.32    0.87
  -2   6  10   31.66    0.78
  -2  -6  10   31.54    0.88
  -2  -6  10   33.87    0.91
  -2  -6  10   34.83    0.96
  -2   6  -8   18.98    0.59
  -2   6  -8   18.13    0.58
  -2   6  -8   19.45    0.70
  -2  -6  -8   22.14    0.76
  -2  -6  -8   20.42    0.78
  -2  -6  -8   20.15    0.69
   2   7   8    1.71    0.39
   2   7   8    3.46    0.50
   2  -7   8    3.48    0.36
   2  -7   8    3.47    0.39
   2  -7   8    3.78    0.45
   2   7 -10   21.77    0.88
   2   7 -10   19.10    0.80
   2   7 -10   19.74    0.78
   2  -7 -10   18.33    0.64
   2  -7 -10   19.42    0.66
  -2   7  10   26.24    0.85
  -2   7  10   20.60    0.74
  -2  -7  10   21.51    0.87
  -2  -7  10   20.10    0.79
  -2  -7  10   22.41    0.88
  -2   7  -8    2.72    0.36
  -2   7  -8    2.43    0.36
  -2   7  -8    2.28    0.39
  -2  -7  -8    2.53    0.40
  -2  -7  -8    3.00    0.45
  -2  -7  -8    3.21    0.39
   2   8   8   14.79    0.86
   2   8   8   17.08    0.94
   2  -8   8   15.10    0.54
   2  -8   8   13.78    0.60
   2  -8   8   16.70    0.85
   2   8 -10    3.65    0.48
   2   8 -10    3.94    0.49
   2   8 -10    3.57    0.50
   2  -8 -10    4.41    0.55
   2  -8 -10    6.00    0.63
  -2   8  10    5.44    0.56
  -2   8  10    4.83    0.48
  -2  -8  10    4.41    0.50
  -2  -8  10    3.92    0.48
  -2  -8  10    7.93    0.79
  -2   8  -8   16.32    0.74
  -2   8  -8   14.80    0.70
  -2   8  -8   13.50    0.79
  -2  -8  -8   16.69    0.90
  -2  -8  -8   16.92    1.00
  -2  -8  -8   16.18    0.78
   2   9   8    1.01    0.50
   2   9   8    2.25    0.54
   2  -9   8    1.34    0.38
   2  -9   8    2.69    0.53
   2   9 -10   12.70    0.94
   2   9 -10   10.88    0.94
   2  -9 -10   13.46    0.76
  -2   9  10   14.75    0.84
  -2   9  10   12.40    0.83
  -2  -9  10   12.02    0.89
  -2  -9  10   10.65    0.91
  -2  -9  10   12.90    1.01
  -2   9  -8    1.90    0.41
  -2   9  -8    0.42    0.34
  -2   9  -8    1.04    0.47
  -2  -9  -8    1.64    0.51
  -2  -9  -8    1.49    0.45
  -2  -9  -8    3.00    0.47
   2  10   8    4.08    0.71
   2 -10   8    7.03    0.75
   2 -10   8    8.65    0.98
   2  10 -10    1.51    0.65
   2  10 -10    0.18    0.51
   2 -10 -10    0.56    0.49
  -2  10  10   -0.75    0.40
  -2  10  10   -0.05    0.48
  -2 -10  10    0.45    0.74
  -2 -10  10   -0.10    0.57
  -2 -10  10   -0.24    0.55
  -2  10  -8    4.94    0.60
  -2  10  -8    4.17    0.53
  -2  10  -8    4.17    0.68
  -2 -10  -8    3.76    1.40
  -2 -10  -8    3.90    0.69
  -2 -10  -8    3.88    0.55
   2  11   8    0.44    0.72
   2  11   8    2.39    0.91
   2 -11   8    0.89    0.70
   2  11 -10    1.95    0.80
  -2  11  10    1.33    0.61
  -2 -11  10    1.87    1.01
  -2 -11  10    3.74    0.71
  -2  11  -8   -1.13    0.54
  -2 -11  -8   -0.44    0.79
  -2 -11  -8    0.24    0.85
  -2 -11  -8    1.77    0.63
   2   0   9   -0.09    0.13
   2   0   9   -0.31    0.19
   2   0 -11    1.16    0.19
   2   0 -11    0.26    0.18
   2   0 -11    0.15    0.16
  -2   0  11   -0.35    0.17
  -2   0  11    0.24    0.16
  -2   0  11    0.49    0.18
  -2   0  -9    0.02    0.17
  -2   0  -9   -0.01    0.16
  -2   0  -9    0.10    0.20
   2   1   9    8.10    0.37
   2  -1   9    8.32    0.35
   2  -1   9    6.48    0.32
   2  -1   9    8.07    0.45
   2   1 -11    1.61    0.22
   2   1 -11    1.95    0.23
   2  -1 -11    1.59    0.23
   2  -1 -11    1.47    0.20
   2  -1 -11    2.19    0.26
  -2   1  11    1.82    0.25
  -2   1  11    1.37    0.19
  -2   1  11    2.15    0.23
  -2  -1  11    1.69    0.23
  -2  -1  11    1.88    0.22
  -2  -1  11    1.92    0.25
  -2   1  -9    7.44    0.37
  -2   1  -9    6.90    0.36
  -2   1  -9    7.70    0.44
  -2  -1  -9    7.52    0.39
  -2  -1  -9    7.32    0.39
  -2  -1  -9    5.50    0.49
   2   2   9  142.49    1.71
   2  -2   9  209.32    1.29
   2  -2   9  185.90    1.21
   2  -2   9  202.77    1.76
   2   2 -11    5.21    0.37
   2   2 -11    6.03    0.42
   2   2 -11    5.50    0.40
   2  -2 -11    6.33    0.35
   2  -2 -11    6.28    0.29
  -2   2  11    6.91    0.40
  -2   2  11    5.49    0.36
  -2   2  11    6.33    0.28
  -2  -2  11    6.30    0.43
  -2  -2  11    6.18    0.39
  -2  -2  11    6.20    0.41
  -2   2  -9  179.09    1.33
  -2   2  -9  202.46    1.74
  -2  -2  -9  205.15    1.62
  -2  -2  -9  195.51    1.59
  -2  -2  -9  178.72    1.95
   2   3   9   11.14    0.49
   2   3   9   10.13    0.49
   2  -3   9   10.30    0.35
   2  -3   9   10.55    0.35
   2  -3   9   11.32    0.53
   2   3 -11   39.88    0.81
   2   3 -11   36.58    0.80
   2   3 -11   39.63    0.82
   2  -3 -11   39.00    0.71
   2  -3 -11   38.91    0.71
   2  -3 -11   38.64    0.46
  -2   3  11   45.38    0.81
  -2   3  11   36.26    0.74
  -2  -3  11   37.71    0.83
  -2  -3  11   37.36    0.79
  -2  -3  11   41.05    0.85
  -2   3  -9    9.76    0.39
  -2   3  -9    9.89    0.40
  -2   3  -9   10.99    0.50
  -2  -3  -9    9.96    0.51
  -2  -3  -9    9.99    0.48
  -2  -3  -9   11.52    0.49
  -2  -3  -9   10.58    0.50
   2   4   9   30.08    0.74
   2   4   9   26.53    0.74
   2  -4   9   28.39    0.52
   2  -4   9   26.29    0.51
   2  -4   9   28.20    0.76
   2   4 -11   65.20    1.07
   2   4 -11   64.20    1.09
   2   4 -11   65.92    1.09
   2  -4 -11   65.61    0.93
   2  -4 -11   67.78    0.95
  -2   4  11   77.57    1.09
  -2   4  11   64.50    0.98
  -2  -4  11   65.95    1.10
  -2  -4  11   68.28    1.11
  -2  -4  11   70.27    1.14
  -2   4  -9   25.20    0.58
  -2   4  -9   25.56    0.58
  -2   4  -9   28.23    0.73
  -2  -4  -9   29.97    0.77
  -2  -4  -9   28.64    0.76
  -2  -4  -9   27.70    0.67
  -2  -4  -9   28.99    0.71
   2   5   9    6.53    0.52
   2   5   9    5.28    0.55
   2  -5   9    6.18    0.34
   2  -5   9    6.26    0.36
   2  -5   9    7.08    0.59
   2   5 -11   94.09    1.32
   2   5 -11   90.28    1.32
   2   5 -11   92.24    1.34
   2  -5 -11   91.59    1.13
   2  -5 -11  102.31    1.20
  -2   5  11  109.58    1.34
  -2   5  11   88.77    1.18
  -2  -5  11   91.26    1.35
  -2  -5  11   93.99    1.35
  -2  -5  11   99.92    1.42
  -2   5  -9    6.93    0.42
  -2   5  -9    5.35    0.41
  -2   5  -9    5.40    0.50
  -2  -5  -9    7.44    0.52
  -2  -5  -9    7.86    0.56
  -2  -5  -9    6.69    0.49
  -2  -5  -9    6.46    0.52
   2   6   9    0.98    0.33
   2   6   9    0.74    0.36
   2  -6   9    1.41    0.19
   2  -6   9    1.06    0.22
   2  -6   9    2.12    0.40
   2   6 -11    2.85    0.41
   2   6 -11    2.71    0.39
   2  -6 -11    3.68    0.38
   2  -6 -11    4.32    0.46
  -2   6  11    3.40    0.35
  -2   6  11    2.22    0.35
  -2  -6  11    2.97    0.43
  -2  -6  11    2.77    0.41
  -2  -6  11    4.01    0.43
  -2   6  -9    0.69    0.25
  -2   6  -9    1.13    0.29
  -2   6  -9    1.47    0.33
  -2  -6  -9    0.80    0.34
  -2  -6  -9    0.86    0.36
  -2  -6  -9    2.34    0.36
  -2  -6  -9    1.65    0.32
   2   7   9    0.29    0.33
   2   7   9    0.31    0.39
   2  -7   9    1.25    0.22
   2  -7   9    0.18    0.24
   2  -7   9    0.82    0.34
   2   7 -11    2.55    0.39
   2   7 -11    2.85    0.44
   2   7 -11    4.22    0.49
   2  -7 -11    2.97    0.38
   2  -7 -11    5.60    0.54
  -2   7  11    4.81    0.58
  -2  -7  11    3.05    0.46
  -2  -7  11    2.26    0.46
  -2  -7  11    4.28    0.60
  -2   7  -9    0.80    0.29
  -2   7  -9    0.02    0.28
  -2   7  -9   -0.22    0.37
  -2  -7  -9   -0.36    0.34
  -2  -7  -9    0.39    0.42
  -2  -7  -9    0.73    0.34
   2   8   9    0.33    0.37
   2   8   9   -0.49    0.39
   2  -8   9    1.14    0.27
   2  -8   9    0.21    0.28
   2   8 -11    2.55    0.47
   2   8 -11    2.04    0.45
   2   8 -11    2.80    0.54
   2  -8 -11    2.60    0.41
   2  -8 -11    2.90    0.45
  -2   8  11    3.94    0.48
  -2   8  11    1.89    0.44
  -2  -8  11    2.29    0.48
  -2  -8  11    2.44    0.54
  -2  -8  11    3.33    0.57
  -2   8  -9    0.25    0.35
  -2   8  -9    0.52    0.36
  -2   8  -9   -0.32    0.43
  -2  -8  -9   -0.69    0.43
  -2  -8  -9    0.28    0.47
  -2  -8  -9   -0.26    0.37
   2   9   9    0.73    0.49
   2   9   9    0.63    0.63
   2  -9   9    0.85    0.37
   2  -9   9    1.86    0.50
   2   9 -11    0.79    0.50
   2   9 -11    0.11    0.44
   2  -9 -11    1.04    0.46
  -2   9  11    0.21    0.40
  -2   9  11   -0.22    0.41
  -2  -9  11    0.15    0.49
  -2  -9  11    0.47    0.54
  -2  -9  11    0.83    0.54
  -2   9  -9   -0.36    0.39
  -2   9  -9    1.08    0.39
  -2   9  -9    1.54    0.48
  -2  -9  -9    0.03    0.55
  -2  -9  -9   -0.46    0.58
  -2  -9  -9    0.29    0.43
   2  10   9    0.93    0.53
   2  10   9   -0.44    0.76
   2 -10   9   -0.60    0.49
   2 -10   9    1.16    0.59
   2  10 -11   -1.16    0.71
   2  10 -11   -0.92    0.54
  -2  10  11   -0.34    0.43
  -2  10  11   -0.93    0.88
  -2 -10  11    0.10    0.60
  -2 -10  11   -1.25    0.56
  -2  10  -9    0.50    0.48
  -2  10  -9    0.41    0.46
  -2 -10  -9   -0.80    0.69
  -2 -10  -9    1.76    0.69
  -2 -10  -9    0.15    0.51
   2  11   9    1.40    0.82
   2  11   9   -1.69    0.79
   2 -11   9    1.18    0.75
   2  11 -11   -0.65    0.71
  -2  11  11    1.17    0.64
  -2 -11  11    1.54    0.72
  -2  11  -9   -0.24    0.58
  -2 -11  -9    0.14    0.92
  -2 -11  -9    1.04    0.80
  -2 -11  -9    0.82    0.62
   2   0  10   17.76    0.50
   2   0  10   14.56    0.45
   2   0  10   16.03    0.57
   2   0 -12   58.57    1.14
   2   0 -12   58.93    0.91
   2   0 -12   62.27    0.85
  -2   0  12   65.72    0.99
  -2   0  12   61.37    0.94
  -2   0  12   67.02    0.89
  -2   0 -10   17.17    0.52
  -2   0 -10   16.03    0.50
  -2   0 -10   16.32    0.56
   2   1  10    3.48    0.32
   2   1  10    2.98    0.35
   2  -1  10    3.51    0.33
   2  -1  10    2.67    0.26
   2  -1  10    3.14    0.39
   2   1 -12   68.12    0.98
   2   1 -12   65.80    0.99
   2   1 -12   66.03    0.96
   2  -1 -12   64.69    0.96
   2  -1 -12   65.53    0.94
   2  -1 -12   68.83    0.82
  -2   1  12   69.52    1.01
  -2   1  12   62.55    0.94
  -2   1  12   70.94    0.83
  -2  -1  12   68.50    1.03
  -2  -1  12   66.40    0.99
  -2  -1  12   69.79    0.98
  -2   1 -10    3.79    0.33
  -2   1 -10    3.64    0.36
  -2   1 -10    4.90    0.42
  -2  -1 -10    4.24    0.39
  -2  -1 -10    2.59    0.27
  -2  -1 -10    3.14    0.32
   2   2  10    5.88    0.55
   2   2  10   12.51    0.50
   2  -2  10   13.06    0.44
   2  -2  10   13.04    0.42
   2  -2  10   13.60    0.57
   2   2 -12    0.35    0.19
   2   2 -12    1.12    0.26
   2   2 -12    0.37    0.20
   2  -2 -12    0.54    0.17
   2  -2 -12    0.46    0.18
  -2   2  12    0.37    0.22
  -2   2  12    0.31    0.18
  -2   2  12    0.88    0.17
  -2  -2  12    0.79    0.26
  -2  -2  12    0.69    0.19
  -2  -2  12    0.61    0.24
  -2   2 -10   13.12    0.57
  -2   2 -10   12.82    0.47
  -2   2 -10   13.31    0.57
  -2  -2 -10   13.16    0.51
  -2  -2 -10   14.14    0.56
  -2  -2 -10   13.69    0.55
   2   3  10    0.02    0.22
   2   3  10    0.25    0.23
   2  -3  10    0.35    0.15
   2  -3  10    0.79    0.18
   2  -3  10    0.14    0.22
   2   3 -12   30.02    0.74
   2   3 -12   30.83    0.79
   2   3 -12   30.02    0.75
   2  -3 -12   29.71    0.66
   2  -3 -12   29.63    0.43
  -2   3  12   34.18    0.77
  -2   3  12   27.84    0.70
  -2   3  12   31.56    0.45
  -2  -3  12   28.93    0.77
  -2  -3  12   30.53    0.77
  -2  -3  12   31.51    0.78
  -2   3 -10    0.17    0.19
  -2   3 -10   -0.02    0.19
  -2   3 -10    0.55    0.24
  -2  -3 -10    0.64    0.20
  -2  -3 -10    0.56    0.23
  -2  -3 -10    0.20    0.23
  -2  -3 -10    0.11    0.23
   2   4  10    4.66    0.47
   2   4  10    3.29    0.35
   2  -4  10    4.03    0.33
   2  -4  10    3.98    0.32
   2  -4  10    3.89    0.47
   2   4 -12    0.84    0.26
   2   4 -12    1.37    0.33
   2   4 -12    0.54    0.29
   2  -4 -12    0.41    0.23
   2  -4 -12    0.71    0.23
  -2   4  12    0.89    0.26
  -2   4  12    0.48    0.24
  -2  -4  12    0.52    0.29
  -2  -4  12    0.61    0.25
  -2  -4  12    0.48    0.29
  -2   4 -10    3.35    0.30
  -2   4 -10    3.44    0.38
  -2   4 -10    3.92    0.39
  -2  -4 -10    4.21    0.42
  -2  -4 -10    3.40    0.38
  -2  -4 -10    3.76    0.36
  -2  -4 -10    4.45    0.43
   2   5  10    0.36    0.25
   2   5  10    1.27    0.33
   2  -5  10    0.79    0.20
   2  -5  10    0.55    0.32
   2   5 -12    9.36    0.90
   2   5 -12    8.06    0.69
   2   5 -12    9.10    0.62
   2  -5 -12   10.00    0.50
   2  -5 -12    9.32    0.52
  -2   5  12   12.75    0.63
  -2   5  12    8.66    0.54
  -2  -5  12    9.01    0.63
  -2  -5  12    9.97    0.63
  -2  -5  12   10.73    0.68
  -2   5 -10    0.97    0.23
  -2   5 -10    0.61    0.25
  -2   5 -10    0.63    0.27
  -2  -5 -10    0.95    0.32
  -2  -5 -10    0.59    0.30
  -2  -5 -10    0.66    0.26
  -2  -5 -10    1.20    0.28
   2   6  10   21.75    0.85
   2   6  10   20.89    0.85
   2  -6  10   19.22    0.53
   2  -6  10   18.90    0.56
   2  -6  10   21.02    0.84
   2   6 -12    2.69    0.34
   2   6 -12    3.47    0.51
   2   6 -12    3.00    0.40
   2  -6 -12    3.66    0.45
   2  -6 -12    3.40    0.35
  -2   6  12    3.92    0.41
  -2   6  12    3.22    0.36
  -2  -6  12    3.55    0.44
  -2  -6  12    4.59    0.79
  -2  -6  12    3.65    0.45
  -2   6 -10   19.88    0.64
  -2   6 -10   21.34    0.92
  -2   6 -10   18.87    0.73
  -2  -6 -10   23.15    0.84
  -2  -6 -10   22.79    0.87
  -2  -6 -10   22.38    0.76
  -2  -6 -10   19.59    0.74
   2   7  10    1.03    0.39
   2   7  10   -0.32    0.38
   2  -7  10    0.30    0.23
   2  -7  10   -0.45    0.25
   2  -7  10    0.57    0.42
   2   7 -12   20.85    0.92
   2   7 -12   20.42    0.91
   2   7 -12   19.74    0.88
   2  -7 -12   18.69    0.72
   2  -7 -12   22.21    0.79
  -2   7  12   24.71    0.93
  -2   7  12   18.99    0.82
  -2  -7  12   21.57    0.94
  -2  -7  12   21.96    0.94
  -2   7 -10    0.13    0.32
  -2   7 -10    0.06    0.29
  -2   7 -10   -0.50    0.40
  -2  -7 -10    0.60    0.41
  -2  -7 -10    0.05    0.32
  -2  -7 -10    0.14    0.35
  -2  -7 -10    0.44    0.39
   2   8  10   10.55    0.87
   2   8  10   10.88    0.98
   2  -8  10   11.94    0.58
   2  -8  10    9.87    0.59
   2  -8  10   12.35    0.84
   2   8 -12   13.11    0.90
   2   8 -12   13.75    0.95
   2  -8 -12   11.99    0.70
   2  -8 -12   13.74    0.78
  -2   8  12   18.52    0.99
  -2   8  12   13.83    0.92
  -2  -8  12   14.45    0.89
  -2  -8  12   12.34    0.90
  -2  -8  12   14.72    0.94
  -2   8 -10    9.36    0.70
  -2   8 -10   10.50    0.71
  -2   8 -10    9.03    0.86
  -2  -8 -10   13.87    0.97
  -2  -8 -10   13.11    1.05
  -2  -8 -10   11.58    0.77
  -2  -8 -10   11.59    0.82
   2   9  10   -0.22    0.49
   2   9  10   -0.19    0.60
   2  -9  10    0.76    0.46
   2  -9  10    1.10    0.52
   2   9 -12   13.36    1.16
   2   9 -12   15.88    1.04
   2  -9 -12    2.54    0.52
  -2   9  12   22.62    1.05
  -2   9  12   13.48    0.97
  -2  -9  12   16.56    1.13
  -2  -9  12   13.43    1.06
  -2  -9  12   16.86    1.01
  -2   9 -10    0.33    0.46
  -2  -9 -10    0.75    0.59
  -2  -9 -10    0.52    0.51
  -2  -9 -10   -0.39    0.41
  -2  -9 -10    0.34    0.52
   2  10  10    2.97    0.62
   2  10  10    2.58    0.84
   2 -10  10    3.03    0.61
   2 -10  10    3.55    0.65
   2  10 -12    0.39    0.69
   2  10 -12    0.38    0.78
  -2  10  12   -1.21    0.50
  -2 -10  12   -0.75    0.79
  -2 -10  12    0.23    0.67
  -2 -10  12    1.22    0.60
  -2  10 -10    1.48    0.55
  -2 -10 -10    2.96    0.79
  -2 -10 -10    0.71    0.65
  -2 -10 -10    2.59    0.59
  -2 -10 -10    2.11    0.68
   2  11  10   -0.04    0.86
   2 -11  10    0.91    0.80
   2  11 -12   -0.76    0.86
  -2  11  12    0.85    0.70
  -2 -11  12   -0.46    0.75
  -2  11 -10    1.02    0.62
  -2 -11 -10   -2.18    0.91
  -2 -11 -10    0.54    0.60
   2   0  11   -0.06    0.17
   2   0  11   -0.35    0.16
   2   0  11    0.04    0.23
   2   0 -13   -0.05    0.16
   2   0 -13   -0.02    0.19
  -2   0  13    0.35    0.25
  -2   0  13    0.45    0.20
  -2   0  13   -0.10    0.18
  -2   0 -11   -0.02    0.20
  -2   0 -11    0.22    0.20
  -2   0 -11    0.64    0.24
   2   1  11    1.88    0.23
   2   1  11    1.46    0.23
   2  -1  11    1.42    0.22
   2  -1  11    0.84    0.22
   2  -1  11    1.98    0.32
   2   1 -13    0.01    0.22
   2   1 -13    0.01    0.23
   2   1 -13    0.15    0.22
   2  -1 -13    0.51    0.18
   2  -1 -13    0.11    0.22
   2  -1 -13    0.98    0.20
  -2   1  13    0.33    0.24
  -2   1  13   -0.09    0.19
  -2   1  13    0.21    0.20
  -2  -1  13    0.07    0.23
  -2  -1  13    0.71    0.21
  -2  -1  13    0.28    0.22
  -2   1 -11    1.77    0.25
  -2   1 -11    1.33    0.22
  -2   1 -11    1.83    0.29
  -2  -1 -11    1.32    0.22
  -2  -1 -11    1.11    0.22
  -2  -1 -11    1.17    0.26
   2   2  11    9.88    0.49
   2   2  11   13.26    0.53
   2  -2  11   14.84    0.48
   2  -2  11   12.53    0.46
   2  -2  11   13.45    0.59
   2   2 -13   90.06    1.23
   2   2 -13   92.63    1.20
   2  -2 -13   92.83    1.15
   2  -2 -13   92.71    1.16
   2  -2 -13   89.99    0.88
  -2   2  13  102.21    1.27
  -2   2  13   86.22    1.15
  -2   2  13  100.00    0.92
  -2  -2  13   94.87    1.28
  -2  -2  13   88.35    1.22
  -2  -2  13   96.46    1.25
  -2   2 -11   14.34    0.51
  -2   2 -11   12.78    0.51
  -2   2 -11   14.37    0.60
  -2  -2 -11   15.21    0.57
  -2  -2 -11   15.73    0.58
  -2  -2 -11   14.54    0.59
   2   3  11    2.91    0.34
   2   3  11    3.77    0.45
   2  -3  11    2.95    0.33
   2  -3  11    3.43    0.35
   2  -3  11    2.77    0.36
   2   3 -13   41.13    0.94
   2   3 -13   43.00    0.90
   2  -3 -13   40.29    0.81
   2  -3 -13   40.63    0.54
  -2   3  13   46.36    0.91
  -2   3  13   38.14    0.83
  -2   3  13   45.22    0.57
  -2  -3  13   40.32    0.90
  -2  -3  13   42.27    0.91
  -2  -3  13   43.49    0.95
  -2   3 -11    3.27    0.39
  -2   3 -11    3.16    0.37
  -2  -3 -11    3.56    0.44
  -2  -3 -11    2.37    0.31
  -2  -3 -11    3.45    0.36
  -2  -3 -11    3.25    0.35
   2   4  11    1.09    0.30
   2   4  11    1.10    0.27
   2  -4  11    0.95    0.21
   2  -4  11    1.35    0.22
   2  -4  11    0.70    0.28
   2   4 -13  120.53    2.00
   2   4 -13  127.25    1.57
   2   4 -13  132.40    1.60
   2  -4 -13  131.72    1.41
  -2   4  13  163.47    1.68
  -2   4  13  128.78    1.47
  -2  -4  13  133.57    1.62
  -2  -4  13  134.52    1.62
  -2  -4  13  144.72    1.71
  -2   4 -11    1.09    0.26
  -2   4 -11    0.93    0.24
  -2   4 -11    1.30    0.29
  -2  -4 -11    1.36    0.26
  -2  -4 -11    0.28    0.26
  -2  -4 -11    0.97    0.27
  -2  -4 -11    0.38    0.28
   2   5  11    8.83    0.61
   2   5  11    5.30    0.60
   2  -5  11    6.69    0.43
   2  -5  11    6.32    0.39
   2  -5  11    7.57    0.65
   2   5 -13  301.31    2.48
   2   5 -13  277.96    2.39
   2   5 -13  278.25    2.39
   2  -5 -13  282.14    2.10
   2  -5 -13  304.59    2.18
  -2   5  13  339.80    2.46
  -2   5  13  273.62    2.19
  -2  -5  13  288.58    2.44
  -2  -5  13  293.40    2.44
  -2  -5  13  301.47    2.53
  -2   5 -11    5.31    0.47
  -2   5 -11    6.13    0.49
  -2   5 -11    5.68    0.55
  -2  -5 -11    7.05    0.57
  -2  -5 -11    5.85    0.61
  -2  -5 -11    5.89    0.52
  -2  -5 -11    8.82    0.53
   2   6  11    0.91    0.33
   2   6  11    0.91    0.41
   2  -6  11    1.44    0.25
   2  -6  11    1.32    0.29
   2  -6  11    1.41    0.35
   2   6 -13   19.18    0.89
   2   6 -13   18.05    0.85
   2  -6 -13   20.12    0.71
   2  -6 -13   21.18    0.74
  -2   6  13   23.42    0.83
  -2   6  13   17.79    0.76
  -2  -6  13   17.09    0.85
  -2  -6  13   17.41    0.84
  -2   6 -11    1.63    0.31
  -2   6 -11    1.62    0.31
  -2   6 -11    1.23    0.36
  -2  -6 -11    0.78    0.36
  -2  -6 -11    2.17    0.46
  -2  -6 -11    2.25    0.34
  -2  -6 -11    1.10    0.34
   2   7  11    1.45    0.45
   2   7  11    2.07    0.51
   2  -7  11    1.01    0.28
   2  -7  11    1.63    0.31
   2  -7  11    2.56    0.49
   2   7 -13   30.54    1.05
   2   7 -13   28.65    1.06
   2  -7 -13   28.98    0.91
   2  -7 -13   33.09    0.93
  -2   7  13   37.81    1.08
  -2   7  13   31.88    0.99
  -2  -7  13   32.48    1.11
  -2  -7  13   33.81    1.11
  -2  -7  13   32.90    1.06
  -2   7 -11    0.97    0.34
  -2   7 -11    1.95    0.39
  -2   7 -11    1.64    0.48
  -2  -7 -11    1.46    0.50
  -2  -7 -11    1.32    0.41
  -2  -7 -11    0.84    0.40
  -2  -7 -11    1.33    0.37
   2   8  11    2.61    0.54
   2   8  11    3.34    0.56
   2  -8  11    2.08    0.39
   2  -8  11    3.05    0.51
   2   8 -13    1.89    0.55
   2   8 -13    0.06    0.46
   2  -8 -13    1.49    0.40
  -2   8  13    2.09    0.56
  -2   8  13   -0.45    0.43
  -2  -8  13    0.67    0.52
  -2  -8  13    1.38    0.52
  -2  -8  13    1.18    0.48
  -2   8 -11    2.45    0.48
  -2   8 -11    1.95    0.43
  -2   8 -11    0.73    0.52
  -2  -8 -11    3.09    0.62
  -2  -8 -11    1.95    0.57
  -2  -8 -11    3.16    0.48
  -2  -8 -11    3.23    0.49
   2   9  11    2.16    0.58
   2   9  11    1.35    0.64
   2  -9  11    2.36    0.57
   2   9 -13    6.78    0.76
   2   9 -13    6.45    0.77
   2  -9 -13   -0.89    0.49
  -2   9  13   10.16    1.11
  -2   9  13    6.16    0.67
  -2  -9  13    6.97    0.81
  -2  -9  13    3.03    0.64
  -2  -9  13    9.25    1.05
  -2   9 -11    2.09    0.48
  -2   9 -11    1.46    0.49
  -2  -9 -11    1.26    1.03
  -2  -9 -11    0.76    0.64
  -2  -9 -11   -0.18    0.47
  -2  -9 -11    2.20    0.55
   2  10  11    0.82    0.69
   2  10  11    1.31    0.93
   2 -10  11    2.75    0.67
   2  10 -13   -0.13    0.85
   2  10 -13    3.24    0.80
  -2  10  13    4.23    0.66
  -2 -10  13    1.05    0.76
  -2 -10  13    2.14    0.69
  -2  10 -11    0.47    0.58
  -2 -10 -11   -0.84    0.73
  -2 -10 -11    1.32    0.71
  -2 -10 -11    0.62    0.53
  -2 -10 -11    0.08    0.93
   2  11  11    0.42    1.30
   2 -11  11    5.13    0.98
   2  11 -13    0.78    0.80
  -2  11  13   -0.42    0.66
  -2 -11  13    1.05    0.87
  -2  11 -11    1.78    0.74
  -2 -11 -11   -1.10    0.68
   2   0  12   64.81    0.94
   2   0  12   53.12    0.87
   2   0  12   64.14    1.10
   2   0 -14   77.87    1.13
   2   0 -14   78.41    1.14
   2   0 -14   79.95    1.06
  -2   0  14   83.04    1.22
  -2   0  14   79.89    1.17
  -2   0  14   85.99    1.08
  -2   0 -12   58.32    0.95
  -2   0 -12   57.89    0.95
  -2   0 -12   64.74    1.09
   2   1  12   -0.08    0.25
   2  -1  12    0.44    0.19
   2  -1  12   -0.15    0.21
   2  -1  12   -0.09    0.24
   2   1 -14   72.96    1.11
   2   1 -14   69.49    1.11
   2   1 -14   72.83    1.05
   2  -1 -14   71.89    1.07
   2  -1 -14   73.14    0.93
  -2   1  14   77.62    1.17
  -2   1  14   69.88    1.09
  -2   1  14   77.56    0.95
  -2  -1  14   74.85    1.18
  -2  -1  14   72.07    1.13
  -2  -1  14   77.99    1.09
  -2   1 -12    0.47    0.21
  -2   1 -12    0.26    0.21
  -2   1 -12   -0.17    0.22
  -2  -1 -12   -0.12    0.21
  -2  -1 -12    0.58    0.25
  -2  -1 -12   -0.28    0.24
   2   2  12    6.33    0.47
   2   2  12    6.56    0.48
   2  -2  12    6.04    0.41
   2  -2  12    5.82    0.43
   2  -2  12    5.12    0.51
   2   2 -14    2.37    0.30
   2   2 -14    3.06    0.37
   2   2 -14    2.52    0.32
   2  -2 -14    2.62    0.30
   2  -2 -14    2.17    0.30
   2  -2 -14    4.30    0.34
  -2   2  14    2.01    0.32
  -2   2  14    2.09    0.27
  -2   2  14    2.79    0.31
  -2  -2  14    2.62    0.35
  -2  -2  14    1.99    0.26
  -2  -2  14    2.95    0.35
  -2   2 -12    6.30    0.47
  -2   2 -12    6.64    0.46
  -2   2 -12    7.07    0.52
  -2  -2 -12    6.76    0.52
  -2  -2 -12    5.63    0.50
  -2  -2 -12    6.67    0.50
   2   3  12    4.16    0.46
   2   3  12    2.89    0.33
   2  -3  12    4.73    0.39
   2  -3  12    3.39    0.40
   2  -3  12    4.15    0.52
   2   3 -14  115.81    1.46
   2   3 -14  117.90    1.52
   2   3 -14  117.90    1.46
   2  -3 -14  114.43    1.36
   2  -3 -14  113.08    1.36
   2  -3 -14  116.56    0.91
  -2   3  14  133.06    1.54
  -2   3  14  108.34    1.38
  -2   3  14  128.50    0.96
  -2  -3  14  121.75    1.54
  -2  -3  14  112.14    1.48
  -2  -3  14  122.78    1.51
  -2   3 -12    3.61    0.39
  -2   3 -12    4.13    0.45
  -2   3 -12    6.53    0.54
  -2  -3 -12    4.05    0.39
  -2  -3 -12    5.30    0.53
  -2  -3 -12    4.95    0.47
  -2  -3 -12    4.73    0.49
   2   4  12    3.56    0.38
   2   4  12    4.83    0.57
   2  -4  12    4.63    0.41
   2  -4  12    4.44    0.41
   2  -4  12    5.43    0.58
   2   4 -14    5.52    0.56
   2   4 -14    6.56    0.62
   2   4 -14    4.35    0.53
   2  -4 -14    5.27    0.49
  -2   4  14    7.53    0.64
  -2   4  14    5.20    0.57
  -2  -4  14    5.72    0.61
  -2  -4  14    5.82    0.59
  -2  -4  14    4.62    0.54
  -2   4 -12    4.12    0.46
  -2   4 -12    4.19    0.52
  -2  -4 -12    4.83    0.52
  -2  -4 -12    5.08    0.57
  -2  -4 -12    4.15    0.39
  -2  -4 -12    4.62    0.54
   2   5  12    0.32    0.34
   2   5  12    0.01    0.31
   2  -5  12    0.41    0.24
   2  -5  12   -0.29    0.22
   2  -5  12    0.16    0.34
   2   5 -14    3.26    0.42
   2   5 -14    3.21    0.49
   2   5 -14    2.59    0.40
   2  -5 -14    3.13    0.35
   2  -5 -14    3.53    0.59
  -2   5  14    3.51    0.44
  -2   5  14    4.80    0.53
  -2  -5  14    3.18    0.42
  -2  -5  14    3.34    0.58
  -2  -5  14    3.69    0.45
  -2   5 -12   -0.11    0.28
  -2   5 -12    0.10    0.33
  -2  -5 -12    0.04    0.30
  -2  -5 -12   -0.45    0.32
  -2  -5 -12   -0.08    0.28
  -2  -5 -12    0.32    0.32
   2   6  12   24.15    0.94
   2   6  12   21.04    0.91
   2  -6  12   24.47    0.64
   2  -6  12   22.39    0.65
   2  -6  12   21.64    0.96
   2   6 -14   37.96    1.05
   2   6 -14   33.72    1.11
   2   6 -14   35.27    1.07
   2  -6 -14   39.90    0.95
   2  -6 -14   41.14    1.01
  -2   6  14   38.71    1.61
  -2   6  14   36.06    0.96
  -2  -6  14   39.62    1.12
  -2  -6  14   37.33    1.10
  -2  -6  14   40.79    1.12
  -2   6 -12   21.17    0.77
  -2   6 -12   20.43    0.75
  -2   6 -12   23.10    0.91
  -2  -6 -12   23.68    0.98
  -2  -6 -12   26.86    1.02
  -2  -6 -12   26.07    0.81
  -2  -6 -12   20.98    0.78
   2   7  12    0.15    0.42
   2   7  12   -0.13    0.46
   2  -7  12   -0.46    0.28
   2  -7  12    0.17    0.33
   2  -7  12    1.22    0.48
   2   7 -14   93.13    1.64
   2   7 -14   87.95    1.65
   2  -7 -14   79.99    1.31
   2  -7 -14   93.05    1.42
  -2   7  14  113.93    1.69
  -2  -7  14   89.23    1.61
  -2  -7  14   93.14    1.64
  -2  -7  14   94.80    1.67
  -2   7 -12    0.97    0.36
  -2   7 -12    1.00    0.38
  -2   7 -12    1.87    0.42
  -2  -7 -12    0.94    0.38
  -2  -7 -12    0.93    0.45
  -2  -7 -12    1.58    0.43
  -2  -7 -12    1.88    0.42
   2   8  12    8.84    0.99
   2   8  12    7.64    0.76
   2  -8  12    7.71    0.68
   2  -8  12    6.22    0.63
   2   8 -14    7.69    0.76
   2   8 -14    7.56    0.73
   2  -8 -14    1.90    0.45
  -2   8  14   12.16    1.00
  -2   8  14    7.91    0.88
  -2  -8  14    6.63    0.65
  -2  -8  14    5.76    0.69
  -2  -8  14    8.43    0.90
  -2   8 -12    6.73    0.78
  -2   8 -12    7.99    0.79
  -2  -8 -12    6.30    0.71
  -2  -8 -12    8.61    1.03
  -2  -8 -12    6.80    0.60
  -2  -8 -12    9.02    0.77
   2   9  12   -1.17    0.55
   2   9  12    1.41    0.83
   2  -9  12   -0.62    0.74
   2  -9  12    1.51    0.57
   2   9 -14    4.68    0.74
   2   9 -14    2.28    0.67
  -2   9  14    2.92    0.65
  -2   9  14    3.00    0.87
  -2  -9  14    3.67    0.76
  -2  -9  14   -0.04    0.56
  -2  -9  14    3.09    0.69
  -2   9 -12    1.47    0.54
  -2   9 -12   -0.57    0.48
  -2  -9 -12   -0.09    0.57
  -2  -9 -12    1.23    0.66
  -2  -9 -12    1.07    0.53
  -2  -9 -12    0.32    0.56
   2  10  12   -1.12    0.64
   2  10  12    2.77    0.91
   2 -10  12    5.09    0.82
   2  10 -14   -1.23    0.70
  -2  10  14    1.19    0.57
  -2 -10  14    1.87    0.69
  -2  10 -12    3.41    0.67
  -2 -10 -12    1.84    0.94
  -2 -10 -12   -0.91    0.82
  -2 -10 -12    2.36    0.61
   2   0  13    0.07    0.22
   2   0  13   -0.30    0.20
   2   0  13    0.01    0.28
   2   0 -15    0.21    0.22
   2   0 -15    0.09    0.28
   2   0 -15    0.05    0.24
  -2   0  15   -0.03    0.27
  -2   0  15    0.68    0.26
  -2   0  15   -0.30    0.21
  -2   0 -13   -0.15    0.24
  -2   0 -13   -0.08    0.24
  -2   0 -13    0.25    0.25
   2   1  13    2.13    0.31
   2  -1  13    2.06    0.29
   2  -1  13    1.39    0.28
   2  -1  13    1.44    0.31
   2   1 -15    7.50    0.52
   2   1 -15    5.93    0.55
   2   1 -15    6.86    0.49
   2  -1 -15    7.78    0.48
   2  -1 -15    5.76    0.55
   2  -1 -15    6.56    0.44
  -2   1  15    6.80    0.58
  -2   1  15    7.45    0.49
  -2   1  15    8.19    0.44
  -2  -1  15    6.90    0.57
  -2  -1  15    8.26    0.54
  -2  -1  15    7.23    0.51
  -2   1 -13    1.73    0.29
  -2   1 -13    2.00    0.29
  -2   1 -13    1.50    0.30
  -2  -1 -13    1.86    0.31
  -2  -1 -13    1.61    0.31
  -2  -1 -13    2.81    0.35
   2   2  13    6.89    0.52
   2   2  13    6.66    0.54
   2  -2  13    5.46    0.45
   2  -2  13    6.09    0.47
   2  -2  13    5.82    0.54
   2   2 -15   71.67    1.19
   2   2 -15   74.08    1.23
   2   2 -15   77.22    1.20
   2  -2 -15   73.78    1.16
   2  -2 -15   67.13    1.44
   2  -2 -15   76.29    0.90
  -2   2  15   86.99    1.30
  -2   2  15   69.61    1.15
  -2   2  15   81.61    0.93
  -2  -2  15   75.97    1.27
  -2  -2  15   77.21    1.23
  -2  -2  15   83.37    1.24
  -2   2 -13    6.86    0.51
  -2   2 -13    7.67    0.51
  -2   2 -13    5.97    0.51
  -2  -2 -13    6.89    0.54
  -2  -2 -13    6.25    0.56
  -2  -2 -13    7.15    0.54
   2   3  13    3.38    0.42
   2  -3  13    3.65    0.34
   2  -3  13    2.57    0.30
   2  -3  13    3.72    0.44
   2   3 -15   40.70    0.96
   2   3 -15   40.33    0.97
   2   3 -15   40.54    0.96
   2  -3 -15   38.85    0.89
   2  -3 -15   39.99    0.92
   2  -3 -15   40.54    0.62
  -2   3  15   48.29    1.03
  -2   3  15   38.60    0.91
  -2   3  15   44.52    0.64
  -2  -3  15   42.09    1.04
  -2  -3  15   40.54    0.97
  -2  -3  15   43.90    1.00
  -2   3 -13    2.86    0.31
  -2   3 -13    3.40    0.38
  -2   3 -13    3.74    0.43
  -2  -3 -13    4.67    0.54
  -2  -3 -13    4.75    0.58
  -2  -3 -13    2.72    0.34
   2   4  13    2.30    0.40
   2   4  13    2.28    0.38
   2  -4  13    1.65    0.29
   2  -4  13    1.52    0.26
   2  -4  13    1.41    0.39
   2   4 -15   71.93    1.26
   2   4 -15   71.53    1.32
   2   4 -15   68.99    1.25
   2  -4 -15   70.96    1.15
   2  -4 -15   71.16    1.17
  -2   4  15   86.02    1.39
  -2   4  15   66.40    1.21
  -2  -4  15   68.82    1.27
  -2  -4  15   71.45    1.27
  -2  -4  15   77.87    1.34
  -2   4 -13    1.44    0.34
  -2   4 -13    2.41    0.35
  -2   4 -13    1.82    0.38
  -2  -4 -13    1.51    0.37
  -2  -4 -13    2.09    0.33
  -2  -4 -13    2.03    0.34
  -2  -4 -13    0.28    0.33
   2   5  13   13.44    0.78
   2   5  13    6.88    0.74
   2  -5  13    9.38    0.52
   2  -5  13    6.87    0.52
   2  -5  13    7.82    0.83
   2   5 -15    7.63    0.70
   2   5 -15    9.84    0.77
   2   5 -15    8.99    0.73
   2  -5 -15    9.92    0.65
  -2   5  15   10.87    0.78
  -2   5  15   10.02    0.70
  -2  -5  15   10.32    0.76
  -2  -5  15   11.01    0.79
  -2  -5  15   10.25    1.07
  -2   5 -13    9.35    0.61
  -2   5 -13    7.99    0.68
  -2  -5 -13   12.49    0.74
  -2  -5 -13    9.09    0.75
  -2  -5 -13   11.11    0.66
  -2  -5 -13   10.04    0.64
   2   6  13    3.54    0.53
   2   6  13    4.25    0.49
   2  -6  13    3.79    0.38
   2  -6  13    3.78    0.53
   2   6 -15    4.47    0.48
   2   6 -15    4.32    0.54
   2   6 -15    3.85    0.51
   2  -6 -15    4.45    0.48
   2  -6 -15    5.34    0.59
  -2   6  15    4.91    0.49
  -2   6  15    4.82    0.50
  -2  -6  15    4.79    0.54
  -2  -6  15    3.97    0.49
  -2  -6  15    7.01    0.74
  -2   6 -13    3.10    0.47
  -2   6 -13    4.10    0.46
  -2   6 -13    2.28    0.44
  -2  -6 -13    3.14    0.53
  -2  -6 -13    3.49    0.52
  -2  -6 -13    3.47    0.42
  -2  -6 -13    3.64    0.44
   2   7  13    2.04    0.50
   2   7  13    0.40    0.56
   2  -7  13    2.87    0.41
   2  -7  13    3.38    0.61
   2   7 -15    3.37    0.57
   2   7 -15    1.42    0.56
   2  -7 -15    3.43    0.64
   2  -7 -15    3.45    0.48
  -2   7  15    4.97    0.58
  -2   7  15    2.53    0.45
  -2  -7  15    4.58    0.63
  -2  -7  15    2.41    0.56
  -2  -7  15    3.51    0.52
  -2   7 -13    1.69    0.43
  -2   7 -13    3.67    0.44
  -2  -7 -13    2.40    0.49
  -2  -7 -13    2.87    0.58
  -2  -7 -13    2.76    0.45
  -2  -7 -13    2.91    0.47
   2   8  13   -0.37    0.50
   2   8  13   -0.44    0.64
   2  -8  13    0.41    0.40
   2  -8  13    1.14    0.58
   2   8 -15    6.54    0.83
   2   8 -15    5.67    0.66
   2  -8 -15   -0.84    0.46
  -2   8  15   10.01    1.10
  -2   8  15    7.92    0.93
  -2  -8  15    8.87    1.03
  -2  -8  15    9.15    0.98
  -2   8 -13   -0.20    0.47
  -2   8 -13    0.62    0.48
  -2  -8 -13    0.65    0.59
  -2  -8 -13   -0.52    0.46
  -2  -8 -13    0.54    0.47
  -2  -8 -13    0.71    0.51
   2   9  13    0.95    0.71
   2   9  13    1.19    1.04
   2  -9  13    1.69    0.71
   2   9 -15    5.40    0.78
   2   9 -15    5.44    1.30
  -2   9  15    4.58    0.77
  -2  -9  15    4.48    0.80
  -2  -9  15   -1.14    0.60
  -2  -9  15    6.04    0.73
  -2   9 -13    3.42    0.67
  -2  -9 -13   -0.31    0.61
  -2  -9 -13    3.08    0.74
  -2  -9 -13    2.32    0.57
  -2  -9 -13   -0.06    0.57
   2  10  13    0.36    0.70
   2  10  13    5.28    1.16
   2 -10  13    1.01    0.84
   2  10 -15    3.82    0.91
  -2  10  15    4.87    0.75
  -2 -10  15    2.61    0.76
  -2  10 -13    2.29    0.67
  -2 -10 -13   -0.02    0.98
  -2 -10 -13   -0.16    0.83
  -2 -10 -13    0.03    0.56
   2   0  14    3.64    0.36
   2   0  14    4.16    0.41
   2   0  14    5.82    0.60
   2   0 -16   26.84    0.81
   2   0 -16   26.55    0.82
   2   0 -16   28.28    0.72
  -2   0  16   29.46    0.87
  -2   0  16   26.80    0.82
  -2   0  16   28.66    0.74
  -2   0 -14    3.87    0.36
  -2   0 -14    3.88    0.37
  -2   0 -14    4.86    0.53
   2   1  14    1.02    0.31
   2  -1  14    1.30    0.29
   2  -1  14    0.87    0.27
   2  -1  14    1.06    0.33
   2   1 -16   27.88    0.80
   2   1 -16   27.10    0.84
   2   1 -16   27.91    0.77
   2  -1 -16   27.53    0.79
   2  -1 -16   27.34    0.82
   2  -1 -16   29.01    0.84
  -2   1  16   33.19    0.92
  -2   1  16   26.06    0.80
  -2   1  16   30.29    0.68
  -2  -1  16   29.96    0.91
  -2  -1  16   27.56    0.84
  -2  -1  16   31.34    0.81
  -2   1 -14    1.21    0.31
  -2   1 -14    0.89    0.29
  -2   1 -14    1.16    0.31
  -2  -1 -14    0.29    0.29
  -2  -1 -14    0.99    0.31
  -2  -1 -14    0.24    0.32
   2   2  14    4.38    0.50
   2   2  14    3.46    0.45
   2  -2  14    3.46    0.37
   2  -2  14    2.83    0.32
   2  -2  14    3.77    0.50
   2   2 -16   60.08    1.12
   2   2 -16   58.55    1.16
   2   2 -16   58.16    1.08
   2  -2 -16   57.17    1.09
   2  -2 -16   56.93    1.15
   2  -2 -16   57.68    0.84
  -2   2  16   64.86    1.20
  -2   2  16   53.22    1.07
  -2   2  16   64.53    0.89
  -2  -2  16   59.57    1.20
  -2  -2  16   56.09    1.12
  -2  -2  16   64.27    1.15
  -2   2 -14    4.41    0.52
  -2   2 -14    2.87    0.35
  -2   2 -14    3.76    0.43
  -2  -2 -14    3.81    0.42
  -2  -2 -14    3.50    0.40
  -2  -2 -14    2.99    0.38
   2   3  14    3.35    0.51
   2   3  14    5.18    0.59
   2  -3  14    2.69    0.33
   2  -3  14    2.55    0.31
   2  -3  14    2.73    0.43
   2   3 -16    0.11    0.32
   2   3 -16    1.35    0.35
   2   3 -16    0.37    0.33
   2  -3 -16    0.46    0.34
   2  -3 -16    0.69    0.34
   2  -3 -16    0.13    0.23
  -2   3  16    0.94    0.34
  -2   3  16   -0.36    0.28
  -2   3  16    1.11    0.22
  -2  -3  16    0.23    0.35
  -2  -3  16    0.64    0.34
  -2  -3  16    0.64    0.33
  -2   3 -14    2.66    0.33
  -2   3 -14    2.03    0.33
  -2   3 -14    2.41    0.37
  -2  -3 -14    3.05    0.41
  -2  -3 -14    2.85    0.40
  -2  -3 -14    2.51    0.37
   2   4  14    0.11    0.33
   2   4  14   -0.67    0.31
   2  -4  14    0.31    0.27
   2  -4  14   -0.41    0.26
   2  -4  14   -0.51    0.47
   2   4 -16   24.81    0.88
   2   4 -16   26.36    0.97
   2   4 -16   23.59    0.89
   2  -4 -16   22.61    0.80
   2  -4 -16   26.09    0.86
  -2   4  16   28.05    0.98
  -2   4  16   24.00    0.84
  -2  -4  16   24.15    0.93
  -2  -4  16   26.27    0.94
  -2   4 -14    0.16    0.29
  -2   4 -14    0.00    0.33
  -2   4 -14    0.89    0.33
  -2  -4 -14    0.11    0.34
  -2  -4 -14   -0.81    0.32
  -2  -4 -14   -0.03    0.32
  -2  -4 -14   -0.05    0.34
   2   5  14    0.56    0.39
   2   5  14   -0.50    0.43
   2  -5  14    0.59    0.30
   2  -5  14   -0.27    0.28
   2  -5  14    0.17    0.40
   2   5 -16    3.79    0.48
   2   5 -16    7.71    0.79
   2   5 -16    5.35    0.58
   2  -5 -16    5.18    0.50
   2  -5 -16    4.46    0.47
  -2   5  16    5.58    0.56
  -2   5  16    4.58    0.49
  -2  -5  16    5.67    0.59
  -2  -5  16    6.75    0.79
  -2  -5  16    5.13    0.54
  -2   5 -14    0.37    0.31
  -2   5 -14   -0.89    0.32
  -2   5 -14   -0.27    0.34
  -2  -5 -14    0.49    0.40
  -2  -5 -14   -0.86    0.38
  -2  -5 -14   -0.60    0.31
  -2  -5 -14   -0.80    0.34
   2   6  14   19.29    0.95
   2   6  14   11.61    0.94
   2  -6  14   16.20    0.69
   2  -6  14   14.34    0.65
   2  -6  14   18.10    1.02
   2   6 -16   36.65    1.14
   2   6 -16   37.13    1.20
   2  -6 -16   35.23    1.02
  -2   6  16   43.63    1.19
  -2  -6  16   38.86    1.20
  -2  -6  16   36.00    1.21
  -2  -6  16   42.29    1.23
  -2   6 -14   13.78    0.78
  -2  -6 -14   16.12    0.96
  -2  -6 -14   17.03    1.02
  -2  -6 -14   14.99    0.76
  -2  -6 -14   17.07    0.79
   2   7  14   -0.76    0.43
   2   7  14   -0.45    0.58
   2  -7  14   -0.16    0.39
   2  -7  14   -0.16    0.45
   2   7 -16    9.49    0.87
   2   7 -16   10.59    1.08
   2  -7 -16    0.27    0.42
  -2   7  16   12.31    0.97
  -2   7  16    7.16    0.86
  -2  -7  16    8.71    0.89
  -2  -7  16    6.43    0.76
  -2  -7  16   10.35    0.84
  -2   7 -14    0.97    0.61
  -2   7 -14    0.13    0.38
  -2  -7 -14    1.05    0.55
  -2  -7 -14    0.87    0.47
  -2  -7 -14    0.13    0.47
   2   8  14    3.01    0.68
   2   8  14    5.28    0.74
   2  -8  14    7.73    0.82
   2  -8  14    6.25    0.81
   2   8 -16   15.92    1.20
   2   8 -16   13.79    1.26
   2  -8 -16    0.23    0.55
  -2   8  16   20.27    1.27
  -2   8  16   13.37    1.01
  -2  -8  16    5.33    0.72
  -2  -8  16   12.92    1.31
  -2  -8  16   17.60    1.12
  -2   8 -14    5.10    0.63
  -2   8 -14    7.20    0.89
  -2  -8 -14    6.06    0.73
  -2  -8 -14    4.61    0.64
  -2  -8 -14    7.71    0.66
  -2  -8 -14    7.23    0.88
   2   9  14   -1.26    0.59
   2   9  14   -0.65    0.93
   2  -9  14    1.26    0.69
   2   9 -16    2.32    0.83
   2   9 -16    0.04    0.76
  -2   9  16    1.67    0.70
  -2  -9  16   -0.68    0.67
  -2  -9  16    1.85    0.60
  -2   9 -14    0.88    0.57
  -2  -9 -14    0.64    0.78
  -2  -9 -14    1.63    0.80
  -2  -9 -14    0.62    0.58
   2 -10  14   -0.71    0.72
   2  10 -16   -0.01    0.83
  -2  10  16    1.69    0.80
  -2 -10  16   -1.11    0.78
  -2  10 -14   -0.35    0.64
  -2 -10 -14    1.98    0.96
   2   0  15   -0.44    0.27
   2   0  15    0.70    0.36
   2   0 -17    0.55    0.32
   2   0 -17    0.25    0.33
   2   0 -17    0.11    0.30
  -2   0  17    0.07    0.34
  -2   0  17    0.46    0.32
  -2   0  17    0.22    0.27
  -2   0 -15    0.14    0.27
  -2   0 -15   -0.31    0.24
  -2   0 -15   -0.66    0.31
   2   1  15    1.62    0.36
   2  -1  15    1.84    0.33
   2  -1  15    2.62    0.38
   2  -1  15    1.73    0.35
   2   1 -17   40.58    0.99
   2   1 -17   36.87    0.98
   2   1 -17   38.80    0.91
   2  -1 -17   41.76    0.97
   2  -1 -17   42.26    1.02
   2  -1 -17   38.82    0.82
  -2   1  17   46.57    1.08
  -2   1  17   38.15    0.98
  -2   1  17   44.10    0.86
  -2  -1  17   43.52    1.08
  -2  -1  17   40.62    1.02
  -2  -1  17   43.15    0.95
  -2   1 -15    0.82    0.35
  -2   1 -15    1.74    0.38
  -2   1 -15    1.55    0.32
  -2  -1 -15    1.82    0.34
  -2  -1 -15    2.00    0.39
  -2  -1 -15    1.47    0.38
   2   2  15   13.98    0.68
   2   2  15   11.66    0.67
   2  -2  15   11.88    0.63
   2  -2  15   10.94    0.63
   2  -2  15   12.74    0.76
   2   2 -17   16.28    0.75
   2   2 -17   17.26    0.79
   2   2 -17   16.53    0.72
   2  -2 -17   16.77    0.75
   2  -2 -17   18.69    0.79
   2  -2 -17   16.98    0.59
  -2   2  17   17.64    0.83
  -2   2  17   16.19    0.73
  -2   2  17   19.30    0.59
  -2  -2  17   18.32    0.86
  -2  -2  17   16.47    0.76
  -2  -2  17   18.18    0.74
  -2   2 -15   11.51    0.69
  -2   2 -15   10.51    0.63
  -2   2 -15   14.19    0.73
  -2  -2 -15   13.44    0.75
  -2  -2 -15   13.04    0.73
  -2  -2 -15   11.61    0.69
   2   3  15    1.63    0.43
   2   3  15    0.97    0.33
   2  -3  15    0.85    0.31
   2  -3  15    1.21    0.32
   2  -3  15    1.14    0.52
   2   3 -17    9.77    0.70
   2   3 -17    8.80    0.71
   2   3 -17   11.17    0.72
   2  -3 -17   10.86    0.68
   2  -3 -17   10.21    0.88
   2  -3 -17   11.24    0.49
  -2   3  17   12.36    0.78
  -2   3  17    9.69    0.70
  -2   3  17   10.96    0.46
  -2  -3  17    9.60    0.75
  -2  -3  17    7.28    0.70
  -2  -3  17   12.14    0.71
  -2   3 -15    1.60    0.34
  -2   3 -15    0.37    0.42
  -2   3 -15    1.13    0.37
  -2  -3 -15    1.53    0.39
  -2  -3 -15    0.50    0.39
  -2  -3 -15    1.28    0.37
   2   4  15    2.87    0.47
   2   4  15    1.04    0.37
   2  -4  15    1.13    0.30
   2  -4  15    1.32    0.30
   2  -4  15    0.48    0.44
   2   4 -17   72.18    1.36
   2   4 -17   68.19    1.36
   2   4 -17   67.50    1.35
   2  -4 -17   67.94    1.24
   2  -4 -17   72.45    1.35
  -2   4  17   78.22    1.44
  -2   4  17   64.93    1.30
  -2  -4  17   69.34    1.43
  -2  -4  17   69.61    1.37
  -2  -4  17   74.33    1.44
  -2   4 -15    1.16    0.38
  -2   4 -15    0.96    0.38
  -2   4 -15    1.24    0.40
  -2  -4 -15    1.47    0.38
  -2  -4 -15    1.89    0.46
  -2  -4 -15    2.06    0.38
  -2  -4 -15    1.40    0.38
   2   5  15    0.71    0.46
   2   5  15    0.57    0.48
   2  -5  15    1.41    0.33
   2  -5  15    1.56    0.33
   2  -5  15    1.05    0.44
   2   5 -17    8.80    0.76
   2   5 -17    7.12    0.88
   2   5 -17    4.22    0.52
   2  -5 -17    5.34    0.50
   2  -5 -17    6.00    0.59
  -2   5  17    7.32    0.87
  -2   5  17    5.75    0.63
  -2  -5  17    6.19    0.77
  -2  -5  17    6.50    0.59
  -2  -5  17    9.50    0.78
  -2   5 -15    0.31    0.39
  -2   5 -15    2.01    0.43
  -2   5 -15    0.63    0.66
  -2  -5 -15    0.64    0.42
  -2  -5 -15    0.68    0.44
  -2  -5 -15    0.38    0.40
  -2  -5 -15    0.42    0.40
   2   6  15    0.10    0.43
   2   6  15    1.93    0.55
   2  -6  15    0.00    0.36
   2  -6  15    0.01    0.46
   2   6 -17    1.43    0.51
   2   6 -17    0.24    0.53
   2  -6 -17    1.38    0.46
   2  -6 -17    0.16    0.50
  -2   6  17    0.40    0.44
  -2   6  17    1.50    0.45
  -2  -6  17    0.35    0.48
  -2  -6  17    0.96    0.54
  -2  -6  17    0.84    0.47
  -2   6 -15   -0.82    0.41
  -2   6 -15    0.85    0.41
  -2  -6 -15    0.54    0.48
  -2  -6 -15    0.61    0.39
  -2  -6 -15   -0.19    0.40
   2   7  15   -0.75    0.52
   2  -7  15   -0.10    0.41
   2  -7  15    0.39    0.53
   2   7 -17    5.25    0.75
  -2   7  17    8.47    1.01
  -2   7  17    7.17    0.89
  -2  -7  17    4.32    0.62
  -2  -7  17    4.49    0.71
  -2  -7  17    5.48    0.58
  -2   7 -15    0.14    0.44
  -2  -7 -15    0.11    0.52
  -2  -7 -15    0.70    0.61
  -2  -7 -15    0.70    0.48
  -2  -7 -15   -0.40    0.47
   2   8  15   -1.88    0.69
   2  -8  15    0.01    0.64
   2   8 -17    2.72    0.58
   2   8 -17    2.77    0.75
  -2   8  17    2.00    0.58
  -2  -8  17   -0.20    0.72
  -2  -8  17    4.20    0.84
  -2  -8  17    1.79    0.64
  -2   8 -15    0.82    0.60
  -2  -8 -15    0.21    0.63
  -2  -8 -15   -1.62    0.67
  -2  -8 -15    1.32    0.57
   2  -9  15    0.89    0.68
   2   9 -17    1.96    0.84
  -2  -9  17   -0.78    0.66
  -2   9 -15    1.04    0.63
  -2  -9 -15    1.03    1.01
  -2  -9 -15    1.26    1.53
  -2  -9 -15    0.60    0.61
   2   0  16    0.36    0.32
   2   0  16    0.72    0.30
   2   0  16    1.08    0.40
   2   0 -18   36.14    1.01
   2   0 -18   39.84    1.07
   2   0 -18   39.34    0.91
  -2   0  18   41.75    1.11
  -2   0  18   36.19    1.03
  -2   0  18   41.38    0.91
  -2   0 -16    1.43    0.39
  -2   0 -16    1.17    0.35
  -2   0 -16    0.48    0.41
   2   1  16    8.32    0.67
   2   1  16    5.84    0.63
   2  -1  16    8.94    0.62
   2  -1  16    8.53    0.61
   2  -1  16    7.48    0.75
   2   1 -18   32.15    0.96
   2   1 -18   30.65    0.98
   2   1 -18   31.20    0.87
   2  -1 -18   32.71    0.95
   2  -1 -18   34.48    1.00
   2  -1 -18   31.71    0.77
  -2   1  18   35.76    1.06
  -2   1  18   33.85    0.97
  -2   1  18   35.66    0.82
  -2  -1  18   35.44    1.08
  -2  -1  18   32.68    0.99
  -2  -1  18   36.25    0.92
  -2   1 -16    7.02    0.70
  -2   1 -16    9.33    0.69
  -2   1 -16    8.64    0.73
  -2  -1 -16    6.61    0.67
  -2  -1 -16    8.63    0.72
  -2  -1 -16    7.64    0.66
   2   2  16    0.51    0.33
   2   2  16   -0.22    0.39
   2  -2  16   -0.04    0.31
   2  -2  16    0.60    0.36
   2  -2  16    0.39    0.42
   2   2 -18    0.43    0.38
   2   2 -18    0.45    0.43
   2   2 -18   -0.11    0.35
   2  -2 -18    0.72    0.31
   2  -2 -18    0.18    0.38
   2  -2 -18   -0.08    0.35
  -2   2  18    0.06    0.40
  -2   2  18   -0.11    0.34
  -2   2  18    0.77    0.29
  -2  -2  18    0.30    0.38
  -2  -2  18    0.21    0.33
  -2  -2  18    0.10    0.31
  -2   2 -16    0.11    0.35
  -2   2 -16    1.09    0.40
  -2   2 -16    1.46    0.40
  -2  -2 -16    0.52    0.40
  -2  -2 -16    0.32    0.35
  -2  -2 -16    0.90    0.38
   2   3  16    2.17    0.39
   2   3  16    1.15    0.39
   2  -3  16    1.89    0.34
   2  -3  16    2.37    0.37
   2  -3  16    2.31    0.52
   2   3 -18    9.72    0.72
   2   3 -18   12.57    0.81
   2   3 -18   11.76    0.77
   2  -3 -18   11.83    0.80
   2  -3 -18   11.12    0.80
   2  -3 -18   14.65    0.56
  -2   3  18   14.31    0.86
  -2   3  18   10.23    0.73
  -2   3  18   14.60    0.53
  -2  -3  18   13.08    0.89
  -2  -3  18   10.55    0.81
  -2   3 -16    0.60    0.34
  -2   3 -16    2.26    0.46
  -2   3 -16    2.26    0.43
  -2  -3 -16    1.32    0.42
  -2  -3 -16    0.58    0.36
  -2  -3 -16    1.89    0.41
   2   4  16    3.57    0.48
   2   4  16    4.14    0.53
   2  -4  16    4.05    0.43
   2  -4  16    5.19    0.58
   2  -4  16    2.26    0.52
   2   4 -18    0.83    0.47
   2   4 -18    3.89    0.51
   2   4 -18    2.47    0.51
   2  -4 -18    2.99    0.45
   2  -4 -18    1.93    0.76
  -2   4  18    2.54    0.51
  -2   4  18    2.69    0.45
  -2  -4  18    3.10    0.56
  -2  -4  18    1.64    0.39
  -2  -4  18    1.71    0.41
  -2   4 -16    3.26    0.46
  -2   4 -16    1.97    0.42
  -2   4 -16    2.58    0.84
  -2  -4 -16    3.87    0.53
  -2  -4 -16    3.57    0.51
  -2  -4 -16    3.85    0.49
  -2  -4 -16    3.26    0.45
   2   5  16   -0.70    0.44
   2   5  16   -0.35    0.50
   2  -5  16    0.38    0.35
   2  -5  16    0.45    0.41
   2   5 -18    4.55    0.54
   2   5 -18    4.98    0.65
   2  -5 -18    4.28    0.48
   2  -5 -18    1.10    0.48
  -2   5  18    3.95    0.59
  -2   5  18    4.22    0.55
  -2  -5  18    1.98    0.54
  -2  -5  18    3.81    0.55
  -2  -5  18    3.29    0.51
  -2   5 -16   -0.20    0.42
  -2   5 -16   -0.39    0.43
  -2  -5 -16   -1.06    0.62
  -2  -5 -16   -0.32    0.49
  -2  -5 -16    0.64    0.41
  -2  -5 -16   -0.77    0.42
   2   6  16    2.95    0.59
   2   6  16    2.76    0.65
   2  -6  16    2.99    0.45
   2  -6  16    0.72    0.52
   2   6 -18   19.00    1.11
   2   6 -18   20.48    1.20
   2  -6 -18   -0.57    0.44
  -2   6  18   20.17    1.06
  -2   6  18   16.23    1.10
  -2  -6  18   17.90    1.14
  -2  -6  18   20.61    1.16
  -2  -6  18   17.71    0.98
  -2   6 -16    1.77    0.46
  -2   6 -16    1.76    0.47
  -2  -6 -16    2.56    0.58
  -2  -6 -16    2.84    0.61
  -2  -6 -16    2.38    0.48
  -2  -6 -16    1.72    0.48
   2   7  16    1.71    0.71
   2  -7  16    0.21    0.45
   2  -7  16   -0.75    0.61
   2   7 -18    0.44    0.51
   2   7 -18    0.76    0.68
  -2   7  18    2.01    0.59
  -2   7  18    1.72    0.56
  -2  -7  18    0.60    0.63
  -2  -7  18    1.37    0.69
  -2  -7  18    1.54    0.54
  -2   7 -16   -0.45    0.47
  -2   7 -16    1.01    0.51
  -2  -7 -16   -0.17    0.69
  -2  -7 -16    0.46    0.70
  -2  -7 -16    2.43    0.56
  -2  -7 -16    0.49    0.54
   2   8  16   -0.94    0.68
   2  -8  16    1.23    0.73
   2   8 -18    3.06    0.79
   2   8 -18    1.60    1.57
  -2   8  18    2.54    0.76
  -2  -8  18    1.69    0.75
  -2  -8  18    1.96    0.72
  -2   8 -16   -0.27    0.56
  -2  -8 -16   -1.85    0.62
  -2  -8 -16   -0.50    0.78
  -2  -8 -16   -0.95    0.55
  -2  -8 -16   -0.75    0.77
   2  -9  16    2.50    0.91
   2   9 -18    1.63    0.91
  -2   9  18    5.45    0.93
  -2  -9  18    0.69    0.71
  -2   9 -16    0.01    0.63
  -2  -9 -16    1.30    0.76
  -2  -9 -16    0.63    0.68
   2   0  17    0.04    0.39
   2   0 -19   -0.38    0.39
   2   0 -19   -0.18    0.34
  -2   0  19   -0.85    0.35
  -2   0  19    0.51    0.38
  -2   0  19    0.03    0.30
  -2   0 -17   -0.33    0.37
  -2   0 -17    0.59    0.42
   2   1  17   -0.15    0.37
   2   1  17   -1.13    0.41
   2  -1  17    0.52    0.32
   2  -1  17    0.17    0.36
   2  -1  17   -0.40    0.41
   2   1 -19    0.13    0.33
   2   1 -19    0.80    0.43
   2   1 -19    0.49    0.36
   2  -1 -19    1.04    0.42
   2  -1 -19    0.64    0.42
  -2   1  19    1.41    0.43
  -2   1  19    0.34    0.40
  -2   1  19    0.20    0.33
  -2  -1  19    1.26    0.43
  -2  -1  19    1.41    0.40
  -2  -1  19   -0.32    0.35
  -2   1 -17    0.52    0.38
  -2   1 -17   -0.89    0.34
  -2   1 -17    0.56    0.39
  -2  -1 -17    0.51    0.37
  -2  -1 -17   -0.13    0.41
  -2  -1 -17    0.62    0.37
   2   2  17    2.28    0.50
   2   2  17    3.10    0.44
   2  -2  17    1.79    0.38
   2  -2  17    1.81    0.42
   2  -2  17    3.31    0.52
   2   2 -19    1.13    0.42
   2   2 -19   -0.65    0.44
   2   2 -19   -0.11    0.38
   2  -2 -19   -0.01    0.39
   2  -2 -19    0.30    0.40
   2  -2 -19    0.41    0.34
  -2   2  19    0.68    0.41
  -2   2  19   -0.80    0.38
  -2   2  19    0.70    0.30
  -2  -2  19    0.35    0.46
  -2  -2  19    0.59    0.66
  -2  -2  19    0.26    0.39
  -2   2 -17    3.26    0.41
  -2   2 -17    2.60    0.43
  -2   2 -17    0.63    0.48
  -2  -2 -17    2.25    0.49
  -2  -2 -17    2.54    0.51
  -2  -2 -17    1.66    0.48
   2   3  17    2.62    0.49
   2   3  17    1.59    0.52
   2  -3  17    0.99    0.38
   2  -3  17    1.93    0.38
   2  -3  17    2.59    0.52
   2   3 -19    2.58    0.45
   2   3 -19    3.30    0.52
   2   3 -19    4.06    0.54
   2  -3 -19    3.78    0.52
   2  -3 -19    3.46    0.52
   2  -3 -19    5.83    0.53
  -2   3  19    5.14    0.58
  -2   3  19    2.40    0.47
  -2   3  19    5.54    0.49
  -2  -3  19    4.63    0.62
  -2  -3  19    2.95    0.51
  -2  -3  19    4.87    0.53
  -2   3 -17    1.15    0.66
  -2   3 -17    1.70    0.40
  -2   3 -17    2.73    0.72
  -2  -3 -17    1.86    0.52
  -2  -3 -17    1.39    0.47
  -2  -3 -17    1.78    0.47
   2   4  17   25.47    1.09
   2   4  17   20.11    1.03
   2  -4  17   21.23    0.81
   2  -4  17   25.17    1.33
   2   4 -19    6.77    0.63
   2   4 -19    6.21    0.67
   2  -4 -19    5.46    0.53
   2  -4 -19    3.08    0.52
  -2   4  19    8.67    0.95
  -2   4  19    5.33    0.64
  -2  -4  19    6.40    0.67
  -2  -4  19    4.52    0.48
  -2  -4  19    7.46    0.72
  -2   4 -17   21.55    0.99
  -2   4 -17   18.91    0.94
  -2  -4 -17   24.30    1.14
  -2  -4 -17   24.63    0.97
  -2  -4 -17   19.42    0.93
   2   5  17    1.16    0.53
   2   5  17    2.49    0.53
   2  -5  17    1.72    0.47
   2  -5  17    1.96    0.56
   2   5 -19   12.14    0.99
   2   5 -19   11.85    0.99
  -2   5  19   14.87    1.06
  -2   5  19    9.61    0.95
  -2  -5  19   16.45    1.13
  -2  -5  19   13.15    1.05
  -2  -5  19   16.34    0.94
  -2   5 -17    1.21    0.43
  -2   5 -17    2.76    0.52
  -2  -5 -17    2.08    0.55
  -2  -5 -17    1.87    0.65
  -2  -5 -17    3.20    0.49
  -2  -5 -17    3.26    0.53
   2   6  17    1.18    0.52
   2   6  17    1.13    0.61
   2  -6  17    3.08    0.47
   2  -6  17    3.02    0.64
   2   6 -19    2.28    0.69
   2   6 -19    6.13    0.77
   2  -6 -19    0.78    0.54
  -2   6  19    3.95    0.60
  -2   6  19    3.08    0.65
  -2  -6  19    2.63    0.67
  -2  -6  19    4.03    0.69
  -2  -6  19    4.02    0.63
  -2   6 -17    2.62    0.52
  -2   6 -17    2.30    0.56
  -2  -6 -17    2.80    0.60
  -2  -6 -17    2.49    1.01
  -2  -6 -17    2.95    0.51
  -2  -6 -17    3.77    0.58
   2   7  17   -0.12    0.66
   2   7  17    1.74    1.22
   2  -7  17    0.39    0.64
   2   7 -19    0.44    0.71
   2   7 -19    1.23    0.77
  -2   7  19    0.95    0.56
  -2  -7  19    0.16    0.77
  -2  -7  19    0.08    0.53
  -2   7 -17    0.15    0.59
  -2  -7 -17    0.89    0.73
  -2  -7 -17    1.46    0.69
  -2  -7 -17    1.29    0.55
  -2  -7 -17    1.22    0.60
   2   8  17    1.52    1.04
   2  -8  17    1.62    0.78
   2   8 -19    0.51    0.86
  -2   8  19    0.86    0.76
  -2  -8  19    1.80    0.67
  -2   8 -17    2.50    0.63
  -2  -8 -17    2.09    0.90
  -2   9  19    3.10    0.91
   2   0  18    6.51    0.74
   2   0  18    8.69    0.84
   2   0 -20   18.50    0.87
   2   0 -20   20.30    1.00
   2   0 -20   20.25    0.83
  -2   0  20   24.60    1.06
  -2   0  20   18.01    0.95
  -2   0  20   23.21    0.86
  -2   0 -18    4.92    0.52
  -2   0 -18    7.73    0.83
   2   1  18   12.90    0.85
   2   1  18    6.89    0.74
   2  -1  18   11.06    0.72
   2  -1  18    7.45    0.75
   2  -1  18   11.13    0.85
   2   1 -20    7.84    0.76
   2   1 -20    7.36    0.84
   2   1 -20    6.94    0.70
   2  -1 -20    6.28    0.76
   2  -1 -20    6.86    0.82
   2  -1 -20    7.84    0.65
  -2   1  20    9.00    0.86
  -2   1  20    7.28    0.81
  -2   1  20    7.24    0.65
  -2  -1  20    7.80    0.87
  -2  -1  20    6.48    0.99
  -2  -1  20    8.39    0.72
  -2   1 -18   11.22    0.86
  -2   1 -18   11.11    0.83
  -2  -1 -18   10.62    0.87
   2   2  18   -0.58    0.40
   2  -2  18    0.04    0.37
   2  -2  18   -0.04    0.43
   2  -2  18    0.61    0.45
   2   2 -20   18.56    1.00
   2   2 -20   16.00    0.96
   2   2 -20   14.78    0.86
   2  -2 -20   15.19    0.94
   2  -2 -20   15.23    0.96
   2  -2 -20   15.90    0.73
  -2   2  20   14.37    0.96
  -2   2  20   19.58    0.70
  -2  -2  20   18.14    1.06
  -2  -2  20   18.65    0.95
  -2  -2  20   14.75    1.00
  -2   2 -18    0.99    0.48
  -2   2 -18    0.43    0.37
  -2  -2 -18    0.31    0.47
  -2  -2 -18    1.06    0.44
   2   3  18    2.40    0.58
   2   3  18    0.65    0.48
   2  -3  18    2.29    0.47
   2  -3  18    3.85    0.61
   2   3 -20    1.28    0.45
   2   3 -20    1.00    0.58
   2   3 -20    1.45    0.51
   2  -3 -20    3.62    0.51
   2  -3 -20    0.94    0.47
   2  -3 -20    3.12    0.42
  -2   3  20    2.06    0.47
  -2   3  20    2.53    0.37
  -2  -3  20    1.10    0.52
  -2  -3  20    1.35    0.51
  -2  -3  20    3.63    0.54
  -2   3 -18    2.05    0.52
  -2   3 -18    1.85    0.49
  -2  -3 -18    2.82    0.60
  -2  -3 -18    1.75    0.54
  -2  -3 -18    1.94    0.51
   2   4  18    0.56    0.51
   2   4  18    2.66    0.66
   2  -4  18    1.70    0.47
   2  -4  18    2.74    0.57
   2   4 -20    1.39    0.56
   2   4 -20    2.85    0.69
   2  -4 -20    0.66    0.53
   2  -4 -20   -0.49    0.49
  -2   4  20    3.02    0.60
  -2   4  20    2.42    0.53
  -2  -4  20    1.71    0.56
  -2  -4  20    1.51    0.52
  -2  -4  20    0.89    0.47
  -2   4 -18    2.33    0.50
  -2   4 -18    1.02    0.48
  -2  -4 -18    2.20    0.62
  -2  -4 -18    0.82    0.59
  -2  -4 -18    2.44    0.53
  -2  -4 -18    2.16    0.49
   2   5  18    0.96    0.58
   2   5  18    0.17    0.60
   2  -5  18   -0.05    0.44
   2   5 -20    5.00    0.70
   2  -5 -20   -0.62    0.54
  -2   5  20    3.06    0.62
  -2   5  20    4.49    0.66
  -2  -5  20    1.80    0.67
  -2  -5  20    4.69    0.77
  -2  -5  20    3.15    0.55
  -2   5 -18   -0.67    0.44
  -2   5 -18   -0.71    0.47
  -2  -5 -18   -0.77    0.96
  -2  -5 -18    0.24    0.53
  -2  -5 -18   -0.86    0.52
   2   6  18    0.50    0.63
   2  -6  18   -0.85    0.56
   2   6 -20   10.57    0.92
   2   6 -20   11.29    1.17
  -2   6  20   12.26    1.14
  -2  -6  20    4.92    0.81
  -2  -6  20   11.02    1.05
  -2   6 -18    0.31    0.56
  -2  -6 -18    1.09    0.71
  -2  -6 -18   -1.15    0.63
  -2  -6 -18    0.69    0.53
  -2  -6 -18   -1.39    0.56
   2   7  18    0.66    0.80
   2  -7  18    3.19    0.78
   2   7 -20    1.42    0.65
   2   7 -20    1.17    1.50
  -2   7  20    0.60    0.66
  -2  -7  20    0.23    0.85
  -2  -7  20   -1.08    0.89
  -2  -7  20   -0.21    0.64
  -2   7 -18    3.13    0.63
  -2  -7 -18    1.19    0.80
  -2  -7 -18    3.61    0.85
  -2  -7 -18    2.21    0.94
   2  -8  18   -0.65    0.83
   2   8 -20    8.42    1.10
  -2   8  20   22.05    1.74
  -2  -8  20   13.98    1.36
  -2   8 -18    0.31    0.65
  -2  -8 -18    3.11    0.89
  -2  -8 -18    0.65    0.98
   2   0  19    1.58    0.53
   2   0  19    0.70    0.49
   2   0 -21    0.09    0.43
   2   0 -21   -0.45    0.48
   2   0 -21    0.58    0.45
  -2   0  21   -0.06    0.48
  -2   0  21    0.55    0.61
  -2   0  21    0.10    0.42
  -2   0 -19   -1.01    0.50
  -2   0 -19   -0.28    0.44
  -2   0 -19    1.10    0.84
   2   1  19    0.45    0.49
   2   1  19    0.04    0.43
   2  -1  19    0.75    0.40
   2  -1  19    0.48    0.48
   2   1 -21    5.11    0.54
   2   1 -21    7.74    0.94
   2   1 -21    5.81    0.61
   2  -1 -21    3.84    0.47
   2  -1 -21    3.25    0.58
   2  -1 -21    6.17    0.71
  -2   1  21    6.25    0.60
  -2   1  21    7.60    0.65
  -2  -1  21    6.81    0.69
  -2  -1  21    5.08    0.64
  -2   1 -19    1.17    0.50
  -2   1 -19    1.94    0.52
  -2  -1 -19    0.86    0.46
  -2  -1 -19    1.41    0.51
  -2  -1 -19    0.51    0.50
   2   2  19    0.74    0.76
   2   2  19    3.05    0.61
   2  -2  19    3.19    0.54
   2  -2  19    4.18    0.60
   2   2 -21    4.20    0.65
   2   2 -21    1.83    0.56
   2   2 -21    3.36    0.55
   2  -2 -21    2.47    0.55
   2  -2 -21   -0.53    0.45
   2  -2 -21    3.47    0.47
  -2   2  21    5.09    0.96
  -2   2  21    3.40    0.62
  -2   2  21    3.96    0.45
  -2  -2  21    4.26    0.67
  -2  -2  21    3.15    0.52
  -2  -2  21    6.52    0.80
  -2   2 -19    5.31    0.59
  -2   2 -19    3.93    0.47
  -2  -2 -19    3.99    0.59
  -2  -2 -19    3.11    0.57
  -2  -2 -19    2.59    0.55
   2   3  19    0.63    0.50
   2   3  19    7.87    0.98
   2  -3  19    3.52    0.51
   2  -3  19    8.39    0.83
   2   3 -21   17.68    1.05
   2   3 -21   20.93    1.16
   2  -3 -21   15.87    1.09
   2  -3 -21   -0.10    0.52
   2  -3 -21   20.97    0.85
  -2   3  21   23.97    1.21
  -2   3  21   17.84    1.05
  -2   3  21   21.36    0.77
  -2  -3  21   22.12    1.19
  -2  -3  21   18.28    1.15
  -2  -3  21   21.57    1.00
  -2   3 -19   10.34    0.92
  -2   3 -19    6.67    0.64
  -2  -3 -19   10.59    1.04
  -2  -3 -19    7.61    0.71
   2   4  19    0.13    0.58
   2  -4  19    1.39    0.50
   2  -4  19   15.45    1.14
   2   4 -21   18.73    1.14
   2   4 -21   16.71    1.15
   2  -4 -21   -0.07    0.51
  -2   4  21   24.20    1.28
  -2   4  21   15.59    1.04
  -2  -4  21   20.82    1.22
  -2  -4  21   17.23    1.03
  -2   4 -19   11.03    1.05
  -2   4 -19   11.33    1.02
  -2  -4 -19   12.53    1.25
  -2  -4 -19   10.65    1.14
  -2  -4 -19   10.36    0.95
  -2  -4 -19    6.54    0.72
   2   5  19    0.54    0.60
   2  -5  19   -0.21    0.64
   2   5 -21    7.86    0.83
   2   5 -21   10.59    0.95
   2  -5 -21   -1.49    0.63
  -2   5  21   11.17    1.25
  -2   5  21    9.70    1.00
  -2  -5  21   10.71    0.91
  -2  -5  21   11.97    1.28
  -2  -5  21    9.38    1.01
  -2   5 -19   -1.25    0.53
  -2  -5 -19    0.01    0.67
  -2  -5 -19    0.46    0.63
  -2  -5 -19   -0.07    0.53
  -2  -5 -19   -0.58    0.61
   2   6  19    1.35    0.76
   2  -6  19    1.16    0.71
   2   6 -21    1.21    0.84
   2   6 -21    2.42    0.72
  -2   6  21    3.33    0.69
  -2  -6  21   -1.35    0.74
  -2  -6  21    3.93    0.75
  -2  -6  21    1.90    0.67
  -2   6 -19    1.66    0.61
  -2  -6 -19    0.09    0.74
  -2  -6 -19    0.33    0.61
  -2  -6 -19    0.59    0.64
   2  -7  19   -0.26    0.71
   2   7 -21    0.73    0.81
  -2   7  21    3.86    0.83
  -2  -7  21    2.74    0.68
  -2   7 -19    2.44    0.69
  -2  -7 -19   -0.45    0.87
  -2  -7 -19    0.96    0.70
   2   0  20   12.41    1.09
   2   0 -22    8.20    0.89
   2   0 -22    1.91    0.53
   2   0 -22    6.60    0.65
  -2   0  22    5.66    0.70
  -2   0  22    4.19    0.67
  -2   0  22    5.72    0.57
  -2   0 -20    9.38    0.83
  -2   0 -20    9.69    0.98
   2   1  20    1.31    0.55
   2  -1  20    0.92    0.49
   2  -1  20   30.04    1.23
   2   1 -22    9.81    1.05
   2   1 -22    4.38    0.73
   2   1 -22    7.69    0.68
   2  -1 -22    9.75    1.00
   2  -1 -22    1.48    0.56
   2  -1 -22    8.87    0.80
  -2   1  22   10.21    1.11
  -2   1  22   11.14    1.10
  -2   1  22   10.40    0.78
  -2  -1  22   11.17    1.06
  -2  -1  22    9.25    0.82
  -2  -1  22   11.41    0.88
  -2   1 -20   27.89    1.24
  -2   1 -20   28.79    1.18
  -2  -1 -20   28.33    1.30
  -2  -1 -20   27.05    1.17
   2   2  20    0.96    0.49
   2  -2  20    0.13    0.46
   2  -2  20    0.97    0.57
   2   2 -22   11.62    1.10
   2   2 -22    6.58    0.70
   2  -2 -22   10.17    1.08
   2  -2 -22   -0.72    0.57
   2  -2 -22    6.58    0.80
  -2   2  22   14.54    1.12
  -2   2  22   10.30    1.25
  -2   2  22   11.83    0.77
  -2  -2  22    9.75    1.11
  -2  -2  22    9.03    1.01
  -2  -2  22    8.65    0.88
  -2   2 -20    0.11    0.51
  -2   2 -20    1.43    0.48
  -2  -2 -20    0.90    0.58
  -2  -2 -20   -0.06    0.50
   2   3  20    0.78    0.62
   2  -3  20   -0.63    0.49
   2  -3  20    2.00    0.60
   2   3 -22    4.82    0.76
   2   3 -22    2.33    0.67
   2  -3 -22    1.33    0.60
   2  -3 -22    7.58    0.80
  -2   3  22    5.06    0.66
  -2   3  22    4.78    0.75
  -2   3  22    5.73    0.51
  -2  -3  22    5.03    0.78
  -2  -3  22    5.33    0.82
  -2  -3  22    4.93    0.61
  -2   3 -20    4.40    0.58
  -2   3 -20    2.70    0.62
  -2  -3 -20    3.13    0.72
  -2  -3 -20    3.09    0.64
  -2  -3 -20    2.15    0.68
   2   4  20   -0.12    0.58
   2  -4  20    3.63    0.70
   2   4 -22    0.63    0.59
   2   4 -22   -0.67    0.65
   2  -4 -22    0.22    0.59
  -2   4  22    1.94    0.66
  -2   4  22   -0.97    0.73
  -2   4  22    0.50    0.42
  -2  -4  22    0.62    0.73
  -2  -4  22   -0.34    0.53
  -2  -4  22    0.23    0.58
  -2   4 -20    2.00    0.57
  -2  -4 -20    0.75    0.65
  -2  -4 -20    2.41    0.59
  -2  -4 -20    2.69    0.66
   2  -5  20    4.05    0.73
   2   5 -22    0.84    0.73
   2   5 -22    2.17    0.78
  -2   5  22    2.65    0.66
  -2  -5  22    0.86    0.64
  -2  -5  22    3.44    0.86
  -2  -5  22    2.94    0.70
  -2   5 -20    3.95    0.72
  -2  -5 -20    4.20    0.85
  -2  -5 -20    3.27    0.64
  -2  -5 -20    3.09    0.67
  -2   6  22    6.33    0.83
  -2  -6  22    0.36    0.83
  -2  -6  22    6.70    0.86
  -2   6 -20   -1.77    0.67
  -2  -6 -20   -1.06    0.73
  -2  -6 -20    0.61    0.66
   2  -7  20    2.97    0.89
   2   7 -22    1.06    0.90
  -2   7  22    2.65    0.83
  -2   7 -20    3.99    0.87
  -2  -7 -20    0.47    0.97
  -2  -7 -20    1.69    0.69
   2   0  21    0.63    0.66
   2   0  21   -0.91    0.57
   2   0 -23   -0.11    0.53
   2   0 -23    1.48    0.61
   2   0 -23    0.59    0.60
  -2   0  23    1.57    0.70
  -2   0  23    0.56    0.63
  -2   0  23   -0.70    0.47
  -2   0 -21    0.68    0.58
  -2   0 -21   -0.42    0.50
   2   1  21    0.65    0.59
   2  -1  21    3.42    0.68
   2   1 -23    1.50    0.68
   2   1 -23    0.64    0.66
   2  -1 -23    2.74    0.74
   2  -1 -23    1.39    0.69
   2  -1 -23    0.53    0.53
  -2   1  23    0.40    0.53
  -2   1  23    2.23    0.68
  -2   1  23    1.89    0.51
  -2  -1  23    2.05    0.67
  -2  -1  23    0.65    0.72
  -2  -1  23    0.80    0.53
  -2   1 -21    1.44    0.67
  -2   1 -21    3.70    0.57
  -2  -1 -21    2.93    0.71
  -2  -1 -21    2.36    0.64
   2   2  21   -0.22    0.57
   2  -2  21   12.47    1.21
   2   2 -23    6.03    0.92
   2   2 -23    0.70    0.65
   2  -2 -23    0.46    0.63
   2  -2 -23    4.66    0.64
  -2   2  23    5.73    0.75
  -2   2  23    6.57    0.79
  -2   2  23    8.91    0.80
  -2  -2  23    5.20    0.79
  -2  -2  23    7.90    0.94
  -2  -2  23    5.37    0.66
  -2   2 -21   14.83    1.12
  -2  -2 -21   21.28    1.69
  -2  -2 -21   15.79    1.26
   2  -3  21    3.72    0.81
   2   3 -23    8.42    0.86
   2   3 -23    1.04    0.74
   2  -3 -23    0.33    0.66
  -2   3  23   11.93    1.24
  -2   3  23    7.54    1.32
  -2   3  23    9.56    0.83
  -2  -3  23   10.64    1.25
  -2  -3  23    8.25    1.00
  -2  -3  23    9.55    0.99
  -2   3 -21    1.15    0.66
  -2  -3 -21    1.42    0.75
   2  -4  21    5.56    0.91
   2   4 -23    8.95    0.84
   2   4 -23    0.43    0.80
  -2   4  23   10.75    1.30
  -2  -4  23    2.04    0.80
  -2  -4  23   11.63    1.39
  -2  -4  23    7.92    0.86
  -2   4 -21    2.23    0.69
  -2  -4 -21    2.19    0.72
  -2  -4 -21    2.59    0.66
   2  -5  21    1.43    0.73
   2   5 -23   10.06    1.15
   2   5 -23    0.57    0.88
  -2   5  23   16.77    1.59
  -2  -5  23   -1.19    0.71
  -2  -5  23   11.29    1.12
  -2  -5  23   12.58    1.24
  -2   5 -21    0.86    0.75
  -2  -5 -21   -0.54    0.72
  -2  -5 -21    0.47    0.62
   2  -6  21   -0.63    0.82
   2   6 -23    1.90    0.96
  -2   6  23    2.66    0.99
  -2  -6  23    1.09    0.78
  -2   6 -21    0.18    0.75
  -2  -6 -21   -2.27    0.84
  -2  -6 -21    1.19    0.76
   2   0 -24    1.02    0.69
   2   0 -24    1.08    0.70
  -2   0  24    0.09    0.69
  -2   0  24    0.97    0.76
  -2   0  24    0.35    0.59
  -2   0 -22    3.99    0.72
   2  -1  22    8.07    0.89
   2   1 -24   -0.37    0.76
   2  -1 -24   -1.36    0.64
   2  -1 -24   17.14    1.14
  -2   1  24   28.49    1.42
  -2   1  24   18.62    1.53
  -2  -1  24   18.28    1.46
  -2  -1  24   26.21    1.19
  -2   1 -22    9.78    1.11
  -2  -1 -22    6.95    0.82
   2  -2  22   -0.22    0.63
   2   2 -24   -1.62    0.78
   2   2 -24    1.15    0.80
  -2   2  24    1.54    0.74
  -2   2  24   -0.08    0.54
  -2  -2  24   -0.68    0.73
  -2  -2  24    2.79    0.70
  -2  -2  24    0.01    0.57
  -2   2 -22    0.44    0.69
  -2  -2 -22   -0.42    0.70
   2  -3  22    1.58    0.76
   2   3 -24   -1.58    0.76
   2   3 -24   -0.49    0.78
  -2   3  24    1.79    0.80
  -2   3  24    1.89    0.54
  -2  -3  24   -0.86    0.77
  -2  -3  24   -1.02    0.88
  -2  -3  24    0.32    0.61
  -2   3 -22    1.26    0.66
  -2  -3 -22    0.11    0.71
   2  -4  22   -0.86    0.77
   2   4 -24    2.93    0.89
   2   4 -24   -0.56    0.81
  -2   4  24    3.07    0.87
  -2  -4  24    0.17    0.90
  -2  -4  24    2.36    0.79
  -2  -4  24    5.25    0.87
  -2   4 -22    0.16    0.62
  -2  -4 -22    0.95    0.84
  -2  -4 -22    1.15    0.66
   2  -5  22    1.63    0.83
   2   5 -24   -0.32    1.08
  -2   5  24    3.08    1.07
  -2  -5  24   -1.23    0.79
  -2   5 -22    1.94    0.81
  -2  -5 -22   -1.57    0.84
  -2  -5 -22   -0.34    0.71
  -2   0  25   -0.01    0.76
  -2   0  25    1.00    0.67
  -2   0 -23    0.94    0.68
   2  -1  23    1.40    0.76
  -2   1  25    3.86    0.77
  -2   1  25    3.33    0.64
  -2  -1  25    2.90    0.90
  -2  -1  25    2.18    0.72
  -2   1 -23    0.55    0.64
  -2  -1 -23   -0.05    0.76
   2  -2  23    0.16    0.75
  -2   2  25   23.93    1.69
  -2   2  25   19.86    1.14
  -2  -2  25   10.71    1.51
  -2  -2  25   18.56    1.25
  -2   2 -23    0.00    0.78
  -2  -2 -23   -1.23    0.77
   2  -3  23    0.18    0.87
  -2   3  25    0.83    0.83
  -2  -3  25   -0.79    1.14
  -2  -3  25   -1.06    0.72
  -2   3 -23    0.55    0.66
  -2  -3 -23   -1.40    0.74
  -2   4  25   12.23    1.18
  -2   4 -23    0.52    0.82
  -2  -4 -23    1.03    0.76
  -2   0  26    1.68    0.96
  -2   0  26    2.41    0.76
  -2   0 -24    1.23    0.83
   2  -1  24    1.89    0.84
  -2   1  26   21.60    1.82
  -2   1  26   25.51    1.31
  -2  -1  26    5.47    0.97
  -2  -1  26   22.07    1.29
  -2   1 -24    0.16    0.87
  -2  -1 -24    0.10    0.81
  -2   2  26    1.38    0.94
  -2  -2  26    0.73    1.08
  -2   2 -24    0.88    0.85
  -2  -2 -24   -1.51    0.85
   3   0  -2   10.49    0.22
   3   0  -2    7.80    0.20
   3   0  -2    9.49    0.37
  -3   0   2    9.35    0.28
  -3   0   2    9.66    0.28
  -3   0   2    8.52    0.39
  -3   0   1   -0.18    0.10
  -3   0   1   -0.09    0.11
  -3   0   1   -0.20    0.17
   3   1  -1   38.00    0.49
   3   1  -1   35.60    0.47
   3   1  -1   38.39    0.71
   3   1  -2    5.60    0.24
   3   1  -2    5.17    0.24
   3   1  -2    5.16    0.34
  -3   1   2    6.02    0.21
  -3   1   2    5.46    0.20
  -3   1   2    5.44    0.32
  -3  -1   2    5.49    0.27
  -3  -1   2    5.39    0.28
  -3  -1   2    5.49    0.37
  -3   1   1   35.98    0.38
  -3   1   1   34.77    0.37
  -3   1   1   35.96    0.66
  -3  -1   1   37.99    0.55
  -3  -1   1   39.07    0.57
  -3  -1   1   35.84    0.71
   3   2  -1    3.31    0.27
   3   2  -1    3.39    0.25
   3   2  -1    2.27    0.31
   3   2  -2    1.00    0.17
   3   2  -2    0.75    0.17
  -3   2   2    1.03    0.20
  -3  -2   2    1.10    0.17
  -3  -2   2    0.48    0.17
  -3  -2   2    0.78    0.22
  -3   2   1    2.18    0.25
  -3   2   1    3.05    0.30
  -3  -2   1    3.21    0.25
  -3  -2   1    2.88    0.30
  -3  -2   1    2.34    0.28
   3   3  -1   23.93    0.54
   3   3  -1   24.18    0.56
   3   3  -1   23.76    0.64
   3   3  -2    0.59    0.17
   3   3  -2    0.72    0.19
   3   3  -2    0.13    0.21
  -3   3   2    0.84    0.17
  -3   3   2    0.97    0.18
  -3  -3   2    1.15    0.18
  -3  -3   2    0.42    0.20
  -3  -3   2    1.21    0.27
  -3   3   1   26.07    0.56
  -3   3   1   25.12    0.57
  -3  -3   1   26.40    0.59
  -3  -3   1   27.55    0.63
  -3  -3   1   25.77    0.68
   3   4  -1   19.56    0.55
   3   4  -1   19.08    0.62
   3   4  -2    4.25    0.39
   3   4  -2    2.76    0.44
   3   4  -2    4.99    0.41
  -3   4   2    5.73    0.33
  -3   4   2    4.87    0.35
  -3  -4   2    5.15    0.39
  -3  -4   2    3.67    0.42
  -3  -4   2    5.16    0.43
  -3   4   1   19.72    0.50
  -3   4   1   19.13    0.51
  -3  -4   1   20.73    0.59
  -3  -4   1   20.36    0.63
  -3  -4   1   19.99    0.65
   3   5  -1    6.37    0.43
   3   5  -1    5.43    0.44
   3   5  -1    5.88    0.47
   3   5  -2    5.21    0.42
   3   5  -2    4.63    0.46
   3   5  -2    4.73    0.46
  -3   5   2    5.57    0.25
  -3   5   2    4.58    0.25
  -3   5   2    4.15    0.33
  -3   5   2    4.14    0.34
  -3  -5   2    4.78    0.45
  -3  -5   2    4.57    0.42
  -3  -5   2    3.74    0.45
  -3   5   1    6.76    0.26
  -3   5   1    6.09    0.25
  -3   5   1    5.66    0.38
  -3  -5   1    6.64    0.45
  -3  -5   1    7.20    0.54
  -3  -5   1    6.88    0.50
   3   6  -1    0.22    0.24
   3   6  -1   -0.02    0.23
   3   6  -1   -0.45    0.28
   3   6  -2    9.60    0.57
   3   6  -2    8.11    0.58
   3   6  -2    8.14    0.55
  -3   6   2    9.01    0.36
  -3   6   2    7.24    0.33
  -3   6   2    9.27    0.44
  -3  -6   2   10.21    0.59
  -3  -6   2    9.56    0.62
  -3  -6   2    9.15    0.59
  -3   6   1   -0.18    0.16
  -3   6   1    0.05    0.16
  -3   6   1    0.51    0.23
  -3  -6   1    0.42    0.30
  -3  -6   1    0.08    0.31
  -3  -6   1    0.10    0.28
   3   7  -1    2.64    0.37
   3   7  -1    2.39    0.38
   3   7  -1    3.23    0.41
   3   7  -2    5.29    0.50
   3   7  -2    5.52    0.53
   3   7  -2    5.08    0.59
  -3   7   2    6.49    0.59
  -3   7   2    6.88    0.40
  -3   7   2    5.67    0.41
  -3  -7   2    6.82    0.71
  -3  -7   2    4.12    0.44
  -3  -7   2    5.41    0.53
  -3   7   1    3.44    0.33
  -3   7   1    2.28    0.26
  -3   7   1    2.34    0.31
  -3  -7   1    2.48    0.43
  -3  -7   1    1.81    0.41
  -3  -7   1    3.15    0.41
   3   8  -1    4.59    0.54
   3   8  -1    5.52    0.68
   3   8  -1    4.54    0.52
   3   8  -2    7.95    0.65
   3   8  -2    6.04    0.71
   3   8  -2    7.49    0.72
  -3   8   2    8.62    0.54
  -3   8   2    8.40    0.50
  -3   8   2    5.83    0.50
  -3  -8   2    8.50    0.89
  -3  -8   2    6.95    0.74
  -3   8   1    5.30    0.46
  -3   8   1    3.63    0.44
  -3   8   1    4.19    0.51
  -3  -8   1    4.76    0.55
  -3  -8   1    4.28    0.51
  -3  -8   1    5.24    1.01
   3   9  -1    8.44    0.88
   3   9  -1    6.82    0.79
   3   9  -1    5.73    0.64
   3   9  -2    8.05    0.90
   3   9  -2    6.16    0.62
   3   9  -2    7.43    0.67
  -3   9   2    7.79    0.59
  -3   9   2    9.56    0.60
  -3   9   2    8.37    0.73
  -3  -9   2   11.86    1.04
  -3  -9   2    8.30    0.75
  -3  -9   2   11.76    0.88
  -3   9   1    6.32    0.56
  -3  -9   1    6.16    0.69
  -3  -9   1    6.12    0.68
  -3  -9   1    6.75    0.62
   3  10  -1    1.38    0.67
   3  10  -1   -1.31    0.57
   3  10  -2   -1.63    0.63
   3  10  -2   -1.32    0.55
  -3  10   2    0.98    0.44
  -3  10   2   -0.86    0.38
  -3 -10   2   -1.34    0.64
  -3 -10   2   -0.60    0.55
  -3  10   1   -0.04    0.39
  -3  10   1    0.66    0.36
  -3  10   1   -0.36    0.40
  -3 -10   1   -0.91    0.63
  -3 -10   1   -0.94    0.54
  -3 -10   1    1.09    0.58
   3  11  -1    0.89    0.79
   3  11  -2    2.59    0.76
   3  11  -2   -1.58    0.61
  -3  11   2   -0.71    0.43
  -3 -11   2    0.39    0.93
  -3 -11   2   -0.37    0.71
  -3 -11   2    0.24    0.65
  -3  11   1    3.74    0.50
  -3 -11   1    3.88    0.85
  -3 -11   1    0.46    0.79
  -3 -11   1    2.18    0.70
   3   0  -3    0.26    0.09
   3   0  -3   -0.12    0.16
  -3   0   3   -0.14    0.10
  -3   0   3    0.03    0.09
  -3   0   3    0.10    0.15
  -3   0   0  262.13    1.18
  -3   0   0  259.24    1.18
  -3   0   0  251.56    1.74
   3   1   0   82.18    0.69
   3   1   0   77.67    0.67
   3   1  -3   19.98    0.40
   3   1  -3   16.95    0.38
   3   1  -3   19.94    0.54
  -3   1   3   19.04    0.34
  -3   1   3   19.27    0.33
  -3   1   3   20.09    0.51
  -3  -1   3   19.70    0.44
  -3  -1   3   18.18    0.45
  -3  -1   3   18.66    0.54
  -3   1   0   78.48    0.96
  -3  -1   0   84.95    0.80
  -3  -1   0   87.65    0.82
   3   2   0    9.41    0.40
   3   2   0    8.24    0.33
   3   2   0    8.21    0.46
   3   2  -3   24.83    0.58
   3   2  -3   23.19    0.49
  -3   2   3   23.75    0.34
  -3   2   3   22.09    0.32
  -3   2   3   25.35    0.53
  -3  -2   3   26.13    0.54
  -3  -2   3   25.32    0.55
  -3  -2   3   24.71    0.62
  -3   2   0    8.40    0.39
  -3   2   0    8.58    0.40
  -3  -2   0    9.47    0.35
  -3  -2   0    9.53    0.39
  -3  -2   0    8.86    0.45
   3   3   0    1.15    0.19
   3   3   0    1.64    0.22
   3   3   0    1.17    0.29
   3   3  -3   46.86    0.75
   3   3  -3   42.47    0.71
   3   3  -3   44.57    0.83
  -3   3   3   47.56    0.69
  -3   3   3   50.29    0.71
  -3  -3   3   47.14    0.78
  -3  -3   3   48.00    0.80
  -3  -3   3   46.61    0.88
  -3   3   0    1.11    0.19
  -3   3   0    2.82    0.34
  -3  -3   0    1.43    0.19
  -3  -3   0    1.65    0.26
  -3  -3   0    2.11    0.28
   3   4   0   19.91    0.57
   3   4   0   18.93    0.61
   3   4  -3  120.60    1.27
   3   4  -3   89.85    1.12
   3   4  -3  113.10    1.35
  -3   4   3  130.05    0.80
  -3   4   3  107.96    0.73
  -3   4   3  115.22    1.03
  -3   4   3  123.03    1.07
  -3  -4   3  122.25    1.31
  -3  -4   3  124.28    1.34
  -3  -4   3  115.67    1.38
  -3   4   0   19.05    0.54
  -3  -4   0   19.63    0.58
  -3  -4   0   20.44    0.62
  -3  -4   0   19.12    0.63
   3   5   0    2.05    0.26
   3   5   0    1.68    0.27
   3   5   0    2.22    0.31
   3   5  -3    1.59    0.27
   3   5  -3    1.93    0.36
   3   5  -3    1.97    0.33
  -3   5   3    1.49    0.18
  -3   5   3    1.61    0.17
  -3   5   3    2.69    0.30
  -3   5   3    1.80    0.22
  -3  -5   3    1.53    0.30
  -3  -5   3    1.50    0.30
  -3  -5   3    1.16    0.27
  -3   5   0    1.91    0.20
  -3   5   0    1.42    0.16
  -3   5   0    1.55    0.26
  -3  -5   0    2.37    0.31
  -3  -5   0    2.52    0.31
  -3  -5   0    1.62    0.31
   3   6   0   60.73    1.07
   3   6   0   59.04    1.09
   3   6   0   54.66    1.07
   3   6  -3    1.35    0.28
   3   6  -3    0.56    0.31
   3   6  -3    1.21    0.34
  -3   6   3    1.64    0.21
  -3   6   3    1.01    0.20
  -3   6   3    1.22    0.21
  -3   6   3    1.62    0.23
  -3  -6   3    1.12    0.27
  -3  -6   3    1.10    0.32
  -3  -6   3    2.21    0.38
  -3   6   0   56.68    0.66
  -3   6   0   59.57    0.91
  -3  -6   0   64.89    1.15
  -3  -6   0   61.54    1.15
  -3  -6   0   57.35    1.11
   3   7   0    0.89    0.35
   3   7   0    0.23    0.33
   3   7  -3    8.63    0.66
   3   7  -3    7.37    0.69
   3   7  -3    5.99    0.60
  -3   7   3    8.37    0.43
  -3   7   3    7.68    0.41
  -3  -7   3    9.38    0.67
  -3  -7   3    7.03    0.66
  -3  -7   3    7.44    0.67
  -3   7   0    0.14    0.21
  -3   7   0   -0.03    0.27
  -3  -7   0    1.40    0.34
  -3  -7   0    0.11    0.35
  -3  -7   0    0.29    0.33
   3   8   0    4.52    0.55
   3   8   0    5.13    0.52
   3   8   0    5.85    0.57
   3   8  -3    0.93    0.38
   3   8  -3   -0.46    0.32
  -3   8   3    0.70    0.27
  -3   8   3    0.05    0.26
  -3   8   3   -0.11    0.26
  -3  -8   3    0.13    0.40
  -3  -8   3    0.20    0.40
  -3  -8   3   -0.08    0.40
  -3   8   0    4.37    0.36
  -3   8   0    4.68    0.47
  -3   8   0    5.55    0.53
  -3  -8   0    4.85    0.56
  -3  -8   0    5.40    0.53
  -3  -8   0    4.29    0.61
   3   9   0    0.42    0.52
   3   9   0   -0.42    0.43
   3   9  -3    3.28    0.60
   3   9  -3    2.51    0.61
   3   9  -3    3.23    0.62
  -3   9   3    4.88    0.43
  -3   9   3    2.64    0.37
  -3   9   3    3.90    0.34
  -3  -9   3    4.02    0.67
  -3  -9   3    2.54    0.58
  -3  -9   3    4.09    0.61
  -3   9   0   -0.60    0.31
  -3   9   0    0.51    0.29
  -3   9   0   -0.06    0.35
  -3  -9   0   -0.06    0.44
   3  10   0    6.89    0.72
   3  10   0    4.60    0.67
   3  10  -3    0.41    0.56
   3  10  -3   -0.62    0.59
  -3  10   3    1.43    0.40
  -3  10   3   -0.12    0.41
  -3 -10   3    3.83    0.71
  -3 -10   3    1.32    0.64
  -3 -10   3    0.68    0.59
  -3  10   0    4.18    0.50
  -3  10   0    5.87    0.68
  -3  10   0    7.96    0.79
  -3 -10   0    6.85    0.77
  -3 -10   0    4.44    0.64
  -3 -10   0    5.23    0.62
   3  11   0    2.08    0.85
   3  11   0    0.83    0.65
   3  11  -3   -0.49    0.84
   3  11  -3   -0.20    0.75
  -3 -11   3    1.41    0.93
  -3 -11   3    2.02    0.73
  -3 -11   3    1.00    0.69
  -3  11   0    0.76    0.43
  -3 -11   0   -0.22    0.81
  -3 -11   0    0.35    0.77
  -3 -11   0   -1.08    0.60
   3   0  -4    2.53    0.18
   3   0  -4    2.25    0.20
   3   0  -4    2.41    0.28
  -3   0   4    2.08    0.20
  -3   0   4    2.27    0.22
  -3   0   4    2.49    0.26
  -3   0  -1   -0.27    0.10
  -3   0  -1   -0.13    0.11
  -3   0  -1    0.29    0.15
   3   1   1  128.27    0.86
   3   1   1  116.52    0.81
   3   1  -4  156.31    1.06
   3   1  -4  136.38    0.99
   3   1  -4  150.68    1.36
   3  -1  -4  153.90    1.25
  -3   1   4  144.76    0.92
  -3   1   4  136.78    0.88
  -3   1   4  152.04    1.26
  -3  -1   4  155.11    1.16
  -3  -1   4  146.33    1.34
  -3   1  -1  132.38    0.68
  -3   1  -1  125.46    1.24
  -3   1  -1  132.19    1.28
  -3  -1  -1  130.40    0.99
  -3  -1  -1  133.26    1.01
  -3  -1  -1  123.07    1.27
   3   2   1   74.84    0.79
   3   2   1   75.95    1.03
   3   2  -4    5.00    0.31
   3   2  -4    5.58    0.44
  -3   2   4    5.35    0.24
  -3   2   4    5.63    0.23
  -3   2   4    5.63    0.33
  -3  -2   4    6.07    0.34
  -3  -2   4    5.97    0.32
  -3  -2   4    5.71    0.41
  -3   2  -1   77.21    0.98
  -3   2  -1   81.76    1.02
  -3  -2  -1   81.75    0.89
  -3  -2  -1   83.52    0.92
  -3  -2  -1   78.19    1.06
   3   3   1  101.33    1.04
   3   3   1   97.42    1.03
   3   3   1  101.45    1.24
   3   3  -4   12.24    0.44
   3   3  -4   10.83    0.44
   3   3  -4   12.12    0.51
  -3   3   4   13.70    0.32
  -3   3   4   11.90    0.29
  -3   3   4   12.84    0.39
  -3   3   4   13.06    0.41
  -3  -3   4   12.31    0.45
  -3  -3   4   12.21    0.47
  -3  -3   4   12.74    0.52
  -3   3  -1  109.25    1.16
  -3  -3  -1  108.35    1.13
  -3  -3  -1  111.39    1.17
  -3  -3  -1  104.18    1.27
   3   4   1    5.42    0.42
   3   4   1    2.95    0.37
   3   4  -4   24.47    0.64
   3   4  -4   23.12    0.64
   3   4  -4   22.54    0.66
  -3   4   4   29.60    0.46
  -3   4   4   23.12    0.41
  -3   4   4   26.55    0.52
  -3   4   4   26.54    0.53
  -3  -4   4   25.25    0.66
  -3  -4   4   25.08    0.68
  -3  -4   4   25.23    0.70
  -3   4  -1    4.90    0.39
  -3  -4  -1    4.93    0.39
  -3  -4  -1    4.88    0.44
  -3  -4  -1    4.81    0.47
   3   5   1   22.28    0.67
   3   5   1   21.41    0.65
   3   5   1   19.48    0.66
   3   5  -4    0.43    0.23
   3   5  -4    0.49    0.29
  -3   5   4    0.67    0.16
  -3   5   4    0.07    0.15
  -3   5   4    0.43    0.15
  -3   5   4    0.69    0.18
  -3  -5   4    1.21    0.24
  -3  -5   4   -0.21    0.22
  -3  -5   4    0.10    0.26
  -3   5  -1   19.95    0.35
  -3   5  -1   19.93    0.35
  -3   5  -1   20.38    0.61
  -3  -5  -1   20.83    0.67
  -3  -5  -1   24.09    0.73
  -3  -5  -1   21.62    0.70
   3   6   1    7.70    0.57
   3   6   1    4.84    0.54
   3   6   1    6.45    0.56
   3   6  -4   -0.34    0.27
   3   6  -4    0.63    0.32
   3   6  -4   -0.30    0.26
  -3   6   4    0.30    0.16
  -3   6   4    0.03    0.16
  -3   6   4    0.15    0.17
  -3   6   4    0.64    0.18
  -3  -6   4   -0.20    0.24
  -3  -6   4   -0.61    0.29
  -3  -6   4    0.06    0.28
  -3   6  -1    5.81    0.32
  -3   6  -1    5.41    0.33
  -3  -6  -1    7.37    0.60
  -3  -6  -1    5.41    0.59
  -3  -6  -1    5.91    0.61
   3   7   1    8.26    0.69
   3   7   1    7.64    0.65
   3   7   1    9.31    0.66
   3   7  -4   41.35    1.03
   3   7  -4   38.80    1.02
   3   7  -4   35.06    0.95
  -3   7   4   39.89    0.99
  -3   7   4   38.65    0.71
  -3   7   4   43.07    0.63
  -3   7   4   38.97    0.60
  -3  -7   4   44.10    1.09
  -3  -7   4   40.94    1.04
  -3  -7   4   39.36    1.02
  -3   7  -1    8.71    0.41
  -3   7  -1    7.43    0.53
  -3  -7  -1    8.99    0.71
  -3  -7  -1    8.29    0.63
   3   8   1    0.31    0.39
   3   8   1    0.59    0.38
   3   8   1    0.88    0.44
   3  -8   1    0.24    0.35
   3   8  -4    4.43    0.55
   3   8  -4    3.84    0.55
   3   8  -4    2.73    0.46
  -3   8   4    4.68    0.48
  -3   8   4    3.25    0.34
  -3  -8   4    4.68    0.52
  -3  -8   4    3.83    0.51
  -3  -8   4    6.59    0.72
  -3   8  -1    0.24    0.25
  -3   8  -1    0.66    0.27
  -3   8  -1    0.19    0.31
  -3  -8  -1   -0.32    0.45
  -3  -8  -1    0.83    0.44
  -3  -8  -1    0.51    0.37
   3   9   1   11.45    1.08
   3   9   1    8.43    0.90
   3   9   1    6.22    0.64
   3  -9   1    7.71    0.71
   3   9  -4   19.57    1.05
   3   9  -4   19.16    1.05
  -3   9   4   22.36    0.77
  -3   9   4   18.50    0.72
  -3  -9   4   24.00    1.22
  -3  -9   4   20.95    1.04
  -3  -9   4   21.02    1.08
  -3   9  -1    7.53    0.60
  -3   9  -1    7.45    0.55
  -3   9  -1    5.98    0.68
  -3  -9  -1   10.91    1.07
  -3  -9  -1    8.24    0.79
  -3  -9  -1    6.66    0.64
   3  10   1    0.72    0.71
   3  10   1    0.33    0.50
   3 -10   1    1.44    0.47
   3  10  -4    3.16    0.69
   3  10  -4    3.46    0.71
  -3  10   4    7.60    0.80
  -3  10   4    4.03    0.50
  -3 -10   4    6.50    0.78
  -3 -10   4    2.74    0.69
  -3 -10   4    4.68    0.72
  -3  10  -1   -0.17    0.39
  -3  10  -1   -0.49    0.36
  -3  10  -1    0.05    0.44
  -3 -10  -1    0.04    0.62
  -3 -10  -1   -0.65    0.55
  -3 -10  -1    0.86    0.53
   3  11   1    7.93    1.08
   3  11   1    0.79    0.66
   3  11  -4   -1.19    0.84
   3  11  -4   -0.35    0.69
  -3  11   4   -0.25    0.45
  -3 -11   4    1.40    0.71
  -3 -11   4    0.58    0.66
  -3  11  -1    4.23    0.51
  -3 -11  -1    5.72    0.99
  -3 -11  -1    3.51    0.72
  -3 -11  -1    6.35    0.81
   3   0  -5    0.13    0.10
   3   0  -5   -0.14    0.13
   3   0  -5    0.14    0.16
  -3   0   5   -0.05    0.12
  -3   0   5    0.07    0.13
  -3   0   5    0.37    0.19
  -3   0  -2    1.91    0.20
  -3   0  -2    1.77    0.17
  -3   0  -2    1.78    0.21
   3   1   2    0.44    0.13
   3   1   2    0.70    0.14
   3   1  -5    0.64    0.16
   3   1  -5    0.74    0.15
   3   1  -5    0.46    0.18
   3  -1  -5    0.70    0.10
   3  -1  -5    0.57    0.11
   3  -1  -5    0.51    0.17
  -3   1   5    0.47    0.12
  -3   1   5    0.69    0.14
  -3   1   5    1.06    0.20
  -3  -1   5    0.59    0.15
  -3  -1   5    0.83    0.16
  -3  -1   5    0.51    0.20
  -3   1  -2    0.84    0.11
  -3   1  -2    0.74    0.11
  -3   1  -2    2.57    0.27
  -3   1  -2    0.91    0.24
  -3  -1  -2    0.66    0.15
  -3  -1  -2    1.02    0.17
  -3  -1  -2    1.27    0.22
   3   2   2  188.41    1.40
   3   2   2  212.37    1.32
   3   2  -5    9.91    0.45
   3   2  -5   10.94    0.39
   3   2  -5   10.60    0.44
  -3   2   5   10.49    0.31
  -3   2   5    9.93    0.31
  -3   2   5   11.49    0.40
  -3  -2   5   10.96    0.41
  -3  -2   5   11.12    0.41
  -3  -2   5   10.28    0.46
  -3   2  -2  224.48    1.68
  -3  -2  -2  229.44    1.48
  -3  -2  -2  229.91    1.51
  -3  -2  -2  221.13    1.77
   3   3   2   16.55    0.48
   3   3   2   16.45    0.48
   3   3   2   17.98    0.57
   3   3  -5  146.74    1.31
   3   3  -5  142.01    1.46
  -3   3   5  151.66    0.98
  -3   3   5  131.54    0.90
  -3   3   5  147.67    1.12
  -3   3   5  154.00    1.15
  -3  -3   5  147.31    1.37
  -3  -3   5  145.28    1.35
  -3  -3   5  142.44    1.47
  -3   3  -2   16.46    0.54
  -3  -3  -2   17.96    0.51
  -3  -3  -2   17.42    0.54
  -3  -3  -2   17.57    0.60
   3   4   2   20.84    0.59
   3   4   2   21.16    0.67
   3   4  -5  173.89    1.55
   3   4  -5  153.79    1.46
   3   4  -5  159.94    1.62
  -3   4   5  185.25    1.14
  -3   4   5  154.22    1.04
  -3   4   5  163.47    1.12
  -3   4   5  176.64    1.17
  -3  -4   5  169.97    1.58
  -3  -4   5  173.63    1.60
  -3  -4   5  165.72    1.67
  -3   4  -2   19.45    0.95
  -3  -4  -2   21.41    0.61
  -3  -4  -2   22.81    0.65
  -3  -4  -2   20.54    0.67
   3   5   2    4.54    0.48
   3   5   2    3.55    0.40
   3   5  -5    5.55    0.46
   3   5  -5    5.98    0.56
   3   5  -5    3.86    0.46
  -3   5   5    6.87    0.34
  -3   5   5    4.96    0.31
  -3   5   5    5.26    0.28
  -3   5   5    5.80    0.31
  -3  -5   5    4.22    0.44
  -3  -5   5    4.80    0.50
  -3  -5   5    4.27    0.49
  -3   5  -2    2.26    0.23
  -3   5  -2    2.69    0.34
  -3  -5  -2    3.73    0.38
  -3  -5  -2    3.87    0.48
  -3  -5  -2    4.00    0.49
   3   6   2   75.77    1.24
   3   6   2   63.30    1.14
   3   6  -5   50.12    1.04
   3   6  -5   46.07    1.00
   3   6  -5   44.73    0.98
  -3   6   5   55.22    0.79
  -3   6   5   44.63    0.70
  -3   6   5   47.91    0.59
  -3   6   5   47.69    0.59
  -3  -6   5   49.49    1.02
  -3  -6   5   47.35    1.04
  -3  -6   5   49.34    1.07
  -3   6  -2   72.27    0.75
  -3   6  -2   65.48    0.72
  -3   6  -2   71.55    1.07
  -3  -6  -2   75.83    1.27
  -3  -6  -2   77.24    1.28
  -3  -6  -2   69.20    1.23
   3   7   2    0.41    0.33
   3   7   2   -0.09    0.33
   3   7   2    0.93    0.37
   3  -7   2    0.41    0.32
   3   7  -5    1.36    0.31
   3   7  -5    1.61    0.37
   3   7  -5    1.25    0.39
  -3   7   5    1.17    0.26
  -3   7   5    0.84    0.26
  -3  -7   5    1.44    0.35
  -3  -7   5    0.27    0.37
  -3  -7   5    0.94    0.36
  -3   7  -2   -0.01    0.19
  -3   7  -2   -0.42    0.28
  -3   7  -2    0.08    0.30
  -3  -7  -2    0.14    0.36
  -3  -7  -2   -0.39    0.35
  -3  -7  -2   -0.06    0.34
   3   8   2   16.79    1.00
   3   8   2   15.01    0.89
   3   8   2   14.16    0.82
   3  -8   2   14.29    0.73
   3   8  -5    2.39    0.47
   3   8  -5    2.04    0.46
   3   8  -5    2.55    0.47
  -3   8   5    3.44    0.34
  -3   8   5    2.46    0.33
  -3  -8   5    3.92    0.48
  -3  -8   5    3.02    0.50
  -3  -8   5    3.87    0.53
  -3   8  -2   14.94    0.57
  -3   8  -2   14.35    0.56
  -3   8  -2   11.43    0.67
  -3  -8  -2   15.78    0.93
  -3  -8  -2   15.95    0.93
  -3  -8  -2   15.24    0.82
   3   9   2    1.86    0.56
   3   9   2    0.40    0.52
   3   9   2    0.70    0.52
   3  -9   2    0.59    0.44
   3   9  -5   12.48    0.97
   3   9  -5   12.79    1.01
   3  -9  -5   11.30    0.65
  -3   9   5   11.73    0.66
  -3   9   5   11.85    0.68
  -3  -9   5   14.16    1.08
  -3  -9   5   12.80    1.01
  -3  -9   5   11.31    0.98
  -3   9  -2    0.37    0.32
  -3   9  -2    0.10    0.30
  -3   9  -2    1.65    0.44
  -3  -9  -2    0.23    0.60
  -3  -9  -2    1.01    0.48
  -3  -9  -2    0.43    0.47
   3  10   2    2.80    0.72
   3  10   2    2.10    0.62
   3 -10   2    0.82    0.53
   3  10  -5    1.23    0.66
   3  10  -5   -0.22    0.57
   3 -10  -5    0.60    0.35
  -3  10   5    1.71    0.41
  -3  10   5    1.20    0.47
  -3 -10   5    2.00    0.65
  -3 -10   5    2.52    0.66
  -3 -10   5    0.05    0.49
  -3  10  -2    0.54    0.41
  -3  10  -2   -0.44    0.38
  -3  10  -2    0.23    0.51
  -3 -10  -2    1.47    0.68
  -3 -10  -2    1.28    0.61
  -3 -10  -2    1.23    0.60
   3  11   2    1.56    1.08
   3  11   2    0.20    0.74
   3 -11   2   -0.91    0.55
  -3  11   5    2.58    0.52
  -3 -11   5    1.84    0.96
  -3 -11   5   -1.30    0.71
  -3 -11   5    0.79    0.70
  -3  11  -2    0.44    0.47
  -3 -11  -2    1.05    0.91
  -3 -11  -2   -0.88    0.73
  -3 -11  -2    2.40    0.72
   3   0  -6   43.89    0.58
   3   0  -6   49.55    0.76
  -3   0   6   47.45    0.67
  -3   0   6   40.55    0.66
  -3   0   6   48.74    0.77
  -3   0  -3    0.25    0.12
  -3   0  -3    0.06    0.11
  -3   0  -3   -0.03    0.16
  -3   0  -3    0.54    0.25
   3   1   3    0.23    0.13
   3   1  -6   53.87    0.86
   3   1  -6   54.11    0.70
   3   1  -6   59.78    0.88
   3  -1  -6   56.87    0.57
   3  -1  -6   61.83    0.80
  -3   1   6   58.59    0.69
  -3   1   6   54.88    0.67
  -3   1   6   61.79    0.81
  -3  -1   6   58.03    0.77
  -3  -1   6   55.97    0.76
  -3  -1   6   61.46    0.90
  -3   1  -3    0.39    0.11
  -3   1  -3    0.34    0.10
  -3   1  -3    0.19    0.16
  -3  -1  -3    0.21    0.13
  -3  -1  -3    0.34    0.16
  -3  -1  -3    0.02    0.18
   3   2   3    3.80    0.31
   3   2  -6    0.76    0.17
   3   2  -6    0.52    0.20
   3   2  -6    0.58    0.23
   3  -2  -6    0.92    0.17
   3  -2  -6    0.75    0.11
  -3   2   6    0.51    0.15
  -3   2   6    0.54    0.13
  -3   2   6    0.60    0.16
  -3  -2   6    0.88    0.19
  -3  -2   6    0.97    0.19
  -3  -2   6    0.50    0.18
  -3  -2  -3    3.57    0.32
  -3  -2  -3    3.45    0.34
  -3  -2  -3    4.01    0.37
   3   3   3   12.22    0.44
   3   3   3   11.93    0.44
   3   3  -6   11.92    0.44
   3   3  -6   10.03    0.49
  -3   3   6   11.22    0.35
  -3   3   6   11.70    0.35
  -3   3   6   11.31    0.40
  -3  -3   6   11.48    0.48
  -3  -3   6   10.31    0.46
  -3  -3   6   11.42    0.51
  -3   3  -3   10.96    0.51
  -3  -3  -3   15.17    0.51
  -3  -3  -3   13.06    0.51
  -3  -3  -3   13.64    0.51
   3   4   3    0.28    0.21
   3   4   3    0.83    0.23
   3   4  -6   11.67    0.50
   3   4  -6   12.06    0.53
   3   4  -6   10.11    0.54
  -3   4   6   13.06    0.41
  -3   4   6    9.79    0.37
  -3   4   6   11.35    0.37
  -3   4   6    9.39    0.37
  -3  -4   6   12.16    0.55
  -3  -4   6    9.63    0.55
  -3   4  -3    0.39    0.25
  -3  -4  -3    0.51    0.21
  -3  -4  -3   -0.02    0.22
  -3  -4  -3    0.55    0.23
   3   5   3   10.63    0.56
   3   5   3   10.63    0.54
   3   5   3   12.28    0.59
   3   5  -6    0.41    0.22
   3   5  -6    0.74    0.28
   3   5  -6   -0.54    0.24
  -3   5   6    0.34    0.17
  -3   5   6    0.25    0.18
  -3   5   6    0.45    0.17
  -3   5   6    0.47    0.15
  -3  -5   6    0.12    0.23
  -3  -5   6    0.02    0.24
  -3  -5   6   -0.07    0.24
  -3   5  -3   11.48    0.33
  -3   5  -3    9.82    0.30
  -3   5  -3   11.29    0.55
  -3  -5  -3   13.13    0.58
  -3  -5  -3   12.11    0.61
  -3  -5  -3   11.30    0.63
   3   6   3   11.02    0.63
   3   6   3   12.13    0.64
   3   6   3   10.00    0.67
   3  -6   3   12.44    0.63
   3   6  -6   18.83    0.74
   3   6  -6   18.12    0.74
   3   6  -6   16.18    0.68
  -3   6   6   21.54    0.59
  -3   6   6   16.27    0.52
  -3  -6   6   17.45    0.72
  -3  -6   6   18.17    0.75
  -3  -6   6   17.96    0.75
  -3   6  -3    9.92    0.40
  -3   6  -3    7.78    0.39
  -3   6  -3   10.92    0.57
  -3  -6  -3   11.27    0.68
  -3  -6  -3   12.26    0.70
  -3  -6  -3    9.46    0.66
   3   7   3    5.66    0.65
   3   7   3    6.40    0.68
   3   7   3    4.32    0.48
   3  -7   3    4.99    0.60
   3   7  -6   19.34    0.86
   3   7  -6   18.22    0.83
   3   7  -6   15.39    0.74
   3  -7  -6   17.50    0.42
   3  -7  -6   17.94    0.43
  -3   7   6   21.91    0.61
  -3   7   6   17.31    0.58
  -3  -7   6   18.90    0.79
  -3  -7   6   19.42    0.83
  -3  -7   6   21.45    1.04
  -3   7  -3    5.76    0.42
  -3   7  -3    4.06    0.39
  -3   7  -3    5.89    0.58
  -3  -7  -3    5.70    0.69
  -3  -7  -3    5.76    0.52
  -3  -7  -3    5.67    0.68
   3   8   3    1.97    0.44
   3   8   3    1.35    0.48
   3  -8   3    2.78    0.45
   3   8  -6    5.11    0.51
   3   8  -6    5.11    0.58
   3   8  -6    6.61    0.66
   3  -8  -6    7.46    0.44
   3  -8  -6    8.13    0.43
  -3   8   6    7.54    0.56
  -3   8   6    7.36    0.55
  -3  -8   6    6.04    1.05
  -3  -8   6    7.06    0.82
  -3  -8   6    8.28    0.82
  -3   8  -3    2.12    0.30
  -3   8  -3    2.22    0.33
  -3   8  -3    1.63    0.39
  -3  -8  -3    2.11    0.49
  -3  -8  -3    2.04    0.49
  -3  -8  -3    1.61    0.47
   3   9   3   12.47    1.08
   3   9   3    8.64    0.99
   3   9   3    9.35    0.96
   3  -9   3   10.61    0.82
   3   9  -6    1.43    0.54
   3   9  -6    2.91    0.60
   3  -9  -6    2.47    0.32
  -3   9   6    3.65    0.44
  -3   9   6    2.78    0.42
  -3  -9   6    3.55    0.66
  -3  -9   6    2.65    0.53
  -3  -9   6    3.29    0.58
  -3   9  -3    9.76    0.63
  -3   9  -3   11.52    0.63
  -3   9  -3    8.37    0.79
  -3  -9  -3   11.91    1.29
  -3  -9  -3   15.10    1.02
  -3  -9  -3   11.30    0.89
   3  10   3   -0.41    0.71
   3  10   3    0.30    0.62
   3 -10   3   -0.57    0.48
   3  10  -6    0.49    0.74
   3  10  -6   -0.52    0.59
   3 -10  -6   -0.92    0.36
  -3  10   6    0.96    0.39
  -3  10   6    0.56    0.46
  -3 -10   6    1.90    0.68
  -3 -10   6    1.27    0.69
  -3 -10   6    1.13    0.53
  -3  10  -3    0.31    0.42
  -3  10  -3    0.04    0.39
  -3  10  -3   -0.02    0.55
  -3 -10  -3   -0.11    0.68
  -3 -10  -3    1.40    0.68
  -3 -10  -3    1.29    0.57
   3  11   3    1.90    0.77
   3 -11   3    1.91    0.70
   3  11  -6    2.11    0.89
   3  11  -6   -0.82    0.72
  -3  11   6   -0.66    0.51
  -3 -11   6   -0.65    0.99
  -3 -11   6   -1.11    0.72
  -3 -11   6   -1.66    0.63
  -3  11  -3    0.43    0.47
  -3 -11  -3    1.51    0.93
  -3 -11  -3    1.56    0.65
   3   0   4  200.75    0.94
   3   0   4  198.29    0.89
   3   0  -7    0.30    0.13
   3   0  -7   -0.12    0.14
   3   0  -7    0.03    0.17
  -3   0   7    0.08    0.17
  -3   0   7    0.18    0.13
  -3   0   7    0.23    0.16
  -3   0  -4  218.81    1.23
  -3   0  -4  207.20    1.21
  -3   0  -4  208.28    1.72
  -3   0  -4  216.77    1.75
   3   1   4    5.11    0.26
   3   1   4    4.08    0.28
   3   1  -7   -0.15    0.14
   3   1  -7   -0.02    0.16
   3   1  -7   -0.08    0.18
   3  -1  -7    0.23    0.12
   3  -1  -7    0.18    0.13
   3  -1  -7   -0.11    0.16
  -3   1   7   -0.06    0.14
  -3   1   7    0.22    0.15
  -3   1   7    0.02    0.15
  -3  -1   7    0.28    0.18
  -3  -1   7    0.22    0.15
  -3  -1   7    0.10    0.17
  -3   1  -4    5.57    0.25
  -3   1  -4    5.31    0.23
  -3   1  -4    5.58    0.41
  -3  -1  -4    5.70    0.32
  -3  -1  -4    5.83    0.31
  -3  -1  -4    5.05    0.36
   3   2   4   27.31    0.54
   3   2   4   24.91    0.53
   3   2  -7   31.70    0.62
   3   2  -7   29.37    0.61
   3   2  -7   31.17    0.70
   3  -2  -7   31.32    0.45
   3  -2  -7   32.35    0.45
   3  -2  -7   33.46    0.58
  -3   2   7   33.61    0.57
  -3   2   7   29.33    0.53
  -3   2   7   33.33    0.58
  -3  -2   7   32.43    0.66
  -3  -2   7   32.28    0.67
  -3  -2   7   33.50    0.73
  -3   2  -4   26.84    0.38
  -3   2  -4   26.23    0.37
  -3   2  -4   29.08    0.70
  -3  -2  -4   29.46    0.60
  -3  -2  -4   28.74    0.60
  -3  -2  -4   27.12    0.68
   3   3   4   16.34    0.51
   3   3   4   14.90    0.47
   3   3  -7   22.46    0.58
   3   3  -7   21.06    0.62
   3  -3  -7   20.78    0.36
   3  -3  -7   24.01    0.39
  -3   3   7   23.08    0.49
  -3   3   7   19.83    0.45
  -3   3   7   22.51    0.47
  -3  -3   7   21.14    0.60
  -3  -3   7   21.12    0.61
  -3  -3   7   21.90    0.66
  -3   3  -4   16.55    0.57
  -3  -3  -4   16.40    0.54
  -3  -3  -4   17.64    0.57
  -3  -3  -4   15.96    0.58
   3   4   4    4.06    0.41
   3   4  -7    2.84    0.30
   3   4  -7    2.66    0.29
   3   4  -7    1.87    0.32
   3  -4  -7    3.07    0.23
   3  -4  -7    3.09    0.23
  -3   4   7    3.99    0.35
  -3   4   7    1.99    0.20
  -3   4   7    2.96    0.27
  -3   4   7    3.39    0.28
  -3  -4   7    2.83    0.34
  -3  -4   7    2.25    0.30
  -3  -4   7    3.25    0.37
  -3   4  -4    4.62    0.24
  -3   4  -4    5.56    0.46
  -3  -4  -4    5.24    0.45
  -3  -4  -4    5.13    0.49
  -3  -4  -4    5.42    0.51
   3   5   4   15.10    0.64
   3   5   4   11.34    0.58
   3  -5   4   13.77    0.64
   3   5  -7    2.04    0.29
   3   5  -7    1.80    0.34
   3   5  -7    1.41    0.31
   3  -5  -7    2.01    0.23
   3  -5  -7    2.32    0.26
  -3   5   7    2.21    0.24
  -3   5   7    1.77    0.23
  -3  -5   7    1.37    0.28
  -3  -5   7    2.04    0.34
  -3  -5   7    1.90    0.34
  -3   5  -4   13.62    0.37
  -3   5  -4   11.02    0.35
  -3   5  -4   11.91    0.62
  -3  -5  -4   14.79    0.66
  -3  -5  -4   13.40    0.66
  -3  -5  -4   14.41    0.68
   3   6   4   79.69    1.27
   3   6   4   78.15    1.26
   3   6   4   79.17    1.25
   3  -6   4   80.90    1.24
   3   6  -7   35.25    0.91
   3   6  -7   31.60    0.90
   3   6  -7   28.73    0.86
   3  -6  -7   30.17    0.51
   3  -6  -7   33.48    0.52
  -3   6   7   39.36    0.76
  -3   6   7   31.68    0.69
  -3  -6   7   35.64    0.94
  -3  -6   7   32.06    0.90
  -3  -6   7   34.08    0.95
  -3   6  -4   80.41    0.82
  -3   6  -4   75.21    0.81
  -3   6  -4   81.58    1.19
  -3  -6  -4   87.97    1.38
  -3  -6  -4   86.76    1.38
  -3  -6  -4   78.41    1.29
   3   7   4    0.41    0.33
   3   7   4    0.41    0.32
   3   7   4    0.50    0.35
   3  -7   4    0.30    0.34
   3   7  -7   17.65    0.84
   3   7  -7   17.28    0.85
   3   7  -7   16.11    0.77
   3  -7  -7   16.27    0.46
  -3   7   7   20.48    0.68
  -3   7   7   16.74    0.63
  -3  -7   7   19.79    0.82
  -3  -7   7   16.94    0.81
  -3  -7   7   15.31    0.99
  -3   7  -4   -0.53    0.21
  -3   7  -4    0.29    0.22
  -3   7  -4   -0.26    0.31
  -3  -7  -4   -0.55    0.33
  -3  -7  -4   -0.26    0.38
  -3  -7  -4   -0.48    0.36
   3   8   4    6.82    0.78
   3   8   4    8.29    0.86
   3   8   4    6.07    0.76
   3  -8   4    4.67    0.50
   3   8  -7   17.69    0.99
   3   8  -7   17.89    0.92
   3   8  -7   15.65    0.92
   3  -8  -7   18.64    0.57
   3  -8  -7   21.94    0.57
  -3   8   7   21.26    0.69
  -3   8   7   16.43    0.67
  -3  -8   7   19.32    0.98
  -3  -8   7   18.62    0.92
  -3  -8   7   20.27    0.96
  -3   8  -4    6.31    0.53
  -3   8  -4    4.70    0.53
  -3   8  -4    6.28    0.67
  -3  -8  -4    6.68    0.67
  -3  -8  -4    4.01    0.51
  -3  -8  -4    5.05    0.53
   3   9   4    1.63    0.58
   3   9   4    1.37    0.53
   3  -9   4    0.48    0.46
   3   9  -7    0.10    0.41
   3   9  -7   -0.42    0.49
   3  -9  -7    0.73    0.34
  -3   9   7    0.30    0.31
  -3   9   7    0.37    0.37
  -3  -9   7    0.66    0.63
  -3  -9   7   -0.19    0.48
  -3  -9   7    0.36    0.51
  -3   9  -4    1.09    0.38
  -3   9  -4    1.34    0.34
  -3   9  -4    0.65    0.50
  -3  -9  -4   -0.14    0.54
  -3  -9  -4    1.68    0.50
   3  10   4    1.81    0.80
   3  10   4   -0.06    0.61
   3 -10   4    0.71    0.54
   3  10  -7   -0.05    0.54
   3 -10  -7    1.81    0.44
  -3  10   7    1.87    0.45
  -3  10   7    1.55    0.49
  -3 -10   7    2.04    0.67
  -3 -10   7    2.09    0.74
  -3 -10   7    0.53    0.59
  -3  10  -4    0.48    0.45
  -3  10  -4    1.66    0.43
  -3  10  -4    1.35    0.54
  -3 -10  -4    1.04    0.65
  -3 -10  -4    2.33    0.69
  -3 -10  -4   -1.01    0.58
   3  11   4    0.88    0.91
   3 -11   4    2.18    0.68
   3  11  -7    1.25    0.91
  -3  11   7    0.81    0.50
  -3 -11   7    4.13    0.97
  -3 -11   7    1.29    0.67
  -3 -11   7    2.71    0.83
  -3  11  -4    1.84    0.52
  -3 -11  -4    1.52    0.83
  -3 -11  -4    3.49    0.74
   3   0   5    0.48    0.11
   3   0   5   -0.24    0.13
   3   0  -8    0.56    0.15
   3   0  -8    0.41    0.18
   3   0  -8    0.50    0.19
  -3   0   8    0.56    0.17
  -3   0   8    0.48    0.16
  -3   0   8    0.65    0.18
  -3   0  -5   -0.26    0.15
  -3   0  -5    0.08    0.12
  -3   0  -5   -0.25    0.16
  -3   0  -5   -0.18    0.21
   3   1   5    1.23    0.15
   3   1   5    1.23    0.17
   3   1  -8  143.73    1.22
   3   1  -8  129.84    1.16
   3  -1  -8  138.06    1.05
   3  -1  -8  131.72    1.02
   3  -1  -8  146.08    1.22
  -3   1   8  140.31    1.19
  -3   1   8   99.64    1.27
  -3   1   8  143.44    1.22
  -3  -1   8  143.40    1.31
  -3  -1   8  136.30    1.26
  -3  -1   8  141.08    1.37
  -3   1  -5    0.86    0.16
  -3   1  -5    0.66    0.14
  -3   1  -5    1.15    0.26
  -3  -1  -5    0.82    0.17
  -3  -1  -5    1.06    0.17
  -3  -1  -5    0.82    0.21
  -3  -1  -5    1.22    0.26
   3   2   5    5.14    0.31
   3   2   5    4.95    0.36
   3   2  -8   37.44    0.70
   3   2  -8   32.70    0.67
   3   2  -8   35.77    0.75
   3  -2  -8   34.02    0.52
   3  -2  -8   36.27    0.54
   3  -2  -8   38.17    0.61
  -3   2   8   37.59    0.65
  -3   2   8   34.02    0.60
  -3   2   8   37.03    0.61
  -3  -2   8   34.40    0.72
  -3  -2   8   35.07    0.72
  -3  -2   8   37.89    0.79
  -3   2  -5    5.04    0.27
  -3   2  -5    4.56    0.24
  -3   2  -5    4.75    0.41
  -3  -2  -5    4.11    0.34
  -3  -2  -5    4.63    0.34
  -3  -2  -5    4.92    0.40
   3   3   5    0.51    0.19
   3   3   5   -0.17    0.20
   3   3  -8   58.49    0.91
   3   3  -8   52.16    0.88
   3   3  -8   55.18    0.96
   3  -3  -8   56.98    0.64
   3  -3  -8   58.47    0.65
  -3   3   8   59.68    0.79
  -3   3   8   53.17    0.74
  -3   3   8   59.13    0.68
  -3  -3   8   59.01    0.95
  -3  -3   8   55.75    0.93
  -3  -3   8   57.58    1.00
  -3   3  -5    0.07    0.12
  -3   3  -5   -0.08    0.11
  -3   3  -5    0.61    0.23
  -3  -3  -5    0.17    0.17
  -3  -3  -5   -0.16    0.19
  -3  -3  -5    0.07    0.20
   3   4   5    0.31    0.22
   3  -4   5   -0.39    0.24
   3   4  -8    5.65    0.41
   3   4  -8    4.62    0.48
   3   4  -8    6.37    0.46
   3  -4  -8    5.59    0.29
   3  -4  -8    6.15    0.29
  -3   4   8    6.36    0.39
  -3   4   8    4.84    0.36
  -3   4   8    5.75    0.28
  -3   4   8    6.27    0.30
  -3  -4   8    4.24    0.47
  -3  -4   8    5.42    0.48
  -3   4  -5    0.21    0.13
  -3   4  -5    0.60    0.15
  -3   4  -5    0.00    0.26
  -3  -4  -5   -0.22    0.21
  -3  -4  -5    0.19    0.23
  -3  -4  -5    0.92    0.29
   3   5   5   67.26    1.11
   3   5   5   63.69    1.07
   3  -5   5   64.76    1.12
   3   5  -8   13.94    0.61
   3   5  -8   14.80    0.68
   3   5  -8   16.78    0.66
   3  -5  -8   13.89    0.39
   3  -5  -8   16.77    0.42
  -3   5   8   18.74    0.57
  -3   5   8   14.72    0.51
  -3  -5   8   14.99    0.65
  -3  -5   8   15.90    0.69
  -3   5  -5   62.40    0.69
  -3   5  -5   58.37    0.68
  -3   5  -5   64.33    1.09
  -3  -5  -5   69.26    1.14
  -3  -5  -5   68.78    1.17
  -3  -5  -5   62.98    1.15
   3   6   5    3.00    0.42
   3   6   5    4.60    0.55
   3  -6   5    3.41    0.42
   3   6  -8    0.90    0.28
   3   6  -8    1.04    0.39
   3   6  -8    1.65    0.33
   3  -6  -8    1.60    0.21
   3  -6  -8    1.01    0.21
  -3   6   8    1.76    0.28
  -3   6   8    1.22    0.25
  -3  -6   8    0.84    0.33
  -3  -6   8    0.75    0.34
  -3  -6   8    0.74    0.37
  -3   6  -5    3.80    0.39
  -3   6  -5    2.23    0.25
  -3   6  -5    3.12    0.40
  -3  -6  -5    3.52    0.42
  -3  -6  -5    3.33    0.43
  -3  -6  -5    3.82    0.46
   3   7   5    0.22    0.37
   3   7   5    0.42    0.37
   3  -7   5   -0.27    0.32
   3   7  -8    8.81    0.70
   3   7  -8    6.67    0.73
   3   7  -8   10.21    0.67
   3  -7  -8    9.21    0.42
   3  -7  -8    8.92    0.46
  -3   7   8   10.40    0.62
  -3   7   8    7.50    0.55
  -3  -7   8    7.82    0.73
  -3  -7   8    7.88    0.73
  -3  -7   8    7.12    0.76
  -3   7  -5    0.54    0.25
  -3   7  -5   -0.20    0.22
  -3   7  -5   -0.19    0.33
  -3  -7  -5   -0.21    0.38
  -3  -7  -5   -0.29    0.34
  -3  -7  -5   -0.40    0.37
   3   8   5   10.51    0.87
   3   8   5    7.29    0.61
   3  -8   5    8.56    0.79
   3   8  -8    4.25    0.58
   3   8  -8    3.24    0.46
   3  -8  -8    2.31    0.31
   3  -8  -8    2.40    0.39
  -3   8   8    3.36    0.39
  -3   8   8    2.27    0.39
  -3  -8   8    2.41    0.49
  -3  -8   8    1.85    0.48
  -3  -8   8    3.60    0.52
  -3   8  -5   10.28    0.58
  -3   8  -5    8.41    0.56
  -3   8  -5    9.10    0.73
  -3  -8  -5    8.40    0.91
  -3  -8  -5   11.88    0.93
  -3  -8  -5    9.28    0.83
   3   9   5    0.65    0.44
   3   9   5   -0.38    0.62
   3  -9   5    0.19    0.45
   3   9  -8    9.44    1.12
   3   9  -8    7.77    0.93
   3  -9  -8   10.21    0.64
  -3   9   8    9.46    0.71
  -3   9   8    6.87    0.76
  -3  -9   8    7.67    0.84
  -3  -9   8    6.49    0.70
  -3  -9   8   11.02    0.99
  -3   9  -5    1.30    0.40
  -3   9  -5    0.76    0.33
  -3   9  -5   -0.34    0.54
  -3  -9  -5    2.86    0.65
  -3  -9  -5    0.44    0.49
  -3  -9  -5    0.79    0.49
   3 -10   5    0.33    0.56
   3  10  -8    0.75    0.72
   3  10  -8   -0.61    0.57
   3 -10  -8   -0.69    0.44
  -3  10   8   -0.77    0.41
  -3  10   8   -1.41    0.49
  -3 -10   8    0.36    0.80
  -3 -10   8    1.24    0.62
  -3 -10   8   -0.37    0.64
  -3  10  -5    1.05    0.45
  -3  10  -5    0.58    0.39
  -3  10  -5    1.71    0.61
  -3 -10  -5   -0.67    0.63
  -3 -10  -5    1.55    0.83
  -3 -10  -5    1.33    0.62
   3 -11   5   -0.49    0.72
   3  11  -8    1.23    0.89
   3  11  -8   -0.95    0.87
  -3  11   8   -0.70    0.58
  -3 -11   8    1.80    1.02
  -3 -11   8    1.67    0.88
  -3 -11   8   -0.89    0.76
  -3  11  -5    1.66    0.51
  -3 -11  -5    1.71    0.83
  -3 -11  -5    0.64    0.68
   3   0   6    4.76    0.26
   3   0   6    3.25    0.25
   3   0  -9    0.21    0.14
   3   0  -9    0.03    0.18
   3   0  -9   -0.18    0.17
  -3   0   9   -0.12    0.19
  -3   0   9   -0.03    0.15
  -3   0   9   -0.15    0.19
  -3   0  -6    5.60    0.32
  -3   0  -6    5.17    0.30
  -3   0  -6    4.76    0.43
   3   1   6   11.33    0.37
   3   1   6    9.08    0.34
   3   1  -9  133.74    1.23
   3   1  -9  119.61    1.17
   3   1  -9  120.46    1.49
   3  -1  -9  131.22    1.10
   3  -1  -9  125.54    1.07
   3  -1  -9  136.17    1.19
  -3   1   9  130.49    1.22
  -3   1   9  126.54    1.19
  -3   1   9  133.53    1.19
  -3  -1   9  129.64    1.30
  -3  -1   9  124.66    1.26
  -3  -1   9  131.98    1.35
  -3   1  -6   11.22    0.37
  -3   1  -6   10.40    0.34
  -3   1  -6   10.97    0.51
  -3  -1  -6   11.71    0.46
  -3  -1  -6   10.11    0.40
  -3  -1  -6   10.93    0.50
  -3  -1  -6   10.66    0.51
   3   2   6    0.18    0.15
   3   2   6    0.58    0.17
   3   2  -9   23.88    0.59
   3   2  -9   24.27    0.65
   3  -2  -9   22.04    0.48
   3  -2  -9   23.11    0.49
   3  -2  -9   23.99    0.51
  -3   2   9   24.13    0.58
  -3   2   9   22.34    0.55
  -3   2   9   24.02    0.52
  -3  -2   9   23.21    0.64
  -3  -2   9   23.03    0.61
  -3  -2   9   22.60    0.65
  -3   2  -6    0.66    0.17
  -3   2  -6    0.31    0.13
  -3   2  -6   -0.08    0.23
  -3  -2  -6    0.10    0.17
  -3  -2  -6   -0.22    0.14
  -3  -2  -6   -0.16    0.22
  -3  -2  -6    0.26    0.23
   3   3   6    9.13    0.46
   3   3   6    8.83    0.47
   3   3  -9    1.03    0.22
   3   3  -9    1.81    0.29
   3   3  -9    1.00    0.27
   3  -3  -9    1.36    0.18
   3  -3  -9    1.37    0.19
  -3   3   9    1.18    0.22
  -3   3   9    1.08    0.19
  -3   3   9    1.31    0.20
  -3  -3   9    1.25    0.27
  -3  -3   9    1.43    0.26
  -3  -3   9    2.00    0.29
  -3   3  -6    8.89    0.34
  -3   3  -6    8.38    0.31
  -3   3  -6    9.07    0.53
  -3  -3  -6   11.22    0.49
  -3  -3  -6    9.93    0.48
  -3  -3  -6    8.52    0.54
   3   4   6   16.31    0.61
   3  -4   6   16.72    0.69
   3   4  -9    4.91    0.42
   3   4  -9    4.60    0.50
   3  -4  -9    4.77    0.32
   3  -4  -9    6.34    0.35
  -3   4   9    6.36    0.44
  -3   4   9    5.44    0.41
  -3  -4   9    4.39    0.47
  -3  -4   9    4.65    0.47
  -3  -4   9    6.19    0.53
  -3   4  -6   14.23    0.40
  -3   4  -6   13.69    0.38
  -3   4  -6   15.61    0.66
  -3  -4  -6   16.84    0.63
  -3  -4  -6   16.62    0.63
  -3  -4  -6   15.75    0.65
   3   5   6   16.14    0.63
   3   5   6   13.21    0.64
   3  -5   6   15.58    0.72
   3   5  -9   13.16    0.63
   3   5  -9   11.78    0.65
   3   5  -9    9.79    0.60
   3  -5  -9   11.29    0.40
   3  -5  -9   12.11    0.43
  -3   5   9   13.82    0.55
  -3   5   9   10.78    0.51
  -3  -5   9   11.62    0.61
  -3  -5   9   11.55    0.64
  -3  -5   9   10.67    0.67
  -3   5  -6   14.70    0.44
  -3   5  -6   13.33    0.43
  -3   5  -6   16.60    0.71
  -3  -5  -6   16.73    0.70
  -3  -5  -6   17.03    0.75
  -3  -5  -6   13.97    0.73
   3   6   6   44.28    1.02
   3   6   6   43.33    1.02
   3  -6   6   43.31    1.03
   3   6  -9    0.95    0.32
   3   6  -9    0.74    0.35
   3   6  -9    0.72    0.36
   3  -6  -9    0.66    0.23
   3  -6  -9    0.81    0.23
  -3   6   9    0.51    0.44
  -3   6   9    0.41    0.26
  -3  -6   9    0.31    0.32
  -3  -6   9    0.72    0.32
  -3  -6   9    0.83    0.37
  -3   6  -6   40.56    0.70
  -3   6  -6   41.98    0.99
  -3  -6  -6   44.14    1.06
  -3  -6  -6   48.57    1.15
  -3  -6  -6   38.92    1.02
   3   7   6   11.28    0.82
   3   7   6   10.48    0.79
   3  -7   6   10.15    0.77
   3   7  -9    2.74    0.45
   3   7  -9    1.63    0.45
   3   7  -9    1.28    0.49
   3  -7  -9    2.70    0.28
   3  -7  -9    2.46    0.29
  -3   7   9    4.53    0.56
  -3   7   9    2.48    0.36
  -3  -7   9    2.96    0.46
  -3  -7   9    2.46    0.44
  -3  -7   9    1.68    0.42
  -3   7  -6   10.60    0.54
  -3   7  -6    7.50    0.49
  -3   7  -6    9.46    0.71
  -3  -7  -6   10.20    0.77
  -3  -7  -6   12.70    0.86
  -3  -7  -6   10.40    0.77
   3   8   6   -0.91    0.45
   3   8   6   -0.26    0.53
   3  -8   6    0.44    0.42
   3   8  -9   19.09    1.01
   3   8  -9   17.18    0.95
   3  -8  -9   15.17    0.80
   3  -8  -9   15.43    0.82
  -3   8   9   22.23    0.85
  -3   8   9   16.14    0.76
  -3  -8   9   20.85    0.99
  -3  -8   9   17.49    0.90
  -3  -8   9   19.29    0.94
  -3   8  -6    0.17    0.32
  -3   8  -6   -0.29    0.27
  -3   8  -6    0.84    0.41
  -3  -8  -6   -0.05    0.45
  -3  -8  -6   -0.29    0.47
  -3  -8  -6   -0.03    0.50
   3   9   6    3.94    0.57
   3   9   6    6.62    0.75
   3  -9   6    6.39    0.67
   3   9  -9    3.84    0.68
   3   9  -9    1.12    0.51
   3  -9  -9    0.82    0.40
  -3   9   9    1.41    0.40
  -3   9   9    2.52    0.45
  -3  -9   9    2.01    0.56
  -3  -9   9    1.76    0.56
  -3   9  -6    6.59    0.73
  -3   9  -6    6.05    0.64
  -3   9  -6    4.02    0.64
  -3  -9  -6    7.07    0.73
  -3  -9  -6    7.54    0.76
  -3  -9  -6    6.34    0.64
   3  10   6    0.42    0.67
   3  10   6   -0.42    0.89
   3 -10   6    0.57    0.58
   3  10  -9    0.40    0.68
   3  10  -9   -1.07    0.67
   3 -10  -9    1.15    0.52
  -3  10   9   -0.61    0.43
  -3 -10   9    0.20    0.85
  -3 -10   9    2.00    0.67
  -3 -10   9    0.29    0.62
  -3  10  -6    0.76    0.52
  -3  10  -6   -0.62    0.40
  -3  10  -6    0.83    0.64
  -3 -10  -6    2.31    0.73
  -3 -10  -6    2.44    1.23
  -3 -10  -6    0.30    0.62
   3 -11   6   -0.16    0.69
   3  11  -9   -0.04    0.93
  -3  11   9    0.91    0.57
  -3 -11   9    0.46    0.69
  -3 -11   9    1.65    0.80
  -3 -11  -6    1.42    0.91
  -3 -11  -6   -0.84    0.68
   3   0   7    0.35    0.13
   3   0   7   -0.13    0.15
   3   0 -10   27.37    0.60
   3   0 -10   26.50    0.60
   3   0 -10   26.85    0.63
  -3   0  10   26.96    0.64
  -3   0  10   27.22    0.63
  -3   0  10   28.38    0.64
  -3   0  -7    0.10    0.17
  -3   0  -7   -0.07    0.16
  -3   0  -7    0.21    0.26
   3   1   7    0.49    0.17
   3   1   7    0.57    0.16
   3  -1   7    0.70    0.13
   3  -1   7    0.89    0.14
   3   1 -10   30.38    0.64
   3   1 -10   26.68    0.64
   3   1 -10   27.94    0.66
   3  -1 -10   29.84    0.60
   3  -1 -10   28.71    0.59
   3  -1 -10   28.49    0.60
  -3   1  10   29.92    0.67
  -3   1  10   28.05    0.63
  -3   1  10   29.41    0.61
  -3  -1  10   29.24    0.70
  -3  -1  10   27.63    0.66
  -3  -1  10   29.68    0.71
  -3   1  -7    0.79    0.18
  -3   1  -7    0.77    0.19
  -3   1  -7   -0.09    0.25
  -3  -1  -7    0.50    0.17
  -3  -1  -7    0.86    0.23
  -3  -1  -7    0.75    0.28
   3   2   7    4.77    0.36
   3   2   7    3.52    0.37
   3   2 -10   85.28    1.08
   3   2 -10   82.38    1.15
   3  -2 -10   80.47    0.90
   3  -2 -10   80.94    0.90
   3  -2 -10   84.77    0.89
  -3   2  10   85.71    1.05
  -3   2  10   75.36    1.13
  -3   2  10   83.69    0.90
  -3  -2  10   83.84    1.15
  -3  -2  10   77.54    1.08
  -3  -2  10   85.28    1.18
  -3   2  -7    3.30    0.32
  -3   2  -7    4.00    0.28
  -3   2  -7    3.52    0.44
  -3  -2  -7    4.04    0.41
  -3  -2  -7    3.51    0.37
  -3  -2  -7    3.99    0.41
  -3  -2  -7    4.02    0.48
   3   3   7    3.95    0.39
   3   3   7    4.58    0.43
   3   3 -10    0.11    0.24
   3   3 -10   -0.53    0.23
   3   3 -10    0.08    0.24
   3  -3 -10    0.31    0.17
   3  -3 -10    0.07    0.17
   3  -3 -10   -0.16    0.16
  -3   3  10    0.20    0.22
  -3   3  10    0.10    0.18
  -3   3  10    0.61    0.17
  -3  -3  10   -0.16    0.21
  -3  -3  10    0.39    0.22
  -3  -3  10    0.00    0.24
  -3   3  -7    4.22    0.32
  -3   3  -7    4.83    0.30
  -3   3  -7    5.09    0.48
  -3  -3  -7    4.47    0.42
  -3  -3  -7    4.96    0.44
  -3  -3  -7    4.39    0.48
  -3  -3  -7    4.16    0.43
   3   4   7  125.00    1.41
   3  -4   7  129.27    1.58
   3   4 -10   51.94    0.98
   3   4 -10   49.30    1.02
   3   4 -10   51.15    1.04
   3  -4 -10   52.78    0.75
   3  -4 -10   54.06    0.76
  -3   4  10   64.09    0.98
  -3   4  10   48.76    0.84
  -3  -4  10   51.66    1.03
  -3  -4  10   50.54    1.01
  -3  -4  10   55.07    1.11
  -3   4  -7  118.67    0.99
  -3   4  -7  112.03    0.98
  -3   4  -7  129.88    1.54
  -3  -4  -7  137.41    1.53
  -3  -4  -7  133.20    1.52
  -3  -4  -7  129.53    1.55
   3   5   7   57.99    1.09
   3   5   7   51.06    1.05
   3  -5   7   54.64    1.11
   3   5 -10    0.09    0.27
   3   5 -10    0.04    0.31
   3   5 -10    0.23    0.30
   3  -5 -10    0.63    0.22
   3  -5 -10    0.65    0.21
  -3   5  10    1.15    0.28
  -3   5  10    0.29    0.25
  -3  -5  10    0.03    0.23
  -3  -5  10   -0.05    0.30
  -3  -5  10    0.64    0.35
  -3   5  -7   51.29    0.74
  -3   5  -7   48.23    0.70
  -3   5  -7   53.46    1.08
  -3  -5  -7   56.98    1.12
  -3  -5  -7   57.49    1.15
  -3  -5  -7   56.63    1.14
   3   6   7   18.41    0.79
   3   6   7   16.83    0.81
   3  -6   7   18.24    0.83
   3   6 -10  129.51    1.69
   3   6 -10  122.15    1.66
   3   6 -10  122.03    1.72
   3  -6 -10  116.86    1.15
   3  -6 -10  136.08    1.23
  -3   6  10  152.42    1.55
  -3   6  10  121.51    1.38
  -3  -6  10  129.92    1.71
  -3   6  -7   17.36    0.55
  -3   6  -7   17.30    0.55
  -3   6  -7   17.27    0.74
  -3  -6  -7   20.71    0.82
  -3  -6  -7   19.55    0.88
  -3  -6  -7   20.58    0.85
   3   7   7    8.00    0.76
   3   7   7    9.38    0.80
   3  -7   7    9.04    0.78
   3   7 -10   -0.32    0.38
   3   7 -10    0.17    0.37
   3   7 -10    0.50    0.42
   3  -7 -10    0.60    0.26
   3  -7 -10    0.19    0.28
  -3   7  10    0.44    0.29
  -3   7  10   -0.34    0.29
  -3  -7  10    0.17    0.40
  -3  -7  10   -0.12    0.32
  -3  -7  10    0.31    0.40
  -3   7  -7    9.53    0.58
  -3   7  -7    5.95    0.53
  -3   7  -7    7.07    0.71
  -3  -7  -7    9.80    0.79
  -3  -7  -7   10.34    0.89
  -3  -7  -7    7.01    0.81
   3   8   7    5.14    0.57
   3   8   7    7.94    0.97
   3   8 -10    9.61    0.75
   3   8 -10    9.44    0.89
   3  -8 -10    9.70    0.64
  -3   8  10   10.43    0.80
  -3   8  10    9.04    0.74
  -3  -8  10    8.57    0.91
  -3  -8  10    8.21    0.82
  -3  -8  10    9.39    0.88
  -3   8  -7    7.67    0.61
  -3   8  -7    4.04    0.40
  -3   8  -7    7.80    0.80
  -3  -8  -7    4.50    0.58
  -3  -8  -7    6.06    0.94
   3   9   7    0.61    0.57
   3   9   7    1.51    0.60
   3  -9   7    0.25    0.55
   3   9 -10   -1.88    0.65
   3   9 -10   -0.06    0.53
   3  -9 -10    2.55    0.45
  -3   9  10    1.14    0.39
  -3   9  10    0.60    0.49
  -3  -9  10    2.08    0.64
  -3  -9  10    0.27    0.43
  -3  -9  10    2.47    0.63
  -3   9  -7    0.43    0.39
  -3   9  -7    0.50    0.36
  -3   9  -7    0.23    0.54
  -3  -9  -7    1.42    0.63
  -3  -9  -7   -0.31    0.53
  -3  -9  -7    0.09    0.51
   3  10   7    1.16    0.66
   3 -10   7    0.67    0.69
   3  10 -10   -0.94    0.79
   3  10 -10   -1.65    0.60
  -3  10  10   -0.58    0.47
  -3 -10  10   -0.49    0.77
  -3 -10  10   -0.80    0.55
  -3 -10  10    0.41    0.65
  -3  10  -7   -0.19    0.52
  -3  10  -7    0.50    0.43
  -3 -10  -7    1.17    0.80
  -3 -10  -7    0.99    0.83
  -3 -10  -7    1.94    0.65
   3 -11   7   -0.45    0.74
   3  11 -10   -1.98    1.14
  -3  11  10    0.45    0.62
  -3 -11  10   -0.22    0.86
  -3  11  -7    0.18    0.56
  -3 -11  -7   -1.40    0.88
  -3 -11  -7    2.30    0.77
   3   0   8    3.46    0.32
   3   0   8    3.10    0.30
   3   0 -11   -0.08    0.15
   3   0 -11    0.00    0.20
   3   0 -11   -0.16    0.23
  -3   0  11   -0.30    0.20
  -3   0  11    0.46    0.20
  -3   0  11    0.27    0.23
  -3   0  -8    3.55    0.36
  -3   0  -8    3.35    0.35
  -3   0  -8    3.24    0.39
   3   1   8   26.99    0.58
   3   1   8   21.57    0.53
   3  -1   8   26.41    0.45
   3  -1   8   22.21    0.43
   3   1 -11   13.81    0.49
   3   1 -11   10.27    0.61
   3   1 -11   13.23    0.52
   3  -1 -11   12.26    0.45
   3  -1 -11   13.91    0.49
   3  -1 -11   12.80    0.47
  -3   1  11   14.16    0.55
  -3   1  11   13.55    0.52
  -3   1  11   14.40    0.50
  -3  -1  11   13.04    0.55
  -3  -1  11   11.91    0.51
  -3  -1  11   13.85    0.56
  -3   1  -8   25.46    0.58
  -3   1  -8   24.58    0.55
  -3   1  -8   21.28    0.69
  -3  -1  -8   23.11    0.74
  -3  -1  -8   24.33    0.60
  -3  -1  -8   25.69    0.73
  -3  -1  -8   24.07    0.72
   3   2   8    2.18    0.26
   3   2   8    3.99    0.34
   3   2 -11    4.42    0.40
   3   2 -11    2.93    0.33
   3   2 -11    4.46    0.45
   3  -2 -11    3.44    0.34
   3  -2 -11    2.59    0.27
   3  -2 -11    3.38    0.33
  -3   2  11    4.07    0.44
  -3   2  11    2.76    0.29
  -3   2  11    3.38    0.35
  -3  -2  11    4.45    0.48
  -3  -2  11    2.87    0.31
  -3  -2  11    3.71    0.38
  -3   2  -8    2.53    0.26
  -3   2  -8    2.27    0.23
  -3   2  -8    3.78    0.46
  -3  -2  -8    2.82    0.30
  -3  -2  -8    2.37    0.28
  -3  -2  -8    3.12    0.33
  -3  -2  -8    2.15    0.34
   3   3   8   38.19    0.79
   3   3   8   35.99    0.77
   3  -3   8   37.90    0.94
   3   3 -11  378.01    2.45
   3   3 -11  344.55    2.58
   3   3 -11  366.58    2.52
   3  -3 -11  360.69    1.97
   3  -3 -11  380.95    2.01
   3  -3 -11  396.02    1.72
  -3   3  11  420.71    2.37
  -3   3  11  367.83    2.60
  -3   3  11  383.71    1.69
  -3  -3  11  370.89    2.52
  -3  -3  11  370.89    2.50
  -3  -3  11  389.22    2.64
  -3   3  -8   34.64    0.61
  -3   3  -8   34.10    0.60
  -3   3  -8   38.46    0.90
  -3  -3  -8   37.89    0.84
  -3  -3  -8   37.56    0.84
  -3  -3  -8   36.61    0.89
  -3  -3  -8   37.31    0.90
   3   4   8   25.67    0.79
   3  -4   8   26.57    0.86
   3   4 -11  101.89    1.38
   3   4 -11   94.39    1.36
   3   4 -11   96.27    1.39
   3  -4 -11   94.37    1.04
   3  -4 -11  100.36    1.08
  -3   4  11  112.59    1.30
  -3   4  11   81.98    1.47
  -3  -4  11   97.64    1.41
  -3  -4  11   98.63    1.39
  -3  -4  11  102.42    1.48
  -3   4  -8   23.53    0.57
  -3   4  -8   23.79    0.55
  -3   4  -8   26.20    0.81
  -3  -4  -8   27.80    0.82
  -3  -4  -8   25.96    0.80
  -3  -4  -8   25.99    0.80
  -3  -4  -8   25.87    0.85
   3   5   8    1.30    0.30
   3   5   8    1.67    0.35
   3  -5   8    1.85    0.38
   3   5 -11   91.26    1.40
   3   5 -11   88.59    1.41
   3   5 -11   87.53    1.41
   3  -5 -11   86.60    1.04
   3  -5 -11   96.57    1.08
  -3   5  11  100.41    1.40
  -3   5  11   85.97    1.17
  -3  -5  11   93.40    1.43
  -3  -5  11   90.09    1.43
  -3  -5  11   96.61    1.49
  -3   5  -8    3.35    0.40
  -3   5  -8    2.60    0.29
  -3   5  -8    1.70    0.39
  -3  -5  -8    1.60    0.36
  -3  -5  -8    1.88    0.37
  -3  -5  -8    2.24    0.37
   3   6   8    0.20    0.34
   3   6   8    0.73    0.40
   3  -6   8   -0.11    0.40
   3   6 -11   54.78    1.20
   3   6 -11   49.38    1.18
   3   6 -11   51.23    1.18
   3  -6 -11   47.56    0.85
   3  -6 -11   55.98    0.90
  -3   6  11   64.78    1.11
  -3   6  11   49.50    0.98
  -3  -6  11   55.95    1.21
  -3  -6  11   51.94    1.20
  -3  -6  11   55.28    1.23
  -3   6  -8    0.09    0.26
  -3   6  -8    0.33    0.23
  -3  -6  -8   -0.06    0.33
  -3  -6  -8    0.94    0.42
  -3  -6  -8    0.75    0.40
   3   7   8   34.55    1.09
   3   7   8   34.10    1.12
   3   7 -11    0.85    0.47
   3  -7 -11    0.44    0.30
   3  -7 -11    0.05    0.31
  -3   7  11   -0.79    0.34
  -3   7  11   -0.03    0.31
  -3  -7  11   -0.50    0.40
  -3  -7  11   -0.16    0.39
  -3   7  -8   30.31    0.76
  -3   7  -8   30.58    0.77
  -3   7  -8   31.23    1.04
  -3  -7  -8   33.32    1.13
  -3  -7  -8   36.54    1.18
  -3  -7  -8   34.21    1.08
   3   8   8   -0.53    0.40
   3   8   8    0.68    0.56
   3  -8   8   -0.11    0.47
   3   8 -11   11.09    0.94
   3   8 -11    9.88    0.95
   3  -8 -11   10.62    0.69
  -3   8  11   15.00    0.92
  -3   8  11    8.18    0.80
  -3  -8  11   10.77    0.99
  -3  -8  11    9.40    0.89
  -3  -8  11   10.75    0.90
  -3   8  -8   -0.03    0.33
  -3   8  -8    0.31    0.32
  -3   8  -8    1.78    0.48
  -3  -8  -8   -0.49    0.63
  -3  -8  -8   -0.28    0.48
   3   9   8    0.93    0.63
   3   9   8   -0.02    0.68
   3  -9   8   -0.15    0.53
   3   9 -11   28.88    1.36
   3   9 -11   19.50    1.20
   3  -9 -11   30.59    1.30
  -3   9  11   33.19    1.07
  -3   9  11   25.92    1.15
  -3  -9  11   28.44    1.29
  -3  -9  11   23.85    1.16
  -3  -9  11   24.79    1.28
  -3   9  -8    0.92    0.42
  -3   9  -8    0.43    0.37
  -3  -9  -8    0.33    0.61
  -3  -9  -8    2.35    0.86
  -3  -9  -8   -0.46    0.56
   3  10   8    0.84    0.73
   3 -10   8   -0.81    0.62
   3  10 -11    2.99    0.97
   3  10 -11   -0.17    0.66
  -3  10  11    0.64    0.47
  -3 -10  11   -0.88    0.79
  -3 -10  11   -1.33    0.56
  -3 -10  11   -0.06    0.75
  -3  10  -8   -1.28    0.83
  -3  10  -8   -0.97    0.44
  -3 -10  -8    0.12    0.82
  -3 -10  -8    0.46    0.63
  -3  11  11    0.41    0.95
  -3 -11  -8    1.45    0.81
   3   0   9   -0.17    0.17
   3   0   9   -0.34    0.18
   3   0 -12  150.23    1.42
   3   0 -12  144.56    1.40
   3   0 -12  143.10    1.66
  -3   0  12  157.97    1.57
  -3   0  12  141.71    1.46
  -3   0  12  157.40    1.46
  -3   0  -9   -0.13    0.23
  -3   0  -9   -0.31    0.17
  -3   0  -9   -0.38    0.27
   3   1   9    3.25    0.37
   3   1   9    1.37    0.24
   3  -1   9    1.98    0.21
   3  -1   9    1.51    0.22
   3   1 -12   67.36    1.01
   3   1 -12   67.75    1.03
   3  -1 -12   68.05    0.95
   3  -1 -12   64.21    0.94
   3  -1 -12   68.83    0.93
  -3   1  12   69.16    1.07
  -3   1  12   65.97    1.01
  -3   1  12   70.87    0.95
  -3  -1  12   69.42    1.11
  -3  -1  12   65.53    1.04
  -3  -1  12   70.72    1.07
  -3   1  -9    2.25    0.27
  -3   1  -9    1.53    0.24
  -3   1  -9    1.36    0.31
  -3  -1  -9    2.27    0.27
  -3  -1  -9    3.39    0.38
  -3  -1  -9    1.79    0.33
   3   2   9   24.32    0.64
   3   2   9   18.10    0.56
   3  -2   9   22.02    0.42
   3  -2   9   20.20    0.41
   3   2 -12   18.07    0.60
   3   2 -12   16.60    0.62
   3   2 -12   18.75    0.65
   3  -2 -12   16.62    0.53
   3  -2 -12   17.67    0.57
   3  -2 -12   18.22    0.50
  -3   2  12   18.44    0.65
  -3   2  12   16.67    0.58
  -3   2  12   17.81    0.50
  -3  -2  12   18.11    0.67
  -3  -2  12   17.42    0.63
  -3  -2  12   18.48    0.66
  -3   2  -9   21.26    0.57
  -3   2  -9   20.13    0.53
  -3   2  -9   21.52    0.75
  -3  -2  -9   22.51    0.67
  -3  -2  -9   21.66    0.65
  -3  -2  -9   22.48    0.73
  -3  -2  -9   20.32    0.74
   3   3   9    8.67    0.53
   3   3   9    6.04    0.51
   3  -3   9    9.02    0.64
   3   3 -12   52.33    0.99
   3   3 -12   50.09    1.01
   3  -3 -12   49.26    0.83
   3  -3 -12   50.70    0.84
   3  -3 -12   50.89    0.68
  -3   3  12   56.44    0.98
  -3   3  12   45.83    0.87
  -3   3  12   52.73    0.69
  -3  -3  12   52.41    1.07
  -3  -3  12   49.61    1.02
  -3  -3  12   54.31    1.08
  -3   3  -9    6.79    0.43
  -3   3  -9    7.45    0.40
  -3   3  -9    7.46    0.57
  -3  -3  -9    7.88    0.58
  -3  -3  -9    8.21    0.54
  -3  -3  -9    8.81    0.60
  -3  -3  -9    8.08    0.60
   3   4   9   19.50    0.75
   3  -4   9   25.00    0.88
   3   4 -12   63.02    1.12
   3   4 -12   60.60    1.16
   3   4 -12   58.95    1.15
   3  -4 -12   60.19    0.91
   3  -4 -12   63.53    0.95
  -3   4  12   71.26    1.12
  -3   4  12   57.08    1.00
  -3  -4  12   62.16    1.18
  -3  -4  12   64.56    1.19
  -3  -4  12   65.02    1.23
  -3   4  -9   20.28    0.59
  -3   4  -9   19.20    0.57
  -3   4  -9   19.52    0.80
  -3  -4  -9   23.37    0.79
  -3  -4  -9   23.40    0.81
  -3  -4  -9   21.92    0.81
  -3  -4  -9   21.09    0.79
   3   5   9   26.05    0.85
   3   5   9   23.77    0.87
   3  -5   9   24.91    0.90
   3   5 -12   16.09    0.76
   3   5 -12   13.91    0.77
   3   5 -12   12.45    0.71
   3  -5 -12   13.60    0.58
   3  -5 -12   16.49    0.62
  -3   5  12   17.22    0.88
  -3  -5  12   15.74    0.81
  -3  -5  12   15.63    0.79
  -3  -5  12   16.78    1.05
  -3   5  -9   24.29    0.63
  -3   5  -9   20.20    0.58
  -3   5  -9   24.93    0.91
  -3  -5  -9   24.86    0.90
  -3  -5  -9   25.50    0.89
  -3  -5  -9   26.58    0.89
  -3  -5  -9   24.45    0.92
   3   6   9    1.29    0.34
   3   6   9    1.84    0.44
   3  -6   9    2.90    0.73
   3   6 -12    3.59    0.45
   3   6 -12    4.27    0.53
   3   6 -12    3.81    0.52
   3  -6 -12    2.72    0.36
   3  -6 -12    3.48    0.38
  -3   6  12    3.49    0.39
  -3   6  12    3.03    0.56
  -3  -6  12    1.83    0.42
  -3  -6  12    2.89    0.50
  -3  -6  12    3.30    0.46
  -3   6  -9    1.70    0.30
  -3   6  -9    2.10    0.31
  -3   6  -9    1.90    0.40
  -3  -6  -9    2.40    0.44
  -3  -6  -9    2.86    0.45
  -3  -6  -9    2.61    0.52
  -3  -6  -9    2.75    0.47
   3   7   9    0.83    0.51
   3   7   9    0.69    0.50
   3  -7   9    0.90    0.51
   3   7 -12   11.99    0.87
   3   7 -12    9.84    0.89
   3  -7 -12   11.24    0.65
  -3   7  12   13.40    0.80
  -3   7  12   11.82    0.75
  -3  -7  12   10.50    0.91
  -3  -7  12    8.74    0.81
  -3  -7  12   11.53    0.87
  -3   7  -9    0.51    0.33
  -3   7  -9    0.46    0.32
  -3   7  -9    0.03    0.44
  -3  -7  -9    1.53    0.55
  -3  -7  -9    0.06    0.46
  -3  -7  -9    0.51    0.44
   3   8   9    0.01    0.41
   3   8   9    1.33    0.59
   3  -8   9   -0.16    0.56
   3   8 -12   31.41    1.19
   3   8 -12   25.98    1.15
   3  -8 -12   28.60    0.92
  -3   8  12   35.46    1.14
  -3   8  12   23.95    0.96
  -3  -8  12   27.20    1.18
  -3  -8  12   27.95    1.21
  -3   8  -9    1.17    0.40
  -3   8  -9    1.57    0.38
  -3   8  -9    1.81    0.80
  -3  -8  -9    2.34    1.03
  -3  -8  -9    1.36    0.74
  -3  -8  -9    1.90    0.71
   3   9   9    1.79    0.64
   3   9   9    1.08    1.13
   3  -9   9    0.23    0.55
   3   9 -12    1.40    1.24
   3   9 -12    0.35    0.61
  -3   9  12    2.23    0.56
  -3   9  12   -0.17    0.50
  -3  -9  12    0.72    0.62
  -3  -9  12    0.43    0.68
  -3  -9  12    2.14    0.68
  -3   9  -9    1.87    0.48
  -3   9  -9    1.76    0.45
  -3  -9  -9    2.74    0.73
  -3  -9  -9    0.40    0.58
  -3  -9  -9    0.92    0.62
   3 -10   9   -1.73    0.63
   3  10 -12    1.29    0.81
   3  10 -12    2.08    0.87
  -3  10  12    1.92    0.56
  -3 -10  12    1.61    0.96
  -3 -10  12   -0.59    0.75
  -3 -10  12    0.97    0.81
  -3  10  -9    0.29    0.50
  -3 -10  -9   -0.21    0.66
  -3 -10  -9    1.22    0.68
   3   0  10    6.58    0.41
   3   0  10    6.21    0.39
   3   0 -13   -0.31    0.19
   3   0 -13   -0.49    0.24
  -3   0  13   -0.48    0.22
  -3   0  13    0.08    0.21
  -3   0  13   -0.12    0.24
  -3   0 -10    6.10    0.53
  -3   0 -10    8.13    0.46
  -3   0 -10    6.43    0.55
   3   1  10   29.22    0.67
   3   1  10   25.70    0.63
   3  -1  10   30.28    0.58
   3  -1  10   25.18    0.54
   3   1 -13   15.94    0.61
   3   1 -13   13.02    0.61
   3   1 -13   17.08    0.61
   3  -1 -13   17.38    0.58
   3  -1 -13   16.78    0.58
   3  -1 -13   17.13    0.56
  -3   1  13   18.56    0.70
  -3   1  13   18.22    0.64
  -3   1  13   17.64    0.55
  -3  -1  13   17.74    0.69
  -3  -1  13   17.36    0.63
  -3  -1  13   16.70    0.63
  -3   1 -10   29.60    0.69
  -3   1 -10   27.47    0.65
  -3   1 -10   29.89    0.87
  -3  -1 -10   28.19    0.71
  -3  -1 -10   29.05    0.73
  -3  -1 -10   27.61    0.83
   3   2  10    2.63    0.30
   3   2  10    2.54    0.31
   3  -2  10    1.98    0.23
   3  -2  10    2.30    0.23
   3   2 -13   58.19    1.02
   3   2 -13   55.66    1.02
   3   2 -13   57.58    1.04
   3  -2 -13   56.30    0.92
   3  -2 -13   55.39    0.93
   3  -2 -13   59.49    0.82
  -3   2  13   64.43    1.09
  -3   2  13   54.17    0.96
  -3   2  13   62.38    0.84
  -3  -2  13   57.90    1.08
  -3  -2  13   58.39    1.08
  -3  -2  13   62.25    1.10
  -3   2 -10    2.18    0.29
  -3   2 -10    2.54    0.28
  -3   2 -10    2.72    0.37
  -3  -2 -10    2.12    0.31
  -3  -2 -10    2.63    0.33
  -3  -2 -10    2.68    0.38
  -3  -2 -10    2.62    0.41
   3   3  10    6.55    0.53
   3   3  10    4.57    0.53
   3  -3  10    4.96    0.30
   3  -3  10    5.75    0.31
   3  -3  10    6.64    0.63
   3   3 -13   71.90    1.19
   3   3 -13   64.83    1.17
   3   3 -13   65.97    1.18
   3  -3 -13   63.70    0.97
   3  -3 -13   69.90    1.02
   3  -3 -13   68.95    0.78
  -3   3  13   76.88    1.19
  -3   3  13   62.62    1.03
  -3   3  13   71.50    0.79
  -3  -3  13   70.40    1.23
  -3  -3  13   68.51    1.19
  -3  -3  13   71.32    1.23
  -3   3 -10    4.85    0.46
  -3   3 -10    4.92    0.42
  -3   3 -10    6.50    0.59
  -3  -3 -10    5.40    0.52
  -3  -3 -10    5.34    0.55
  -3  -3 -10    5.16    0.56
  -3  -3 -10    5.02    0.58
   3   4  10   15.04    0.74
   3  -4  10   17.62    0.81
   3   4 -13    0.23    0.27
   3   4 -13    2.04    0.40
   3   4 -13    1.28    0.35
   3  -4 -13    1.26    0.29
   3  -4 -13    1.32    0.29
  -3   4  13    1.57    0.34
  -3   4  13    1.03    0.29
  -3  -4  13    0.68    0.36
  -3  -4  13    2.48    0.38
  -3  -4  13    0.50    0.35
  -3   4 -10   15.73    0.60
  -3   4 -10   16.74    0.77
  -3  -4 -10   17.13    0.77
  -3  -4 -10   16.54    0.76
  -3  -4 -10   19.49    0.79
  -3  -4 -10   16.61    0.76
   3   5  10   15.65    0.80
   3   5  10   15.08    0.80
   3  -5  10   17.22    1.33
   3   5 -13   22.66    0.86
   3   5 -13   22.41    0.92
   3   5 -13   17.96    0.82
   3  -5 -13   19.75    0.68
   3  -5 -13   24.31    0.73
  -3   5  13   25.60    0.82
  -3   5  13   19.56    0.78
  -3  -5  13   21.89    0.89
  -3  -5  13   19.22    0.88
  -3  -5  13   18.65    0.83
  -3   5 -10   14.23    0.57
  -3   5 -10   13.62    0.55
  -3   5 -10   15.44    0.80
  -3  -5 -10   18.37    0.83
  -3  -5 -10   16.68    0.83
  -3  -5 -10   15.97    0.78
  -3  -5 -10   15.58    0.82
   3   6  10    9.28    0.79
   3   6  10    9.77    0.90
   3  -6  10    8.94    0.79
   3   6 -13   -0.76    0.39
   3   6 -13    0.25    0.46
   3   6 -13   -0.09    0.49
   3  -6 -13   -0.71    0.32
   3  -6 -13    0.49    0.32
  -3   6  13    0.56    0.37
  -3   6  13    0.58    0.33
  -3  -6  13    0.56    0.44
  -3  -6  13   -0.50    0.42
  -3  -6  13    0.09    0.41
  -3   6 -10    9.16    0.60
  -3   6 -10    5.86    0.54
  -3   6 -10    6.74    0.79
  -3  -6 -10    9.25    0.84
  -3  -6 -10    8.45    0.82
  -3  -6 -10   11.60    0.87
  -3  -6 -10    7.52    0.84
   3   7  10    7.35    0.85
   3   7  10   10.46    1.04
   3  -7  10    6.27    0.67
   3   7 -13    5.16    0.60
   3   7 -13    6.35    0.70
   3  -7 -13    7.02    0.67
  -3   7  13    7.52    0.75
  -3   7  13    5.72    0.70
  -3  -7  13    6.15    0.68
  -3  -7  13    5.70    0.66
  -3   7 -10    5.14    0.63
  -3   7 -10    7.15    0.59
  -3   7 -10    6.78    0.78
  -3  -7 -10    8.54    0.86
  -3  -7 -10    9.88    1.22
  -3  -7 -10    8.00    0.75
  -3  -7 -10    5.61    0.69
   3   8  10   -0.70    0.54
   3   8  10    0.36    0.62
   3  -8  10   -0.22    0.49
   3   8 -13   -1.07    0.52
   3  -8 -13   -0.65    0.45
  -3   8  13   -0.69    0.44
  -3  -8  13   -0.90    0.64
  -3  -8  13   -0.18    0.50
  -3  -8  13    1.02    0.58
  -3   8 -10    0.95    0.43
  -3   8 -10    1.06    0.36
  -3  -8 -10    0.05    0.61
  -3  -8 -10    1.82    0.63
  -3  -8 -10    0.83    0.54
  -3  -8 -10    0.34    0.62
   3   9  10   -0.31    0.64
   3  -9  10   -0.10    0.62
   3   9 -13    1.64    0.73
   3   9 -13   -1.22    0.72
  -3   9  13    0.38    0.59
  -3  -9  13    1.23    0.80
  -3  -9  13    0.42    0.68
  -3  -9  13    1.27    0.69
  -3   9 -10    0.64    0.51
  -3   9 -10    1.27    0.45
  -3  -9 -10   -0.19    0.63
  -3  -9 -10    1.17    0.69
  -3  -9 -10    1.19    0.62
  -3  -9 -10   -0.56    0.77
   3 -10  10   -1.84    0.66
   3  10 -13    3.21    1.26
  -3  10  13    4.57    0.71
  -3 -10  13    2.24    1.08
  -3 -10  13   -0.83    0.78
  -3 -10  13    1.96    0.77
  -3  10 -10   -1.47    0.50
  -3 -10 -10    2.08    0.81
  -3 -10 -10    0.08    0.68
   3   0  11    0.25    0.23
   3   0  11    0.18    0.24
   3   0 -14  152.58    1.56
   3   0 -14  154.83    1.50
  -3   0  14  156.94    1.69
  -3   0  14  148.57    1.62
  -3   0  14  159.43    1.54
  -3   0 -11    0.15    0.24
  -3   0 -11    0.13    0.32
   3   1  11   15.81    0.59
   3   1  11   13.44    0.56
   3  -1  11   16.83    0.52
   3  -1  11   13.79    0.49
   3   1 -14    0.51    0.25
   3   1 -14    0.25    0.31
   3   1 -14    0.36    0.28
   3  -1 -14    0.07    0.21
   3  -1 -14   -0.28    0.25
   3  -1 -14    0.44    0.29
  -3   1  14    0.28    0.30
  -3   1  14    1.06    0.28
  -3   1  14    0.04    0.22
  -3  -1  14    0.25    0.28
  -3  -1  14   -0.12    0.23
  -3  -1  14    0.11    0.29
  -3   1 -11   16.55    0.63
  -3   1 -11   15.36    0.58
  -3   1 -11   15.78    0.75
  -3  -1 -11   17.72    0.67
  -3  -1 -11   17.36    0.66
  -3  -1 -11   14.83    0.74
   3   2  11   32.58    0.80
   3   2  11   26.96    0.72
   3  -2  11   30.54    0.58
   3  -2  11   28.25    0.58
   3   2 -14    1.30    0.29
   3   2 -14    1.84    0.38
   3  -2 -14    2.10    0.27
   3  -2 -14    1.25    0.31
   3  -2 -14    0.93    0.26
  -3   2  14    1.57    0.33
  -3   2  14    2.06    0.28
  -3   2  14    1.75    0.25
  -3  -2  14    2.08    0.43
  -3  -2  14    1.17    0.32
  -3  -2  14    2.23    0.35
  -3   2 -11   28.99    0.76
  -3   2 -11   29.59    0.71
  -3   2 -11   30.01    0.91
  -3  -2 -11   31.07    0.80
  -3  -2 -11   30.28    0.80
  -3  -2 -11   32.18    0.91
  -3  -2 -11   29.65    0.92
   3   3  11    4.37    0.52
   3   3  11    4.35    0.52
   3  -3  11    4.38    0.33
   3  -3  11    4.63    0.35
   3  -3  11    5.54    0.67
   3   3 -14    7.70    0.60
   3   3 -14    8.09    0.66
   3   3 -14    6.15    0.57
   3  -3 -14    5.70    0.48
   3  -3 -14    7.00    0.54
   3  -3 -14    7.23    0.39
  -3   3  14    7.58    0.61
  -3   3  14    4.80    0.53
  -3   3  14    7.60    0.40
  -3  -3  14    6.18    0.65
  -3  -3  14    7.19    0.58
  -3  -3  14    8.56    0.63
  -3   3 -11    4.55    0.38
  -3   3 -11    3.10    0.46
  -3  -3 -11    4.35    0.42
  -3  -3 -11    4.96    0.58
  -3  -3 -11    5.01    0.49
  -3  -3 -11    6.44    0.65
   3   4  11   13.34    0.74
   3  -4  11   16.89    0.43
   3   4 -14    0.14    0.28
   3   4 -14    1.84    0.41
   3   4 -14    0.22    0.39
   3  -4 -14    0.95    0.30
   3  -4 -14    0.68    0.30
  -3   4  14    0.41    0.40
  -3   4  14    1.01    0.30
  -3  -4  14    0.05    0.34
  -3  -4  14    0.19    0.38
  -3  -4  14    1.04    0.42
  -3   4 -11   16.00    0.64
  -3   4 -11   15.58    0.58
  -3   4 -11   15.78    0.77
  -3  -4 -11   17.02    0.80
  -3  -4 -11   17.94    0.82
  -3  -4 -11   16.62    0.79
  -3  -4 -11   13.25    0.77
   3   5  11    1.87    0.41
   3   5  11    1.82    0.38
   3  -5  11    0.12    0.44
   3   5 -14    1.20    0.46
   3   5 -14    0.32    0.41
   3   5 -14   -0.20    0.39
   3  -5 -14    0.71    0.35
   3  -5 -14    0.50    0.32
  -3   5  14    1.11    0.35
  -3   5  14    0.52    0.35
  -3  -5  14    0.35    0.42
  -3  -5  14    0.45    0.40
  -3  -5  14    2.06    0.44
  -3   5 -11    0.34    0.30
  -3   5 -11    0.49    0.27
  -3   5 -11    1.43    0.45
  -3  -5 -11    0.13    0.44
  -3  -5 -11    1.08    0.48
  -3  -5 -11    0.92    0.38
  -3  -5 -11    0.47    0.42
   3   6  11    0.98    0.39
   3   6  11    1.98    0.46
   3  -6  11    1.82    0.49
   3   6 -14   30.48    1.05
   3   6 -14   30.98    1.14
   3  -6 -14   33.61    1.20
   3  -6 -14   31.85    0.87
  -3   6  14   34.95    1.01
  -3  -6  14   29.78    1.12
  -3  -6  14   23.03    1.81
  -3  -6  14   33.57    1.12
  -3   6 -11    1.66    0.37
  -3   6 -11    1.55    0.32
  -3   6 -11   -0.08    0.49
  -3  -6 -11    2.72    0.72
  -3  -6 -11    0.95    0.43
  -3  -6 -11    1.68    0.47
  -3  -6 -11    2.16    0.52
   3   7  11    0.10    0.44
   3   7  11    0.83    0.58
   3  -7  11   -0.48    0.46
   3   7 -14    1.34    0.53
   3   7 -14    1.36    0.61
   3  -7 -14    0.73    0.42
  -3   7  14    2.15    0.51
  -3   7  14    1.16    0.42
  -3  -7  14    0.59    0.46
  -3  -7  14    0.78    0.68
  -3  -7  14    1.56    0.56
  -3   7 -11    0.56    0.33
  -3  -7 -11    0.43    0.54
  -3  -7 -11   -0.06    0.55
  -3  -7 -11    2.40    0.91
  -3  -7 -11    1.29    0.57
   3   8  11    0.36    0.61
   3   8 -14   10.66    1.15
   3   8 -14    5.22    0.76
   3  -8 -14    7.71    0.86
  -3   8  14   13.23    1.08
  -3   8  14   10.05    0.92
  -3  -8  14    9.15    0.92
  -3  -8  14   12.44    1.13
  -3  -8  14   12.66    1.13
  -3   8 -11    1.40    0.38
  -3  -8 -11    0.62    0.61
  -3  -8 -11    1.17    0.64
  -3  -8 -11   -0.50    0.54
  -3  -8 -11    0.08    0.63
   3   9  11    0.45    0.89
   3  -9  11   -0.63    0.68
   3   9 -14    3.73    0.83
   3   9 -14    0.16    0.73
  -3   9  14    2.40    0.65
  -3  -9  14    2.94    0.85
  -3  -9  14    1.27    0.71
  -3  -9  14    0.53    0.62
  -3   9 -11    1.32    0.71
  -3   9 -11    1.37    0.46
  -3  -9 -11    1.42    0.69
  -3  -9 -11   -0.12    0.90
   3 -10  11   -1.49    0.78
  -3  10  14   12.74    1.21
  -3 -10  14    0.81    1.31
  -3 -10  14   11.45    1.38
  -3  10 -11    3.37    0.75
  -3 -10 -11    1.31    0.84
  -3 -10 -11   -2.00    0.74
   3   0  12    1.32    0.26
   3   0  12    0.64    0.25
   3   0 -15   -0.31    0.29
   3   0 -15    0.50    0.28
  -3   0  15   -0.24    0.32
  -3   0  15    0.21    0.29
  -3   0  15    0.20    0.27
  -3   0 -12    1.47    0.34
  -3   0 -12    0.79    0.29
  -3   0 -12    1.35    0.38
   3   1  12   24.79    0.71
   3   1  12   23.01    0.68
   3  -1  12   26.19    0.63
   3  -1  12   23.89    0.63
   3   1 -15   16.62    0.66
   3   1 -15   18.33    0.75
   3   1 -15   17.71    0.69
   3  -1 -15   15.79    0.63
   3  -1 -15   13.61    0.70
   3  -1 -15   15.83    0.68
  -3   1  15   18.31    0.76
  -3   1  15   17.58    0.70
  -3   1  15   18.39    0.60
  -3  -1  15   17.64    0.78
  -3  -1  15   17.67    0.72
  -3  -1  15   18.79    0.71
  -3   1 -12   25.22    0.76
  -3   1 -12   25.18    0.72
  -3  -1 -12   27.71    0.80
  -3  -1 -12   24.54    0.78
   3   2  12    1.93    0.33
   3   2  12    1.18    0.28
   3  -2  12    1.65    0.26
   3  -2  12    1.79    0.27
   3   2 -15   49.96    1.05
   3   2 -15   50.82    1.09
   3   2 -15   49.92    1.06
   3  -2 -15   50.17    0.96
   3  -2 -15   49.83    0.98
   3  -2 -15   51.82    0.82
  -3   2  15   56.92    1.12
  -3   2  15   48.68    1.02
  -3   2  15   58.24    0.86
  -3  -2  15   53.07    1.16
  -3  -2  15   47.54    1.05
  -3  -2  15   56.81    1.11
  -3   2 -12    1.97    0.33
  -3   2 -12    0.98    0.39
  -3  -2 -12    1.94    0.37
  -3  -2 -12    1.25    0.31
  -3  -2 -12    1.33    0.37
  -3  -2 -12    2.11    0.39
   3   3  12    4.81    0.57
   3   3  12    2.39    0.39
   3  -3  12    3.00    0.26
   3  -3  12    2.52    0.26
   3  -3  12    1.60    0.59
   3   3 -15   30.29    0.89
   3   3 -15   29.58    0.94
   3   3 -15   28.19    0.89
   3  -3 -15   30.47    0.80
   3  -3 -15   29.96    0.82
   3  -3 -15   30.35    0.60
  -3   3  15   32.96    1.21
  -3   3  15   27.93    0.81
  -3   3  15   32.86    0.62
  -3  -3  15   33.30    0.99
  -3  -3  15   31.16    0.94
  -3  -3  15   33.19    0.97
  -3   3 -12    2.74    0.37
  -3   3 -12    1.95    0.32
  -3   3 -12    2.02    0.47
  -3  -3 -12    2.42    0.38
  -3  -3 -12    2.52    0.38
  -3  -3 -12    3.67    0.46
  -3  -3 -12    1.89    0.43
   3   4  12    0.39    0.51
   3   4  12    0.70    0.38
   3  -4  12    0.55    0.30
   3  -4  12   -0.19    0.23
   3  -4  12    0.11    0.39
   3   4 -15    0.88    0.30
   3   4 -15    1.26    0.44
   3   4 -15    1.02    0.39
   3  -4 -15    0.97    0.35
   3  -4 -15    1.36    0.34
  -3   4  15    1.44    0.38
  -3   4  15   -0.27    0.30
  -3  -4  15    0.59    0.38
  -3  -4  15    0.50    0.42
  -3  -4  15    1.23    0.43
  -3   4 -12    0.19    0.30
  -3   4 -12   -0.29    0.28
  -3   4 -12    0.11    0.38
  -3  -4 -12   -0.03    0.33
  -3  -4 -12    0.50    0.35
  -3  -4 -12    0.85    0.39
  -3  -4 -12    0.12    0.43
   3   5  12    6.79    0.82
   3   5  12    4.21    0.53
   3  -5  12    4.96    0.40
   3  -5  12    4.51    0.54
   3   5 -15   10.30    0.76
   3   5 -15    8.35    0.83
   3   5 -15    8.74    0.76
   3  -5 -15    7.60    0.67
   3  -5 -15    9.61    0.69
  -3   5  15   12.56    0.78
  -3   5  15    7.92    0.73
  -3  -5  15   10.23    0.83
  -3  -5  15   10.60    0.85
  -3  -5  15   11.59    0.85
  -3   5 -12    5.13    0.58
  -3   5 -12    4.25    0.43
  -3   5 -12    3.30    0.49
  -3  -5 -12    4.79    0.58
  -3  -5 -12    5.61    0.52
  -3  -5 -12    2.28    0.50
   3   6  12    4.82    0.58
   3   6  12    5.34    0.57
   3  -6  12    7.59    0.91
   3   6 -15    0.38    0.35
   3   6 -15    0.42    0.52
   3  -6 -15    0.80    0.38
  -3   6  15    0.72    0.38
  -3   6  15    0.21    0.43
  -3  -6  15    0.46    0.50
  -3  -6  15    0.27    0.50
  -3  -6  15    2.46    0.51
  -3   6 -12    5.60    0.47
  -3   6 -12    6.47    0.59
  -3  -6 -12    8.09    0.88
  -3  -6 -12    8.12    0.94
  -3  -6 -12    9.97    0.82
   3   7  12    0.41    0.54
   3   7  12    0.10    0.65
   3  -7  12   -0.70    0.49
   3   7 -15    1.08    0.57
   3   7 -15    1.09    0.62
   3  -7 -15    0.07    0.44
  -3   7  15    0.83    0.47
  -3   7  15    1.72    0.49
  -3  -7  15    0.34    0.52
  -3  -7  15    1.27    0.67
  -3  -7  15    0.45    0.60
  -3   7 -12    0.05    0.44
  -3   7 -12    0.27    0.36
  -3  -7 -12   -1.08    0.55
  -3  -7 -12    0.08    0.56
  -3  -7 -12    1.14    0.57
  -3  -7 -12    0.73    0.61
   3   8  12   -0.10    0.60
   3   8 -15   -0.36    0.66
  -3   8  15    0.32    0.49
  -3  -8  15    0.00    0.67
  -3  -8  15   -0.08    0.66
  -3  -8  15   -0.88    0.57
  -3   8 -12   -0.76    0.44
  -3   8 -12    0.52    0.40
  -3  -8 -12   -1.02    0.60
  -3  -8 -12    0.42    0.65
  -3  -8 -12   -0.06    0.59
  -3  -8 -12   -0.20    0.63
   3  -9  12   -0.39    0.76
   3   9 -15    2.32    0.87
   3   9 -15    0.85    0.83
  -3   9  15    2.13    0.63
  -3  -9  15    1.85    0.94
  -3  -9  15    0.14    0.75
  -3  -9  15   -0.26    0.64
  -3   9 -12    2.43    0.51
  -3  -9 -12   -0.13    0.79
  -3  -9 -12    1.91    0.74
   3   0  13   -0.28    0.25
   3   0  13   -0.30    0.26
   3   0 -16    1.95    0.34
   3   0 -16    1.85    0.38
   3   0 -16    2.45    0.35
  -3   0  16    3.05    0.46
  -3   0  16    2.03    0.37
  -3   0  16    1.67    0.33
  -3   0 -13    0.12    0.28
  -3   0 -13   -0.15    0.38
   3   1  13    1.72    0.30
   3   1  13    0.23    0.31
   3  -1  13    1.01    0.28
   3  -1  13    0.37    0.28
   3   1 -16    2.29    0.36
   3   1 -16    3.12    0.40
   3  -1 -16    4.43    0.51
   3  -1 -16    2.62    0.34
  -3   1  16    3.14    0.45
  -3   1  16    2.41    0.37
  -3   1  16    2.83    0.36
  -3  -1  16    3.00    0.45
  -3  -1  16    2.41    0.40
  -3  -1  16    2.46    0.36
  -3   1 -13    1.56    0.35
  -3   1 -13    1.50    0.31
  -3   1 -13    1.50    0.45
  -3  -1 -13    2.11    0.38
  -3  -1 -13    1.48    0.46
   3   2  13   -0.69    0.25
   3   2  13    0.01    0.32
   3  -2  13    0.28    0.23
   3  -2  13    0.73    0.27
   3  -2  13   -0.21    0.36
   3   2 -16    7.52    0.60
   3   2 -16    5.34    0.67
   3   2 -16    5.83    0.59
   3  -2 -16    5.57    0.57
   3  -2 -16    5.99    0.60
   3  -2 -16    4.64    0.49
  -3   2  16    6.28    0.68
  -3   2  16    6.79    0.61
  -3   2  16    7.54    0.48
  -3  -2  16    8.11    0.70
  -3  -2  16    5.36    0.63
  -3  -2  16    7.96    0.66
  -3   2 -13    0.13    0.33
  -3   2 -13    0.58    0.29
  -3   2 -13   -0.43    0.38
  -3  -2 -13   -0.43    0.33
  -3  -2 -13   -0.35    0.31
  -3  -2 -13   -1.11    0.38
   3   3  13   -0.41    0.35
   3   3  13    1.07    0.31
   3  -3  13    0.45    0.25
   3  -3  13    1.59    0.25
   3  -3  13    0.85    0.41
   3   3 -16    8.71    0.68
   3   3 -16   10.66    0.74
   3   3 -16    8.83    0.71
   3  -3 -16    7.73    0.61
   3  -3 -16    9.24    0.67
   3  -3 -16    8.20    0.47
  -3   3  16    9.03    0.71
  -3   3  16    8.71    0.65
  -3   3  16    8.84    0.45
  -3  -3  16    9.62    0.75
  -3  -3  16    8.62    0.74
  -3  -3  16    8.70    0.74
  -3   3 -13    0.63    0.32
  -3   3 -13    0.86    0.30
  -3   3 -13    0.15    0.44
  -3  -3 -13   -0.11    0.35
  -3  -3 -13    0.58    0.59
  -3  -3 -13    1.01    0.41
  -3  -3 -13    0.88    0.42
   3   4  13    0.60    0.36
   3   4  13    0.00    0.39
   3  -4  13   -0.37    0.25
   3  -4  13   -0.55    0.38
   3   4 -16    3.10    0.51
   3   4 -16    2.93    0.51
   3   4 -16    1.85    0.47
   3  -4 -16    1.46    0.37
   3  -4 -16    1.70    0.35
  -3   4  16    2.37    0.47
  -3   4  16    1.99    0.35
  -3  -4  16    1.99    0.45
  -3  -4  16    1.51    0.42
  -3  -4  16    1.75    0.45
  -3   4 -13    0.30    0.34
  -3   4 -13    0.39    0.30
  -3   4 -13    1.24    0.48
  -3  -4 -13   -0.22    0.42
  -3  -4 -13    0.02    0.45
  -3  -4 -13    0.34    0.45
  -3  -4 -13    0.27    0.48
   3   5  13    2.37    0.59
   3   5  13    2.30    0.49
   3  -5  13    1.61    0.29
   3  -5  13    2.19    0.29
   3  -5  13    1.15    0.47
   3   5 -16    3.91    0.50
   3   5 -16    5.66    0.62
   3  -5 -16    5.20    0.50
  -3   5  16    8.18    0.80
  -3   5  16    4.80    0.48
  -3  -5  16    4.68    0.58
  -3  -5  16    5.98    0.76
  -3  -5  16    4.90    0.63
  -3   5 -13    1.70    0.37
  -3   5 -13    1.19    0.37
  -3  -5 -13    2.36    0.61
  -3  -5 -13    1.65    0.46
  -3  -5 -13    2.95    0.56
   3   6  13   -0.33    0.47
   3   6  13   -0.86    0.61
   3  -6  13   -0.52    0.51
   3   6 -16    9.80    0.86
   3   6 -16    7.48    0.74
   3  -6 -16    7.43    0.82
  -3   6  16   10.52    0.86
  -3   6  16    6.60    0.61
  -3  -6  16    8.43    0.94
  -3  -6  16    6.94    0.83
  -3   6 -13    0.88    0.39
  -3   6 -13   -0.49    0.36
  -3  -6 -13    1.18    0.47
  -3  -6 -13    1.38    0.54
  -3  -6 -13    0.91    0.46
  -3  -6 -13    0.25    0.56
   3   7  13   -0.84    0.51
   3  -7  13   -0.85    0.53
   3   7 -16    6.47    0.69
   3   7 -16    2.98    0.65
   3  -7 -16    0.34    0.51
  -3   7  16    7.90    0.95
  -3   7  16   10.12    1.00
  -3  -7  16    8.88    0.82
  -3  -7  16    6.96    0.80
  -3  -7  16    7.91    0.98
  -3   7 -13   -0.39    0.48
  -3   7 -13   -0.24    0.38
  -3  -7 -13   -1.37    0.61
  -3  -7 -13    0.35    0.54
  -3  -7 -13    1.84    0.62
  -3  -7 -13   -1.69    0.60
   3   8  13    0.41    0.94
   3  -8  13   -1.07    0.62
   3   8 -16   12.51    1.36
   3   8 -16    1.68    0.72
  -3   8  16   17.65    1.22
  -3  -8  16   11.98    1.37
  -3  -8  16   12.30    1.34
  -3  -8  16   14.15    1.18
  -3   8 -13    1.05    0.54
  -3   8 -13   -0.25    0.44
  -3  -8 -13    0.68    0.76
  -3  -8 -13    2.01    0.64
  -3  -8 -13   -1.14    0.70
   3  -9  13    2.22    0.83
   3   9 -16   -2.45    0.89
  -3   9  16    3.37    0.79
  -3  -9  16   -1.32    0.86
  -3  -9  16    2.58    0.79
  -3   9 -13    2.88    0.58
  -3  -9 -13    2.49    0.77
  -3  -9 -13    3.29    0.79
   3   0  14    0.57    0.31
   3   0  14    1.41    0.32
   3   0 -17    0.18    0.28
   3   0 -17   -0.67    0.34
   3   0 -17   -0.38    0.33
  -3   0  17   -0.09    0.34
  -3   0  17    0.92    0.35
  -3   0  17    0.00    0.31
  -3   0 -14    1.16    0.38
  -3   0 -14    1.02    0.31
  -3   0 -14    2.33    0.47
   3   1  14   -0.02    0.29
   3   1  14    0.52    0.33
   3  -1  14    0.16    0.25
   3  -1  14   -0.26    0.30
   3   1 -17    2.07    0.37
   3   1 -17    3.50    0.49
   3   1 -17    2.39    0.44
   3  -1 -17    3.12    0.41
   3  -1 -17    2.41    0.41
   3  -1 -17    3.53    0.39
  -3   1  17    3.23    0.46
  -3   1  17    3.57    0.44
  -3   1  17    3.90    0.39
  -3  -1  17    2.97    0.50
  -3  -1  17    2.64    0.39
  -3  -1  17    3.34    0.43
  -3   1 -14    0.07    0.30
  -3   1 -14    0.24    0.44
  -3  -1 -14    0.80    0.38
  -3  -1 -14    0.53    0.33
  -3  -1 -14   -0.09    0.42
   3   2  14    2.23    0.40
   3   2  14    1.78    0.44
   3  -2  14    2.85    0.34
   3  -2  14    2.18    0.32
   3  -2  14    2.45    0.49
   3   2 -17   23.15    0.92
   3   2 -17   24.67    0.92
   3   2 -17   23.64    0.88
   3  -2 -17   25.64    0.84
   3  -2 -17   25.23    0.92
  -3   2  17   26.49    1.11
  -3   2  17   24.95    0.88
  -3   2  17   27.81    0.71
  -3  -2  17   26.19    0.99
  -3  -2  17   24.95    0.94
  -3  -2  17   26.46    0.87
  -3   2 -14    1.92    0.39
  -3   2 -14    5.13    0.61
  -3   2 -14    0.92    0.47
  -3  -2 -14    2.44    0.43
  -3  -2 -14    3.02    0.42
  -3  -2 -14    0.83    0.47
   3   3  14   -0.37    0.33
   3   3  14    0.89    0.39
   3  -3  14    0.48    0.26
   3  -3  14    0.68    0.27
   3  -3  14   -0.34    0.38
   3   3 -17    2.34    0.44
   3   3 -17    1.52    0.43
   3   3 -17    1.35    0.45
   3  -3 -17    1.28    0.36
   3  -3 -17    1.34    0.43
   3  -3 -17    2.00    0.33
  -3   3  17    2.23    0.48
  -3   3  17    1.73    0.40
  -3   3  17    2.39    0.32
  -3  -3  17    1.11    0.46
  -3  -3  17    2.21    0.49
  -3  -3  17    2.76    0.54
  -3   3 -14   -0.14    0.30
  -3   3 -14   -0.25    0.34
  -3   3 -14   -0.53    0.41
  -3  -3 -14    0.56    0.41
  -3  -3 -14    0.15    0.38
  -3  -3 -14    0.69    0.51
  -3  -3 -14   -1.13    0.44
   3   4  14    1.64    0.45
   3   4  14    0.07    0.39
   3  -4  14    0.91    0.30
   3  -4  14    0.45    0.45
   3   4 -17    9.03    0.79
   3   4 -17    7.70    0.83
   3   4 -17    5.58    0.64
   3  -4 -17    7.56    0.74
   3  -4 -17    6.18    0.71
  -3   4  17    9.29    0.87
  -3   4  17    6.59    0.73
  -3  -4  17    5.57    0.62
  -3  -4  17    6.88    0.70
  -3  -4  17    9.01    0.81
  -3   4 -14    1.04    0.40
  -3   4 -14    2.34    0.38
  -3  -4 -14    0.82    0.57
  -3  -4 -14    0.23    0.43
  -3  -4 -14    1.67    0.51
  -3  -4 -14    0.94    0.51
   3   5  14    2.10    0.51
   3  -5  14    3.83    0.35
   3  -5  14    3.08    0.56
   3   5 -17    4.87    0.56
   3   5 -17    3.64    0.61
   3  -5 -17    2.84    0.48
  -3   5  17    5.55    0.56
  -3   5  17    5.49    0.57
  -3  -5  17    5.61    0.64
  -3   5 -14    3.09    0.44
  -3   5 -14    3.07    0.44
  -3  -5 -14    4.51    0.59
  -3  -5 -14    3.76    0.54
  -3  -5 -14    5.03    0.62
  -3  -5 -14    2.84    0.59
   3   6  14   -0.07    0.49
   3  -6  14    2.56    0.34
   3  -6  14    2.52    0.56
   3   6 -17   14.38    1.11
   3   6 -17    9.03    1.04
   3  -6 -17    1.42    0.50
  -3   6  17   19.38    1.03
  -3   6  17   14.02    0.94
  -3  -6  17   15.66    1.13
  -3  -6  17   13.59    1.17
  -3  -6  17   14.63    1.00
  -3   6 -14    1.88    0.48
  -3   6 -14    1.32    0.42
  -3  -6 -14    1.58    0.58
  -3  -6 -14    2.10    0.59
  -3  -6 -14    2.88    0.54
  -3  -6 -14    0.82    0.60
   3   7  14    1.17    0.60
   3  -7  14    2.29    0.69
   3   7 -17    0.93    0.65
   3   7 -17    1.63    0.68
  -3   7  17    0.51    0.53
  -3  -7  17    0.10    0.65
  -3  -7  17   -0.52    0.66
  -3  -7  17   -0.39    0.57
  -3   7 -14    1.78    0.52
  -3   7 -14    2.44    0.47
  -3  -7 -14    1.34    0.57
  -3  -7 -14    4.22    0.71
  -3  -7 -14    2.75    0.74
   3  -8  14    0.90    0.67
   3   8 -17    2.83    0.81
   3   8 -17    0.03    0.79
  -3   8  17    4.62    0.73
  -3  -8  17    2.82    0.83
  -3  -8  17    4.04    0.75
  -3   8 -14    3.86    0.54
  -3  -8 -14    3.31    0.82
  -3  -8 -14    1.79    0.70
   3  -9  14   -0.69    0.79
  -3   9  17    0.06    0.74
  -3  -9  17    0.85    0.77
  -3  -9 -14    3.18    0.96
  -3  -9 -14    0.39    0.84
   3   0  15   -0.31    0.29
   3   0  15   -0.13    0.35
   3   0 -18   38.39    1.03
   3   0 -18   38.64    0.95
  -3   0  18   40.80    1.23
  -3   0  18   38.32    1.09
  -3   0  18   44.32    1.01
  -3   0 -15    0.29    0.39
  -3   0 -15    0.01    0.36
  -3   0 -15   -1.29    0.47
   3   1  15    0.88    0.39
   3   1  15    0.07    0.41
   3  -1  15    1.40    0.35
   3  -1  15    1.29    0.33
   3   1 -18   35.41    1.02
   3   1 -18   34.19    1.05
   3   1 -18   34.79    0.96
   3  -1 -18   36.34    1.02
   3  -1 -18   35.38    1.03
   3  -1 -18   38.17    0.90
  -3   1  18   44.93    1.55
  -3   1  18   34.68    1.06
  -3   1  18   40.35    0.91
  -3  -1  18   38.67    1.16
  -3  -1  18   33.66    1.04
  -3  -1  18   39.42    1.02
  -3   1 -15    2.07    0.40
  -3   1 -15    2.20    0.41
  -3   1 -15   -0.02    0.53
  -3  -1 -15    1.50    0.42
  -3  -1 -15    1.04    0.36
  -3  -1 -15    2.00    0.51
   3   2  15    0.81    0.43
   3   2  15    0.57    0.38
   3  -2  15    0.06    0.29
   3  -2  15    0.94    0.33
   3  -2  15    0.43    0.41
   3   2 -18    0.94    0.41
   3   2 -18    1.32    0.46
   3   2 -18   -0.22    0.41
   3  -2 -18    1.41    0.43
   3  -2 -18    1.20    0.35
  -3   2  18    0.24    0.42
  -3   2  18    0.53    0.60
  -3   2  18    0.35    0.30
  -3  -2  18    0.67    0.46
  -3  -2  18    0.94    0.45
  -3  -2  18    0.53    0.47
  -3   2 -15    0.45    0.41
  -3   2 -15    1.17    0.37
  -3  -2 -15   -0.15    0.80
  -3  -2 -15    0.84    0.37
  -3  -2 -15   -0.32    0.50
   3   3  15    6.36    0.56
   3   3  15    4.16    0.49
   3  -3  15    8.02    0.58
   3  -3  15    7.41    0.82
   3  -3  15    6.46    0.70
   3   3 -18   10.31    0.87
   3   3 -18   13.81    0.87
   3   3 -18    9.88    0.80
   3  -3 -18   11.46    0.77
   3  -3 -18    9.42    0.80
   3  -3 -18    9.61    0.57
  -3   3  18   14.93    0.84
  -3   3  18    9.55    0.79
  -3   3  18   14.77    0.59
  -3  -3  18   13.92    0.96
  -3  -3  18   12.40    1.01
  -3  -3  18   14.77    0.84
  -3   3 -15    6.32    0.71
  -3   3 -15    9.80    0.70
  -3  -3 -15    7.15    0.66
  -3  -3 -15    8.61    0.75
  -3  -3 -15    7.88    0.86
  -3  -3 -15    5.10    0.65
   3   4  15    0.48    0.48
   3   4  15    1.34    0.56
   3  -4  15   -0.14    0.47
   3   4 -18    2.81    0.55
   3   4 -18    3.62    0.55
   3  -4 -18    1.62    0.45
  -3   4  18    3.27    0.52
  -3   4  18    1.95    0.46
  -3  -4  18    3.64    0.58
  -3  -4  18    2.76    0.54
  -3   4 -15   -0.26    0.40
  -3   4 -15   -0.44    0.38
  -3  -4 -15    0.56    0.48
  -3  -4 -15    1.31    0.50
  -3  -4 -15    0.08    0.46
  -3  -4 -15    0.05    0.48
   3  -5  15    1.62    0.35
   3  -5  15    1.98    0.55
   3   5 -18    6.84    0.79
   3   5 -18    2.75    0.62
   3  -5 -18   -1.09    0.49
  -3   5  18    9.11    0.92
  -3   5  18    4.78    0.59
  -3  -5  18    5.46    0.72
  -3  -5  18    6.50    0.77
  -3  -5  18    7.94    0.72
  -3   5 -15    0.54    0.44
  -3   5 -15    1.03    0.43
  -3  -5 -15    1.82    0.53
  -3  -5 -15    1.56    0.55
  -3  -5 -15    1.71    0.51
  -3  -5 -15    0.41    0.55
   3   6  15   -0.01    0.62
   3  -6  15    0.28    0.34
   3  -6  15    0.14    0.55
   3   6 -18   11.56    1.04
   3   6 -18    0.71    0.65
  -3   6  18   15.52    1.10
  -3   6  18    7.89    0.87
  -3  -6  18   11.29    1.16
  -3  -6  18    8.50    0.86
  -3  -6  18   12.24    1.05
  -3   6 -15    1.75    0.51
  -3   6 -15   -0.53    0.49
  -3  -6 -15   -0.42    0.57
  -3  -6 -15   -0.80    0.56
  -3  -6 -15   -0.80    0.50
  -3  -6 -15    0.96    0.60
   3  -7  15    0.39    0.39
   3  -7  15    0.04    0.71
   3   7 -18   10.53    1.07
   3   7 -18    0.94    0.73
  -3   7  18    9.68    0.83
  -3  -7  18   10.54    1.22
  -3  -7  18    8.18    1.01
  -3  -7  18   13.47    1.19
  -3   7 -15    0.15    0.49
  -3  -7 -15   -1.33    0.75
  -3  -7 -15    1.19    0.66
   3   8 -18    3.06    1.42
  -3   8  18    9.57    0.87
  -3  -8  18   -0.87    1.29
  -3  -8  18   11.26    1.32
  -3   8 -15   -0.21    0.53
  -3  -8 -15    1.30    0.82
   3   0  16    0.57    0.39
   3   0  16    0.55    0.54
   3   0 -19   -0.01    0.44
   3   0 -19   -1.24    0.42
   3   0 -19   -0.13    0.42
  -3   0  19   -0.02    0.43
  -3   0  19    0.40    0.77
  -3   0  19   -0.41    0.35
  -3   0 -16    0.49    0.47
  -3   0 -16    0.78    0.43
   3   1  16   -0.90    0.38
   3   1  16    0.24    0.56
   3  -1  16    0.27    0.34
   3   1 -19    1.26    0.45
   3   1 -19    1.21    0.50
   3   1 -19    1.29    0.48
   3  -1 -19    2.19    0.43
   3  -1 -19    0.48    0.43
   3  -1 -19    1.16    0.41
  -3   1  19    2.36    0.49
  -3   1  19    0.71    0.41
  -3   1  19    1.61    0.36
  -3  -1  19    2.19    0.47
  -3   1 -16    0.27    0.49
  -3   1 -16   -0.56    0.36
  -3  -1 -16    0.53    0.42
  -3  -1 -16   -0.62    0.38
  -3  -1 -16    0.03    0.55
   3   2  16    2.44    0.43
   3  -2  16    0.74    0.37
   3  -2  16    0.68    0.51
   3   2 -19   21.05    0.95
   3   2 -19   12.27    0.93
   3   2 -19   17.94    0.90
   3  -2 -19   20.87    0.92
   3  -2 -19    9.41    0.86
   3  -2 -19   19.31    0.78
  -3   2  19   23.96    1.02
  -3   2  19   17.21    0.97
  -3   2  19   23.82    0.78
  -3  -2  19   20.20    1.12
  -3  -2  19   23.49    1.39
  -3  -2  19   22.10    0.93
  -3   2 -16    1.89    0.36
  -3  -2 -16    1.47    0.48
  -3  -2 -16    2.99    0.51
  -3  -2 -16    2.39    0.59
   3   3  16   -1.04    0.38
   3  -3  16    0.70    0.37
   3  -3  16    0.04    0.46
   3   3 -19   -0.01    0.47
   3   3 -19   -0.06    0.53
   3   3 -19    0.02    0.59
   3  -3 -19   -0.45    0.35
  -3   3  19    0.26    0.45
  -3   3  19    1.05    0.46
  -3   3  19    0.89    0.33
  -3  -3  19    0.61    0.54
  -3  -3  19    0.88    0.52
  -3  -3  19    0.30    0.49
  -3   3 -16    0.79    0.43
  -3   3 -16    0.93    0.38
  -3  -3 -16    1.13    0.53
  -3  -3 -16    0.79    0.45
  -3  -3 -16   -0.84    0.48
  -3  -3 -16   -0.05    0.56
   3   4  16   -0.25    0.48
   3  -4  16    0.39    0.48
   3   4 -19   20.91    1.06
   3   4 -19    3.34    0.61
   3  -4 -19    1.26    0.50
  -3   4  19   28.47    1.19
  -3   4  19   22.06    1.02
  -3  -4  19   27.54    1.22
  -3  -4  19   20.17    1.22
  -3  -4  19   26.62    1.11
  -3   4 -16   -0.14    0.45
  -3   4 -16   -0.46    0.40
  -3  -4 -16   -0.18    0.56
  -3  -4 -16   -0.33    0.48
  -3  -4 -16    0.08    0.49
  -3  -4 -16   -0.31    0.67
   3  -5  16    1.92    0.41
   3  -5  16    1.96    0.61
   3   5 -19    5.11    0.66
   3   5 -19    0.41    0.64
   3  -5 -19   -0.07    0.56
  -3   5  19    6.01    0.70
  -3   5  19    4.23    0.55
  -3  -5  19    5.23    0.76
  -3  -5  19    7.73    0.81
  -3  -5  19    7.15    0.74
  -3   5 -16    1.50    0.50
  -3   5 -16    1.65    0.48
  -3  -5 -16    3.20    0.62
  -3  -5 -16    2.71    0.60
  -3  -5 -16    3.65    0.59
   3  -6  16    0.78    0.39
   3  -6  16    2.12    0.66
   3   6 -19   14.57    1.70
   3   6 -19    1.93    0.76
  -3   6  19   17.96    1.17
  -3  -6  19   11.73    1.08
  -3  -6  19   12.40    1.36
  -3  -6  19   15.94    1.19
  -3   6 -16    1.92    0.60
  -3   6 -16    0.39    0.53
  -3  -6 -16    1.61    0.63
  -3  -6 -16    2.16    0.62
   3  -7  16   -0.22    0.76
   3   7 -19    1.40    0.88
  -3   7  19    0.80    0.70
  -3  -7  19   -0.31    1.09
  -3  -7  19   -0.03    0.66
  -3   7 -16    0.13    0.58
  -3  -7 -16    2.08    0.79
  -3  -7 -16    2.70    0.76
   3  -8  16    0.67    0.82
  -3   8  19   -1.17    0.74
  -3  -8  19   -1.84    0.99
  -3  -8  19    2.43    0.83
  -3  -8 -16    1.34    0.90
  -3  -8 -16    0.86    0.87
   3   0  17   -0.15    0.41
   3   0 -20    1.89    0.48
   3   0 -20    0.04    0.51
   3   0 -20    0.46    0.49
  -3   0  20    2.13    0.54
  -3   0  20    2.83    0.52
  -3   0  20    2.77    0.47
  -3   0 -17   -0.18    0.46
  -3   0 -17    0.37    0.39
   3   1  17    0.60    0.44
   3  -1  17    0.37    0.37
   3   1 -20   24.51    1.04
   3   1 -20    3.08    0.54
   3   1 -20   25.89    1.02
   3  -1 -20   27.86    1.36
   3  -1 -20   25.41    0.89
  -3   1  20   32.06    1.18
  -3   1  20   25.03    1.11
  -3   1  20   29.54    0.91
  -3  -1  20   29.58    1.22
  -3  -1  20   25.87    1.09
  -3   1 -17   -1.12    0.48
  -3   1 -17   -0.44    0.36
  -3  -1 -17    0.23    0.46
  -3  -1 -17   -0.98    0.40
   3   2  17    0.81    0.44
   3  -2  17   -0.68    0.38
   3  -2  17   -1.09    0.50
   3   2 -20    0.72    0.49
   3   2 -20    0.76    0.52
   3   2 -20   -0.30    0.53
   3  -2 -20    1.67    0.49
   3  -2 -20   -0.16    0.40
  -3   2  20   -0.32    0.47
  -3   2  20    0.04    0.50
  -3   2  20    0.11    0.38
  -3  -2  20    1.19    0.71
  -3  -2  20    0.31    0.43
  -3  -2  20    0.38    0.48
  -3   2 -17   -0.50    0.44
  -3   2 -17   -1.20    0.40
  -3  -2 -17   -0.46    0.52
  -3  -2 -17    0.58    0.46
   3   3  17   -0.74    0.56
   3  -3  17    2.19    0.46
   3  -3  17    2.09    0.65
   3   3 -20    5.93    0.76
   3   3 -20   -0.04    0.57
   3  -3 -20    5.42    0.64
  -3   3  20    7.73    0.96
  -3   3  20    7.72    0.86
  -3   3  20    5.44    0.60
  -3  -3  20    8.40    1.20
  -3  -3  20    8.65    1.05
  -3  -3  20    7.98    0.91
  -3   3 -17    1.78    0.48
  -3   3 -17    2.59    0.50
  -3  -3 -17    2.59    0.54
  -3  -3 -17    1.67    0.48
  -3  -3 -17    2.04    0.56
   3   4  17   -1.09    0.47
   3  -4  17    1.34    0.64
   3  -4  17    0.96    0.52
   3   4 -20    0.79    0.66
   3   4 -20    0.52    0.59
   3  -4 -20    0.79    0.52
  -3   4  20   -1.06    0.50
  -3   4  20   -0.19    0.52
  -3  -4  20   -0.95    0.64
  -3  -4  20    0.13    0.52
  -3   4 -17    0.41    0.57
  -3   4 -17    0.61    0.48
  -3  -4 -17    0.45    0.71
  -3  -4 -17   -0.56    0.50
  -3  -4 -17   -0.89    0.52
   3  -5  17    4.11    0.49
   3  -5  17    3.00    0.68
   3   5 -20    2.07    0.72
   3   5 -20    0.53    0.69
  -3   5  20    1.40    0.70
  -3  -5  20    1.72    1.13
  -3  -5  20    3.11    0.74
  -3  -5  20    2.77    0.68
  -3   5 -17    2.74    0.61
  -3   5 -17    4.39    0.61
  -3  -5 -17    4.02    0.75
  -3  -5 -17    5.68    0.72
   3  -6  17    0.50    0.65
   3   6 -20    1.47    0.78
  -3   6  20   11.35    1.22
  -3  -6  20    7.08    1.09
  -3  -6  20    4.88    1.00
  -3  -6  20    8.05    0.87
  -3  -6 -17    0.76    0.73
  -3  -6 -17   -0.30    0.56
   3  -7  17    0.03    0.80
  -3   7  20    5.68    0.87
  -3  -7  20    1.13    0.91
  -3  -7  20    5.45    0.86
  -3   7 -17   -1.09    0.65
  -3  -7 -17    1.03    0.83
  -3  -7 -17    4.35    0.83
   3   0  18    0.82    0.43
   3   0 -21   -0.28    0.57
   3   0 -21   -0.08    0.48
  -3   0  21   -1.37    0.50
  -3   0  21    2.21    0.57
  -3   0  21   -0.27    0.40
  -3   0 -18    0.65    0.58
  -3   0 -18    0.67    0.49
   3   1  18   -0.86    0.45
   3  -1  18    2.70    0.47
   3   1 -21    0.24    0.58
   3   1 -21    0.22    0.55
   3  -1 -21    0.32    0.52
   3  -1 -21   -1.12    0.48
  -3   1  21   -0.93    0.53
  -3   1  21   -0.41    0.57
  -3   1  21   -0.29    0.42
  -3  -1  21    1.17    0.57
  -3  -1  21    0.02    0.59
  -3  -1  21    1.03    0.48
  -3   1 -18    1.81    0.56
  -3   1 -18    3.05    0.58
  -3  -1 -18    2.56    0.53
  -3  -1 -18    1.32    0.48
   3   2  18    0.26    0.47
   3  -2  18   -0.44    0.43
   3   2 -21   30.43    1.66
   3   2 -21   -0.77    0.58
   3  -2 -21    1.78    0.69
   3  -2 -21   30.52    0.97
  -3   2  21   33.15    1.26
  -3   2  21   27.72    1.29
  -3   2  21   35.46    0.96
  -3  -2  21   34.67    1.43
  -3  -2  21   29.79    2.07
  -3  -2  21   34.16    1.20
  -3   2 -18   -0.16    0.54
  -3   2 -18    0.79    0.45
  -3  -2 -18    0.80    0.57
  -3  -2 -18   -0.51    0.55
   3  -3  18    0.40    0.46
   3  -3  18    1.54    0.72
   3   3 -21   -0.38    0.65
   3  -3 -21   -0.44    0.72
  -3   3  21    2.77    0.62
  -3   3  21    1.16    0.64
  -3   3  21    3.60    0.45
  -3  -3  21    3.12    0.69
  -3  -3  21    2.27    0.64
  -3  -3  21    2.66    0.57
  -3   3 -18    1.18    0.52
  -3  -3 -18    0.95    0.68
  -3  -3 -18    0.65    0.52
  -3  -3 -18   -0.95    0.53
   3  -4  18    0.57    0.54
   3   4 -21   -1.40    0.66
  -3   4  21   22.78    1.29
  -3  -4  21   16.95    1.36
  -3  -4  21   14.32    1.34
  -3  -4  21   15.02    1.09
  -3   4 -18   -0.96    0.52
  -3  -4 -18   -0.87    0.62
  -3  -4 -18    0.17    0.61
   3  -5  18    0.60    0.64
  -3   5  21    1.56    0.74
  -3  -5  21   -1.14    0.75
  -3  -5  21    2.62    1.05
  -3  -5  21    0.42    0.66
  -3   5 -18   -0.27    0.56
  -3  -5 -18   -0.86    0.66
  -3  -5 -18   -0.67    0.59
   3  -6  18    0.19    0.86
  -3   6  21   -0.06    0.69
  -3  -6  21    1.92    0.92
  -3  -6  21    0.13    0.73
  -3   6 -18    0.66    0.60
  -3  -6 -18   -1.19    0.76
  -3  -6 -18   -0.85    0.62
  -3   7  21   -1.57    0.85
  -3  -7  21   -2.34    1.12
   3   0  19    0.09    0.57
   3   0 -22    1.63    0.66
   3   0 -22    7.26    0.71
  -3   0  22   11.22    1.15
  -3   0  22    6.96    0.78
  -3   0 -19    1.35    0.68
  -3   0 -19   -0.59    0.46
   3  -1  19    2.02    0.83
   3   1 -22    0.74    0.69
   3   1 -22   21.23    1.10
   3  -1 -22    1.29    0.56
   3  -1 -22   24.18    1.07
  -3   1  22   26.74    1.35
  -3   1  22   19.51    1.34
  -3   1  22   29.39    1.05
  -3  -1  22   25.22    1.30
  -3  -1  22   27.66    1.08
  -3   1 -19    1.01    0.87
  -3   1 -19    1.97    0.57
  -3  -1 -19    0.59    0.55
   3   2 -22    0.68    0.67
   3  -2 -22    4.88    0.60
  -3   2  22    3.98    0.78
  -3   2  22    6.02    0.59
  -3  -2  22    4.11    0.76
  -3  -2  22    3.61    0.64
  -3  -2  22    3.94    0.57
  -3   2 -19   -0.35    0.45
  -3  -2 -19    0.23    0.63
   3  -3  19    1.02    0.67
   3   3 -22   -1.53    0.69
  -3   3  22   -0.54    0.64
  -3   3  22    2.05    0.48
  -3  -3  22    0.05    0.68
  -3  -3  22    2.74    0.78
  -3  -3  22    2.22    0.61
  -3   3 -19    0.12    0.56
  -3  -3 -19    0.91    0.58
  -3  -3 -19    0.44    0.57
   3  -4  19    0.00    0.77
  -3   4  22    3.78    0.79
  -3  -4  22    2.30    0.81
  -3  -4  22    0.12    0.60
  -3   4 -19   -0.30    0.53
  -3  -4 -19   -1.10    0.66
  -3  -4 -19   -0.18    0.67
   3  -5  19   -0.27    0.69
  -3   5  22    0.88    0.75
  -3  -5  22   -0.77    0.90
  -3  -5  22    1.01    0.72
  -3  -5 -19   -0.24    0.77
  -3  -5 -19    0.42    0.64
   3  -6  19    0.10    0.81
  -3   6  22    1.12    0.84
  -3  -6  22    1.11    0.97
  -3   6 -19    0.03    0.85
  -3  -6 -19    0.29    1.01
  -3  -6 -19   -1.02    0.71
   3   0 -23    0.45    0.62
  -3   0  23   -0.56    0.61
  -3   0  23   -0.84    0.53
  -3   0 -20   -0.23    0.61
   3  -1 -23    0.10    0.66
  -3   1  23   -0.70    0.57
  -3   1  23   -0.06    0.51
  -3  -1  23   -0.84    0.69
  -3  -1  23    1.65    0.61
  -3   1 -20    2.33    0.61
  -3  -1 -20    1.45    0.56
  -3   2  23   19.01    0.94
  -3  -2  23   23.87    1.44
  -3  -2  23   20.21    1.14
  -3   2 -20   -0.38    0.61
  -3  -2 -20   -0.89    0.69
   3  -3  20    1.90    0.78
  -3   3  23    2.58    0.75
  -3   3  23    2.51    0.55
  -3  -3  23    2.58    0.81
  -3  -3  23    1.56    0.67
  -3   3 -20    2.60    0.59
  -3  -3 -20    1.31    0.69
  -3  -3 -20    0.56    0.64
   3  -4  20   -0.57    0.78
  -3   4  23   34.10    1.70
  -3  -4  23   29.75    1.79
  -3  -4  23   29.80    1.43
  -3   4 -20    1.08    0.63
  -3  -4 -20   -1.93    0.77
  -3  -4 -20   -0.54    0.76
   3  -5  20   -0.53    0.84
  -3   5  23   14.81    1.57
  -3  -5  23    7.46    1.13
  -3   5 -20   -0.10    0.71
  -3  -5 -20   -1.21    0.78
  -3  -5 -20   -0.50    0.70
  -3   0  24   20.36    1.46
  -3   0  24   23.58    1.20
  -3   0 -21   -0.25    0.58
  -3   1  24    8.05    0.87
  -3   1  24   14.16    1.22
  -3  -1  24   10.41    0.99
  -3  -1  24   10.15    1.12
  -3   1 -21    0.48    0.67
  -3  -1 -21    1.92    0.68
  -3   2  24    0.86    0.74
  -3   2  24    3.18    0.61
  -3  -2  24    1.59    0.89
  -3  -2  24    2.65    0.73
  -3  -2 -21   -0.78    0.68
   3  -3  21    0.65    0.80
  -3   3  24   14.24    1.58
  -3  -3  24    8.87    1.05
  -3  -3  24   10.36    1.19
  -3   3 -21    0.49    0.61
  -3  -3 -21   -0.51    0.76
  -3  -3 -21   -0.86    0.72
  -3   4  24    0.87    0.89
  -3  -4  24   -1.11    0.94
  -3   4 -21    1.30    0.81
  -3  -4 -21   -0.28    0.80
  -3  -4 -21    0.00    0.86
  -3   0  25    1.45    0.87
  -3   0  25   -1.54    0.72
  -3   0 -22    0.02    0.73
  -3   1  25    0.96    0.81
  -3   1  25   -1.14    0.63
  -3  -1  25    0.62    0.87
  -3  -1  25    2.60    0.75
  -3   1 -22    1.03    0.74
  -3  -1 -22    5.11    0.90
  -3   2  25    8.01    1.00
  -3  -2  25    4.89    1.00
  -3   2 -22    0.97    0.70
  -3  -2 -22    2.81    0.88
  -4   0   2   15.86    0.42
  -4   0   2   15.23    0.42
  -4   0   2   17.35    0.67
   4   1  -2    2.72    0.25
   4   1  -2    1.83    0.19
  -4   1   2    3.11    0.26
  -4   1   2    3.00    0.25
  -4   1   2    3.91    0.42
  -4  -1   2    2.41    0.23
  -4  -1   2    2.58    0.26
  -4  -1   2    2.62    0.38
   4   2  -2    2.14    0.24
   4   2  -2    1.45    0.22
   4   2  -2    1.54    0.32
  -4   2   2    1.70    0.28
  -4   2   2    1.81    0.31
  -4  -2   2    1.41    0.24
  -4  -2   2    2.35    0.27
  -4  -2   2    1.22    0.32
   4   3  -2   24.61    0.62
   4   3  -2   22.88    0.61
   4   3  -2   24.65    0.80
  -4   3   2   24.20    0.68
  -4   3   2   26.57    0.73
  -4  -3   2   27.48    0.70
  -4  -3   2   25.31    0.69
  -4  -3   2   25.21    0.82
   4   4  -2    5.20    0.45
   4   4  -2    3.66    0.38
   4   4  -2    5.13    0.57
  -4   4   2    4.04    0.43
  -4   4   2    4.35    0.40
  -4  -4   2    5.74    0.51
  -4  -4   2    4.96    0.44
  -4  -4   2    5.11    0.51
   4   5  -2    1.34    0.29
   4   5  -2    1.24    0.31
   4   5  -2    0.34    0.37
  -4   5   2    1.43    0.29
  -4   5   2    0.99    0.30
  -4  -5   2    1.01    0.31
  -4  -5   2    0.49    0.32
  -4  -5   2    1.20    0.38
   4   6  -2    0.86    0.34
   4   6  -2    0.72    0.36
   4   6  -2    1.77    0.43
  -4   6   2    0.73    0.29
  -4   6   2    0.88    0.32
  -4  -6   2    1.11    0.39
  -4  -6   2    0.65    0.36
  -4  -6   2    0.81    0.40
   4   7  -2   33.91    1.06
   4   7  -2   27.81    1.30
  -4   7   2   34.99    0.61
  -4   7   2   34.12    0.83
  -4   7   2   32.54    0.82
  -4  -7   2   38.40    1.58
  -4  -7   2   28.39    1.35
  -4  -7   2   32.97    1.10
   4   8  -2    0.89    0.53
   4   8  -2   -0.58    0.43
  -4   8   2    0.34    0.28
  -4   8   2    0.83    0.35
  -4   8   2    0.28    0.37
  -4  -8   2    0.96    0.57
  -4  -8   2   -0.13    0.51
  -4  -8   2   -0.45    0.48
   4   9  -2    0.49    0.53
  -4   9   2    5.20    0.44
  -4   9   2    6.44    0.61
  -4   9   2    8.59    0.71
  -4   9   2    4.22    0.53
  -4  -9   2    5.43    0.97
  -4  -9   2    4.55    0.77
  -4  -9   2    7.05    0.76
  -4  10   2   -0.94    0.41
  -4  10   2    0.51    0.40
  -4  10   2    0.97    0.47
  -4 -10   2   -0.13    0.72
  -4 -10   2    1.32    0.73
  -4   0   3   -0.08    0.16
  -4   0   3    0.22    0.23
  -4   0   1   -0.18    0.14
  -4   0   1   -0.15    0.16
  -4   0   1    0.15    0.22
   4   1  -1   -0.02    0.14
   4   1  -1    0.10    0.15
   4   1  -3    0.81    0.15
   4   1  -3   -0.05    0.15
   4   1  -3    0.37    0.24
  -4   1   3    0.04    0.14
  -4   1   3    0.15    0.14
  -4   1   3    0.93    0.27
  -4  -1   3    0.21    0.18
  -4  -1   3    0.08    0.18
  -4  -1   3   -0.38    0.26
  -4   1   1   -0.10    0.12
  -4   1   1    0.02    0.13
  -4   1   1    0.33    0.25
  -4  -1   1   -0.03    0.17
  -4  -1   1    0.00    0.19
  -4  -1   1    0.40    0.29
   4   2  -1   34.39    0.60
   4   2  -1   31.91    0.59
   4   2  -1   34.01    0.83
   4   2  -3   14.90    0.45
   4   2  -3   14.06    0.46
   4   2  -3   13.62    0.65
  -4   2   3   13.95    0.34
  -4   2   3   13.42    0.32
  -4   2   3   15.87    0.58
  -4  -2   3   15.37    0.52
  -4  -2   3   14.48    0.52
  -4  -2   3   14.93    0.68
  -4   2   1   34.81    0.79
  -4   2   1   34.18    0.82
  -4  -2   1   34.76    0.69
  -4  -2   1   33.98    0.70
  -4  -2   1   35.65    0.93
   4   3  -1    1.60    0.26
   4   3  -1    1.47    0.24
   4   3  -1    1.51    0.35
   4   3  -3    8.12    0.43
   4   3  -3    8.68    0.46
   4   3  -3    7.96    0.57
  -4   3   3    8.88    0.48
  -4   3   3    8.93    0.54
  -4  -3   3    8.25    0.46
  -4  -3   3    7.67    0.48
  -4  -3   3   10.38    0.64
  -4   3   1    1.73    0.29
  -4   3   1    1.16    0.31
  -4  -3   1    1.32    0.27
  -4  -3   1    2.16    0.33
  -4  -3   1    2.37    0.41
   4   4  -1   28.83    0.74
   4   4  -1   26.41    0.72
   4   4  -1   24.27    0.87
   4   4  -3   27.20    0.69
   4   4  -3   24.91    0.72
   4   4  -3   27.13    0.86
  -4   4   3   28.24    0.69
  -4   4   3   27.93    0.75
  -4  -4   3   29.88    0.78
  -4  -4   3   28.85    0.81
  -4  -4   3   26.11    0.90
  -4   4   1   27.01    0.72
  -4   4   1   26.68    0.77
  -4  -4   1   28.19    0.77
  -4  -4   1   28.86    0.80
  -4  -4   1   27.15    0.90
   4   5  -1   13.92    0.65
   4   5  -1   11.71    0.62
   4   5  -1   12.02    0.75
   4   5  -3    8.82    0.57
   4   5  -3    8.46    0.61
   4   5  -3    9.39    0.69
  -4   5   3   11.40    0.53
  -4   5   3    7.05    0.61
  -4  -5   3    9.66    0.66
  -4  -5   3   10.11    0.67
  -4  -5   3    7.10    0.68
  -4   5   1   14.64    0.60
  -4   5   1   11.39    0.67
  -4  -5   1   14.39    0.73
  -4  -5   1   12.09    0.70
  -4  -5   1   14.64    0.83
   4   6  -1    9.20    0.71
   4   6  -1    9.41    0.68
   4   6  -1    9.50    0.80
   4   6  -3    5.89    0.63
   4   6  -3    8.19    0.67
   4   6  -3    5.98    0.62
  -4   6   3    6.61    0.34
  -4   6   3    6.59    0.51
  -4  -6   3    5.94    0.57
  -4  -6   3    7.82    0.73
  -4  -6   3    6.74    0.65
  -4   6   1   11.27    0.59
  -4   6   1    8.82    0.64
  -4  -6   1    9.05    0.80
  -4  -6   1    8.25    0.69
  -4  -6   1   12.51    0.83
   4   7  -1    0.13    0.39
   4   7  -1    0.25    0.58
   4   7  -3    3.85    0.47
   4   7  -3    3.68    0.56
  -4   7   3    3.80    0.30
  -4   7   3    3.56    0.39
  -4   7   3    3.43    0.37
  -4  -7   3    4.46    0.73
  -4  -7   3    2.29    0.91
  -4  -7   3    4.60    0.53
  -4   7   1   -0.41    0.30
  -4   7   1    0.59    0.34
  -4  -7   1    1.25    0.69
  -4  -7   1    1.02    0.56
  -4  -7   1    0.21    0.39
   4   8  -1    1.91    0.49
   4   8  -1   -1.17    0.49
   4   8  -3   -0.24    0.56
   4   8  -3    0.44    0.56
  -4   8   3    0.61    0.30
  -4   8   3    0.36    0.27
  -4   8   3    1.17    0.34
  -4  -8   3    1.29    0.56
  -4  -8   3    0.58    0.54
  -4  -8   3    0.57    0.54
  -4   8   1    1.95    0.30
  -4   8   1    2.17    0.31
  -4   8   1    1.04    0.37
  -4   8   1    0.75    0.46
  -4  -8   1    2.36    0.62
  -4  -8   1    1.49    0.58
  -4  -8   1    4.33    0.61
   4   9  -1   -0.43    0.59
   4   9  -3    1.91    0.58
  -4   9   3    5.61    0.67
  -4   9   3    3.30    0.42
  -4   9   3    3.80    0.42
  -4   9   3    4.96    0.69
  -4  -9   3    6.27    0.88
  -4  -9   3    2.26    0.63
  -4  -9   3    3.79    0.74
  -4   9   1   -0.23    0.32
  -4   9   1    0.26    0.32
  -4   9   1   -0.92    0.40
  -4   9   1    1.29    0.50
  -4  -9   1   -3.03    1.27
  -4  -9   1    0.57    0.54
  -4  -9   1   -1.31    0.59
  -4  10   3    4.72    0.52
  -4 -10   3    3.62    0.77
  -4 -10   3    6.65    0.84
  -4  10   1    3.83    0.49
  -4  10   1    3.65    0.44
  -4  10   1    4.10    0.51
  -4 -10   1    3.92    0.78
  -4 -10   1    3.45    0.77
   4   0  -4   93.64    1.22
  -4   0   4   86.12    0.89
  -4   0   4   87.76    0.90
  -4   0   4   91.68    1.25
  -4   0   0    0.08    0.14
  -4   0   0    0.46    0.17
  -4   0   0    0.01    0.23
   4   1   0    0.96    0.16
   4   1   0    2.05    0.24
   4   1  -4    3.77    0.29
   4   1  -4    2.58    0.29
   4   1  -4    4.47    0.43
  -4   1   4    4.23    0.30
  -4   1   4    3.30    0.27
  -4   1   4    3.79    0.38
  -4  -1   4    3.44    0.34
  -4  -1   4    4.85    0.44
  -4   1   0    0.83    0.14
  -4   1   0    1.20    0.16
  -4   1   0    1.35    0.29
  -4   1   0    1.58    0.32
  -4  -1   0    0.89    0.18
  -4  -1   0    1.36    0.22
  -4  -1   0    1.34    0.28
   4   2   0    0.65    0.16
   4   2   0    0.00    0.19
   4   2  -4   14.88    0.46
   4   2  -4   13.19    0.47
   4   2  -4   15.23    0.64
  -4   2   4   13.52    0.36
  -4   2   4   13.41    0.35
  -4   2   4   15.47    0.61
  -4  -2   4   14.38    0.63
  -4  -2   4   15.57    0.55
  -4  -2   4   15.70    0.65
  -4   2   0    0.39    0.23
  -4   2   0    0.64    0.27
  -4  -2   0    0.31    0.23
  -4  -2   0   -0.03    0.21
  -4  -2   0    0.46    0.31
   4   3   0    4.81    0.39
   4   3   0    5.57    0.42
   4   3   0    3.83    0.39
   4   3  -4    6.36    0.41
   4   3  -4    4.44    0.42
   4   3  -4    6.23    0.54
  -4   3   4    4.52    0.25
  -4   3   4    5.43    0.45
  -4   3   4    5.50    0.52
  -4  -3   4    4.80    0.43
  -4  -3   4    4.65    0.46
  -4  -3   4    5.90    0.57
  -4   3   0    4.41    0.45
  -4   3   0    4.64    0.51
  -4  -3   0    6.72    0.46
  -4  -3   0    5.26    0.47
  -4  -3   0    5.92    0.62
   4   4   0    5.36    0.49
   4   4   0    5.17    0.49
   4   4   0    6.52    0.67
   4   4  -4    2.18    0.26
   4   4  -4    2.33    0.33
   4   4  -4    1.89    0.41
  -4   4   4    1.85    0.27
  -4  -4   4    1.71    0.29
  -4  -4   4    2.89    0.38
  -4  -4   4    1.64    0.36
  -4   4   0    8.09    0.52
  -4   4   0    5.73    0.54
  -4  -4   0    7.35    0.59
  -4  -4   0    6.29    0.57
  -4  -4   0    7.48    0.66
   4   5   0   10.44    0.65
   4   5   0    8.90    0.61
   4   5   0    7.33    0.69
   4   5  -4    1.68    0.29
   4   5  -4    1.46    0.42
   4   5  -4    1.16    0.41
  -4   5   4    1.56    0.19
  -4   5   4    1.86    0.28
  -4   5   4    1.78    0.32
  -4  -5   4    1.83    0.35
  -4  -5   4    1.21    0.37
  -4  -5   4    0.80    0.42
  -4   5   0    9.26    0.56
  -4   5   0    9.03    0.61
  -4  -5   0   12.38    0.69
  -4  -5   0   10.42    0.72
  -4  -5   0    9.80    0.74
   4   6   0    2.26    0.43
   4   6   0    1.96    0.51
   4   6   0    1.07    0.47
   4   6  -4    1.52    0.35
   4   6  -4    1.32    0.38
   4   6  -4    1.93    0.48
  -4   6   4    1.36    0.21
  -4   6   4    1.99    0.23
  -4   6   4    1.22    0.29
  -4   6   4    1.69    0.35
  -4  -6   4    2.37    0.42
  -4  -6   4    1.43    0.39
  -4  -6   4    1.24    0.36
  -4   6   0    1.06    0.35
  -4   6   0    1.04    0.42
  -4  -6   0    2.40    0.39
  -4  -6   0    2.16    0.49
  -4  -6   0    2.44    0.46
   4   7   0    2.00    0.52
   4   7   0    2.60    0.73
   4   7   0    2.93    0.65
   4   7  -4    1.30    0.47
   4   7  -4    0.19    0.43
  -4   7   4    0.42    0.23
  -4   7   4    1.32    0.26
  -4   7   4    0.99    0.30
  -4   7   4    0.81    0.33
  -4  -7   4    0.98    0.72
  -4  -7   4    0.93    0.49
  -4   7   0    3.28    0.43
  -4  -7   0    3.48    0.52
  -4  -7   0    3.65    0.52
   4   8   0   -0.13    0.55
   4   8   0   -1.07    0.47
   4   8  -4    2.77    0.61
   4   8  -4   -0.48    0.46
  -4   8   4    3.69    0.36
  -4   8   4    3.17    0.35
  -4   8   4    3.59    0.36
  -4   8   4    3.03    0.38
  -4  -8   4    4.97    0.69
  -4  -8   4    2.65    0.52
  -4  -8   4    3.65    0.58
  -4   8   0    0.04    0.26
  -4   8   0   -0.50    0.25
  -4  -8   0    0.55    0.46
   4   9   0   -1.36    0.63
  -4   9   4   10.28    0.73
  -4   9   4    7.32    0.67
  -4  -9   4   12.98    1.48
  -4  -9   4    8.66    1.06
  -4  -9   4   12.70    1.15
  -4   9   0    2.68    0.38
  -4   9   0    3.84    0.41
  -4   9   0    3.83    0.59
  -4  -9   0    1.37    0.57
  -4  -9   0    5.00    0.71
  -4  10   4    1.27    0.47
  -4  10   4    0.41    0.48
  -4 -10   4   -0.14    0.76
  -4 -10   4    1.89    0.72
  -4  10   0    0.94    0.45
  -4  10   0    0.58    0.40
  -4 -10   0    1.68    0.76
  -4 -10   0    0.15    0.64
   4   0  -5    0.28    0.16
   4   0  -5    0.02    0.25
  -4   0   5   -0.20    0.16
  -4   0   5   -0.18    0.17
  -4   0   5    0.13    0.25
  -4   0  -1    0.08    0.14
  -4   0  -1    0.32    0.17
   4   1   1    2.56    0.27
   4   1   1    3.45    0.26
   4   1  -5   -0.05    0.15
   4   1  -5   -0.16    0.19
   4   1  -5    0.47    0.28
  -4   1   5   -0.31    0.19
  -4   1   5   -0.10    0.15
  -4  -1   5    0.12    0.17
  -4  -1   5    0.02    0.19
  -4  -1   5    0.36    0.25
  -4   1  -1    2.99    0.24
  -4   1  -1    3.87    0.26
  -4   1  -1    2.80    0.29
  -4   1  -1    3.99    0.48
  -4  -1  -1    3.27    0.32
  -4  -1  -1    4.15    0.37
  -4  -1  -1    3.02    0.33
   4   2   1    9.15    0.39
   4   2   1    8.77    0.40
   4   2  -5    2.92    0.34
   4   2  -5    4.19    0.37
   4   2  -5    4.00    0.48
  -4   2   5    3.61    0.31
  -4   2   5    3.42    0.28
  -4   2   5    4.25    0.47
  -4  -2   5    3.68    0.39
  -4  -2   5    4.04    0.50
  -4   2  -1    8.89    0.53
  -4   2  -1   11.09    0.60
  -4  -2  -1    9.06    0.45
  -4  -2  -1   10.97    0.49
  -4  -2  -1   10.55    0.63
   4   3   1    0.62    0.21
   4   3   1    0.44    0.24
   4   3  -5    9.04    0.48
   4   3  -5    9.98    0.49
   4   3  -5    8.79    0.62
  -4   3   5    9.94    0.36
  -4   3   5    8.33    0.33
  -4   3   5   10.54    0.52
  -4  -3   5    9.95    0.51
  -4  -3   5   10.63    0.55
  -4  -3   5    9.47    0.62
  -4   3  -1    0.58    0.28
  -4   3  -1    0.83    0.34
  -4  -3  -1    1.09    0.23
  -4  -3  -1    0.54    0.24
  -4  -3  -1    0.31    0.30
   4   4   1    0.86    0.26
   4   4   1    0.85    0.27
   4   4   1    1.12    0.34
   4   4  -5    9.71    0.52
   4   4  -5    8.41    0.53
   4   4  -5    8.95    0.67
  -4   4   5   13.20    0.39
  -4   4   5    9.76    0.34
  -4   4   5   12.39    0.56
  -4   4   5    8.72    0.50
  -4  -4   5    9.57    0.57
  -4  -4   5   10.83    0.62
  -4  -4   5    9.65    0.62
  -4   4  -1    0.33    0.28
  -4   4  -1    0.23    0.33
  -4  -4  -1   -0.13    0.27
  -4  -4  -1    0.31    0.31
  -4  -4  -1    0.50    0.37
   4   5   1    0.76    0.28
   4   5   1    1.07    0.32
   4   5   1    0.67    0.40
   4   5  -5   46.60    0.97
   4   5  -5   44.39    1.10
  -4   5   5   49.15    0.80
  -4   5   5   43.23    0.60
  -4   5   5   50.20    0.83
  -4   5   5   48.24    0.83
  -4  -5   5   49.58    1.04
  -4  -5   5   48.14    1.08
  -4   5  -1    0.07    0.28
  -4   5  -1    0.56    0.36
  -4  -5  -1   -0.09    0.28
  -4  -5  -1    0.66    0.36
  -4  -5  -1    0.29    0.36
   4   6   1    2.20    0.42
   4   6   1    2.09    0.52
   4   6  -5    1.74    0.38
   4   6  -5    2.41    0.44
   4   6  -5    1.93    0.46
  -4   6   5    4.06    0.40
  -4   6   5    1.61    0.24
  -4   6   5    2.18    0.30
  -4   6   5    2.04    0.33
  -4  -6   5    1.99    0.43
  -4  -6   5    1.26    0.37
  -4  -6   5    1.50    0.44
  -4   6  -1    2.09    0.40
  -4  -6  -1    1.19    0.40
  -4  -6  -1    2.11    0.65
  -4  -6  -1    3.33    0.55
   4   7   1   -0.27    0.50
   4   7   1   -0.68    0.42
   4   7   1   -0.45    0.57
   4   7  -5    0.81    0.44
   4   7  -5    1.73    0.50
  -4   7   5    0.36    0.23
  -4   7   5    0.30    0.24
  -4   7   5    1.11    0.29
  -4  -7   5    0.43    0.47
  -4   7  -1    0.29    0.38
  -4  -7  -1    0.89    0.52
  -4  -7  -1    0.48    0.44
   4   8   1    0.58    0.69
   4   8   1   -0.18    0.47
   4   8  -5    2.82    0.62
   4   8  -5    0.20    0.47
  -4   8   5    2.59    0.32
  -4   8   5    2.51    0.35
  -4   8   5    2.92    0.32
  -4   8   5    2.80    0.35
  -4  -8   5    3.31    0.57
  -4  -8   5    2.64    0.58
  -4  -8   5    2.14    0.56
  -4   8  -1    0.19    0.26
  -4   8  -1   -0.19    0.53
  -4  -8  -1    1.23    0.69
  -4  -8  -1    0.05    0.51
  -4  -8  -1    1.16    0.55
   4   9   1   -0.52    0.53
   4   9  -5   -0.59    0.54
  -4   9   5    2.24    0.38
  -4   9   5    2.35    0.41
  -4  -9   5    3.07    0.75
  -4  -9   5    3.05    0.65
  -4  -9   5    3.81    0.72
  -4   9  -1    1.02    0.35
  -4   9  -1   -0.80    0.31
  -4   9  -1    1.80    0.54
  -4  -9  -1   -1.31    0.57
  -4  -9  -1    0.87    0.57
  -4  10   5   -0.24    0.44
  -4  10   5    0.00    0.49
  -4 -10   5    1.90    0.79
  -4 -10   5   -0.11    0.76
  -4  10  -1    2.99    0.48
  -4  10  -1    0.18    0.41
  -4 -10  -1   -0.05    0.61
  -4 -10  -1    2.00    0.76
   4   0  -6  218.05    1.19
   4   0  -6  193.95    1.11
   4   0  -6  218.19    1.84
  -4   0   6  208.48    1.48
  -4   0   6  203.79    1.45
  -4   0   6  216.60    1.85
  -4   0  -2   30.93    0.54
  -4   0  -2   28.59    0.54
  -4   0  -2   27.45    0.79
  -4   0  -2   26.61    0.80
   4   1   2    4.08    0.29
   4   1   2    5.03    0.29
   4   1  -6   16.94    0.45
   4   1  -6   14.30    0.45
   4   1  -6   16.32    0.65
  -4   1   6   16.56    0.47
  -4   1   6   15.87    0.46
  -4   1   6   17.06    0.62
  -4  -1   6   16.92    0.52
  -4  -1   6   17.72    0.54
  -4  -1   6   16.29    0.64
  -4   1  -2    6.14    0.28
  -4   1  -2    5.13    0.28
  -4   1  -2    6.45    0.48
  -4   1  -2    4.64    0.54
  -4  -1  -2    5.95    0.40
  -4  -1  -2    5.92    0.41
  -4  -1  -2    4.38    0.42
   4   2   2    9.50    0.43
   4   2   2    8.27    0.40
   4   2  -6    3.40    0.36
   4   2  -6    3.53    0.31
   4   2  -6    4.23    0.44
  -4   2   6    3.32    0.33
  -4   2   6    3.34    0.31
  -4   2   6    4.15    0.47
  -4  -2   6    3.63    0.40
  -4  -2   6    4.37    0.41
  -4  -2   6    3.47    0.39
  -4   2  -2    9.22    0.53
  -4   2  -2    8.44    0.57
  -4  -2  -2   10.76    0.50
  -4  -2  -2    9.62    0.50
  -4  -2  -2   10.10    0.60
   4   3   2    2.49    0.26
   4   3   2    2.43    0.27
   4   3  -6    0.13    0.21
   4   3  -6   -0.42    0.23
   4   3  -6    0.18    0.31
  -4   3   6   -0.28    0.17
  -4   3   6   -0.06    0.17
  -4   3   6   -0.66    0.24
  -4  -3   6   -0.21    0.22
  -4  -3   6    0.37    0.26
  -4   3  -2    2.37    0.34
  -4   3  -2    2.61    0.38
  -4  -3  -2    1.80    0.29
  -4  -3  -2    2.76    0.35
  -4  -3  -2    3.20    0.40
   4   4   2   10.87    0.52
   4   4   2    8.20    0.53
   4   4  -6   -0.10    0.27
   4   4  -6   -0.28    0.29
   4   4  -6    1.07    0.35
  -4   4   6    0.66    0.18
  -4   4   6    0.81    0.19
  -4   4   6    0.83    0.25
  -4   4   6    0.89    0.25
  -4  -4   6    0.60    0.28
  -4  -4   6    0.57    0.29
  -4  -4   6    0.36    0.33
  -4   4  -2    9.99    0.59
  -4   4  -2    9.50    0.65
  -4  -4  -2    9.67    0.65
  -4  -4  -2   10.94    0.62
  -4  -4  -2   12.72    0.76
   4   5   2    9.04    0.62
   4   5   2    8.87    0.64
   4   5   2   10.18    0.72
   4   5  -6    0.80    0.32
   4   5  -6    0.28    0.36
  -4   5   6    0.06    0.23
  -4   5   6    0.40    0.20
  -4   5   6    0.01    0.27
  -4   5   6   -0.35    0.25
  -4  -5   6   -0.54    0.30
  -4  -5   6   -0.19    0.33
  -4  -5   6    0.39    0.53
  -4   5  -2   11.78    0.69
  -4  -5  -2    8.88    0.73
  -4  -5  -2   11.40    0.73
  -4  -5  -2    9.75    0.85
   4   6   2    7.78    0.71
   4   6   2    7.96    0.78
   4   6  -6   17.47    0.83
   4   6  -6   20.34    0.86
   4   6  -6   15.95    0.88
  -4   6   6   24.13    0.59
  -4   6   6   16.52    0.52
  -4   6   6   20.04    0.62
  -4   6   6   20.64    0.60
  -4  -6   6   19.91    0.88
  -4  -6   6   21.21    0.89
  -4  -6   6   19.23    0.93
  -4   6  -2    4.68    0.52
  -4  -6  -2    7.91    0.88
  -4  -6  -2    5.06    0.77
  -4  -6  -2    6.50    0.81
   4   7   2    3.43    0.53
   4   7   2    3.19    0.50
   4   7   2    3.19    0.66
   4   7  -6    0.15    0.47
   4   7  -6    1.67    0.45
  -4   7   6    0.96    0.26
  -4   7   6    0.56    0.29
  -4   7   6    0.80    0.31
  -4  -7   6    1.77    0.90
  -4  -7   6    1.37    0.60
  -4  -7   6    0.40    0.45
  -4   7  -2    3.19    0.47
  -4  -7  -2    5.13    0.78
  -4  -7  -2    5.35    0.64
  -4  -7  -2    4.84    0.61
   4   8   2    1.22    0.56
   4   8  -6   -0.51    0.46
   4   8  -6   -0.43    0.53
  -4   8   6    0.03    0.30
  -4   8   6    0.68    0.36
  -4  -8   6    2.71    0.61
  -4  -8   6   -0.49    0.52
  -4  -8   6    0.80    0.54
  -4   8  -2    0.81    0.28
  -4   8  -2    1.43    0.28
  -4   8  -2    1.63    0.49
  -4  -8  -2    1.32    0.63
  -4  -8  -2    2.86    0.60
  -4  -8  -2    1.51    0.56
   4   9   2    0.19    0.54
   4   9  -6    1.42    0.66
  -4   9   6    0.76    0.37
  -4   9   6    0.25    0.42
  -4  -9   6    2.21    0.75
  -4  -9   6    0.12    0.58
  -4  -9   6    1.80    0.64
  -4   9  -2   -0.92    0.33
  -4   9  -2    0.54    0.34
  -4   9  -2   -0.30    0.59
  -4  -9  -2    0.04    0.62
  -4  -9  -2    0.68    0.63
  -4  10   6   -1.07    0.44
  -4  10   6    1.65    0.71
  -4 -10   6    2.17    0.80
  -4 -10   6    2.16    0.81
  -4  10  -2    0.86    0.45
  -4  10  -2    2.16    0.46
  -4 -10  -2    0.39    0.78
   4   0  -7    0.41    0.16
   4   0  -7    0.65    0.19
   4   0  -7    0.30    0.29
  -4   0   7   -0.44    0.22
  -4   0   7    0.16    0.20
  -4   0   7    0.18    0.27
  -4   0  -3    0.64    0.19
  -4   0  -3    0.41    0.19
  -4   0  -3   -0.25    0.29
  -4   0  -3    0.05    0.30
   4   1   3   28.55    0.45
   4   1   3   29.58    0.46
   4   1  -7    7.92    0.37
   4   1  -7    5.90    0.39
   4   1  -7    8.04    0.52
   4  -1  -7    7.96    0.28
   4  -1  -7    7.72    0.49
  -4   1   7    8.05    0.43
  -4   1   7    7.28    0.40
  -4   1   7    8.63    0.52
  -4  -1   7    6.80    0.43
  -4  -1   7    7.01    0.43
  -4  -1   7    8.12    0.52
  -4   1  -3   34.68    0.51
  -4   1  -3   33.02    0.50
  -4   1  -3   30.52    0.81
  -4   1  -3   30.99    0.85
  -4  -1  -3   34.39    0.66
  -4  -1  -3   33.90    0.66
  -4  -1  -3   29.92    0.85
   4   2   3    1.38    0.22
   4   2   3    0.76    0.21
   4   2  -7    2.17    0.27
   4   2  -7    1.59    0.27
   4   2  -7    1.73    0.34
  -4   2   7    2.27    0.26
  -4   2   7    2.72    0.34
  -4   2   7    3.39    0.34
  -4  -2   7    1.80    0.27
  -4  -2   7    1.78    0.31
  -4  -2   7    3.19    0.39
  -4   2  -3    0.84    0.26
  -4   2  -3    0.79    0.32
  -4  -2  -3    0.60    0.23
  -4  -2  -3    0.34    0.23
  -4  -2  -3    0.10    0.28
   4   3   3   13.65    0.55
   4   3   3   12.08    0.53
   4   3  -7   18.55    0.61
   4   3  -7   16.88    0.62
   4   3  -7   19.49    0.74
  -4   3   7   21.30    0.53
  -4   3   7   17.79    0.50
  -4   3   7   19.86    0.60
  -4  -3   7   18.60    0.67
  -4  -3   7   19.22    0.67
  -4  -3   7   18.65    0.74
  -4   3  -3   14.14    0.64
  -4   3  -3   14.27    0.68
  -4  -3  -3   14.54    0.61
  -4  -3  -3   14.09    0.61
  -4  -3  -3   15.16    0.75
   4   4   3    0.69    0.25
   4   4   3   -0.09    0.26
   4   4  -7    9.25    0.56
   4   4  -7    7.57    0.66
  -4   4   7   11.19    0.48
  -4   4   7    7.98    0.39
  -4   4   7    8.86    0.49
  -4   4   7    8.99    0.50
  -4  -4   7    7.43    0.58
  -4  -4   7    8.90    0.61
  -4  -4   7    8.94    0.63
  -4   4  -3    1.34    0.38
  -4  -4  -3   -0.56    0.27
  -4  -4  -3    0.45    0.28
  -4  -4  -3    0.78    0.34
   4   5   3    6.29    0.60
   4   5   3    3.98    0.44
   4   5  -7   32.80    0.92
   4   5  -7   40.32    1.42
   4   5  -7   30.16    0.95
  -4   5   7   38.80    0.68
  -4   5   7   31.00    0.62
  -4   5   7   34.76    0.69
  -4   5   7   34.75    0.69
  -4  -5   7   35.26    0.97
  -4  -5   7   34.82    0.95
  -4  -5   7   34.95    1.06
  -4   5  -3    4.50    0.48
  -4  -5  -3    4.61    0.51
  -4  -5  -3    7.35    0.80
   4   6  -7    0.16    0.38
   4   6  -7    0.69    0.50
   4   6  -7    0.86    0.55
  -4   6   7    0.60    0.26
  -4   6   7   -0.01    0.26
  -4   6   7    1.04    0.26
  -4   6   7    1.27    0.27
  -4  -6   7    0.71    0.39
  -4  -6   7    0.29    0.33
  -4  -6   7    0.98    0.44
  -4   6  -3    0.55    0.41
  -4  -6  -3   -0.21    0.44
  -4  -6  -3    1.40    0.44
  -4  -6  -3   -0.44    0.41
   4   7   3    0.04    0.44
   4   7   3   -0.49    0.43
   4   7  -7    0.48    0.45
   4   7  -7   -0.19    0.47
  -4   7   7    0.65    0.29
  -4   7   7    0.54    0.31
  -4  -7   7    0.04    0.51
  -4  -7   7    0.06    0.48
  -4  -7   7    0.04    0.42
  -4   7  -3   -0.01    0.44
  -4  -7  -3    0.09    0.46
  -4  -7  -3   -0.07    0.46
  -4  -7  -3   -0.42    0.43
   4   8   3    0.55    0.54
   4   8  -7    0.29    0.59
   4   8  -7   -0.61    0.49
  -4   8   7    0.59    0.31
  -4   8   7   -0.03    0.35
  -4  -8   7   -0.42    0.62
  -4  -8   7   -0.08    0.40
  -4  -8   7   -0.20    0.53
  -4   8  -3    0.67    0.28
  -4   8  -3   -0.20    0.26
  -4   8  -3   -0.41    0.50
  -4  -8  -3    0.55    0.63
   4   9   3    0.43    0.72
   4   9  -7    0.19    0.62
  -4   9   7    5.24    0.49
  -4   9   7    6.05    0.54
  -4  -9   7    3.55    0.87
  -4  -9   7    4.34    0.75
  -4  -9   7    5.14    0.77
  -4   9  -3   -0.30    0.33
  -4   9  -3    0.41    0.63
  -4  -9  -3    2.02    0.70
  -4  -9  -3    0.11    0.61
  -4  10   7    0.44    0.47
  -4 -10   7   -0.26    0.62
  -4 -10   7   -0.68    0.72
  -4  10  -3    0.26    0.46
  -4  10  -3    1.53    0.43
  -4 -10  -3    1.65    0.81
  -4 -10  -3   -0.03    0.73
   4   0  -8   68.92    0.80
   4   0  -8   63.87    0.78
   4   0  -8   68.70    1.07
  -4   0   8   68.18    0.98
  -4   0   8   63.91    0.91
  -4   0   8   69.61    1.08
  -4   0  -4  130.64    1.09
  -4   0  -4  127.07    1.08
  -4   0  -4  122.44    1.57
   4   1   4   21.39    0.43
   4   1   4   22.89    0.45
   4   1  -8   10.47    0.43
   4   1  -8    9.54    0.48
   4   1  -8   10.98    0.58
   4  -1  -8    9.61    0.35
   4  -1  -8    9.07    0.36
   4  -1  -8   10.24    0.54
  -4   1   8    8.96    0.47
  -4   1   8    9.88    0.45
  -4   1   8   11.62    0.53
  -4  -1   8    9.34    0.51
  -4  -1   8    9.60    0.55
  -4   1  -4   26.49    0.50
  -4   1  -4   25.10    0.47
  -4   1  -4   24.55    0.78
  -4   1  -4   26.44    0.78
  -4  -1  -4   28.44    0.64
  -4  -1  -4   26.48    0.64
  -4  -1  -4   27.14    0.84
  -4  -1  -4   24.61    0.83
   4   2   4    1.89    0.25
   4   2   4    1.99    0.26
   4   2  -8  234.15    1.72
   4   2  -8  212.64    1.64
   4   2  -8  225.00    2.04
  -4   2   8  230.75    1.57
  -4   2   8  220.57    1.51
  -4   2   8  236.96    1.77
  -4  -2   8  231.70    1.88
  -4  -2   8  227.35    1.84
  -4  -2   8  230.54    2.08
  -4   2  -4    1.92    0.37
  -4   2  -4    2.44    0.41
  -4  -2  -4    2.00    0.29
  -4  -2  -4    2.48    0.31
  -4  -2  -4    2.11    0.36
   4   3   4    7.66    0.50
   4   3   4    7.83    0.52
   4   3  -8   16.16    0.60
   4   3  -8   14.14    0.61
   4   3  -8   16.28    0.74
  -4   3   8   19.42    0.56
  -4   3   8   17.32    0.52
  -4   3   8   20.39    0.61
  -4  -3   8   15.75    0.64
  -4  -3   8   15.53    0.67
  -4  -3   8   19.22    0.76
  -4   3  -4    7.53    0.63
  -4  -3  -4   10.60    0.58
  -4  -3  -4    9.87    0.60
  -4  -3  -4   10.85    0.68
   4   4   4    0.19    0.27
   4   4   4    0.85    0.27
   4   4  -8    5.63    0.49
   4   4  -8    4.11    0.42
   4   4  -8    3.40    0.44
  -4   4   8    4.73    0.40
  -4   4   8    5.67    0.45
  -4   4   8    5.26    0.46
  -4  -4   8    6.15    0.57
  -4  -4   8    6.27    0.62
  -4   4  -4   -0.77    0.38
  -4  -4  -4    0.13    0.29
  -4  -4  -4   -0.07    0.31
  -4  -4  -4   -0.29    0.35
   4   5   4    8.43    0.67
   4   5   4    8.14    0.64
   4   5  -8    1.00    0.36
   4   5  -8    1.98    0.38
   4   5  -8    0.61    0.37
  -4   5   8    0.73    0.24
  -4   5   8    0.11    0.22
  -4   5   8    0.64    0.26
  -4   5   8    1.01    0.27
  -4  -5   8    0.75    0.33
  -4  -5   8    1.26    0.36
  -4  -5   8    2.15    0.44
  -4   5  -4    8.66    0.72
  -4  -5  -4    9.16    0.70
  -4  -5  -4    9.79    1.15
   4   6   4    9.79    0.78
   4   6  -8   31.00    1.00
   4   6  -8   28.88    1.27
  -4   6   8   35.05    0.74
  -4   6   8   26.75    0.69
  -4  -6   8   28.93    1.00
  -4  -6   8   33.96    1.23
  -4  -6   8   30.50    1.05
  -4   6  -4   10.70    0.79
  -4  -6  -4    8.23    0.81
  -4  -6  -4   10.98    0.84
  -4  -6  -4    8.28    0.87
   4   7   4    2.66    0.49
   4   7   4    1.89    0.49
   4   7  -8    2.87    0.47
   4   7  -8    0.84    0.44
  -4   7   8    3.13    0.36
  -4   7   8    2.40    0.36
  -4  -7   8    2.92    0.54
  -4  -7   8    3.12    0.50
  -4  -7   8    3.18    0.53
  -4   7  -4    2.54    0.53
  -4  -7  -4    2.21    0.60
  -4  -7  -4    2.53    0.51
  -4  -7  -4    2.60    0.60
   4   8   4    0.61    0.56
   4   8  -8   27.08    2.01
   4   8  -8   -1.32    0.56
  -4   8   8   29.18    0.81
  -4   8   8   23.73    0.84
  -4  -8   8   28.75    1.29
  -4  -8   8   27.02    1.21
  -4  -8   8   27.36    1.29
  -4   8  -4    1.71    0.30
  -4   8  -4    0.68    0.29
  -4   8  -4    1.25    0.54
  -4  -8  -4    1.25    0.58
  -4  -8  -4    0.41    0.48
  -4  -8  -4    0.15    0.59
   4   9  -8    0.57    0.79
  -4   9   8    8.66    0.75
  -4   9   8    6.44    0.60
  -4  -9   8    7.24    1.29
  -4  -9   8    7.28    0.84
  -4  -9   8    6.80    0.80
  -4   9  -4    1.18    0.36
  -4   9  -4    0.68    0.36
  -4   9  -4    3.91    0.68
  -4  -9  -4    2.45    0.68
  -4  -9  -4    2.22    0.67
  -4  10   8    1.32    0.50
  -4 -10   8    1.45    0.79
  -4 -10   8    0.86    0.74
  -4  10  -4    0.55    0.48
  -4  10  -4    0.93    0.44
  -4 -10  -4    2.07    0.90
  -4 -10  -4    0.19    0.71
   4   0  -9    0.38    0.19
   4   0  -9    0.08    0.23
   4   0  -9    0.18    0.27
  -4   0   9   -0.39    0.24
  -4   0   9    0.26    0.22
  -4   0   9    0.70    0.29
  -4   0  -5    0.01    0.18
  -4   0  -5   -0.14    0.26
  -4   0  -5   -0.37    0.30
   4   1   5    1.08    0.19
   4   1   5    0.48    0.19
   4   1  -9  134.52    1.26
   4   1  -9  126.06    1.24
   4   1  -9  138.20    1.56
   4  -1  -9  137.71    1.08
   4  -1  -9  132.10    1.05
   4  -1  -9  139.48    1.44
  -4   1   9  132.64    1.31
  -4   1   9  126.88    1.26
  -4   1   9  139.33    1.44
  -4  -1   9  131.68    1.42
  -4  -1   9  132.63    1.44
  -4  -1   9  139.72    1.58
  -4   1  -5    0.92    0.21
  -4   1  -5    0.50    0.17
  -4   1  -5    1.22    0.30
  -4   1  -5    0.18    0.34
  -4  -1  -5    0.93    0.25
  -4  -1  -5    1.03    0.25
  -4  -1  -5    1.51    0.34
  -4  -1  -5    0.94    0.40
   4   2   5    1.14    0.24
   4   2   5    1.78    0.24
   4   2  -9   20.70    0.62
   4   2  -9   17.94    0.62
   4   2  -9   20.28    0.76
   4  -2  -9   21.55    0.46
   4  -2  -9   20.16    0.44
   4  -2  -9   16.49    0.92
  -4   2   9   21.27    0.64
  -4   2   9   19.21    0.59
  -4   2   9   20.42    0.63
  -4  -2   9   21.50    0.70
  -4  -2   9   21.82    0.68
  -4  -2   9   20.56    0.78
  -4   2  -5    1.91    0.21
  -4   2  -5    1.42    0.18
  -4   2  -5    1.38    0.31
  -4   2  -5    1.92    0.38
  -4  -2  -5    2.53    0.32
  -4  -2  -5    2.91    0.31
  -4  -2  -5    1.82    0.38
  -4  -2  -5    1.79    0.40
   4   3   5   23.12    0.68
   4   3   5   21.36    0.63
   4   3  -9  152.14    1.54
   4   3  -9  137.23    1.46
   4   3  -9  142.41    1.73
  -4   3   9  154.95    1.49
  -4   3   9  140.68    1.28
  -4   3   9  151.47    1.34
  -4  -3   9  152.95    1.66
  -4  -3   9  149.49    1.65
  -4  -3   9  153.16    1.82
  -4  -3  -5   25.32    0.76
  -4  -3  -5   26.52    0.78
  -4  -3  -5   24.44    0.86
   4   4   5    0.12    0.30
   4   4  -9   29.04    0.81
   4   4  -9   16.55    0.99
   4   4  -9   26.43    0.91
  -4   4   9   33.71    0.72
  -4   4   9   26.72    0.64
  -4   4   9   28.80    0.63
  -4   4   9   30.28    0.68
  -4  -4   9   30.62    0.86
  -4  -4   9   28.78    0.89
  -4  -4   9   30.76    1.21
  -4   4  -5    0.36    0.39
  -4  -4  -5    0.49    0.30
  -4  -4  -5    0.88    0.46
  -4  -4  -5    0.26    0.41
   4   5   5    8.76    0.72
   4   5  -9    7.99    0.62
   4   5  -9    7.84    0.65
   4   5  -9    6.85    0.64
  -4   5   9    9.22    0.56
  -4   5   9    6.56    0.49
  -4   5   9    9.36    0.45
  -4   5   9    7.43    0.46
  -4  -5   9    8.48    0.70
  -4  -5   9    9.47    0.65
  -4  -5   9    7.95    0.69
  -4   5  -5   10.20    0.80
  -4  -5  -5    9.20    0.76
  -4  -5  -5    8.14    0.71
  -4  -5  -5   12.04    0.96
   4   6   5    0.32    0.42
   4   6  -9    1.27    0.45
   4   6  -9    1.18    0.47
  -4   6   9    0.94    0.31
  -4   6   9    0.74    0.31
  -4  -6   9    0.35    0.54
  -4  -6   9    0.37    0.44
  -4   6  -5    1.87    0.49
  -4  -6  -5    0.49    0.39
  -4  -6  -5    1.41    0.48
   4   7   5    0.90    0.56
   4   7   5    0.27    0.42
   4   7  -9    7.79    0.92
   4   7  -9    1.16    0.47
  -4   7   9   11.21    0.68
  -4   7   9    6.28    0.62
  -4  -7   9    8.37    0.87
  -4  -7   9    9.09    0.84
  -4  -7   9    9.12    0.92
  -4   7  -5    0.52    0.25
  -4   7  -5    1.78    0.53
  -4  -7  -5    0.30    0.52
  -4  -7  -5    1.76    0.55
  -4  -7  -5    1.22    0.51
   4   8   5   -0.23    0.57
   4   8  -9    0.19    0.54
  -4   8   9    1.25    0.36
  -4   8   9    0.68    0.42
  -4  -8   9   -0.53    0.49
  -4  -8   9   -0.76    0.56
  -4   8  -5    0.18    0.31
  -4   8  -5    0.00    0.32
  -4   8  -5    0.08    0.58
  -4  -8  -5    0.19    0.59
  -4  -8  -5    0.55    0.60
  -4  -8  -5    0.41    0.62
  -4   9   9    2.01    0.45
  -4   9   9    1.55    0.51
  -4  -9   9    1.26    0.58
  -4  -9   9    3.76    0.70
  -4   9  -5    3.21    0.42
  -4   9  -5    1.65    0.38
  -4   9  -5    5.44    1.21
  -4  -9  -5    1.88    0.63
  -4  -9  -5    0.76    0.66
  -4  10   9    0.10    0.51
  -4 -10   9    2.89    0.84
  -4 -10   9    3.99    0.87
  -4  10  -5    1.15    0.51
  -4 -10  -5    0.25    0.84
  -4 -10  -5    1.67    0.81
   4   0 -10  131.94    1.23
   4   0 -10  126.19    1.20
   4   0 -10  133.48    1.48
  -4   0  10  131.55    1.40
  -4   0  10  122.48    1.46
  -4   0  10  137.15    1.52
  -4   0  -6   20.58    0.57
  -4   0  -6   16.73    0.51
  -4   0  -6   19.02    0.76
  -4   0  -6   18.20    0.76
   4   1   6    4.25    0.37
   4   1   6    4.83    0.35
   4   1 -10   77.79    1.03
   4   1 -10   72.95    1.02
   4   1 -10   74.17    1.19
   4  -1 -10   76.23    0.89
   4  -1 -10   73.47    0.88
   4  -1 -10   77.56    1.12
  -4   1  10   78.86    1.09
  -4   1  10   72.48    1.02
  -4   1  10   77.29    1.12
  -4  -1  10   80.22    1.18
  -4  -1  10   74.50    1.10
  -4  -1  10   76.63    1.23
  -4   1  -6    5.73    0.40
  -4   1  -6    4.79    0.36
  -4   1  -6    5.68    0.50
  -4   1  -6    5.87    0.60
  -4  -1  -6    7.24    0.49
  -4  -1  -6    5.60    0.41
  -4  -1  -6    4.94    0.57
  -4  -1  -6    5.72    0.60
   4   2   6   28.67    0.65
   4   2 -10    0.75    0.26
   4   2 -10    0.11    0.28
   4   2 -10   -0.77    0.32
   4  -2 -10    0.10    0.18
   4  -2 -10    0.50    0.20
   4  -2 -10    0.50    0.45
  -4   2  10    0.07    0.27
  -4   2  10    0.19    0.22
  -4   2  10   -0.23    0.23
  -4  -2  10    0.60    0.29
  -4  -2  10    0.52    0.30
  -4  -2  10    0.27    0.29
  -4   2  -6   31.05    0.56
  -4   2  -6   31.67    0.53
  -4   2  -6   30.56    0.92
  -4  -2  -6   34.39    0.79
  -4  -2  -6   31.84    0.76
  -4  -2  -6   34.14    0.97
  -4  -2  -6   31.90    0.95
   4   3   6    6.25    0.49
   4   3   6    4.78    0.54
   4   3 -10   16.55    0.62
   4   3 -10   14.93    0.62
   4   3 -10   13.82    0.74
   4  -3 -10   17.86    0.42
   4  -3 -10   17.76    0.44
  -4   3  10   17.54    0.73
  -4   3  10   16.13    0.59
  -4   3  10   16.36    0.57
  -4  -3  10   16.04    0.69
  -4  -3  10   14.62    0.70
  -4  -3  10   16.51    0.76
  -4   3  -6    5.79    0.37
  -4   3  -6    5.53    0.32
  -4   3  -6    4.99    0.53
  -4  -3  -6    6.76    0.58
  -4  -3  -6    8.56    0.89
  -4  -3  -6    7.14    0.65
  -4  -3  -6    6.09    0.68
   4   4   6    0.94    0.31
   4   4   6    1.38    0.35
   4   4 -10    0.26    0.31
   4   4 -10   -0.40    0.41
  -4   4  10   -0.03    0.27
  -4   4  10    0.31    0.26
  -4   4  10   -0.30    0.23
  -4   4  10    0.05    0.29
  -4  -4  10    0.47    0.37
  -4  -4  10   -0.20    0.33
  -4  -4  10   -0.30    0.57
  -4   4  -6    2.05    0.40
  -4  -4  -6    1.15    0.36
  -4  -4  -6    1.20    0.39
   4   5   6    8.11    0.65
   4   5   6   10.77    0.78
   4   5 -10   -0.74    0.31
   4   5 -10    0.07    0.38
   4   5 -10   -0.34    0.45
  -4   5  10   -0.16    0.30
  -4   5  10    0.08    0.27
  -4  -5  10    0.06    0.31
  -4  -5  10    0.56    0.37
  -4   5  -6    8.23    0.80
  -4  -5  -6    8.64    0.75
  -4  -5  -6    8.33    0.79
  -4  -5  -6   11.82    0.91
   4   6   6    0.96    0.45
   4   6 -10   15.04    0.84
   4   6 -10   12.19    0.88
  -4   6  10   18.06    0.68
  -4   6  10   13.74    0.66
  -4  -6  10   18.81    1.58
  -4  -6  10    9.91    0.95
  -4  -6  10   15.42    0.96
  -4   6  -6    0.82    0.50
  -4  -6  -6   -0.39    0.39
  -4  -6  -6   -1.23    0.43
   4   7 -10    0.02    0.51
   4   7 -10    0.31    0.57
  -4   7  10   -0.09    0.32
  -4   7  10   -1.05    0.36
  -4  -7  10   -0.78    0.50
  -4  -7  10    0.10    0.52
  -4  -7  10   -0.85    0.49
  -4   7  -6    0.99    0.29
  -4   7  -6    1.48    0.27
  -4   7  -6    1.66    0.53
  -4  -7  -6    0.34    0.50
  -4  -7  -6    1.81    0.54
  -4  -7  -6    0.08    0.53
   4   8 -10    0.89    0.67
  -4   8  10   -0.85    0.42
  -4   8  10   -0.37    0.44
  -4  -8  10    0.29    0.63
  -4  -8  10    0.03    0.43
  -4  -8  10    0.16    0.58
  -4   8  -6   16.38    0.68
  -4   8  -6   13.58    0.64
  -4   8  -6   16.56    1.32
  -4  -8  -6   13.90    1.24
  -4  -8  -6   16.33    1.19
  -4  -8  -6   16.31    1.16
  -4   9  10   -0.30    0.40
  -4  -9  10    0.75    0.58
  -4  -9  10    0.94    0.66
  -4   9  -6   -0.85    0.63
  -4   9  -6    1.02    0.40
  -4  -9  -6    0.38    0.77
  -4 -10  10    2.16    0.67
  -4 -10  10    3.90    0.89
  -4  10  -6    0.18    0.51
  -4 -10  -6   -0.49    0.76
  -4 -10  -6    0.96    0.78
   4   0 -11    0.42    0.21
   4   0 -11   -0.17    0.25
   4   0 -11   -0.44    0.29
  -4   0  11    0.07    0.26
  -4   0  11   -0.23    0.27
  -4   0  11   -0.46    0.28
  -4   0  -7   -0.31    0.24
  -4   0  -7   -0.44    0.21
  -4   0  -7    0.19    0.29
  -4   0  -7    0.84    0.38
   4   1   7    0.19    0.21
   4   1 -11   14.52    0.56
   4   1 -11   13.58    0.60
   4   1 -11   13.24    0.64
   4  -1 -11   14.44    0.51
   4  -1 -11   13.49    0.52
   4  -1 -11   14.38    0.61
  -4   1  11   15.07    0.66
  -4   1  11   14.47    0.59
  -4   1  11   15.28    0.62
  -4  -1  11   15.45    0.64
  -4  -1  11   14.96    0.62
  -4  -1  11   13.86    0.68
  -4   1  -7    0.42    0.23
  -4   1  -7    0.90    0.20
  -4   1  -7    0.46    0.35
  -4   1  -7    1.54    0.41
  -4  -1  -7    1.04    0.27
  -4  -1  -7    0.81    0.26
  -4  -1  -7    0.48    0.32
  -4  -1  -7    0.05    0.38
   4   2   7    3.84    0.43
   4   2   7    2.85    0.29
   4   2 -11    1.36    0.30
   4   2 -11    2.29    0.33
   4   2 -11    2.43    0.39
   4  -2 -11    2.14    0.24
   4  -2 -11    2.48    0.29
   4  -2 -11    2.59    0.40
  -4   2  11    1.86    0.59
  -4   2  11    2.18    0.30
  -4   2  11    2.78    0.34
  -4  -2  11    2.36    0.38
  -4  -2  11    1.61    0.31
  -4  -2  11    2.29    0.37
  -4   2  -7    4.17    0.42
  -4   2  -7    3.99    0.36
  -4   2  -7    3.53    0.51
  -4  -2  -7    4.75    0.59
  -4  -2  -7    4.02    0.44
  -4  -2  -7    5.31    0.62
   4   3   7   16.59    0.63
   4   3   7   15.54    0.67
   4   3 -11   13.05    0.62
   4   3 -11   10.60    0.63
   4   3 -11   10.37    0.74
   4  -3 -11   12.86    0.43
   4  -3 -11   12.01    0.46
  -4   3  11   13.35    0.61
  -4   3  11   12.54    0.60
  -4   3  11   12.79    0.53
  -4  -3  11   12.83    0.71
  -4  -3  11   14.25    0.71
  -4  -3  11   15.10    0.74
  -4   3  -7   17.45    0.50
  -4  -3  -7   20.54    0.73
  -4  -3  -7   16.56    0.78
  -4  -3  -7   17.96    1.25
  -4  -3  -7   18.81    0.89
   4   4   7    4.19    0.41
   4   4   7    3.90    0.41
   4   4 -11    7.89    0.60
   4   4 -11    7.99    0.98
   4   4 -11    6.96    0.66
   4  -4 -11    7.53    0.38
   4  -4 -11    6.36    0.47
  -4   4  11    8.14    0.58
  -4   4  11    7.73    0.54
  -4   4  11    8.16    0.45
  -4  -4  11    6.52    0.66
  -4  -4  11    8.44    0.70
  -4  -4  11    8.30    0.75
  -4   4  -7    4.40    0.38
  -4   4  -7    4.75    0.36
  -4   4  -7    4.35    0.52
  -4  -4  -7    4.66    0.52
  -4  -4  -7    5.89    0.67
  -4  -4  -7    6.81    0.82
  -4  -4  -7    4.33    0.51
   4   5   7   31.00    0.94
   4   5   7   30.94    0.98
   4   5 -11   18.02    0.80
   4   5 -11   16.66    0.84
   4   5 -11   15.45    0.92
   4  -5 -11   17.92    0.49
  -4   5  11   20.81    0.76
  -4   5  11   16.96    0.66
  -4  -5  11   19.61    0.94
  -4  -5  11   17.25    0.95
  -4   5  -7   31.54    0.60
  -4   5  -7   27.74    0.56
  -4   5  -7   30.46    1.10
  -4  -5  -7   35.58    1.14
  -4  -5  -7   33.96    1.04
  -4  -5  -7   34.54    1.14
   4   6   7    0.19    0.53
   4   6 -11    4.52    0.55
   4   6 -11    3.17    0.57
  -4   6  11    4.99    0.59
  -4   6  11    4.00    0.41
  -4  -6  11    3.53    0.55
  -4  -6  11    2.39    0.46
  -4  -6  11    4.21    0.61
  -4   6  -7   -0.47    0.24
  -4   6  -7    0.36    0.24
  -4   6  -7   -1.21    0.49
  -4  -6  -7    0.11    0.44
  -4  -6  -7   -0.83    0.39
  -4  -6  -7    0.47    0.47
   4   7   7   -0.95    0.47
   4   7 -11    1.74    0.57
   4   7 -11   -0.43    0.50
  -4   7  11    1.97    0.40
  -4   7  11    0.97    0.45
  -4  -7  11    1.34    0.63
  -4  -7  11    0.22    0.41
  -4  -7  11    1.98    0.60
  -4   7  -7    0.87    0.29
  -4   7  -7    0.45    0.27
  -4  -7  -7    0.84    0.58
  -4  -7  -7    0.02    0.51
  -4  -7  -7   -0.12    0.55
   4   8   7    0.32    0.72
  -4   8  11    1.16    0.46
  -4  -8  11    0.44    0.70
  -4  -8  11   -0.62    0.45
  -4  -8  11    0.43    0.56
  -4   8  -7    0.27    0.35
  -4   8  -7    0.96    0.34
  -4  -8  -7    0.53    0.49
  -4  -8  -7    0.26    0.60
  -4   9  11    2.84    0.51
  -4  -9  11    0.83    0.73
  -4  -9  11   -0.03    0.71
  -4   9  -7    0.37    0.45
  -4   9  -7    0.40    0.41
  -4  -9  -7    1.20    0.78
  -4  -9  -7    1.77    0.74
   4   0 -12    5.03    0.48
   4   0 -12    4.25    0.37
   4   0 -12    4.29    0.51
  -4   0  12    4.29    0.55
  -4   0  12    5.01    0.50
  -4   0  12    5.15    0.52
  -4   0  -8    1.06    0.28
  -4   0  -8    0.81    0.34
  -4   0  -8    1.22    0.38
  -4   0  -8    2.53    0.48
   4   1   8    0.34    0.21
   4   1 -12    0.43    0.24
   4   1 -12   -0.09    0.30
   4   1 -12   -0.61    0.31
   4  -1 -12    0.70    0.23
   4  -1 -12   -0.64    0.25
   4  -1 -12   -0.70    0.29
  -4   1  12   -0.14    0.44
  -4   1  12    0.57    0.28
  -4  -1  12    0.72    0.31
  -4  -1  12    0.18    0.30
  -4  -1  12    0.20    0.29
  -4   1  -8    0.20    0.25
  -4   1  -8   -0.25    0.26
  -4   1  -8    0.14    0.34
  -4   1  -8    0.75    0.38
  -4  -1  -8    0.76    0.30
  -4  -1  -8    0.37    0.27
  -4  -1  -8    0.17    0.38
  -4  -1  -8   -0.45    0.38
   4   2   8    0.90    0.27
   4   2   8    0.66    0.25
   4   2 -12   19.66    0.67
   4   2 -12   18.09    0.72
   4   2 -12   18.11    0.79
   4  -2 -12   19.22    0.55
   4  -2 -12   20.16    0.61
   4  -2 -12   19.38    0.69
  -4   2  12   22.45    0.73
  -4   2  12   17.98    0.67
  -4   2  12   22.30    0.67
  -4  -2  12   20.18    0.83
  -4  -2  12   20.73    0.77
  -4  -2  12   19.38    0.80
  -4   2  -8    0.76    0.25
  -4   2  -8    0.97    0.22
  -4   2  -8    1.46    0.42
  -4  -2  -8    0.26    0.32
  -4  -2  -8    0.18    0.26
  -4  -2  -8    0.72    0.42
   4   3   8    9.02    0.60
   4   3   8    8.59    0.61
   4   3 -12    1.22    0.34
   4   3 -12    1.60    0.38
   4   3 -12    1.44    0.40
   4  -3 -12    1.34    0.25
   4  -3 -12    1.59    0.28
  -4   3  12    1.54    0.34
  -4   3  12    1.48    0.32
  -4   3  12    1.46    0.29
  -4  -3  12    0.24    0.39
  -4  -3  12    1.59    0.38
  -4  -3  12    2.30    0.42
  -4   3  -8    7.81    0.48
  -4   3  -8    8.62    0.45
  -4   3  -8    8.89    0.77
  -4  -3  -8    9.25    0.66
  -4  -3  -8    7.93    0.60
  -4  -3  -8    6.93    0.77
  -4  -3  -8   10.06    0.79
   4   4   8   24.04    0.81
   4   4   8   20.55    0.83
   4   4 -12    1.48    0.37
   4   4 -12    1.95    0.39
   4   4 -12    0.61    0.47
   4  -4 -12    1.64    0.26
   4  -4 -12    2.26    0.31
  -4   4  12    2.40    0.35
  -4   4  12    1.55    0.34
  -4   4  12    1.31    0.28
  -4  -4  12    1.34    0.41
  -4  -4  12    2.14    0.48
  -4   4  -8   20.41    0.56
  -4   4  -8   23.39    0.56
  -4  -4  -8   26.99    0.93
  -4  -4  -8   24.35    0.92
  -4  -4  -8   25.84    0.98
  -4  -4  -8   24.43    0.99
   4   5   8    3.25    0.45
   4   5   8    2.32    0.46
   4   5 -12    0.22    0.42
   4  -5 -12    0.19    0.24
   4  -5 -12   -0.53    0.26
  -4   5  12    0.49    0.33
  -4   5  12    0.60    0.31
  -4  -5  12    0.32    0.41
  -4  -5  12   -0.28    0.46
  -4   5  -8    2.12    0.29
  -4   5  -8    1.92    0.27
  -4   5  -8    0.50    0.54
  -4  -5  -8    1.83    0.73
  -4  -5  -8    2.87    0.49
  -4  -5  -8    3.93    0.54
  -4  -5  -8    2.38    0.62
   4   6 -12   -0.04    0.45
   4   6 -12   -0.66    0.48
   4  -6 -12   -0.18    0.29
  -4   6  12    0.53    0.35
  -4   6  12    0.35    0.37
  -4  -6  12   -0.15    0.43
  -4  -6  12    0.67    0.50
  -4   6  -8    0.88    0.29
  -4   6  -8    0.16    0.27
  -4   6  -8    1.59    0.62
  -4  -6  -8    0.81    0.50
  -4  -6  -8    0.50    0.48
  -4  -6  -8    1.42    0.55
   4   7 -12    0.42    0.59
  -4   7  12   12.86    0.81
  -4   7  12    8.51    0.83
  -4  -7  12    8.88    1.10
  -4  -7  12    6.71    0.78
  -4  -7  12    9.95    1.02
  -4   7  -8    8.35    0.65
  -4   7  -8    6.54    0.56
  -4  -7  -8    7.83    0.90
  -4  -7  -8    9.09    1.03
  -4  -7  -8    7.07    0.72
   4   8 -12   -0.99    0.66
  -4   8  12   10.91    0.98
  -4   8  12    8.09    0.68
  -4  -8  12    5.08    1.34
  -4  -8  12    9.13    1.09
  -4  -8  12    9.52    1.18
  -4   8  -8    1.37    0.39
  -4   8  -8    1.52    0.35
  -4  -8  -8    2.39    0.61
  -4  -8  -8    1.92    0.68
  -4   9  12   14.43    1.03
  -4  -9  12    4.99    0.74
  -4  -9  12    6.07    0.87
  -4   9  -8    0.66    0.47
  -4   9  -8    1.19    0.44
  -4  -9  -8    0.65    0.92
  -4  -9  -8    0.58    0.79
   4   0   9   -0.05    0.28
   4   0   9   -0.33    0.23
   4   0 -13    1.05    0.27
   4   0 -13   -0.32    0.30
   4   0 -13   -0.18    0.30
  -4   0  13    0.26    0.36
  -4   0  13    0.09    0.28
  -4   0  13    0.07    0.33
  -4   0  -9   -0.38    0.30
  -4   0  -9   -0.32    0.21
  -4   0  -9   -0.31    0.41
  -4   0  -9    0.83    0.38
   4   1   9   15.71    0.53
   4   1   9   15.01    0.55
   4   1 -13   -0.16    0.24
   4   1 -13   -0.14    0.33
   4   1 -13   -0.05    0.34
   4  -1 -13   -0.51    0.24
   4  -1 -13   -0.03    0.30
  -4   1  13    0.25    0.30
  -4   1  13   -0.21    0.27
  -4   1  13    0.08    0.29
  -4  -1  13   -1.05    0.36
  -4  -1  13   -0.05    0.27
  -4  -1  13    0.13    0.36
  -4   1  -9   16.72    0.64
  -4   1  -9   17.71    0.58
  -4   1  -9   14.67    0.85
  -4  -1  -9   16.97    0.69
  -4  -1  -9   15.29    0.64
  -4  -1  -9   16.97    0.89
   4   2   9    9.29    0.55
   4   2   9    9.01    0.53
   4   2 -13    3.68    0.39
   4   2 -13    4.96    0.57
   4   2 -13    3.57    0.43
   4  -2 -13    2.96    0.33
   4  -2 -13    3.37    0.37
   4  -2 -13    3.65    0.41
  -4   2  13    4.89    0.57
  -4   2  13    3.92    0.42
  -4   2  13    4.18    0.40
  -4  -2  13    2.54    0.77
  -4  -2  13    2.99    0.42
  -4  -2  13    4.63    0.51
  -4   2  -9    8.95    0.56
  -4   2  -9    9.27    0.48
  -4   2  -9   12.76    0.83
  -4  -2  -9    9.91    0.71
  -4  -2  -9    9.43    0.60
  -4  -2  -9    9.90    0.80
  -4  -2  -9    6.99    0.78
   4   3   9    0.53    0.30
   4   3   9   -0.57    0.28
   4   3 -13   12.40    0.69
   4   3 -13    9.03    0.74
   4  -3 -13   11.40    0.50
   4  -3 -13   11.30    0.55
   4  -3 -13   13.21    0.57
  -4   3  13   13.43    0.66
  -4   3  13   11.74    0.68
  -4   3  13   13.01    0.55
  -4  -3  13   13.00    0.97
  -4  -3  13   12.54    0.80
  -4   3  -9    0.56    0.29
  -4   3  -9   -0.22    0.22
  -4   3  -9    0.75    0.46
  -4  -3  -9    0.54    0.39
  -4  -3  -9    0.41    0.30
  -4  -3  -9    0.91    0.40
  -4  -3  -9   -0.28    0.44
   4   4   9   -0.14    0.33
   4   4   9   -0.52    0.39
   4   4 -13    9.02    0.73
   4   4 -13    8.14    0.71
   4   4 -13   10.16    0.85
   4  -4 -13    7.66    0.49
   4  -4 -13   10.73    0.58
  -4   4  13   11.93    0.72
  -4   4  13   11.00    0.65
  -4   4  13   10.02    0.45
  -4  -4  13   10.05    0.79
  -4  -4  13    8.61    0.91
  -4  -4  13   12.35    0.81
  -4   4  -9    0.08    0.29
  -4   4  -9    0.21    0.24
  -4   4  -9    0.06    0.50
  -4  -4  -9    0.08    0.42
  -4  -4  -9    0.10    0.39
  -4  -4  -9    0.26    0.42
  -4  -4  -9    0.98    0.48
   4   5   9    1.28    0.42
   4   5   9    0.08    0.79
   4   5 -13    2.78    0.50
   4   5 -13    0.02    0.44
   4  -5 -13    3.43    0.37
  -4   5  13    3.57    0.45
  -4   5  13    2.43    0.39
  -4  -5  13    2.25    0.49
  -4  -5  13    2.13    0.55
  -4  -5  13    3.84    0.56
  -4   5  -9    1.59    0.32
  -4   5  -9    1.29    0.26
  -4   5  -9    3.36    0.89
  -4  -5  -9    0.75    0.48
  -4  -5  -9    2.33    0.54
  -4  -5  -9    1.91    0.54
  -4  -5  -9    0.91    0.68
   4   6 -13   -0.30    0.56
   4   6 -13    0.39    0.55
   4  -6 -13    2.03    0.37
  -4   6  13    1.12    0.42
  -4   6  13    0.43    0.38
  -4  -6  13    1.09    0.54
  -4  -6  13    0.56    0.55
  -4  -6  13    1.90    0.52
  -4   6  -9   -0.52    0.31
  -4   6  -9    0.13    0.29
  -4  -6  -9   -0.83    0.51
  -4  -6  -9    0.34    0.54
  -4  -6  -9    0.66    0.56
   4   7   9    0.07    0.52
   4   7 -13    0.86    0.67
   4  -7 -13    1.54    0.39
  -4   7  13    1.14    0.46
  -4   7  13    0.29    0.50
  -4  -7  13    0.04    1.29
  -4  -7  13    0.21    0.54
  -4  -7  13    0.14    0.54
  -4   7  -9    0.63    0.36
  -4   7  -9   -0.14    0.30
  -4  -7  -9   -0.65    0.66
  -4  -7  -9   -0.99    0.61
  -4  -7  -9    0.61    0.61
   4  -8 -13    2.66    0.45
  -4   8  13    3.33    0.54
  -4  -8  13    1.10    0.65
  -4  -8  13    0.95    0.67
  -4   8  -9    4.81    0.51
  -4   8  -9    3.56    0.42
  -4  -8  -9    1.65    0.60
  -4  -8  -9    1.64    0.69
  -4   9  13   11.59    1.30
  -4  -9  13    8.08    1.00
  -4  -9  13   13.89    1.47
  -4   9  -9   -0.40    0.50
  -4   9  -9    3.73    0.51
  -4  -9  -9    0.61    0.67
  -4  -9  -9    1.71    0.91
   4   0  10    3.40    0.38
   4   0  10    2.34    0.30
   4   0 -14   45.59    0.93
   4   0 -14   43.68    0.94
   4   0 -14   44.56    0.98
  -4   0  14   46.80    1.05
  -4   0  14   46.05    1.02
  -4   0  14   49.98    1.03
  -4   0 -10    3.13    0.41
  -4   0 -10    3.90    0.47
  -4   0 -10    3.23    0.47
  -4   0 -10    1.78    0.47
   4   1  10    1.92    0.28
   4   1  10    1.09    0.29
   4   1 -14   32.40    0.86
   4   1 -14   29.99    0.87
   4   1 -14   30.19    0.95
   4  -1 -14   29.20    0.77
   4  -1 -14   29.88    0.81
   4  -1 -14   33.87    0.84
  -4   1  14   35.11    0.96
  -4   1  14   29.37    0.88
  -4   1  14   35.89    0.86
  -4  -1  14   32.63    0.95
  -4  -1  14   30.10    0.93
  -4  -1  14   34.52    0.97
  -4   1 -10    1.61    0.33
  -4   1 -10    1.43    0.27
  -4   1 -10    1.30    0.46
  -4  -1 -10    1.87    0.36
  -4  -1 -10    2.07    0.35
  -4  -1 -10    2.05    0.43
  -4  -1 -10    0.37    0.45
   4   2  10    7.35    0.59
   4   2  10    6.08    0.57
   4   2 -14    0.91    0.35
   4   2 -14    1.18    0.40
   4   2 -14    1.45    0.43
   4  -2 -14    0.62    0.30
   4  -2 -14    2.52    0.35
   4  -2 -14    1.02    0.36
  -4   2  14    1.21    0.34
  -4   2  14    0.80    0.52
  -4   2  14    2.42    0.33
  -4  -2  14    2.00    0.43
  -4  -2  14    1.90    0.37
  -4  -2  14    1.29    0.39
  -4   2 -10    6.44    0.58
  -4   2 -10    7.58    0.52
  -4   2 -10    5.18    0.58
  -4  -2 -10    6.97    0.61
  -4  -2 -10    8.51    0.81
  -4  -2 -10    7.58    0.81
   4   3  10   10.93    0.69
   4   3  10    8.60    0.63
   4   3 -14    2.95    0.46
   4   3 -14    2.41    0.52
   4  -3 -14    1.54    0.32
   4  -3 -14    2.42    0.35
   4  -3 -14    2.70    0.36
  -4   3  14    2.87    0.42
  -4   3  14    3.12    0.43
  -4   3  14    2.04    0.31
  -4  -3  14    2.70    0.45
  -4  -3  14    2.21    0.46
  -4  -3  14    2.98    0.48
  -4   3 -10   10.04    0.59
  -4   3 -10    9.90    0.55
  -4  -3 -10   13.55    0.76
  -4  -3 -10   11.52    0.72
  -4  -3 -10   12.45    0.92
  -4  -3 -10    9.43    0.88
   4   4  10    0.47    0.34
   4   4  10    1.80    0.49
   4   4 -14    4.03    0.50
   4   4 -14    4.40    0.55
   4   4 -14    4.75    0.66
   4  -4 -14    6.43    0.58
  -4   4  14    7.65    0.70
  -4   4  14    5.94    0.63
  -4  -4  14    7.99    0.85
  -4  -4  14    6.68    0.67
  -4  -4  14    7.71    0.80
  -4   4 -10    1.45    0.33
  -4   4 -10    1.12    0.28
  -4  -4 -10    0.52    0.43
  -4  -4 -10    0.14    0.36
  -4  -4 -10    1.54    0.50
  -4  -4 -10    0.86    0.56
   4   5  10    2.02    0.46
   4   5 -14    2.26    0.52
   4   5 -14   -0.35    0.49
   4  -5 -14    3.16    0.71
  -4   5  14    3.71    0.46
  -4   5  14    2.52    0.41
  -4  -5  14    2.29    0.49
  -4  -5  14    2.89    0.60
  -4  -5  14    3.90    0.58
  -4   5 -10    2.77    0.35
  -4   5 -10    2.63    0.33
  -4  -5 -10    3.72    0.49
  -4  -5 -10    3.74    0.50
  -4  -5 -10    3.65    0.55
   4   6 -14    0.21    0.62
   4  -6 -14    2.35    0.41
  -4   6  14    3.81    0.49
  -4   6  14    1.16    0.44
  -4  -6  14    1.70    0.50
  -4  -6  14    1.95    0.64
  -4  -6  14    1.83    0.53
  -4   6 -10    5.92    0.65
  -4   6 -10    5.20    0.59
  -4  -6 -10    8.57    1.05
  -4  -6 -10    6.52    0.69
  -4  -6 -10    7.85    0.81
   4   7 -14    0.49    0.71
   4  -7 -14    8.48    0.79
  -4   7  14   12.04    0.90
  -4   7  14   11.08    0.93
  -4  -7  14   10.66    1.23
  -4  -7  14    9.42    1.11
  -4  -7  14    9.65    1.09
  -4   7 -10    2.85    0.48
  -4   7 -10    3.36    0.43
  -4  -7 -10    4.14    0.70
  -4  -7 -10    0.22    0.65
  -4   8  14    3.03    0.64
  -4  -8  14    1.69    0.74
  -4  -8  14    2.32    0.79
  -4   8 -10    0.50    0.51
  -4   8 -10    0.32    0.41
  -4  -8 -10    0.91    0.62
  -4  -8 -10    0.41    0.76
  -4  -9  14    8.83    1.08
  -4  -9 -10    0.99    0.75
   4   0  11   -0.15    0.28
   4   0  11   -0.04    0.29
   4   0 -15    0.69    0.30
   4   0 -15   -0.39    0.36
   4   0 -15   -0.11    0.37
  -4   0  15   -0.15    0.35
  -4   0  15    0.39    0.33
  -4   0  15   -0.37    0.34
  -4   0 -11   -0.01    0.36
  -4   0 -11   -0.14    0.28
  -4   0 -11   -0.69    0.37
  -4   0 -11   -0.58    0.49
   4   1  11    1.75    0.32
   4   1  11    0.92    0.32
   4  -1  11    1.25    0.22
   4   1 -15    7.62    0.64
   4   1 -15    6.32    0.67
   4   1 -15    7.04    0.67
   4  -1 -15    4.53    0.55
   4  -1 -15    6.18    0.65
   4  -1 -15    6.98    0.62
  -4   1  15    6.94    0.70
  -4   1  15    7.02    0.65
  -4   1  15    6.95    0.57
  -4  -1  15    7.11    0.72
  -4  -1  15    6.84    0.69
  -4  -1  15    8.33    0.67
  -4   1 -11    0.55    0.34
  -4   1 -11    1.23    0.34
  -4   1 -11    1.07    0.54
  -4  -1 -11    1.19    0.41
  -4  -1 -11    0.98    0.33
  -4  -1 -11    2.35    0.47
  -4  -1 -11   -0.25    0.49
   4   2  11    0.35    0.32
   4   2  11   -0.38    0.30
   4   2 -15   14.01    0.76
   4   2 -15   13.29    0.76
   4   2 -15   14.39    0.85
   4  -2 -15   12.83    0.61
   4  -2 -15   16.17    0.73
   4  -2 -15   14.86    0.69
  -4   2  15   15.77    0.81
  -4   2  15   13.19    0.79
  -4   2  15   16.70    0.67
  -4  -2  15   13.70    0.79
  -4  -2  15   15.09    1.21
  -4  -2  15   18.94    1.36
  -4   2 -11   -0.54    0.32
  -4   2 -11   -0.32    0.28
  -4   2 -11   -0.46    0.89
  -4  -2 -11   -0.23    0.46
  -4  -2 -11    0.67    0.30
  -4  -2 -11   -0.63    0.42
  -4  -2 -11    1.28    0.53
   4   3  11    4.71    0.47
   4   3  11    4.93    0.65
   4   3 -15    1.77    0.47
   4   3 -15   -0.06    0.46
   4   3 -15    0.75    0.50
   4  -3 -15    2.24    0.39
   4  -3 -15    1.03    0.36
  -4   3  15    1.97    0.41
  -4   3  15    2.60    0.34
  -4  -3  15    0.81    0.40
  -4  -3  15    1.46    0.49
  -4  -3  15    2.62    0.51
  -4   3 -11    5.00    0.60
  -4   3 -11    4.31    0.39
  -4  -3 -11    6.26    0.67
  -4  -3 -11    6.40    0.72
  -4  -3 -11    5.26    0.59
  -4  -3 -11    3.27    0.68
   4   4  11    0.63    0.40
   4   4 -15   28.58    1.06
   4  -4 -15   28.64    0.88
  -4   4  15   36.51    1.04
  -4   4  15   27.24    0.93
  -4  -4  15   31.56    1.14
  -4  -4  15   32.83    1.15
  -4  -4  15   30.04    1.10
  -4   4 -11    0.39    0.34
  -4   4 -11    1.22    0.32
  -4  -4 -11    1.06    0.43
  -4  -4 -11    0.93    0.40
  -4  -4 -11    1.51    0.52
   4   5  11    0.59    0.43
   4   5 -15    0.90    0.57
   4  -5 -15    1.76    0.41
  -4   5  15    1.58    0.50
  -4   5  15    1.51    0.46
  -4  -5  15    1.31    0.54
  -4  -5  15    1.51    0.54
  -4  -5  15   -0.05    0.51
  -4   5 -11    0.84    0.34
  -4   5 -11    0.60    0.33
  -4  -5 -11   -0.68    0.53
  -4  -5 -11   -0.21    0.47
  -4  -5 -11    0.81    0.53
   4   6 -15    1.10    0.67
   4  -6 -15    8.19    0.76
  -4   6  15   11.10    0.94
  -4   6  15    9.26    0.83
  -4  -6  15   10.00    0.92
  -4  -6  15   10.98    1.26
  -4  -6  15   11.92    1.03
  -4   6 -11    3.16    0.44
  -4   6 -11    2.33    0.39
  -4  -6 -11    2.27    0.70
  -4  -6 -11    3.82    0.69
  -4  -6 -11    2.32    0.64
  -4   7  15   -0.62    0.46
  -4  -7  15   -0.78    0.66
  -4  -7  15   -1.62    0.63
  -4   7 -11    4.17    0.51
  -4   7 -11    2.85    0.46
  -4  -7 -11    5.21    0.79
  -4  -7 -11    4.93    0.76
   4  -8  11    0.48    0.70
  -4   8  15    2.29    0.65
  -4  -8  15    0.26    0.73
  -4  -8  15    2.27    0.82
  -4   8 -11    1.65    0.56
  -4   8 -11    0.65    0.46
  -4  -8 -11   -1.58    0.63
  -4  -8 -11    0.63    0.73
   4   0  12    1.25    0.33
   4   0  12   -0.25    0.33
   4   0 -16    6.58    0.60
   4   0 -16    7.72    0.68
   4   0 -16    7.22    0.60
  -4   0  16    8.08    0.79
  -4   0  16    9.09    1.12
  -4   0  16    9.93    0.68
  -4   0 -12    0.39    0.40
  -4   0 -12    0.76    0.33
   4   1  12    5.25    0.59
   4   1  12    1.89    0.41
   4  -1  12    3.75    0.45
   4  -1  12    4.12    0.49
   4   1 -16   43.66    1.05
   4   1 -16   46.79    1.10
   4   1 -16   44.12    1.12
   4  -1 -16   46.39    1.23
   4  -1 -16   45.70    1.04
   4  -1 -16   47.74    1.02
  -4   1  16   49.28    1.18
  -4   1  16   53.87    1.38
  -4   1  16   50.23    1.04
  -4  -1  16   48.02    1.20
  -4  -1  16   48.35    1.35
  -4  -1  16   51.40    1.14
  -4   1 -12    3.96    0.47
  -4   1 -12    3.26    0.40
  -4  -1 -12    3.77    0.50
  -4  -1 -12    5.20    0.57
  -4  -1 -12    3.24    0.55
   4   2  12   -0.17    0.34
   4   2 -16    0.43    0.38
   4   2 -16   -0.42    0.47
   4  -2 -16    0.54    0.40
   4  -2 -16   -0.17    0.36
  -4   2  16   -0.31    0.38
  -4   2  16    0.39    0.40
  -4   2  16    1.96    0.36
  -4  -2  16    1.18    0.46
  -4  -2  16    1.35    0.45
  -4  -2  16    1.12    0.44
  -4   2 -12   -0.25    0.37
  -4   2 -12   -0.54    0.31
  -4  -2 -12    0.02    0.49
  -4  -2 -12   -0.17    0.31
  -4  -2 -12   -0.24    0.45
   4   3  12    0.30    0.39
   4   3 -16    1.67    0.55
   4   3 -16    0.59    0.45
   4   3 -16    2.07    0.55
   4  -3 -16    1.82    0.42
   4  -3 -16    3.04    0.39
  -4   3  16    2.65    0.48
  -4   3  16    2.03    0.46
  -4   3  16    2.48    0.36
  -4  -3  16    2.19    0.45
  -4  -3  16    2.41    0.52
  -4  -3  16    2.04    0.46
  -4   3 -12    0.29    0.36
  -4   3 -12   -0.66    0.29
  -4  -3 -12    0.20    0.41
  -4  -3 -12   -0.41    0.35
  -4  -3 -12    0.34    0.47
   4   4  12    1.89    0.45
   4   4 -16    0.24    0.53
   4  -4 -16   -0.71    0.41
  -4   4  16   -0.02    0.43
  -4  -4  16    0.12    0.45
  -4  -4  16    0.21    0.53
  -4  -4  16   -0.52    0.48
  -4   4 -12    3.62    0.44
  -4   4 -12    5.88    0.62
  -4  -4 -12    3.75    0.59
  -4  -4 -12    3.69    0.48
  -4  -4 -12    3.67    0.59
   4   5  12    0.38    0.53
   4   5 -16   -0.06    0.61
   4  -5 -16   15.26    0.89
  -4   5  16   18.43    1.06
  -4   5  16   13.28    0.87
  -4  -5  16   11.41    1.02
  -4  -5  16   10.55    1.12
  -4  -5  16   16.51    1.08
  -4   5 -12    4.50    0.46
  -4   5 -12    4.18    0.44
  -4  -5 -12    4.27    0.69
  -4  -5 -12    4.43    0.67
  -4  -5 -12    4.47    0.61
   4   6 -16    1.24    0.74
  -4   6  16    1.34    0.60
  -4   6  16   -0.13    0.60
  -4  -6  16    0.57    0.68
  -4  -6  16   -1.74    0.96
  -4  -6  16    0.36    0.64
  -4   6 -12   -0.44    0.40
  -4   6 -12    0.26    0.38
  -4  -6 -12    0.18    0.65
  -4  -6 -12    2.84    0.68
  -4   7  16   32.12    1.32
  -4  -7  16   27.35    1.54
  -4  -7  16   29.61    1.48
  -4   7 -12    3.99    0.60
  -4   7 -12    3.13    0.53
  -4  -7 -12    4.37    0.73
  -4  -7 -12    7.16    0.90
   4  -8  12   -0.19    0.78
  -4   8  16    2.15    0.69
  -4  -8  16    0.04    0.82
  -4  -8  16    3.27    0.86
  -4   8 -12   -0.12    0.51
  -4  -8 -12    1.92    0.80
  -4  -8 -12   -0.28    0.81
   4   0  13    0.55    0.35
   4   0 -17    1.53    0.42
   4   0 -17   -0.19    0.43
  -4   0  17   -0.20    0.42
  -4   0  17    0.39    0.39
  -4   0  17    0.36    0.39
  -4   0 -13    0.40    0.44
  -4   0 -13    0.04    0.32
   4   1  13    0.88    0.36
   4  -1  13    0.80    0.28
   4   1 -17    1.89    0.45
   4   1 -17    4.43    0.58
   4  -1 -17    5.97    0.71
   4  -1 -17    2.73    0.48
  -4   1  17    6.18    0.75
  -4   1  17    4.85    0.51
  -4  -1  17    4.75    0.56
  -4  -1  17    3.94    0.52
  -4  -1  17    3.74    0.54
  -4   1 -13    0.78    0.44
  -4   1 -13    1.18    0.36
  -4  -1 -13    0.35    0.44
  -4  -1 -13    0.79    0.34
  -4  -1 -13   -0.05    0.44
   4   2  13    1.43    0.41
   4   2 -17    5.92    0.62
   4  -2 -17    6.85    0.76
   4  -2 -17    8.16    0.67
  -4   2  17    8.70    0.81
  -4   2  17    6.95    0.78
  -4   2  17    8.39    0.61
  -4  -2  17    8.67    0.88
  -4  -2  17    7.63    0.89
  -4  -2  17    7.08    0.80
  -4   2 -13    1.15    0.42
  -4   2 -13    0.45    0.35
  -4  -2 -13    1.77    0.46
  -4  -2 -13    1.62    0.43
  -4  -2 -13    2.03    0.53
   4   3  13    1.04    0.46
   4   3 -17   -1.39    0.47
   4  -3 -17    2.87    0.51
   4  -3 -17    4.22    0.57
  -4   3  17    3.38    0.54
  -4   3  17    2.85    0.55
  -4   3  17    4.08    0.40
  -4  -3  17    4.12    0.63
  -4  -3  17    4.13    0.62
  -4  -3  17    4.07    0.60
  -4   3 -13    0.17    0.41
  -4   3 -13   -0.50    0.33
  -4  -3 -13    0.08    0.48
  -4  -3 -13    0.91    0.42
  -4  -3 -13    1.46    0.52
   4   4  13    0.24    0.43
   4   4 -17    1.50    0.58
   4  -4 -17   12.62    0.90
  -4   4  17   18.04    0.99
  -4   4  17   15.97    0.90
  -4  -4  17   18.86    1.11
  -4  -4  17   18.71    1.22
  -4  -4  17   17.94    1.03
  -4   4 -13    3.65    0.49
  -4   4 -13    4.30    0.45
  -4  -4 -13    5.40    0.63
  -4  -4 -13    3.82    0.53
  -4  -4 -13    4.96    0.66
   4   5 -17    1.93    0.66
   4  -5 -17   -0.22    0.67
  -4   5  17    1.67    0.54
  -4  -5  17   -0.03    0.59
  -4  -5  17   -1.41    0.62
  -4  -5  17    0.17    0.56
  -4   5 -13    3.28    0.47
  -4   5 -13    6.06    0.71
  -4  -5 -13    4.43    0.60
  -4  -5 -13    4.08    0.65
  -4   6  17   10.17    1.15
  -4  -6  17    4.55    0.73
  -4  -6  17    5.63    0.83
  -4   6 -13    0.66    0.51
  -4   6 -13    0.94    0.45
  -4  -6 -13    0.60    0.61
  -4  -6 -13    2.29    0.65
   4  -7  13   -0.87    0.69
  -4   7  17    0.09    0.60
  -4  -7  17    1.48    0.73
  -4  -7  17   -0.02    0.70
  -4   7 -13    0.12    0.76
  -4   7 -13    0.83    0.52
  -4  -7 -13    0.02    0.80
  -4  -7 -13   -0.27    0.83
   4   0  14    0.73    0.53
   4   0 -18    0.13    0.46
   4   0 -18    4.00    0.59
  -4   0  18    4.26    0.57
  -4   0  18    3.43    0.50
  -4   0  18    3.07    0.47
  -4   0 -14   -0.03    0.45
  -4   0 -14    1.76    0.41
   4   1  14    2.46    0.44
   4  -1  14    2.96    0.38
   4   1 -18    0.58    0.61
   4   1 -18   29.68    1.10
   4  -1 -18    2.53    0.51
   4  -1 -18   31.77    1.00
  -4   1  18   33.58    1.14
  -4   1  18   31.34    1.12
  -4   1  18   35.36    0.97
  -4  -1  18   34.55    1.21
  -4  -1  18   32.45    1.15
  -4  -1  18   30.75    1.24
  -4   1 -14    2.80    0.53
  -4   1 -14    3.32    0.45
  -4  -1 -14    3.13    0.63
  -4  -1 -14    3.24    0.45
  -4  -1 -14    3.23    0.60
   4   2  14    2.59    0.43
   4   2 -18    0.88    0.54
   4   2 -18    9.43    0.92
   4  -2 -18    1.52    0.48
   4  -2 -18    6.77    0.74
  -4   2  18    7.15    0.70
  -4   2  18    6.20    0.61
  -4   2  18    6.10    0.67
  -4  -2  18    6.96    0.70
  -4  -2  18    8.26    0.72
  -4  -2  18    9.28    0.88
  -4   2 -14    2.38    0.51
  -4   2 -14    2.94    0.44
  -4  -2 -14    4.30    0.56
  -4  -2 -14    3.14    0.51
  -4  -2 -14    5.40    0.69
   4   3  14    0.28    0.47
   4  -3 -18    0.05    0.45
  -4   3  18   -0.19    0.42
  -4   3  18   -0.99    0.48
  -4   3  18    0.43    0.37
  -4  -3  18   -0.89    0.55
  -4  -3  18    0.35    0.55
  -4  -3  18    0.53    0.54
  -4   3 -14    0.38    0.43
  -4   3 -14   -0.67    0.36
  -4  -3 -14    1.81    0.51
  -4  -3 -14    1.26    0.47
  -4  -3 -14    1.45    0.65
   4   4  14   -0.08    0.79
   4   4 -18   -0.95    0.58
  -4   4  18    1.53    0.53
  -4   4  18    0.45    0.53
  -4  -4  18    0.35    0.59
  -4  -4  18    1.27    0.64
  -4  -4  18    1.49    0.54
  -4   4 -14    0.47    0.47
  -4   4 -14    1.49    0.39
  -4  -4 -14   -0.77    0.69
  -4  -4 -14    2.04    0.58
  -4  -4 -14    1.91    0.60
  -4   5  18    9.98    1.15
  -4  -5  18    8.89    0.89
  -4  -5  18    8.69    0.85
  -4   5 -14    1.80    0.53
  -4   5 -14    3.38    0.46
  -4  -5 -14    2.10    0.59
  -4  -5 -14    3.64    0.64
  -4   6  18    0.95    0.67
  -4  -6  18   -0.13    0.71
  -4  -6  18   -0.64    0.71
  -4   6 -14    1.38    0.59
  -4   6 -14   -0.16    0.44
  -4  -6 -14    1.58    0.62
  -4  -6 -14    2.21    0.71
  -4   7  18    3.99    0.71
  -4  -7  18    2.51    0.76
  -4  -7  18    3.68    0.82
  -4   7 -14    0.45    0.55
  -4  -7 -14    1.21    0.88
  -4  -7 -14    1.62    0.88
   4   0 -19    0.94    0.51
   4   0 -19   -0.41    0.52
  -4   0  19   -1.50    0.52
  -4   0  19    0.06    0.51
  -4   0  19   -0.53    0.42
  -4   0 -15    1.36    0.53
  -4   0 -15   -0.31    0.42
   4   1  15    0.44    0.47
   4  -1  15    0.49    0.40
   4   1 -19    7.38    0.69
   4  -1 -19   -0.19    0.48
   4  -1 -19    6.94    0.63
  -4   1  19    9.09    0.99
  -4   1  19    6.48    0.65
  -4   1  19    8.50    0.79
  -4  -1  19    9.52    1.02
  -4  -1  19    8.61    0.99
  -4  -1  19    8.83    0.79
  -4   1 -15   -0.31    0.51
  -4   1 -15   -0.49    0.40
  -4  -1 -15    0.00    0.38
  -4  -1 -15   -1.05    0.60
   4   2  15    1.33    0.48
   4  -2  15    1.88    0.37
   4   2 -19   -0.25    0.55
   4  -2 -19    0.55    0.57
   4  -2 -19    5.60    0.55
  -4   2  19    5.54    0.61
  -4   2  19    4.60    0.62
  -4   2  19    8.37    0.74
  -4  -2  19    9.02    1.02
  -4  -2  19    6.16    0.74
  -4  -2  19    7.51    0.89
  -4   2 -15    0.50    0.53
  -4   2 -15    1.88    0.44
  -4  -2 -15    2.02    0.53
  -4  -2 -15    0.38    0.48
  -4  -2 -15    3.07    0.63
   4   3 -19   -0.30    0.75
   4  -3 -19   10.10    1.16
  -4   3  19   11.61    1.02
  -4   3  19   10.35    0.69
  -4  -3  19   11.36    1.15
  -4  -3  19    8.85    1.29
  -4  -3  19    9.25    0.94
  -4   3 -15   -0.12    0.52
  -4  -3 -15   -1.29    0.85
  -4  -3 -15    0.24    0.51
  -4  -3 -15   -0.80    0.59
  -4   4  19    5.31    0.73
  -4  -4  19    2.23    0.67
  -4  -4  19    2.93    0.62
  -4   4 -15   -0.73    0.52
  -4   4 -15    0.10    0.41
  -4  -4 -15   -0.71    0.54
  -4  -4 -15    1.47    0.68
  -4   5  19   19.00    1.25
  -4  -5  19   11.07    0.94
  -4  -5  19   12.42    1.25
  -4   5 -15   -0.61    0.57
  -4   5 -15    0.04    0.44
  -4  -5 -15   -0.32    0.69
  -4  -5 -15   -0.89    0.63
  -4   6  19   -0.28    0.74
  -4  -6  19   -0.02    0.81
  -4  -6  19    1.77    0.79
  -4   6 -15    0.73    0.53
  -4  -6 -15   -1.87    0.71
  -4  -6 -15    0.45    0.78
   4   0 -20    9.67    0.99
  -4   0  20   11.24    1.03
  -4   0 -16    0.15    0.63
   4   1  16    1.28    0.58
   4  -1  16    0.65    0.44
   4   1 -20    8.73    1.04
   4  -1 -20    5.96    0.71
  -4   1  20    5.86    0.68
  -4   1  20    9.82    0.86
  -4  -1  20   10.15    1.16
  -4  -1  20    7.84    0.95
  -4   1 -16   -1.07    0.58
  -4   1 -16    0.69    0.48
  -4  -1 -16   -0.61    0.60
  -4  -1 -16   -0.05    0.44
  -4  -1 -16    0.46    0.66
   4  -2  16    0.45    0.41
   4  -2 -20   21.93    1.02
  -4   2  20   26.08    1.24
  -4   2  20   27.26    0.95
  -4  -2  20   24.30    1.31
  -4  -2  20   23.77    1.08
  -4   2 -16   -0.78    0.55
  -4   2 -16   -0.31    0.44
  -4  -2 -16   -0.81    0.47
  -4  -2 -16    1.69    0.61
  -4   3  20    1.47    0.52
  -4   3  20    1.60    0.49
  -4  -3  20   -1.05    0.62
  -4  -3  20    0.17    0.58
  -4   3 -16    1.28    0.57
  -4   3 -16   -0.14    0.46
  -4  -3 -16    0.94    0.52
  -4  -3 -16    0.49    0.65
  -4   4  20   16.12    1.36
  -4  -4  20   10.53    1.29
  -4  -4  20   12.28    1.14
  -4   4 -16    1.17    0.44
  -4  -4 -16   -0.40    0.57
  -4  -4 -16   -0.12    0.69
  -4   5  20    3.29    0.79
  -4  -5  20    0.21    0.81
  -4  -5  20   -1.89    0.70
  -4   5 -16    0.96    0.52
  -4  -5 -16    0.21    0.78
  -4  -5 -16   -0.03    0.69
  -4   6  20   18.84    1.53
  -4  -6  20   10.19    1.09
  -4  -6 -16   -2.06    0.82
  -4  -6 -16    1.42    0.80
   4   0 -21   -1.26    0.68
  -4   0  21   -0.12    0.60
  -4   0  21   -0.58    0.54
  -4   0 -17   -0.96    0.47
   4  -1 -21    5.58    0.78
  -4   1  21    7.84    0.82
  -4   1  21    9.47    0.89
  -4  -1  21    7.46    0.82
  -4  -1  21    8.90    0.97
  -4   1 -17   -0.06    0.56
  -4  -1 -17   -0.78    0.54
  -4  -1 -17   -1.14    0.71
   4  -2  17    1.50    0.61
  -4   2  21    0.54    0.58
  -4   2  21   -0.23    0.46
  -4  -2  21    1.62    0.72
  -4  -2  21    1.49    0.61
  -4   2 -17   -0.22    0.50
  -4  -2 -17    0.75    0.59
  -4  -2 -17    1.25    0.64
   4  -3  17    1.93    0.43
  -4   3  21   41.05    1.47
  -4   3  21   45.03    1.29
  -4  -3  21   36.20    1.50
  -4  -3  21   37.94    1.43
  -4   3 -17    1.81    0.54
  -4  -3 -17    0.02    0.58
  -4  -3 -17   -0.70    0.68
  -4   4  21   24.66    1.54
  -4  -4  21   18.80    1.49
  -4  -4  21   25.11    1.39
  -4   4 -17    0.59    0.50
  -4  -4 -17    0.95    0.78
  -4  -4 -17   -0.07    0.72
  -4   5  21   14.35    1.47
  -4  -5  21    7.85    1.02
  -4  -5 -17   -1.05    0.71
  -4  -5 -17   -1.09    0.76
   4   0 -22   15.14    1.45
  -4   0  22   19.18    1.38
  -4   0  22   23.53    1.17
  -4   0 -18   -0.26    0.51
  -4   1  22    1.90    0.78
  -4  -1  22    1.50    0.72
  -4  -1  22    0.80    0.68
  -4   1 -18   -0.45    0.56
  -4  -1 -18   -0.64    0.56
  -4  -1 -18    0.05    0.68
  -4   2  22   11.91    1.37
  -4   2  22   13.68    0.97
  -4  -2  22   13.30    1.51
  -4  -2  22   18.18    1.25
  -4   2 -18   -0.97    0.56
  -4  -2 -18   -1.28    0.54
  -4  -2 -18    2.54    0.77
  -4   3  22    1.25    0.69
  -4  -3  22    2.54    0.88
  -4  -3  22    2.09    0.69
  -4   3 -18    1.11    0.61
  -4  -3 -18   -0.16    0.70
  -4  -3 -18   -0.93    0.77
  -4   4  22   -0.09    0.73
  -4  -4  22    1.17    0.92
  -4  -4 -18    0.19    0.75
  -4  -4 -18   -0.67    0.72
  -4   0  23   -1.14    0.70
  -4   0  23   -1.48    0.64
  -4   1  23    8.09    0.95
  -4   1  23   11.52    1.10
  -4  -1  23   11.79    1.42
  -4  -1  23    8.69    0.81
  -4   1 -19    0.25    0.66
  -4  -1 -19    0.57    0.63
  -4  -1 -19    0.38    0.83
  -4   2  23    3.35    0.79
  -4  -2  23    4.94    0.99
  -4  -2  23    5.00    0.81
  -4   2 -19    0.19    0.62
  -4  -2 -19   -0.36    0.65
  -4  -2 -19    3.19    0.84
  -5   0   3   -0.26    0.23
  -5   0   3   -0.47    0.20
  -5   0   3    0.97    0.40
  -5   0   2    4.59    0.42
  -5   0   2    4.59    0.42
  -5   0   2    7.96    0.79
  -5   1   3    2.61    0.26
  -5   1   3    3.56    0.29
  -5   1   3    6.56    0.76
  -5  -1   3    3.45    0.36
  -5  -1   3    2.77    0.35
  -5  -1   3    4.70    0.63
  -5   1   2    6.80    0.38
  -5   1   2    5.41    0.37
  -5   1   2    9.97    0.79
  -5  -1   2    5.96    0.49
  -5  -1   2    6.14    0.50
  -5  -1   2    8.73    1.12
   5   2  -2    4.82    0.45
   5   2  -2    4.49    0.50
   5   2  -3   -0.70    0.24
   5   2  -3   -0.31    0.24
  -5   2   3    1.06    0.40
  -5   2   3    0.86    0.46
  -5  -2   3   -0.23    0.30
  -5  -2   3    0.33    0.32
  -5  -2   3   -0.11    0.42
  -5   2   2    6.17    0.65
  -5   2   2    5.12    0.55
  -5  -2   2    5.76    0.55
  -5  -2   2    5.20    0.55
  -5  -2   2    7.44    0.87
   5   3  -2    1.12    0.30
   5   3  -2    4.28    0.48
   5   3  -3   17.54    0.65
   5   3  -3   16.71    0.61
   5   3  -3   19.44    0.98
  -5   3   3   19.59    0.85
  -5   3   3   18.42    0.85
  -5  -3   3   19.38    0.79
  -5  -3   3   20.72    0.77
  -5  -3   3   21.07    0.98
  -5   3   2    2.64    0.40
  -5   3   2    2.66    0.44
  -5  -3   2    1.77    0.38
  -5  -3   2    1.44    0.36
  -5  -3   2    1.85    0.48
   5   4  -2    9.34    0.67
   5   4  -2    9.67    0.63
   5   4  -3    0.24    0.35
   5   4  -3    0.06    0.34
  -5   4   3    1.23    0.39
  -5   4   3    0.98    0.46
  -5  -4   3    0.07    0.44
  -5  -4   3    0.05    0.36
  -5  -4   3    0.89    0.46
  -5   4   2   11.25    0.72
  -5   4   2   10.39    0.85
  -5  -4   2   12.40    0.96
  -5  -4   2    7.96    0.71
  -5  -4   2    9.30    0.94
   5   5  -2    2.36    0.46
   5   5  -3   10.76    0.79
  -5   5   3   12.10    0.74
  -5   5   3   11.64    0.83
  -5  -5   3   11.15    0.90
  -5  -5   3   11.58    0.83
  -5  -5   3    9.36    0.95
  -5   5   2    0.55    0.37
  -5   5   2   -0.55    0.47
  -5  -5   2    2.51    0.48
  -5  -5   2    0.98    0.46
  -5  -5   2    1.68    0.57
   5   6  -2   -0.54    0.47
   5   6  -3   -0.14    0.47
  -5   6   3   -0.02    0.40
  -5   6   3    0.70    0.74
  -5  -6   3   -0.08    0.53
  -5  -6   3    0.01    0.45
  -5   6   2    8.41    0.76
  -5   6   2    7.49    0.97
  -5  -6   2   10.31    1.02
  -5  -6   2    7.57    0.90
  -5  -6   2    7.86    0.74
  -5   7   3    0.30    0.40
  -5   7   3    0.99    0.55
  -5  -7   3   -0.45    0.52
  -5  -7   3    1.14    0.53
  -5   7   2    1.41    0.50
  -5   7   2    0.76    0.58
  -5  -7   2   -1.17    0.57
  -5  -7   2    0.87    0.61
  -5   8   3    0.82    0.47
  -5  -8   3   -0.94    0.63
  -5  -8   3   -1.23    0.66
  -5   8   2   -0.10    0.49
  -5  -8   2   -0.80    0.69
  -5  -8   2    1.27    0.67
  -5  -9   3    0.18    0.76
  -5  -9   3    2.71    0.89
  -5  -9   2   -0.77    0.80
  -5  -9   2   -0.71    0.83
  -5   0   4    1.79    0.30
  -5   0   4    1.38    0.26
  -5   0   4    2.09    0.45
  -5   0   1   -0.47    0.21
  -5   0   1   -0.02    0.23
  -5   0   1    0.88    0.45
  -5   1   4   11.92    0.49
  -5   1   4   10.10    0.47
  -5   1   4   14.67    0.83
  -5  -1   4   11.61    0.58
  -5  -1   4    9.36    0.53
  -5  -1   4   11.91    0.86
  -5   1   1   13.59    0.43
  -5   1   1   13.72    0.44
  -5   1   1   16.20    0.79
  -5   1   1   12.72    0.82
  -5  -1   1   12.23    0.55
  -5  -1   1   13.15    0.57
  -5  -1   1   15.14    1.64
   5   2  -1    5.57    0.46
   5   2  -1    2.99    0.41
   5   2  -4   26.48    0.63
   5   2  -4   21.38    0.56
   5   2  -4   28.42    0.98
  -5   2   4   26.67    0.54
  -5   2   4   30.53    1.02
  -5   2   4   26.97    0.94
  -5  -2   4   29.50    0.79
  -5  -2   4   25.82    0.76
  -5  -2   4   29.53    1.05
  -5   2   1    6.51    0.66
  -5   2   1    6.74    0.73
  -5  -2   1    4.92    0.54
  -5  -2   1    5.14    0.54
  -5  -2   1    7.50    0.70
   5   3  -1    2.44    0.33
   5   3  -1    2.64    0.34
   5   3  -4    0.63    0.30
   5   3  -4    0.39    0.31
   5   3  -4    0.01    0.52
  -5   3   4   -0.16    0.36
  -5   3   4    0.72    0.43
  -5  -3   4    0.47    0.33
  -5  -3   4    0.28    0.30
  -5  -3   4    0.00    0.43
  -5   3   1    3.41    0.44
  -5   3   1    1.98    0.49
  -5  -3   1    2.64    0.42
  -5  -3   1    3.63    0.41
  -5  -3   1    4.23    0.57
   5   4  -1   -0.91    0.33
   5   4  -1    0.44    0.36
   5   4  -4    1.23    0.39
   5   4  -4    2.27    0.36
  -5   4   4    3.02    0.43
  -5   4   4    2.16    0.46
  -5  -4   4    2.25    0.42
  -5  -4   4    1.79    0.53
  -5   4   1    0.99    0.40
  -5   4   1   -0.85    0.48
  -5  -4   1   -0.90    0.39
  -5  -4   1    0.52    0.37
  -5  -4   1    0.13    0.45
   5   5  -1   -0.39    0.41
   5   5  -4    0.49    0.40
  -5   5   4    1.04    0.40
  -5   5   4   -0.45    0.46
  -5  -5   4    0.52    0.44
  -5  -5   4   -0.17    0.34
  -5  -5   4    1.16    0.46
  -5   5   1    1.67    0.42
  -5   5   1   -0.79    0.52
  -5  -5   1    1.05    0.46
  -5  -5   1    0.37    0.39
  -5  -5   1    1.69    0.55
   5   6  -1   -0.84    0.46
   5   6  -4   -0.02    0.49
  -5   6   4    1.65    0.43
  -5   6   4    2.55    0.50
  -5  -6   4    1.64    0.52
  -5  -6   4    1.37    0.48
  -5  -6   4    0.33    0.52
  -5   6   1    0.32    0.41
  -5   6   1    0.19    0.55
  -5  -6   1   -0.12    0.56
  -5  -6   1    0.10    0.45
  -5  -6   1    0.52    0.55
  -5   7   4    2.99    0.46
  -5   7   4    2.32    0.55
  -5  -7   4    0.79    0.51
  -5  -7   4    2.48    0.58
  -5   7   1    0.34    0.47
  -5   7   1    1.91    0.65
  -5  -7   1    0.22    0.63
  -5  -7   1   -1.26    0.55
  -5   8   4    5.56    0.58
  -5  -8   4    2.65    0.65
  -5  -8   4    4.25    0.84
  -5   8   1   -0.08    0.52
  -5  -8   1   -0.05    0.58
  -5  -8   1    1.10    0.63
  -5  -9   4   -0.57    0.82
  -5  -9   4   -0.12    0.80
  -5   9   1    0.92    0.63
  -5  -9   1   -0.59    0.83
  -5   0   5    0.45    0.26
  -5   0   5   -0.53    0.26
  -5   0   5    0.57    0.37
  -5   0   0    2.19    0.26
  -5   0   0    2.08    0.30
  -5   0   0    2.80    0.72
   5   1  -5    1.04    0.24
   5   1  -5    2.56    0.50
  -5   1   5    2.52    0.33
  -5   1   5    1.52    0.25
  -5   1   5    3.27    0.48
  -5  -1   5    2.06    0.32
  -5  -1   5    1.25    0.29
  -5  -1   5    2.77    0.45
  -5   1   0   -0.04    0.20
  -5   1   0    0.62    0.21
  -5   1   0    0.66    0.36
  -5   1   0   -0.02    0.45
  -5  -1   0    0.48    0.26
  -5  -1   0    0.56    0.27
  -5  -1   0    0.93    0.46
   5   2   0    4.02    0.44
   5   2   0    2.53    0.27
   5   2  -5   15.99    0.57
   5   2  -5   12.09    0.55
   5   2  -5   19.40    0.92
  -5   2   5   16.64    0.53
  -5   2   5   17.17    0.48
  -5   2   5   14.48    0.86
  -5  -2   5   16.39    0.68
  -5  -2   5   17.27    0.65
  -5  -2   5   16.40    0.95
  -5   2   0    3.57    0.47
  -5   2   0    4.43    0.51
  -5  -2   0    4.29    0.39
  -5  -2   0    3.93    0.40
  -5  -2   0    5.82    0.65
   5   3   0    0.32    0.30
   5   3   0    0.50    0.29
   5   3  -5   14.05    0.62
   5   3  -5   11.74    0.60
   5   3  -5   11.66    0.93
  -5   3   5   16.81    0.86
  -5   3   5   13.85    0.80
  -5  -3   5   12.69    0.69
  -5  -3   5   12.77    0.68
  -5  -3   5   15.04    0.91
  -5   3   0    0.48    0.39
  -5   3   0    0.84    0.47
  -5  -3   0    0.38    0.38
  -5  -3   0   -0.66    0.30
  -5  -3   0   -0.41    0.45
   5   4   0    1.88    0.43
   5   4   0    1.17    0.38
   5   4  -5    3.73    0.57
   5   4  -5    4.88    0.59
  -5   4   5    5.52    0.52
  -5   4   5    3.26    0.50
  -5  -4   5    3.85    0.44
  -5  -4   5    3.48    0.54
  -5   4   0    1.63    0.43
  -5   4   0    0.57    0.50
  -5  -4   0    0.65    0.35
  -5  -4   0    0.63    0.53
   5   5   0    1.32    0.46
   5   5  -5    6.01    0.57
  -5   5   5    9.71    0.79
  -5   5   5    6.94    0.58
  -5  -5   5    8.55    0.84
  -5  -5   5    7.59    0.79
  -5  -5   5    7.79    0.82
  -5   5   0    2.07    0.44
  -5   5   0    1.77    0.52
  -5  -5   0    2.23    0.50
  -5  -5   0    1.35    0.41
  -5  -5   0    1.48    0.59
   5   6  -5    0.60    0.46
  -5   6   5    1.46    0.46
  -5   6   5    1.30    0.46
  -5  -6   5    1.11    0.50
  -5  -6   5    1.67    0.50
  -5  -6   5    1.38    0.59
  -5   6   0    0.45    0.43
  -5   6   0    0.73    0.54
  -5  -6   0    0.00    0.52
  -5  -6   0    0.56    0.44
  -5  -6   0    1.23    0.64
  -5   7   5    1.11    0.49
  -5   7   5    0.88    0.51
  -5  -7   5    1.32    0.60
  -5  -7   5    0.39    0.66
  -5   7   0    3.69    0.58
  -5   7   0    5.11    0.69
  -5  -7   0    2.16    0.58
  -5  -7   0    1.75    0.63
  -5   8   5    4.86    0.57
  -5  -8   5    4.05    0.75
  -5  -8   5    4.83    0.78
  -5  -8   0   -1.09    0.54
  -5  -8   0    2.31    0.70
  -5   9   5   -0.30    0.43
  -5  -9   5    0.26    0.78
  -5  -9   5    0.84    0.82
  -5  -9   0    1.75    0.83
  -5  -9   0    3.56    0.79
  -5   0   6  279.32    1.88
  -5   0   6  284.38    1.87
  -5   0   6  293.58    2.49
  -5   0  -1    0.62    0.26
  -5   0  -1   -0.39    0.24
  -5   0  -1   -0.62    0.51
  -5   0  -1   -0.66    0.48
   5   1  -6   37.98    0.64
   5   1  -6   26.69    0.64
   5   1  -6   40.45    1.11
  -5   1   6   37.63    0.73
  -5   1   6   37.67    0.71
  -5   1   6   39.51    1.04
  -5  -1   6   36.24    0.81
  -5  -1   6   41.33    1.18
  -5   1  -1    4.62    0.36
  -5   1  -1    4.43    0.29
  -5   1  -1    4.37    0.55
  -5  -1  -1    3.74    0.37
  -5  -1  -1    4.38    0.51
  -5  -1  -1    4.57    0.51
   5   2   1    0.37    0.26
   5   2   1    1.11    0.23
   5   2  -6    4.50    0.46
   5   2  -6    4.63    0.50
   5   2  -6    5.68    0.65
  -5   2   6    5.03    0.45
  -5   2   6    5.24    0.41
  -5   2   6    6.12    0.75
  -5  -2   6    6.92    0.59
  -5  -2   6    7.25    0.52
  -5  -2   6    7.96    0.79
  -5   2  -1    0.86    0.41
  -5   2  -1    2.24    0.43
  -5  -2  -1    0.53    0.31
  -5  -2  -1   -0.11    0.30
  -5  -2  -1    0.92    0.48
   5   3   1    9.00    0.63
   5   3   1    8.44    0.59
   5   3  -6    5.66    0.55
   5   3  -6    6.21    0.54
   5   3  -6    8.19    0.89
  -5   3   6    7.47    0.45
  -5   3   6    6.67    0.41
  -5   3   6   10.27    0.80
  -5   3   6    7.85    0.73
  -5  -3   6    9.14    0.61
  -5  -3   6    6.86    0.60
  -5   3  -1   10.64    0.77
  -5   3  -1    9.99    0.84
  -5  -3  -1   13.35    0.77
  -5  -3  -1   10.60    0.73
  -5  -3  -1   12.94    0.97
   5   4   1    3.56    0.43
   5   4  -6    1.39    0.39
  -5   4   6    0.15    0.37
  -5   4   6    0.87    0.43
  -5  -4   6    1.88    0.46
  -5  -4   6    1.99    0.42
  -5  -4   6    0.90    0.46
  -5   4  -1    3.96    0.50
  -5   4  -1    1.59    0.54
  -5  -4  -1    3.88    0.48
  -5  -4  -1    3.53    0.60
   5   5   1    3.20    0.46
   5   5  -6    1.67    0.44
  -5   5   6   -0.79    0.39
  -5   5   6    0.00    0.54
  -5  -5   6    0.24    0.44
  -5  -5   6    0.08    0.42
  -5  -5   6    0.20    0.49
  -5   5  -1    2.49    0.57
  -5   5  -1    1.62    0.58
  -5  -5  -1    1.70    0.51
  -5  -5  -1    2.61    0.48
  -5  -5  -1    1.88    0.60
   5   6   1   -0.10    0.45
   5   6  -6    0.46    0.47
  -5   6   6    7.56    0.60
  -5   6   6    8.76    0.76
  -5  -6   6    6.34    0.68
  -5  -6   6    5.70    0.61
  -5  -6   6    6.82    0.73
  -5   6  -1    1.36    0.63
  -5  -6  -1    3.27    0.68
  -5  -6  -1    3.00    0.54
  -5  -6  -1    3.66    0.68
  -5   7   6    0.43    0.42
  -5  -7   6    0.97    0.60
  -5  -7   6   -0.18    0.59
  -5   7  -1    2.07    0.59
  -5   7  -1    1.30    0.66
  -5  -7  -1    0.28    0.49
  -5  -7  -1    1.20    0.65
  -5   8   6   -0.33    0.35
  -5   8   6    1.53    0.38
  -5  -8   6    0.64    0.63
  -5  -8   6    0.42    0.71
  -5   8  -1    0.52    0.60
  -5   8  -1   -2.43    0.82
  -5  -8  -1    0.02    0.67
  -5  -8  -1   -2.02    0.68
  -5   9   6    6.69    0.83
  -5   9   6    4.98    0.53
  -5  -9   6    4.69    0.83
  -5  -9   6    6.64    0.94
  -5   9  -1    2.11    0.69
  -5  -9  -1    0.98    0.77
  -5  -9  -1    3.38    0.94
   5   0  -7    1.60    0.40
  -5   0   7    0.01    0.28
  -5   0   7    0.67    0.28
  -5   0   7   -0.30    0.39
  -5   0  -2   -0.24    0.23
  -5   0  -2    0.44    0.24
  -5   0  -2   -0.33    0.34
  -5   0  -2    0.84    0.47
   5   1  -7   33.21    0.64
   5   1  -7   33.09    0.94
   5   1  -7   34.96    1.09
  -5   1   7   38.18    0.78
  -5   1   7   35.26    0.71
  -5   1   7   37.06    1.02
  -5  -1   7   36.79    0.84
  -5  -1   7   36.17    0.85
  -5  -1   7   37.29    1.12
  -5   1  -2    1.70    0.23
  -5   1  -2    1.98    0.25
  -5   1  -2    1.65    0.48
  -5   1  -2    1.89    0.49
  -5  -1  -2    2.17    0.31
  -5  -1  -2    1.70    0.32
  -5  -1  -2    2.44    0.43
  -5  -1  -2    2.46    0.48
   5   2   2    1.96    0.30
   5   2   2    3.33    0.40
   5   2  -7   17.13    0.60
   5   2  -7   12.69    0.58
   5   2  -7   14.41    0.82
  -5   2   7   15.64    0.56
  -5   2   7   14.83    0.54
  -5   2   7   18.41    0.81
  -5  -2   7   15.20    0.74
  -5  -2   7   15.88    0.66
  -5  -2   7   13.89    0.84
  -5   2  -2    1.41    0.51
  -5  -2  -2    3.76    0.42
  -5  -2  -2    2.72    0.38
  -5  -2  -2    4.59    0.58
   5   3   2    1.32    0.32
   5   3   2    0.03    0.32
   5   3  -7   11.48    0.64
   5   3  -7   10.92    0.61
   5   3  -7   10.85    0.96
  -5   3   7   12.29    0.54
  -5   3   7   11.96    0.50
  -5   3   7   12.43    0.73
  -5   3   7   10.95    0.81
  -5  -3   7   11.47    0.84
  -5  -3   7   11.92    0.64
  -5  -3   7    9.82    0.80
  -5   3  -2    1.47    0.75
  -5   3  -2    1.12    0.51
  -5  -3  -2    1.02    0.36
  -5  -3  -2    0.61    0.39
  -5  -3  -2    0.82    0.47
   5   4   2    1.36    0.37
   5   4  -7    8.53    0.69
  -5   4   7    8.57    0.53
  -5   4   7    6.57    0.44
  -5   4   7    6.74    0.68
  -5   4   7    9.70    0.73
  -5  -4   7    6.83    0.73
  -5  -4   7    7.99    0.69
  -5  -4   7    8.34    0.84
  -5   4  -2    1.57    0.71
  -5   4  -2    0.59    0.49
  -5  -4  -2    0.37    0.36
  -5  -4  -2   -0.78    0.49
   5   5   2    2.31    0.46
   5   5  -7    3.42    0.48
  -5   5   7    6.10    0.46
  -5   5   7    4.28    0.48
  -5   5   7    5.83    0.52
  -5   5   7    5.91    0.72
  -5  -5   7    7.70    0.80
  -5  -5   7    7.32    0.77
  -5  -5   7    4.81    0.55
  -5   5  -2    2.57    0.47
  -5   5  -2    3.00    0.59
  -5  -5  -2    1.59    0.49
  -5  -5  -2    2.14    0.46
  -5  -5  -2    2.72    0.56
   5   6   2   -0.24    0.48
   5   6  -7    0.56    0.47
  -5   6   7    0.87    0.30
  -5   6   7   -0.34    0.29
  -5   6   7   -0.51    0.38
  -5   6   7    0.10    0.45
  -5  -6   7    0.38    0.54
  -5  -6   7    0.81    0.50
  -5  -6   7   -0.70    0.55
  -5   6  -2    2.68    0.50
  -5   6  -2    1.46    0.63
  -5  -6  -2    1.40    0.56
  -5  -6  -2    2.78    0.61
  -5  -6  -2    3.16    0.68
  -5   7   7   -0.23    0.30
  -5   7   7    1.72    0.34
  -5   7   7    1.33    0.40
  -5  -7   7    1.70    0.51
  -5  -7   7   -0.01    0.57
  -5   7  -2    4.26    0.57
  -5   7  -2    1.04    0.74
  -5  -7  -2    2.98    0.63
  -5  -7  -2    4.57    0.80
  -5   8   7    1.41    0.38
  -5   8   7   -0.63    0.62
  -5  -8   7    1.36    0.63
  -5  -8   7    2.64    0.76
  -5   8  -2    2.66    0.62
  -5   8  -2   -0.85    0.83
  -5  -8  -2    0.90    0.71
  -5  -8  -2    2.51    0.74
  -5   9   7    0.32    0.48
  -5  -9   7    3.56    0.79
  -5  -9  -2    0.59    0.82
   5   0  -8    3.45    0.49
  -5   0   8    2.38    0.35
  -5   0   8    3.13    0.35
  -5   0   8    2.26    0.42
  -5   0  -3   -0.21    0.26
  -5   0  -3    0.64    0.26
  -5   0  -3   -0.51    0.38
  -5   0  -3    0.49    0.49
   5   1  -8    6.18    0.44
   5   1  -8    4.99    0.48
   5   1  -8    4.44    0.57
  -5   1   8    4.39    0.52
  -5   1   8    4.30    0.52
  -5   1   8    5.84    0.69
  -5  -1   8    6.24    0.57
  -5  -1   8    5.60    0.57
  -5  -1   8    4.44    0.56
  -5   1  -3    0.07    0.22
  -5   1  -3    0.37    0.23
  -5   1  -3    1.27    0.41
  -5   1  -3    2.50    0.48
  -5  -1  -3    0.37    0.30
  -5  -1  -3    0.89    0.30
  -5  -1  -3    0.58    0.39
  -5  -1  -3   -0.13    0.46
   5   2   3    0.11    0.26
   5   2   3    0.00    0.26
   5   2  -8   11.59    0.56
   5   2  -8    8.69    0.57
   5   2  -8   10.81    0.82
  -5   2   8   10.46    0.55
  -5   2   8    9.02    0.51
  -5   2   8   11.19    0.76
  -5  -2   8   10.36    0.63
  -5  -2   8   10.32    0.68
  -5  -2   8   10.32    0.75
  -5   2  -3   -0.12    0.37
  -5   2  -3   -0.03    0.46
  -5  -2  -3   -0.27    0.28
  -5  -2  -3    1.00    0.32
  -5  -2  -3    0.43    0.51
   5   3   3    1.68    0.36
   5   3   3    2.98    0.35
   5   3  -8    6.22    0.66
   5   3  -8    3.73    0.43
   5   3  -8    7.69    0.88
  -5   3   8    5.47    0.52
  -5   3   8    5.71    0.47
  -5   3   8    7.03    0.66
  -5   3   8    6.73    0.67
  -5  -3   8    4.08    0.68
  -5  -3   8    5.27    0.58
  -5  -3   8    5.18    0.53
  -5   3  -3    3.61    0.55
  -5   3  -3    0.53    0.53
  -5  -3  -3    3.44    0.43
  -5  -3  -3    3.99    0.47
  -5  -3  -3    3.36    0.60
   5   4   3    0.43    0.38
   5   4  -8    0.32    0.40
  -5   4   8    1.43    0.29
  -5   4   8    1.08    0.28
  -5   4   8    2.09    0.42
  -5   4   8    1.46    0.44
  -5  -4   8    0.89    0.44
  -5  -4   8    1.11    0.34
  -5  -4   8   -0.47    0.42
  -5   4  -3    0.31    0.39
  -5   4  -3   -1.15    0.52
  -5  -4  -3   -0.04    0.37
  -5  -4  -3    2.05    0.54
   5   5   3    1.58    0.45
   5   5  -8   -0.69    0.46
  -5   5   8    0.50    0.27
  -5   5   8    0.01    0.29
  -5   5   8    1.02    0.38
  -5   5   8    0.70    0.43
  -5  -5   8   -0.39    0.44
  -5  -5   8    1.03    0.47
  -5  -5   8   -0.36    0.45
  -5   5  -3    2.00    0.46
  -5   5  -3    1.67    0.58
  -5  -5  -3    0.42    0.52
  -5  -5  -3    1.21    0.48
  -5  -5  -3    1.77    0.59
   5   6   3   -0.35    0.47
   5   6  -8    0.40    0.50
  -5   6   8    1.02    0.32
  -5   6   8    1.54    0.35
  -5   6   8    1.47    0.42
  -5  -6   8    1.83    0.59
  -5  -6   8    1.16    0.55
  -5  -6   8    2.43    0.65
  -5   6  -3   -0.63    0.48
  -5   6  -3   -1.26    0.66
  -5  -6  -3   -0.65    0.54
  -5  -6  -3   -0.25    0.43
  -5  -6  -3    0.88    0.55
  -5   7   8    2.58    0.36
  -5   7   8    3.00    0.38
  -5  -7   8    2.26    0.58
  -5  -7   8    0.48    0.61
  -5   7  -3   -0.39    0.49
  -5  -7  -3    0.76    0.58
  -5  -7  -3    0.36    0.67
  -5   8   8   -0.10    0.40
  -5   8   8   -0.27    0.43
  -5  -8   8    0.26    0.68
  -5  -8   8    2.31    0.73
  -5   8  -3   -0.61    0.62
  -5  -8  -3    1.40    0.67
  -5  -8  -3   -0.75    0.75
   5   0  -9    0.37    0.23
   5   0  -9   -0.54    0.25
   5   0  -9    0.77    0.46
  -5   0   9    0.36    0.33
  -5   0   9   -0.76    0.28
  -5   0   9   -0.57    0.34
  -5   0  -4    0.80    0.30
  -5   0  -4    1.28    0.29
  -5   0  -4    1.36    0.47
  -5   0  -4    1.04    0.49
   5   1  -9   12.92    0.55
   5   1  -9   15.43    0.59
   5   1  -9   14.68    0.89
  -5   1   9   15.93    0.67
  -5   1   9   16.67    0.67
  -5   1   9   16.43    0.77
  -5  -1   9   14.51    0.71
  -5  -1   9   17.21    0.72
  -5  -1   9   16.40    1.06
  -5   1  -4    0.71    0.24
  -5   1  -4    0.88    0.24
  -5   1  -4    0.37    0.40
  -5   1  -4   -0.40    0.47
  -5  -1  -4    0.03    0.32
  -5  -1  -4    0.37    0.30
  -5  -1  -4    0.14    0.42
  -5  -1  -4    0.12    0.53
   5   2   4    0.14    0.25
   5   2   4   -0.53    0.26
   5   2  -9    7.46    0.56
   5   2  -9    6.84    0.61
   5   2  -9    7.75    0.84
  -5   2   9   10.46    0.61
  -5   2   9    9.65    0.56
  -5   2   9    7.19    0.63
  -5  -2   9    9.38    0.68
  -5  -2   9    9.36    0.68
  -5  -2   9   10.36    0.78
  -5   2  -4   -0.03    0.41
  -5   2  -4    0.16    0.46
  -5  -2  -4    1.00    0.34
  -5  -2  -4    0.33    0.31
  -5  -2  -4    1.00    0.44
   5   3   4    2.35    0.51
   5   3   4    0.61    0.34
   5   3  -9    1.45    0.39
   5   3  -9    1.78    0.61
  -5   3   9    2.25    0.34
  -5   3   9    1.26    0.30
  -5   3   9    0.76    0.37
  -5  -3   9    1.70    0.41
  -5  -3   9    1.63    0.46
  -5   3  -4    1.24    0.43
  -5   3  -4   -0.01    0.53
  -5  -3  -4    0.69    0.37
  -5  -3  -4    1.43    0.39
  -5  -3  -4    2.33    0.56
   5   4   4    1.03    0.40
   5   4  -9    5.08    0.51
  -5   4   9    6.00    0.55
  -5   4   9    4.21    0.37
  -5   4   9    4.31    0.45
  -5   4   9    4.87    0.71
  -5  -4   9    6.43    0.77
  -5  -4   9    4.54    0.49
  -5  -4   9    4.82    0.61
  -5   4  -4    0.35    0.41
  -5   4  -4    3.02    0.62
  -5  -4  -4   -0.14    0.38
  -5  -4  -4    0.73    0.52
   5   5   4    0.98    0.46
   5   5  -9    1.42    0.49
  -5   5   9    0.22    0.31
  -5   5   9   -0.11    0.32
  -5   5   9   -0.71    0.36
  -5   5   9    0.46    0.44
  -5  -5   9    1.34    0.49
  -5  -5   9    0.95    0.43
  -5  -5   9    0.79    0.52
  -5   5  -4    1.06    0.53
  -5   5  -4    2.60    0.68
  -5  -5  -4    0.06    0.52
  -5  -5  -4    0.66    0.47
  -5  -5  -4   -1.00    0.54
   5   6   4    0.25    0.57
   5   6  -9   -1.26    0.80
  -5   6   9    8.47    0.62
  -5   6   9    5.62    0.65
  -5   6   9    6.88    0.64
  -5   6   9    7.06    0.68
  -5  -6   9    7.43    0.84
  -5  -6   9    9.34    0.88
  -5  -6   9    7.56    0.75
  -5   6  -4    0.54    0.52
  -5  -6  -4   -0.32    0.60
  -5  -6  -4   -0.83    0.51
  -5  -6  -4    0.50    0.60
  -5   7   9    1.35    0.40
  -5   7   9    2.57    0.42
  -5  -7   9    1.09    0.53
  -5  -7   9    0.63    0.66
  -5   7  -4    2.77    0.60
  -5  -7  -4    2.54    0.69
  -5  -7  -4    0.80    0.71
  -5   8   9   -0.47    0.41
  -5   8   9    0.68    0.46
  -5  -8   9    1.68    0.59
  -5  -8   9    0.21    0.77
  -5   8  -4   -0.58    0.60
  -5  -8  -4    0.80    0.69
  -5  -8  -4    0.88    0.86
   5   0 -10    6.34    0.45
   5   0 -10    3.55    0.46
   5   0 -10    5.98    0.62
  -5   0  10    8.26    0.62
  -5   0  10    5.40    0.47
  -5   0  10    5.76    0.66
  -5   0  -5    0.13    0.29
  -5   0  -5   -0.31    0.27
  -5   0  -5   -0.90    0.41
  -5   0  -5    1.02    0.58
   5   1 -10    0.97    0.30
   5   1 -10    0.83    0.33
   5   1 -10    0.34    0.50
   5  -1 -10    1.50    0.40
  -5   1  10    1.47    0.38
  -5   1  10   -0.14    0.30
  -5   1  10    0.64    0.39
  -5  -1  10    0.33    0.36
  -5  -1  10   -0.68    0.32
  -5   1  -5    0.87    0.27
  -5   1  -5   -0.01    0.24
  -5   1  -5    1.08    0.47
  -5   1  -5    0.92    0.55
  -5  -1  -5    0.76    0.32
  -5  -1  -5    0.03    0.31
  -5  -1  -5   -0.17    0.43
   5   2   5    2.02    0.28
   5   2   5    3.89    0.46
   5   2 -10    0.12    0.36
   5   2 -10   -0.32    0.48
  -5   2  10    0.04    0.40
  -5   2  10    0.21    0.32
  -5   2  10   -0.25    0.35
  -5  -2  10    0.44    0.35
  -5  -2  10   -0.29    0.39
  -5   2  -5    2.24    0.54
  -5   2  -5    2.55    0.56
  -5  -2  -5    2.70    0.38
  -5  -2  -5    2.40    0.40
  -5  -2  -5    2.63    0.54
   5   3   5    7.52    0.64
   5   3 -10    3.43    0.48
  -5   3  10    5.97    0.56
  -5   3  10    3.82    0.40
  -5   3  10    5.67    0.63
  -5  -3  10    3.87    0.48
  -5  -3  10    5.54    0.57
  -5  -3  10    5.92    0.67
  -5   3  -5    8.83    0.85
  -5   3  -5    5.53    0.69
  -5  -3  -5    8.06    0.73
  -5  -3  -5    9.16    0.73
  -5  -3  -5    8.68    0.96
   5   4   5    2.94    0.43
   5   4 -10    2.67    0.45
  -5   4  10    3.36    0.37
  -5   4  10    2.71    0.37
  -5   4  10    3.68    0.45
  -5   4  10    4.88    0.55
  -5  -4  10    2.06    0.52
  -5  -4  10    2.26    0.44
  -5  -4  10    3.79    0.61
  -5   4  -5    1.52    0.55
  -5  -4  -5    2.19    0.42
  -5  -4  -5    3.69    0.61
   5   5   5   -0.09    0.48
   5   5 -10   -0.10    0.45
  -5   5  10    0.57    0.34
  -5   5  10    0.49    0.37
  -5   5  10    1.96    0.41
  -5  -5  10    0.21    0.55
  -5  -5  10    0.43    0.48
  -5  -5  10    0.37    0.53
  -5   5  -5   -0.48    0.47
  -5  -5  -5   -1.23    0.47
  -5  -5  -5   -0.47    0.46
  -5  -5  -5    1.19    0.60
  -5   6  10   -0.33    0.36
  -5   6  10    0.27    0.37
  -5  -6  10    0.07    0.49
  -5  -6  10    0.00    0.59
  -5   6  -5   -0.63    0.49
  -5  -6  -5   -0.05    0.51
  -5  -6  -5    0.04    0.68
  -5   7  10    6.34    0.79
  -5   7  10    6.55    0.76
  -5  -7  10    3.19    0.56
  -5  -7  10    5.89    0.88
  -5  -7  -5   -0.80    0.58
  -5  -7  -5    1.13    0.72
  -5   8  10    0.68    0.45
  -5   8  10    2.46    0.70
  -5  -8  10    0.37    0.72
  -5  -8  10    0.88    0.79
  -5  -8  -5    1.64    0.75
  -5  -8  -5    1.94    0.98
   5   0 -11   -0.51    0.27
   5   0 -11    0.29    0.35
   5   0 -11   -0.27    0.43
  -5   0  11   -0.27    0.32
  -5   0  11    0.29    0.34
  -5   0  11    0.78    0.39
  -5   0  -6    8.06    0.60
  -5   0  -6    7.15    0.54
  -5   0  -6    6.16    0.61
   5   1 -11    4.66    0.58
   5   1 -11    4.97    0.62
   5  -1 -11    4.17    0.43
   5  -1 -11    4.42    0.48
   5  -1 -11    5.15    0.53
  -5   1  11    3.09    0.41
  -5   1  11    4.68    0.47
  -5   1  11    4.54    0.52
  -5  -1  11    3.75    0.44
  -5  -1  11    3.90    0.47
  -5  -1  11    3.60    0.61
  -5   1  -6    2.79    0.33
  -5   1  -6    4.15    0.45
  -5   1  -6    4.02    0.60
  -5  -1  -6    3.22    0.40
  -5  -1  -6    3.25    0.39
  -5  -1  -6    4.20    0.61
   5   2   6    1.62    0.31
   5   2   6    1.18    0.29
   5   2 -11    8.48    0.71
   5   2 -11    7.72    0.93
  -5   2  11   13.99    0.73
  -5   2  11   10.36    0.66
  -5   2  11   12.13    0.74
  -5  -2  11   11.85    0.79
  -5  -2  11   11.58    0.81
  -5  -2  11   12.80    0.83
  -5   2  -6    1.57    0.29
  -5   2  -6    1.44    0.25
  -5   2  -6    1.41    0.45
  -5  -2  -6    1.44    0.41
  -5  -2  -6    0.99    0.37
  -5  -2  -6    1.41    0.48
   5   3   6    0.69    0.36
   5   3 -11    6.64    0.73
  -5   3  11    9.64    0.65
  -5   3  11    8.11    0.63
  -5   3  11    8.37    0.68
  -5  -3  11    9.49    0.80
  -5  -3  11   10.10    0.85
  -5  -3  11    9.75    0.82
  -5   3  -6    0.05    0.45
  -5  -3  -6    0.38    0.43
  -5  -3  -6    0.41    0.36
  -5  -3  -6    0.28    0.47
   5   4   6   -0.52    0.40
   5   4 -11   -0.20    0.42
  -5   4  11    1.97    0.37
  -5   4  11    0.83    0.36
  -5   4  11    2.68    0.45
  -5   4  11    1.78    0.49
  -5  -4  11    2.13    0.42
  -5  -4  11    1.60    0.50
  -5   4  -6   -0.30    0.51
  -5  -4  -6   -0.03    0.42
  -5  -4  -6    1.11    0.59
   5   5   6   -0.60    0.49
   5   5 -11    0.45    0.48
  -5   5  11    3.87    0.46
  -5   5  11    4.35    0.46
  -5   5  11    4.27    0.45
  -5   5  11    4.35    0.49
  -5  -5  11    4.40    0.65
  -5  -5  11    3.21    0.52
  -5  -5  11    4.95    0.69
  -5   5  -6    1.11    0.52
  -5  -5  -6    2.23    0.56
  -5  -5  -6    1.53    0.52
  -5  -5  -6    2.49    0.65
  -5   6  11   -0.77    0.34
  -5   6  11   -0.10    0.41
  -5  -6  11    0.02    0.50
  -5  -6  11    1.90    0.67
  -5  -6  -6   -0.35    0.48
  -5  -6  -6    1.78    0.75
  -5   7  11    6.38    0.60
  -5   7  11    7.64    0.86
  -5  -7  11    2.98    0.58
  -5  -7  11    5.79    0.92
  -5  -7  -6    1.79    0.60
  -5  -7  -6    1.11    0.80
  -5   8  11    1.59    0.58
  -5  -8  11   -0.72    0.59
  -5  -8  11    1.72    0.81
  -5  -8  -6   -0.40    0.68
  -5  -8  -6   -1.49    0.79
   5   0 -12   14.14    0.67
   5   0 -12   14.16    0.87
  -5   0  12   11.95    0.73
  -5   0  12   14.01    0.76
  -5   0  12   17.62    0.85
  -5   0  -7    0.45    0.36
  -5   0  -7    0.01    0.27
  -5   0  -7   -0.01    0.47
   5   1 -12    4.11    0.45
   5   1 -12    6.43    0.80
   5  -1 -12    5.11    0.54
   5  -1 -12    4.01    0.57
  -5   1  12    3.86    0.45
  -5   1  12    4.52    0.45
  -5   1  12    6.45    0.70
  -5  -1  12    4.15    0.51
  -5  -1  12    4.67    0.56
  -5  -1  12    5.78    0.60
  -5   1  -7    8.17    0.62
  -5   1  -7    7.45    0.49
  -5   1  -7    8.72    0.90
  -5  -1  -7   11.63    0.73
  -5  -1  -7    8.69    0.65
  -5  -1  -7    9.15    0.97
   5   2   7    2.64    0.35
   5   2 -12   13.05    0.78
   5   2 -12   14.45    0.97
   5  -2 -12   14.69    0.52
  -5   2  12   13.81    0.73
  -5   2  12   13.75    0.73
  -5   2  12   15.05    0.78
  -5  -2  12   15.13    0.82
  -5  -2  12   12.63    0.86
  -5  -2  12   14.58    0.89
  -5   2  -7    2.63    0.33
  -5   2  -7    2.37    0.27
  -5   2  -7    3.63    0.58
  -5  -2  -7    2.32    0.47
  -5  -2  -7    3.46    0.43
  -5  -2  -7    2.44    0.54
   5   3   7    0.99    0.42
   5   3 -12   -1.05    0.42
  -5   3  12    0.29    0.39
  -5   3  12    1.04    0.39
  -5   3  12    0.38    0.36
  -5  -3  12   -0.47    0.41
  -5  -3  12   -0.09    0.45
  -5  -3  12    0.84    0.49
  -5   3  -7    1.04    0.47
  -5  -3  -7    2.94    0.55
  -5  -3  -7    1.52    0.42
  -5  -3  -7    1.19    0.53
   5   4   7    0.35    0.47
   5   4 -12   -0.16    0.48
  -5   4  12    0.54    0.35
  -5   4  12    1.05    0.40
  -5   4  12    0.41    0.37
  -5   4  12    1.16    0.48
  -5  -4  12   -0.27    0.47
  -5  -4  12    0.69    0.50
  -5  -4  12    0.72    0.50
  -5   4  -7    0.94    0.49
  -5  -4  -7    0.79    0.58
  -5  -4  -7    1.39    0.46
  -5  -4  -7    2.64    0.61
   5   5   7   -0.17    0.62
  -5   5  12    2.17    0.42
  -5   5  12    1.56    0.44
  -5   5  12    2.15    0.40
  -5   5  12    2.12    0.50
  -5  -5  12    0.79    0.81
  -5  -5  12    3.35    0.65
  -5  -5  -7    0.95    0.53
  -5  -5  -7    0.93    0.55
  -5  -5  -7    1.94    0.66
  -5   6  12   13.18    0.83
  -5   6  12    9.09    0.88
  -5  -6  12   10.30    1.11
  -5  -6  12   14.05    1.34
  -5  -6  -7   -1.03    0.50
  -5  -6  -7   -1.51    0.66
  -5   7  12    1.59    0.52
  -5  -7  12    0.89    0.67
  -5  -7  12    2.42    0.78
  -5  -7  -7   -0.08    0.68
  -5  -7  -7    2.47    0.81
  -5  -8  12    1.56    0.85
   5   0 -13    0.39    0.39
   5   0 -13    0.24    0.51
  -5   0  13   -0.09    0.42
  -5   0  13   -0.89    0.38
  -5   0  13    1.24    0.43
  -5   0  -8    8.71    0.71
  -5   0  -8    7.89    0.57
  -5   0  -8   10.00    1.05
   5   1 -13    0.99    0.43
   5   1 -13   -1.10    0.56
   5  -1 -13    1.46    0.35
   5  -1 -13    0.32    0.53
  -5   1  13    1.01    0.42
  -5   1  13    1.42    0.40
  -5   1  13    1.62    0.45
  -5  -1  13    0.31    0.44
  -5  -1  13   -0.14    0.61
  -5  -1  13    1.63    0.47
  -5   1  -8    2.50    0.39
  -5   1  -8    3.86    0.48
  -5   1  -8    2.46    0.51
  -5  -1  -8    3.24    0.47
  -5  -1  -8    2.19    0.40
  -5  -1  -8    2.61    0.54
   5   2   8    0.81    0.33
   5   2 -13   14.26    0.88
   5   2 -13   14.65    1.20
   5  -2 -13   16.90    0.62
  -5   2  13   18.03    0.82
  -5   2  13   13.55    0.77
  -5   2  13   16.80    0.81
  -5  -2  13   15.62    0.91
  -5  -2  13   17.36    0.94
  -5  -2  13   17.41    0.94
  -5   2  -8    1.17    0.36
  -5   2  -8    0.34    0.27
  -5   2  -8    2.08    0.55
  -5  -2  -8    1.26    0.49
  -5  -2  -8    1.05    0.41
  -5  -2  -8    1.66    0.58
   5   3   8    0.49    0.63
   5   3 -13   -0.08    0.48
  -5   3  13    1.41    0.40
  -5   3  13    2.22    0.47
  -5   3  13    3.05    0.47
  -5  -3  13    2.38    0.53
  -5  -3  13    2.61    0.57
  -5  -3  13    2.58    0.57
  -5   3  -8    0.53    0.31
  -5   3  -8    0.15    0.24
  -5   3  -8    0.28    0.52
  -5  -3  -8   -0.34    0.45
  -5  -3  -8   -0.14    0.40
  -5  -3  -8    0.30    0.51
   5   4   8   -0.69    0.49
  -5   4  13   19.51    0.87
  -5   4  13   14.98    0.88
  -5   4  13   17.66    0.77
  -5   4  13   16.23    0.89
  -5  -4  13   12.96    0.96
  -5  -4  13   19.79    1.11
  -5  -4  13   18.71    1.14
  -5   4  -8   -0.13    0.52
  -5  -4  -8    0.38    0.60
  -5  -4  -8    1.44    0.54
  -5  -4  -8    2.26    0.68
  -5   5  13   13.18    0.90
  -5   5  13   11.65    0.92
  -5  -5  13   12.09    1.08
  -5  -5  13    9.04    1.13
  -5  -5  -8    1.78    0.61
  -5  -5  -8    1.31    0.73
  -5   6  13    7.13    0.86
  -5   6  13    4.52    0.59
  -5  -6  13    4.93    0.73
  -5  -6  13    5.64    0.80
  -5  -6  -8    2.98    0.74
  -5  -6  -8    1.38    0.80
  -5   7  13    1.26    0.56
  -5  -7  13    1.69    0.77
  -5  -7  13    2.41    0.79
  -5  -7  -8    0.85    0.77
  -5  -7  -8   -0.74    0.88
   5   0 -14   33.27    0.94
   5   0 -14   38.39    1.18
  -5   0  14   38.59    1.09
  -5   0  14   37.82    1.08
  -5   0  -9    1.57    0.42
  -5   0  -9    0.16    0.30
  -5   0  -9    0.09    0.50
   5   1 -14    2.53    0.49
   5   1 -14    3.88    0.63
   5  -1 -14    4.87    0.61
  -5   1  14    4.02    0.51
  -5   1  14    4.02    0.51
  -5   1  14    4.77    0.56
  -5  -1  14    3.15    0.50
  -5  -1  14    3.88    0.51
  -5  -1  14    4.81    0.60
  -5   1  -9    0.44    0.40
  -5   1  -9    0.12    0.28
  -5   1  -9   -0.14    0.54
  -5  -1  -9    0.24    0.44
  -5  -1  -9   -0.44    0.30
  -5  -1  -9    0.57    0.55
   5   2   9   12.10    0.69
   5   2 -14   -0.05    0.52
   5  -2 -14    2.84    0.40
   5  -2 -14    3.61    0.57
  -5   2  14    2.29    0.45
  -5   2  14    1.30    0.45
  -5   2  14    3.45    0.52
  -5  -2  14    4.61    0.58
  -5  -2  14    3.48    0.60
  -5  -2  14    4.78    0.64
  -5   2  -9   13.16    0.73
  -5   2  -9   14.36    0.62
  -5   2  -9   14.98    1.11
  -5  -2  -9   19.04    0.97
  -5  -2  -9   15.63    0.86
  -5  -2  -9   14.18    1.13
   5   3 -14    0.39    0.50
   5  -3 -14    1.05    0.36
  -5   3  14    0.50    0.39
  -5   3  14    1.69    0.47
  -5   3  14    1.08    0.44
  -5  -3  14    1.49    0.49
  -5  -3  14    0.19    0.54
  -5  -3  14    0.89    0.53
  -5   3  -9    5.34    0.60
  -5   3  -9    4.10    0.35
  -5   3  -9    5.32    0.68
  -5  -3  -9    8.47    0.99
  -5  -3  -9    7.68    0.86
  -5  -3  -9    6.04    0.70
   5   4   9    1.97    0.60
  -5   4  14    1.66    0.47
  -5   4  14    2.29    0.51
  -5   4  14    3.36    0.46
  -5  -4  14    3.47    0.61
  -5  -4  14    2.23    0.67
  -5   4  -9    1.13    0.27
  -5  -4  -9    1.36    0.54
  -5  -4  -9    0.49    0.51
  -5  -4  -9    2.76    0.61
  -5   5  14   12.88    0.99
  -5   5  14    9.44    0.98
  -5  -5  14    5.26    0.69
  -5  -5  14   10.46    1.22
  -5  -5  -9    0.06    0.54
  -5  -5  -9    2.60    0.73
  -5   6  14    3.10    0.56
  -5  -6  14    2.76    0.71
  -5  -6  14    3.95    0.73
  -5  -6  -9   -0.84    0.63
  -5  -6  -9    2.59    0.81
  -5   7  14    8.12    1.17
  -5  -7  14    6.13    0.94
  -5  -7  14   15.95    1.38
  -5  -7  -9    2.44    0.83
  -5  -7  -9    2.57    0.92
   5   0 -15   -0.31    0.46
   5   0 -15   -0.13    0.53
  -5   0  15   -0.35    0.43
  -5   0  15   -0.35    0.63
  -5   0  15   -0.46    0.52
  -5   0 -10    9.08    0.87
  -5   0 -10    9.05    0.69
  -5   0 -10    8.91    0.84
   5   1 -15   -0.79    0.46
   5   1 -15    0.23    0.59
   5  -1 -15   -0.59    0.43
   5  -1 -15    1.55    0.54
  -5   1  15    0.58    0.49
  -5   1  15    0.37    0.46
  -5   1  15   -0.24    0.44
  -5  -1  15    1.14    0.49
  -5  -1  15    0.16    0.51
  -5  -1  15   -0.05    0.50
  -5   1 -10    3.57    0.48
  -5   1 -10    3.15    0.37
  -5   1 -10    4.61    0.65
  -5  -1 -10    3.42    0.58
  -5  -1 -10    3.45    0.41
  -5  -1 -10    3.17    0.67
   5   2  10    6.65    0.67
   5   2 -15    0.84    0.58
   5  -2 -15    6.66    0.74
   5  -2 -15    9.70    0.88
  -5   2  15    8.34    0.84
  -5   2  15    6.94    0.61
  -5   2  15    8.17    0.77
  -5  -2  15    2.99    0.58
  -5  -2  15    8.70    1.02
  -5  -2  15    8.06    0.95
  -5   2 -10    6.61    0.77
  -5   2 -10    5.12    0.43
  -5   2 -10    6.94    0.80
  -5  -2 -10    8.55    0.95
  -5  -2 -10    6.12    0.75
  -5  -2 -10   10.72    1.15
   5   3  10    1.60    0.52
   5  -3 -15    3.68    0.46
  -5   3  15    4.58    0.53
  -5   3  15    4.59    0.57
  -5   3  15    7.38    0.70
  -5  -3  15    4.85    0.65
  -5  -3  15    5.65    0.71
  -5   3 -10   -0.15    0.37
  -5   3 -10    0.13    0.29
  -5   3 -10   -1.04    0.56
  -5  -3 -10    1.02    0.60
  -5  -3 -10   -0.53    0.47
  -5  -3 -10    1.28    0.63
  -5   4  15    0.37    0.48
  -5   4  15    0.18    0.51
  -5   4  15    1.18    0.44
  -5  -4  15    0.30    0.56
  -5  -4  15    0.98    0.63
  -5   4 -10    0.59    0.37
  -5   4 -10    2.40    0.34
  -5  -4 -10    1.28    0.52
  -5  -4 -10    1.78    0.73
  -5   5  15    3.90    0.59
  -5  -5  15    4.61    0.74
  -5  -5  15    3.29    0.71
  -5   5 -10   -0.44    0.32
  -5  -5 -10    0.08    0.59
  -5  -5 -10    1.95    0.73
  -5   6  15    1.65    0.59
  -5  -6  15   -1.17    0.67
  -5  -6  15    2.79    0.77
  -5  -6 -10   -1.77    0.67
  -5  -6 -10   -2.12    0.86
   5   0 -16   15.43    0.97
   5   0 -16   25.91    1.17
  -5   0  16   31.09    1.15
  -5   0  16   34.60    1.15
  -5   0  16   34.42    1.13
  -5   0 -11   -0.30    0.48
  -5   0 -11   -0.51    0.35
  -5   0 -11   -0.12    0.56
   5   1 -16    2.46    0.91
   5  -1 -16    0.55    0.48
   5  -1 -16    1.68    0.63
  -5   1  16    1.20    0.54
  -5   1  16    1.18    0.56
  -5   1  16    2.65    0.50
  -5  -1  16    1.14    0.52
  -5  -1  16    2.73    0.56
  -5  -1  16    2.98    0.63
  -5   1 -11   -0.21    0.44
  -5   1 -11   -0.17    0.38
  -5   1 -11    1.44    0.59
  -5  -1 -11   -0.43    0.52
  -5  -1 -11   -0.43    0.37
  -5  -1 -11    0.31    0.60
   5  -2 -16    7.66    0.81
   5  -2 -16    4.04    0.65
  -5   2  16    4.72    0.61
  -5   2  16    5.07    0.63
  -5   2  16    6.19    0.74
  -5  -2  16    5.57    0.65
  -5  -2  16    6.12    0.70
  -5   2 -11    0.70    0.51
  -5   2 -11   -0.59    0.33
  -5   2 -11   -0.73    0.60
  -5  -2 -11    1.03    0.56
  -5  -2 -11   -0.08    0.40
  -5  -2 -11    1.32    0.69
  -5   3  16    0.61    0.48
  -5   3  16   -0.40    0.64
  -5   3  16    1.72    0.46
  -5  -3  16    1.63    0.53
  -5  -3  16    1.44    0.58
  -5   3 -11   -0.50    0.41
  -5   3 -11    0.05    0.33
  -5  -3 -11   -0.17    0.48
  -5  -3 -11    0.10    0.60
  -5   4  16    0.48    0.53
  -5   4  16   -1.11    0.43
  -5  -4  16   -0.95    0.68
  -5  -4  16    0.26    0.62
  -5   4 -11    2.47    0.45
  -5   4 -11    2.29    0.37
  -5  -4 -11    2.86    0.62
  -5  -4 -11    4.19    0.69
  -5   5  16   11.56    1.18
  -5  -5  16    7.30    0.83
  -5  -5  16    7.31    0.95
  -5   5 -11    1.23    0.43
  -5   5 -11    0.86    0.37
  -5  -5 -11    0.62    0.69
  -5  -5 -11    1.55    0.76
  -5   6  16    5.07    0.89
  -5  -6  16    2.86    0.89
  -5  -6  16    3.60    0.81
  -5   6 -11   -0.46    0.46
  -5  -6 -11    1.16    0.80
  -5  -6 -11    0.67    0.87
   5   0 -17   -0.78    0.64
  -5   0  17   -0.46    0.56
  -5   0  17    0.05    0.50
  -5   0 -12    9.25    1.03
  -5   0 -12   11.54    0.82
  -5   0 -12   15.32    1.27
   5  -1 -17    0.92    0.63
  -5   1  17    0.48    0.55
  -5   1  17    0.11    0.59
  -5  -1  17   -0.72    0.51
  -5  -1  17   -0.07    0.52
  -5   1 -12   -0.29    0.51
  -5   1 -12    0.41    0.40
  -5   1 -12   -0.36    0.58
  -5  -1 -12    0.17    0.60
  -5  -1 -12    1.33    0.48
  -5  -1 -12    1.07    0.73
   5  -2 -17    0.17    0.70
  -5   2  17    2.77    0.56
  -5   2  17    0.80    0.53
  -5  -2  17    1.90    0.63
  -5  -2  17    0.60    0.56
  -5   2 -12    1.15    0.53
  -5   2 -12    0.89    0.36
  -5   2 -12    1.63    0.74
  -5  -2 -12    1.48    0.45
  -5  -2 -12   -1.15    0.64
  -5   3  17   11.47    1.11
  -5   3  17   11.76    0.83
  -5  -3  17   11.23    1.15
  -5  -3  17   11.95    1.05
  -5   3 -12    1.12    0.49
  -5   3 -12    1.99    0.40
  -5  -3 -12    1.83    0.58
  -5  -3 -12    0.56    0.68
  -5   4  17   -0.11    0.57
  -5  -4  17    1.61    0.75
  -5  -4  17    1.32    0.70
  -5   4 -12   -0.37    0.48
  -5   4 -12    0.21    0.39
  -5  -4 -12    0.14    0.63
  -5  -4 -12    0.74    0.67
  -5   5  17   23.18    1.38
  -5  -5  17   17.05    1.42
  -5  -5  17   17.51    1.38
  -5   5 -12    0.91    0.54
  -5   5 -12    0.80    0.43
  -5  -5 -12   -0.05    0.74
  -5  -5 -12   -0.57    0.84
   5   0 -18   32.65    1.31
  -5   0  18   35.61    1.42
  -5   0  18   37.58    1.23
  -5   0 -13    0.75    0.62
  -5   0 -13   -0.81    0.42
  -5   0 -13    1.07    0.68
   5  -1 -18    0.19    0.71
  -5   1  18    0.51    0.56
  -5   1  18    1.41    0.98
  -5  -1  18   -0.44    0.58
  -5  -1  18    1.05    0.61
  -5   1 -13    0.29    0.59
  -5   1 -13    0.47    0.65
  -5  -1 -13   -0.31    0.44
  -5  -1 -13    1.45    0.71
  -5   2  18   24.89    1.22
  -5   2  18   19.75    1.34
  -5  -2  18   20.08    1.24
  -5  -2  18   26.84    1.25
  -5   2 -13    0.34    0.56
  -5   2 -13    0.30    0.39
  -5   2 -13    0.70    0.72
  -5  -2 -13    1.44    0.50
  -5  -2 -13    0.11    0.80
  -5   3  18    1.10    0.62
  -5   3  18    1.72    0.52
  -5  -3  18   -1.09    0.65
  -5  -3  18    1.78    0.70
  -5   3 -13   -0.30    0.53
  -5   3 -13    0.90    0.44
  -5  -3 -13   -0.03    0.82
  -5   4  18    1.25    0.59
  -5  -4  18   -1.12    0.68
  -5  -4  18    0.62    0.74
  -5   4 -13   -0.28    0.53
  -5   4 -13    1.19    0.46
  -5  -4 -13    0.10    0.65
  -5  -4 -13    0.84    0.77
  -5  -5  18    4.19    0.90
  -5   5 -13    0.11    0.50
  -5  -5 -13    1.05    0.77
  -5  -5 -13    0.37    0.84
  -5   0  19    0.58    0.71
  -5   0  19    1.64    0.65
  -5   0 -14   -1.40    0.47
  -5   0 -14    1.59    0.74
  -5   1  19   10.99    1.19
  -5   1  19   10.42    0.98
  -5  -1  19    9.89    0.89
  -5  -1  19   13.35    1.13
  -5   1 -14   -0.09    0.45
  -5   1 -14   -0.81    0.68
  -5  -1 -14    0.28    0.51
  -5  -1 -14   -0.61    0.75
  -5   2  19    1.53    0.69
  -5   2  19    2.32    0.60
  -5  -2  19    0.14    0.69
  -5  -2  19    0.21    0.63
  -5   2 -14    1.74    0.47
  -5   2 -14   -0.03    0.80
  -5  -2 -14    0.58    0.53
  -5  -2 -14   -0.50    0.81
  -5   3  19   23.44    1.34
  -5  -3  19   25.72    1.45
  -5  -3  19   22.50    1.34
  -5   3 -14   -0.46    0.47
  -5  -3 -14   -0.62    0.57
  -5  -3 -14    0.59    0.83
  -5   4  19   -0.50    0.94
  -5  -4  19   -0.48    0.79
  -5   4 -14   -0.74    0.60
  -5  -4 -14    0.48    0.71
  -5  -4 -14    1.24    0.77
  -5   0  20   25.95    1.28
  -5   0 -15    0.04    0.54
  -5   0 -15    3.09    0.83
  -5   1  20   -0.61    0.66
  -5   1  20   -0.73    0.61
  -5  -1  20   -0.76    0.72
  -5  -1  20   -0.12    0.68
  -5   1 -15    0.98    0.49
  -5   1 -15   -0.70    0.78
  -5  -1 -15    0.28    0.57
  -5  -1 -15   -1.33    0.86
  -5   2  20    0.83    0.72
  -5   2  20    1.98    0.68
  -5  -2  20   -0.79    0.75
  -5  -2  20    0.95    0.78
  -5   2 -15    0.25    0.54
  -5   2 -15   -0.55    0.89
  -5  -2 -15    0.48    0.61
  -5  -2 -15   -1.01    0.85
  -5   3  20    5.60    0.90
  -5  -3  20    6.46    0.96
  -5  -3 -15    0.92    0.86
  -5   0  21    1.74    0.85
  -5   0 -16    2.77    0.95
  -5   1  21    4.57    0.80
  -5  -1  21    1.62    0.84
  -6   0   3   -0.77    0.32
  -6   0   3   -0.38    0.28
  -6   0   3   -0.41    0.61
  -6   1   3   19.08    0.65
  -6   1   3   14.76    0.63
  -6   1   3   18.96    1.37
  -6  -1   3   16.33    0.83
  -6  -1   3   18.75    0.71
  -6  -1   3   16.37    1.26
  -6   2   3   12.28    1.27
  -6  -2   3    9.60    0.85
  -6  -2   3   12.05    0.73
  -6  -2   3   10.48    0.94
  -6   3   3    1.97    0.66
  -6  -3   3    0.01    0.48
  -6  -3   3    1.99    0.47
  -6  -3   3    1.29    0.68
  -6   4   3    1.26    0.62
  -6  -4   3    1.67    0.50
  -6  -4   3    1.72    0.75
  -6   5   3    1.99    0.70
  -6   5   3   -0.14    0.83
  -6  -5   3    0.38    0.57
  -6  -5   3   -1.28    0.69
  -6   6   3    4.67    0.77
  -6  -6   3    2.95    0.71
  -6  -6   3   -0.29    0.81
  -6   0   4   19.87    0.76
  -6   0   4   17.57    0.69
  -6   0   4   21.24    1.29
  -6   0   2    1.89    0.37
  -6   0   2    0.32    0.30
  -6   0   2    0.22    0.64
  -6   1   4    3.03    0.36
  -6   1   4    3.24    0.38
  -6   1   4    4.73    0.77
  -6  -1   4    2.54    0.43
  -6  -1   4    3.04    0.36
  -6  -1   4    3.46    0.68
  -6   1   2   11.57    0.57
  -6   1   2    8.17    0.55
  -6   1   2   10.36    1.25
  -6  -1   2    7.90    0.71
  -6  -1   2    9.57    0.64
  -6  -1   2   10.57    0.96
  -6   2   4    4.66    0.70
  -6  -2   4    4.14    0.53
  -6  -2   4    4.14    0.46
  -6  -2   4    4.46    0.73
  -6   2   2    0.48    0.66
  -6  -2   2   -0.17    0.44
  -6  -2   2    0.75    0.38
  -6  -2   2   -0.56    0.63
   6   3  -2    0.35    0.37
   6   3  -4    5.59    0.68
  -6   3   4   12.39    1.18
  -6   3   4   14.69    1.12
  -6  -3   4    7.97    0.94
  -6  -3   4    9.23    0.77
  -6  -3   4    8.52    0.87
  -6   3   2    3.13    0.70
  -6  -3   2   -0.58    0.48
  -6  -3   2    0.90    0.45
  -6  -3   2    0.83    0.62
   6   4  -2   -0.39    0.72
  -6   4   4    1.89    0.70
  -6   4   4    1.47    0.72
  -6  -4   4    2.18    0.57
  -6  -4   4    1.28    0.71
  -6   4   2    2.08    0.58
  -6  -4   2   -0.33    0.49
  -6  -4   2    1.48    0.75
  -6   5   4    2.08    0.70
  -6   5   4    2.77    0.76
  -6  -5   4    1.04    0.55
  -6  -5   4    1.68    0.73
  -6   5   2    1.85    0.62
  -6  -5   2    0.53    0.52
  -6  -5   2    0.38    0.75
  -6   6   4    3.14    0.73
  -6  -6   4    1.66    0.63
  -6  -6   4    1.19    0.76
  -6   6   2    2.54    0.65
  -6  -6   2    2.44    0.64
  -6   0   5   -0.15    0.38
  -6   0   5    0.07    0.35
  -6   0   5   -0.22    0.54
  -6   0   1   -0.33    0.33
  -6   0   1    0.29    0.30
  -6   0   1    0.37    0.65
  -6   1   5    1.23    0.34
  -6   1   5    1.05    0.38
  -6   1   5    0.53    0.59
  -6  -1   5    0.53    0.43
  -6  -1   5    1.78    0.36
  -6  -1   5    0.53    0.57
  -6   1   1    0.15    0.60
  -6  -1   1    1.10    0.40
  -6  -1   1    0.05    0.33
  -6  -1   1   -0.74    0.65
  -6   2   5    8.81    0.60
  -6   2   5    7.75    0.57
  -6   2   5   11.32    1.21
  -6   2   5    9.35    0.92
  -6  -2   5   11.30    0.86
  -6  -2   5   10.01    0.71
  -6  -2   5   11.13    1.11
  -6   2   1   11.25    1.12
  -6  -2   1   11.09    0.86
  -6  -2   1    5.49    0.51
  -6  -2   1   11.16    1.32
   6   3  -5    3.61    0.48
  -6   3   5    7.98    0.83
  -6   3   5    7.20    0.86
  -6  -3   5    5.73    0.62
  -6  -3   5    7.56    0.76
  -6  -3   5    6.25    0.80
  -6   3   1    9.04    1.06
  -6  -3   1    9.71    0.94
  -6  -3   1    7.04    0.80
  -6  -3   1    6.86    0.83
   6   4  -1    0.45    0.70
  -6   4   5    2.66    0.77
  -6  -4   5    0.20    0.46
  -6  -4   5   -1.42    0.60
  -6   4   1    1.56    0.61
  -6  -4   1   -0.23    0.46
  -6  -4   1    1.14    0.75
  -6   5   5   -1.04    0.65
  -6   5   5   -2.15    0.79
  -6  -5   5    0.22    0.56
  -6  -5   5    1.06    0.72
  -6   5   1    0.57    0.58
  -6  -5   1    0.24    0.58
  -6  -5   1    0.15    0.75
  -6   6   5   -0.88    1.23
  -6  -6   5   -0.12    0.56
  -6  -6   5    2.25    0.79
  -6   6   1   -0.66    0.64
  -6  -6   1   -0.16    0.67
  -6  -6   1    1.00    0.85
  -6   0   6    7.94    0.71
  -6   0   6    7.64    0.68
  -6   0   6    8.38    0.80
  -6   0   0    1.26    0.35
  -6   0   0    1.38    0.35
  -6   0   0    1.69    0.68
  -6   1   6    1.69    0.38
  -6   1   6    1.26    0.40
  -6   1   6    2.60    0.58
  -6  -1   6    0.78    0.40
  -6  -1   6    1.18    0.38
  -6  -1   6    1.14    0.57
  -6   1   0   10.69    1.11
  -6  -1   0    7.90    0.75
  -6  -1   0    4.23    0.44
  -6  -1   0    5.96    0.82
  -6   2   6    1.61    0.35
  -6   2   6    1.05    0.35
  -6   2   6    0.59    0.56
  -6   2   6   -0.61    0.73
  -6  -2   6    2.16    0.50
  -6  -2   6    0.73    0.39
  -6  -2   6    1.02    0.61
  -6   2   0    2.88    0.63
  -6  -2   0    3.48    0.54
  -6  -2   0    2.47    0.43
  -6  -2   0    1.36    0.70
   6   3  -6   -0.26    0.44
  -6   3   6    0.33    0.58
  -6  -3   6    0.25    0.54
  -6  -3   6    0.46    0.39
  -6   3   0    0.94    0.56
  -6  -3   0   -0.60    0.52
  -6  -3   0   -0.33    0.40
  -6  -3   0    1.57    0.72
   6   4   0    0.45    0.70
  -6   4   6    0.77    0.62
  -6   4   6    2.09    0.77
  -6  -4   6   -0.04    0.42
  -6  -4   6   -0.30    0.68
  -6   4   0   -0.47    0.57
  -6  -4   0    0.01    0.47
  -6  -4   0   -0.69    0.66
  -6  -5   6    1.65    0.51
  -6  -5   6    1.34    0.72
  -6   5   0    0.73    0.61
  -6  -5   0   -0.83    0.51
  -6  -5   0    0.28    0.75
  -6   6   6    0.00    0.69
  -6  -6   6    0.09    0.65
  -6  -6   6    0.84    0.77
  -6   6   0   -1.14    0.64
  -6  -6   0    0.31    0.64
  -6  -6   0    1.53    0.81
  -6   0   7    0.41    0.38
  -6   0   7    0.16    0.38
  -6   0   7   -0.19    0.54
  -6   0  -1    0.98    0.34
  -6   0  -1   -0.83    0.30
  -6   0  -1    2.68    0.68
  -6   1   7    1.37    0.41
  -6   1   7    0.17    0.40
  -6   1   7    0.92    0.57
  -6  -1   7    1.24    0.45
  -6  -1   7    0.78    0.41
  -6  -1   7    0.36    0.57
  -6   1  -1    0.82    0.57
  -6  -1  -1    0.71    0.36
  -6  -1  -1   -0.93    0.36
  -6  -1  -1    1.59    0.71
   6   2  -7    0.47    0.39
  -6   2   7   -0.08    0.39
  -6   2   7   -0.15    0.52
  -6   2   7    0.06    0.68
  -6  -2   7   -0.01    0.46
  -6  -2   7   -0.50    0.36
  -6  -2   7   -1.06    0.54
  -6   2  -1    1.98    0.59
  -6  -2  -1    1.64    0.48
  -6  -2  -1   -0.04    0.38
  -6  -2  -1    2.17    0.73
   6   3  -7   11.04    0.81
  -6   3   7   13.82    0.62
  -6   3   7   16.91    1.07
  -6   3   7   16.87    1.21
  -6  -3   7   16.53    1.09
  -6  -3   7   13.46    0.82
  -6  -3   7   12.38    1.11
  -6   3  -1    0.05    0.55
  -6  -3  -1   -0.66    0.51
  -6  -3  -1   -0.32    0.41
  -6  -3  -1    0.01    0.75
  -6   4   7    1.91    0.62
  -6   4   7   -0.55    0.72
  -6  -4   7    0.13    0.43
  -6  -4   7    2.05    0.71
  -6   4  -1    1.74    0.64
  -6  -4  -1    1.58    0.52
  -6  -4  -1    2.49    0.80
  -6   5   7    1.70    0.63
  -6  -5   7    0.97    0.51
  -6  -5   7    1.77    0.70
  -6   5  -1    1.97    0.67
  -6  -5  -1    0.71    0.55
  -6  -5  -1    1.65    0.83
  -6   6   7    0.88    0.68
  -6  -6   7    0.44    0.62
  -6  -6   7    0.33    0.77
  -6   6  -1    0.69    0.70
  -6  -6  -1   -0.81    0.65
  -6  -6  -1    3.50    0.88
  -6   0   8    0.81    0.44
  -6   0   8    0.46    0.44
  -6   0   8    0.26    0.50
  -6   0  -2    5.69    0.65
  -6   0  -2    2.70    0.39
  -6   0  -2    5.75    0.82
  -6   1   8    0.74    0.42
  -6   1   8    1.13    0.58
  -6  -1   8    1.26    0.47
  -6  -1   8    0.51    0.43
  -6  -1   8    1.76    0.56
  -6   1  -2    1.42    0.63
  -6  -1  -2    1.10    0.43
  -6  -1  -2   -0.24    0.35
  -6  -1  -2    1.25    0.65
   6   2  -8    1.25    0.41
  -6   2   8   -0.06    0.42
  -6   2   8    0.91    0.37
  -6   2   8    0.89    0.57
  -6  -2   8    0.48    0.50
  -6  -2   8   -0.23    0.43
  -6  -2   8   -0.46    0.54
  -6   2  -2    0.81    0.55
  -6  -2  -2    0.92    0.48
  -6  -2  -2    0.56    0.41
  -6  -2  -2    1.39    0.72
   6   3  -8   -1.46    0.69
  -6   3   8   -0.25    0.34
  -6   3   8    0.85    0.34
  -6   3   8   -0.15    0.60
  -6   3   8    0.08    0.73
  -6  -3   8   -0.88    0.43
  -6  -3   8    0.57    0.64
  -6   3  -2    2.31    0.65
  -6  -3  -2    3.16    0.55
  -6  -3  -2    2.12    0.50
  -6  -3  -2    2.10    0.81
  -6   4   8    1.23    0.71
  -6  -4   8    1.68    0.46
  -6  -4   8    3.59    0.69
  -6   4  -2   -0.29    0.63
  -6  -4  -2   -1.32    0.46
  -6  -4  -2    0.23    0.79
  -6   5   8    0.10    0.60
  -6  -5   8    0.18    0.47
  -6  -5   8   -1.14    0.70
  -6   5  -2    0.52    0.64
  -6  -5  -2    1.02    0.58
  -6  -5  -2   -1.12    0.73
  -6  -6   8    2.24    0.72
  -6  -6   8    1.90    0.80
  -6   6  -2    0.78    0.72
  -6  -6  -2    0.14    0.66
  -6  -6  -2    2.41    0.98
  -6   0   9    0.55    0.42
  -6   0   9   -0.73    0.42
  -6   0  -3   -0.35    0.36
  -6   0  -3   -0.13    0.32
  -6   0  -3    1.36    0.65
  -6   1   9    5.17    0.53
  -6   1   9    7.36    0.76
  -6   1   9    6.44    0.65
  -6  -1   9    5.18    0.60
  -6  -1   9    7.18    0.82
  -6  -1   9    7.60    0.95
  -6   1  -3    2.04    0.67
  -6  -1  -3    1.58    0.48
  -6  -1  -3   -0.54    0.36
  -6  -1  -3    1.84    0.65
   6   2  -9    1.85    0.45
  -6   2   9    0.92    0.42
  -6   2   9    2.09    0.42
  -6   2   9   -0.20    0.53
  -6  -2   9    1.68    0.53
  -6  -2   9    0.51    0.43
  -6  -2   9    1.40    0.59
  -6   2  -3   -0.74    0.58
  -6  -2  -3    1.23    0.48
  -6  -2  -3    1.31    0.44
  -6  -2  -3    1.47    0.77
  -6   3   9    4.10    0.43
  -6   3   9    5.79    0.47
  -6   3   9    4.86    0.66
  -6   3   9    7.75    0.86
  -6  -3   9    4.45    0.57
  -6  -3   9    8.45    1.04
  -6   3  -3    1.12    0.66
  -6  -3  -3    2.53    0.62
  -6  -3  -3    1.42    0.51
  -6  -3  -3    3.44    0.82
  -6   4   9    0.13    0.39
  -6  -4   9   -0.74    0.53
  -6  -4   9   -0.90    0.64
  -6   4  -3    2.46    0.67
  -6  -4  -3    0.76    0.53
  -6  -4  -3    0.13    0.76
  -6   5   9    8.08    0.68
  -6   5   9    8.28    0.72
  -6  -5   9    5.09    0.69
  -6  -5   9    5.61    0.84
  -6   5  -3   -1.16    0.60
  -6  -5  -3    0.37    0.56
  -6  -5  -3   -1.16    0.78
  -6  -6   9    0.59    0.58
  -6   6  -3    0.34    0.74
  -6   0  10    2.38    0.47
  -6   0  10    4.36    0.56
  -6   0  10    4.57    0.61
  -6   0  -4    3.55    0.46
  -6   0  -4    2.58    0.42
  -6   0  -4    3.25    0.66
   6   1 -10   -0.86    0.38
  -6   1  10   -1.09    0.41
  -6   1  10    0.12    0.46
  -6   1  10   -0.29    0.53
  -6  -1  10   -0.13    0.41
  -6  -1  10    0.53    0.57
  -6   1  -4   -0.06    0.61
  -6  -1  -4    1.47    0.51
  -6  -1  -4    0.78    0.41
  -6  -1  -4   -0.35    0.67
   6   2 -10    1.96    0.51
  -6   2  10    1.54    0.46
  -6   2  10    1.30    0.43
  -6   2  10    3.74    0.61
  -6  -2  10    1.49    0.55
  -6  -2  10    2.01    0.63
  -6   2  -4   -0.59    0.59
  -6  -2  -4    0.78    0.55
  -6  -2  -4    0.77    0.46
  -6  -2  -4    1.65    0.73
  -6   3  10   -0.52    0.40
  -6   3  10    0.36    0.44
  -6   3  10    1.61    0.59
  -6   3  10   -2.20    0.78
  -6  -3  10    0.11    0.48
  -6  -3  10   -0.57    0.57
  -6   3  -4    2.38    0.68
  -6  -3  -4    0.86    0.48
  -6  -3  -4    0.66    0.77
  -6   4  10    1.13    0.46
  -6   4  10   -1.20    0.41
  -6   4  10    0.61    0.58
  -6  -4  10    0.34    0.51
  -6  -4  10    1.02    0.70
  -6   4  -4    0.12    0.64
  -6  -4  -4    1.03    0.52
  -6  -4  -4   -2.10    0.80
  -6   5  10    0.59    0.42
  -6   5  10    1.17    0.45
  -6   5  10    0.95    0.58
  -6  -5  10    0.77    0.60
  -6  -5  10   -0.82    0.73
  -6   5  -4    0.02    0.70
  -6  -5  -4    2.28    0.67
  -6  -5  -4   -0.83    0.78
  -6   0  11    0.17    0.46
  -6   0  11    1.14    0.53
  -6   0  11   -0.70    0.57
  -6   0  -5    0.81    0.47
  -6   0  -5    0.17    0.39
  -6   0  -5   -0.34    0.61
   6   1 -11    1.99    0.46
  -6   1  11    2.71    0.48
  -6   1  11    4.56    0.56
  -6   1  11    3.51    0.61
  -6  -1  11    3.33    0.55
  -6  -1  11    2.78    0.69
  -6  -1  11    5.29    0.70
  -6   1  -5    0.38    0.38
  -6   1  -5    0.50    0.64
  -6  -1  -5   -0.30    0.51
  -6  -1  -5    0.76    0.43
  -6  -1  -5    1.50    0.69
  -6   2  11    0.96    0.49
  -6   2  11   -0.84    0.48
  -6   2  11    2.67    0.56
  -6  -2  11   -0.51    0.46
  -6  -2  11    0.30    0.62
  -6   2  -5   -0.45    0.60
  -6  -2  -5    1.63    0.58
  -6  -2  -5    0.17    0.45
  -6  -2  -5    2.13    0.72
  -6   3  11   12.84    0.88
  -6   3  11    6.39    1.04
  -6   3  11    8.13    1.16
  -6  -3  11    8.31    0.72
  -6  -3  11   13.39    1.19
  -6   3  -5    0.46    0.68
  -6  -3  -5    0.16    0.49
  -6  -3  -5    0.42    0.84
  -6   4  11   10.70    0.97
  -6   4  11    9.55    0.86
  -6   4  11    9.23    0.78
  -6  -4  11    7.03    0.72
  -6  -4  11    8.60    0.92
  -6   4  -5   -1.07    0.65
  -6  -4  -5   -1.17    0.56
  -6  -4  -5    3.42    0.90
  -6   5  11    3.23    0.54
  -6   5  11    1.82    0.73
  -6  -5  11    1.48    0.61
  -6  -5  11    0.36    0.76
  -6   5  -5    1.79    0.78
  -6  -5  -5   -0.26    0.61
  -6  -5  -5    5.04    1.08
  -6   0  12    2.08    0.51
  -6   0  12    2.07    0.63
  -6   0  -6    0.98    0.45
  -6   0  -6    1.87    0.42
  -6   0  -6    1.39    0.70
  -6   1  12    0.42    0.45
  -6   1  12   -0.14    0.50
  -6   1  12   -0.58    0.59
  -6  -1  12   -0.06    0.52
  -6  -1  12    1.29    0.61
  -6   1  -6    0.29    0.40
  -6   1  -6   -0.10    0.36
  -6   1  -6    1.27    0.74
  -6  -1  -6    0.05    0.51
  -6  -1  -6    1.13    0.46
  -6  -1  -6   -0.49    0.67
  -6   2  12    2.16    0.49
  -6   2  12    2.71    0.54
  -6   2  12    2.79    0.66
  -6  -2  12    0.22    0.51
  -6  -2  12    1.69    0.61
  -6   2  -6    0.95    0.70
  -6  -2  -6   -1.43    0.55
  -6  -2  -6    0.17    0.47
  -6  -2  -6   -0.08    0.75
  -6   3  12    0.99    0.49
  -6   3  12   -0.18    0.50
  -6  -3  12    2.18    0.62
  -6  -3  12    1.63    0.77
  -6   3  -6   -0.84    0.67
  -6  -3  -6    0.99    0.53
  -6  -3  -6    0.00    0.71
  -6   4  12    2.83    0.56
  -6   4  12    4.00    0.74
  -6   4  12    3.43    0.64
  -6  -4  12    1.00    0.68
  -6  -4  12    1.64    0.77
  -6   4  -6    0.86    0.80
  -6  -4  -6    1.46    0.57
  -6  -4  -6    1.33    0.91
  -6   5  12    0.03    0.71
  -6  -5  12    0.37    0.73
  -6   5  -6   -0.96    0.80
  -6  -5  -6    1.06    0.97
   6   0 -13    0.21    0.47
  -6   0  13   -1.29    0.51
  -6   0  13   -0.10    0.64
  -6   0  -7   -0.13    0.49
  -6   0  -7    0.17    0.41
  -6   0  -7    0.19    0.69
  -6   1  13    1.22    0.55
  -6   1  13    0.52    0.63
  -6  -1  13    0.65    0.56
  -6  -1  13    0.09    0.61
  -6   1  -7   -0.60    0.46
  -6   1  -7    0.11    0.40
  -6   1  -7    0.80    0.66
  -6  -1  -7    0.20    0.58
  -6  -1  -7   -0.19    0.45
  -6  -1  -7    0.70    0.70
  -6   2  13    0.74    0.54
  -6   2  13    1.02    0.63
  -6  -2  13   -0.34    0.60
  -6  -2  13    0.96    0.65
  -6   2  -7    0.14    0.76
  -6  -2  -7    0.40    0.50
  -6  -2  -7    0.73    0.76
  -6   3  13    1.96    0.52
  -6  -3  13    1.57    0.61
  -6  -3  13    2.11    0.75
  -6   3  -7   -0.46    0.73
  -6  -3  -7    0.22    0.54
  -6  -3  -7    2.66    0.86
  -6   4  13    1.42    0.55
  -6  -4  13    1.49    0.72
  -6  -4  13    2.09    0.88
  -6   4  -7    0.60    0.75
  -6  -4  -7    0.18    0.62
  -6  -4  -7    1.30    0.90
  -6   0  14    0.68    0.60
  -6   0  14    1.27    0.61
  -6   0  -8    0.86    0.57
  -6   0  -8   -0.73    0.46
  -6   0  -8   -1.08    0.79
  -6   1  14    5.27    0.70
  -6   1  14    6.23    0.74
  -6  -1  14    4.81    0.68
  -6  -1  14    9.37    1.10
  -6   1  -8    1.23    0.49
  -6   1  -8   -0.78    0.42
  -6   1  -8    1.37    0.76
  -6  -1  -8   -0.26    0.75
  -6   2  14    3.20    0.62
  -6   2  14    6.32    0.77
  -6  -2  14    3.84    0.71
  -6  -2  14    5.88    0.86
  -6   2  -8   -0.77    0.70
  -6  -2  -8    2.73    0.61
  -6  -2  -8    1.16    0.78
  -6   3  14    2.14    0.58
  -6  -3  14    0.16    0.74
  -6  -3  14    2.93    0.76
  -6   3  -8    2.08    0.87
  -6  -3  -8    0.71    0.61
  -6  -3  -8    2.06    0.79
  -6  -4  14    0.30    0.73
  -6   0  15   -0.95    0.57
  -6   0  15    1.16    0.72
  -6   0  -9    0.00    0.73
  -6   0  -9   -0.32    0.48
  -6   0  -9    1.86    0.82
  -6   1  15    1.98    0.67
  -6   1  15    1.83    0.77
  -6  -1  15    0.22    0.70
  -6  -1  15    0.49    0.74
  -6   1  -9    0.56    0.57
  -6   1  -9   -0.46    0.45
  -6   1  -9   -1.09    0.80
  -6  -1  -9   -0.91    0.53
  -6  -1  -9   -1.12    0.80
  -6   2  15    1.44    0.66
  -6   2  15    5.54    0.77
  -6  -2  15    3.56    0.74
  -6  -2  15    5.55    0.87
  -6   2  -9    0.19    0.53
  -6   2  -9    0.81    0.42
  -6   2  -9    0.33    0.85
  -6  -2  -9   -0.04    0.60
  -6  -2  -9    0.18    0.76
  -6  -3  15    2.38    0.81
  -6   3  -9    0.85    0.86
  -6  -3  -9    2.56    0.97
  -6   0  16   36.77    1.81
  -6   0  16   35.30    1.48
  -6   0 -10    1.65    0.59
  -6   0 -10    4.46    0.96
  -6   1  16    5.74    0.86
  -6  -1  16    2.86    0.77
  -6  -1  16    7.01    0.89
  -6   1 -10    0.36    0.48
  -6   1 -10   -0.04    0.96
  -6  -1 -10    1.98    0.92
  -6  -2  16    1.51    0.95
  -6   2 -10   -1.35    0.54
  -7   0   4    1.11    0.83
  -7   0   3    0.64    0.57
   0   0   0    0.00    0.00
;
_shelx_hkl_checksum              12866
_shelx_res_file
;
TITL shelxt_d.res in P2(1)/c
CELL 0.71073   5.23200   9.97270  19.98996  90.0000  97.5196  90.0000
ZERR    4.00   0.00040   0.00090   0.00181   0.0000   0.0018   0.0000
LATT  1
SYMM -X, 0.5+Y, 0.5-Z
SFAC C H N O S
UNIT 36 44 12 4 4
TEMP -273.150
SIZE 0.24 0.30 0.50
L.S. 20
BOND $H
FMAP 2 1 60
PLAN 20
DFIX 0.87 0.01 N2 H2A
DFIX 0.87 0.01 N1 H1B
DFIX 0.82 0.01 O1 H1A
ACTA
CONF
WGHT    0.050800    0.506800
EXTI    0.022224
FVAR       0.42332
S1    5    0.181382    0.814971    0.466536    11.00000    0.07956    0.05907 =
         0.04440    0.00178    0.03437   -0.00173
N1    3    0.098932    0.657382    0.569945    11.00000    0.05346    0.04800 =
         0.04914    0.00269    0.02590   -0.00018
N2    3   -0.148092    0.844937    0.553811    11.00000    0.05755    0.05224 =
         0.03941    0.00464    0.02181    0.00354
N3    3   -0.256917    0.818875    0.612217    11.00000    0.04804    0.05083 =
         0.03729   -0.00119    0.01667   -0.00347
O1    4   -0.936444    0.916601    0.854512    11.00000    0.08694    0.07759 =
         0.05519    0.00378    0.04022    0.02148
C1    1   -0.500352    0.807547    0.735406    11.00000    0.06457    0.05347 =
         0.05299    0.00787    0.02697    0.01847
AFIX  43
H1C   2   -0.369889    0.742649    0.731857    11.00000   -1.20000
AFIX   0
C2    1   -0.624245    0.810453    0.792669    11.00000    0.07103    0.05838 =
         0.04856    0.01250    0.02542    0.01846
AFIX  43
H2B   2   -0.578879    0.747634    0.827954    11.00000   -1.20000
AFIX   0
C3    1   -0.813850    0.904890    0.798334    11.00000    0.05244    0.05279 =
         0.04391   -0.00579    0.01950   -0.00005
C4    1   -0.882730    0.994147    0.746808    11.00000    0.04729    0.05128 =
         0.05370   -0.00351    0.01590    0.00878
AFIX  43
H4A   2   -1.015189    1.057946    0.750278    11.00000   -1.20000
AFIX   0
C5    1   -0.758494    0.990840    0.689794    11.00000    0.04545    0.04785 =
         0.04518    0.00172    0.00908    0.00268
AFIX  43
H5A   2   -0.806552    1.053065    0.654394    11.00000   -1.20000
AFIX   0
C6    1   -0.564444    0.898028    0.683368    11.00000    0.04185    0.04297 =
         0.04073   -0.00432    0.01239   -0.00375
C7    1   -0.432379    0.902268    0.623297    11.00000    0.04676    0.04718 =
         0.03884    0.00005    0.01259   -0.00281
AFIX  43
H7A   2   -0.479297    0.970466    0.590824    11.00000   -1.20000
AFIX   0
C8    1    0.038626    0.766423    0.534773    11.00000    0.04781    0.04630 =
         0.03560   -0.00482    0.01405   -0.00779
C9    1    0.302767    0.564949    0.557721    11.00000    0.05945    0.05241 =
         0.08113    0.00350    0.03165    0.00423
AFIX  33
H9A   2    0.311345    0.491339    0.590417    11.00000   -1.50000
H9B   2    0.468058    0.612523    0.562610    11.00000   -1.50000
H9C   2    0.266255    0.528698    0.511900    11.00000   -1.50000
AFIX   0
H1B   2    0.011500    0.643470    0.602727    11.00000    0.05870
H2A   2   -0.175489    0.922568    0.534616    11.00000    0.06850
H1A   2   -0.893686    0.853799    0.880256    11.00000    0.10039
HKLF 4
REM  d in P2(1)/c
REM R1 =  0.0480 for    1977 Fo > 4sig(Fo)  and  0.0680 for all    2572 data
REM    140 parameters refined using      3 restraints
END
WGHT      0.0508      0.5068
REM Highest difference peak  0.257,  deepest hole -0.315,  1-sigma level  0.046
Q1    1   0.4088  0.5602  0.6016  11.00000  0.05    0.26
Q2    1  -0.4854  0.8886  0.6580  11.00000  0.05    0.25
Q3    1   0.2212  0.4768  0.5436  11.00000  0.05    0.24
Q4    1   0.4206  0.5999  0.5343  11.00000  0.05    0.24
Q5    1   0.0143  0.7964  0.4603  11.00000  0.05    0.23
Q6    1  -0.5765  0.8203  0.7609  11.00000  0.05    0.22
Q7    1  -0.6134  0.9572  0.6976  11.00000  0.05    0.21
Q8    1   0.1075  0.7910  0.5030  11.00000  0.05    0.19
Q9    1  -0.8354  0.9640  0.7174  11.00000  0.05    0.19
Q10   1  -0.4997  0.9138  0.6967  11.00000  0.05    0.18
Q11   1  -0.5769  0.8466  0.7015  11.00000  0.05    0.17
Q12   1  -0.2221  0.8209  0.5815  11.00000  0.05    0.17
Q13   1  -0.7933  0.9723  0.7776  11.00000  0.05    0.15
Q14   1   0.3038  0.7516  0.4726  11.00000  0.05    0.15
Q15   1  -0.7564  0.8385  0.7930  11.00000  0.05    0.15
Q16   1  -0.4699  0.8766  0.7179  11.00000  0.05    0.15
Q17   1  -0.4615  0.8140  0.8589  11.00000  0.05    0.15
Q18   1  -0.4313  0.8196  0.7421  11.00000  0.05    0.14
Q19   1  -0.2659  0.7451  0.6215  11.00000  0.05    0.14
Q20   1  -0.8262  0.9175  0.8165  11.00000  0.05    0.13
;
_shelx_res_checksum              22396
loop_
_space_group_symop_operation_xyz
'x, y, z'
'-x, y+1/2, -z+1/2'
'-x, -y, -z'
'x, -y-1/2, z-1/2'
loop_
_atom_site_type_symbol
_atom_site_label
_atom_site_fract_x
_atom_site_fract_y
_atom_site_fract_z
_atom_site_U_iso_or_equiv
_atom_site_adp_type
_atom_site_calc_flag
_atom_site_occupancy
S S1 0.18138(12) 0.81497(6) 0.46654(3) 0.0587(2) Uani d 1
N N1 0.0989(3) 0.65738(17) 0.56994(9) 0.0485(4) Uani d 1
N N2 -0.1481(3) 0.84494(18) 0.55381(8) 0.0484(4) Uani d 1
N N3 -0.2569(3) 0.81887(16) 0.61222(8) 0.0444(4) Uani d 1
O O1 -0.9364(4) 0.91660(19) 0.85451(9) 0.0705(5) Uani d 1
C C1 -0.5004(5) 0.8075(2) 0.73541(11) 0.0553(6) Uani d 1
H H1C -0.3699 0.7426 0.7319 0.066 Uiso calc 1
C C2 -0.6242(4) 0.8105(2) 0.79267(11) 0.0578(6) Uani d 1
H H2B -0.5789 0.7476 0.8280 0.069 Uiso calc 1
C C3 -0.8139(4) 0.9049(2) 0.79833(10) 0.0485(5) Uani d 1
C C4 -0.8827(4) 0.9941(2) 0.74681(10) 0.0499(5) Uani d 1
H H4A -1.0152 1.0579 0.7503 0.060 Uiso calc 1
C C5 -0.7585(4) 0.9908(2) 0.68979(10) 0.0459(5) Uani d 1
H H5A -0.8066 1.0531 0.6544 0.055 Uiso calc 1
C C6 -0.5644(3) 0.89803(19) 0.68337(9) 0.0412(4) Uani d 1
C C7 -0.4324(4) 0.9023(2) 0.62330(9) 0.0436(4) Uani d 1
H H7A -0.4793 0.9705 0.5908 0.052 Uiso calc 1
C C8 0.0386(4) 0.7664(2) 0.53477(9) 0.0425(4) Uani d 1
C C9 0.3028(4) 0.5649(2) 0.55772(13) 0.0623(6) Uani d 1
H H9A 0.3113 0.4913 0.5904 0.094 Uiso calc 1
H H9B 0.4681 0.6125 0.5626 0.094 Uiso calc 1
H H9C 0.2663 0.5287 0.5119 0.094 Uiso calc 1
H H1B 0.012(4) 0.643(2) 0.6027(8) 0.059(7) Uiso d 1
H H2A -0.175(5) 0.9226(14) 0.5346(11) 0.069(8) Uiso d 1
H H1A -0.894(6) 0.854(2) 0.8803(14) 0.100(12) Uiso d 1
loop_
_atom_site_aniso_label
_atom_site_aniso_U_11
_atom_site_aniso_U_22
_atom_site_aniso_U_33
_atom_site_aniso_U_12
_atom_site_aniso_U_13
_atom_site_aniso_U_23
S1 0.0796(4) 0.0591(4) 0.0444(3) -0.0017(3) 0.0344(3) 0.0018(2)
N1 0.0535(10) 0.0480(9) 0.0491(9) -0.0002(7) 0.0259(8) 0.0027(8)
N2 0.0575(10) 0.0522(10) 0.0394(9) 0.0035(8) 0.0218(7) 0.0046(8)
N3 0.0480(9) 0.0508(9) 0.0373(8) -0.0035(7) 0.0167(7) -0.0012(7)
O1 0.0869(12) 0.0776(12) 0.0552(10) 0.0215(10) 0.0402(9) 0.0038(9)
C1 0.0646(13) 0.0535(12) 0.0530(12) 0.0185(10) 0.0270(10) 0.0079(9)
C2 0.0710(14) 0.0584(13) 0.0486(12) 0.0185(11) 0.0254(10) 0.0125(10)
C3 0.0524(11) 0.0528(11) 0.0439(10) 0.0000(9) 0.0195(8) -0.0058(9)
C4 0.0473(11) 0.0513(11) 0.0537(11) 0.0088(9) 0.0159(9) -0.0035(9)
C5 0.0455(10) 0.0479(11) 0.0452(10) 0.0027(8) 0.0091(8) 0.0017(8)
C6 0.0418(10) 0.0430(10) 0.0407(9) -0.0037(8) 0.0124(7) -0.0043(8)
C7 0.0468(10) 0.0472(11) 0.0388(9) -0.0028(8) 0.0126(8) 0.0000(8)
C8 0.0478(10) 0.0463(10) 0.0356(9) -0.0078(8) 0.0140(7) -0.0048(8)
C9 0.0595(13) 0.0524(12) 0.0811(16) 0.0042(10) 0.0317(12) 0.0035(12)
loop_
_atom_type_symbol
_atom_type_description
_atom_type_scat_dispersion_real
_atom_type_scat_dispersion_imag
_atom_type_scat_source
C C 0.0033 0.0016 'International Tables Vol C Tables 4.2.6.8 and 6.1.1.4'
H H 0.0000 0.0000 'International Tables Vol C Tables 4.2.6.8 and 6.1.1.4'
N N 0.0061 0.0033 'International Tables Vol C Tables 4.2.6.8 and 6.1.1.4'
O O 0.0106 0.0060 'International Tables Vol C Tables 4.2.6.8 and 6.1.1.4'
S S 0.1246 0.1234 'International Tables Vol C Tables 4.2.6.8 and 6.1.1.4'
loop_
_geom_angle_atom_site_label_1
_geom_angle_atom_site_label_2
_geom_angle_atom_site_label_3
_geom_angle
C8 N1 C9 124.47(17)
C8 N1 H1B 115.4(16)
C9 N1 H1B 120.1(16)
C8 N2 N3 121.45(17)
C8 N2 H2A 118.6(17)
N3 N2 H2A 118.5(16)
C7 N3 N2 113.97(16)
C3 O1 H1A 109(2)
C6 C1 C2 120.85(19)
C6 C1 H1C 119.6
C2 C1 H1C 119.6
C3 C2 C1 119.95(19)
C3 C2 H2B 120.0
C1 C2 H2B 120.0
O1 C3 C4 117.05(18)
O1 C3 C2 122.90(19)
C4 C3 C2 120.04(18)
C3 C4 C5 119.78(18)
C3 C4 H4A 120.1
C5 C4 H4A 120.1
C4 C5 C6 121.23(18)
C4 C5 H5A 119.4
C6 C5 H5A 119.4
C1 C6 C5 118.15(17)
C1 C6 C7 122.80(17)
C5 C6 C7 119.03(17)
N3 C7 C6 123.38(18)
N3 C7 H7A 118.3
C6 C7 H7A 118.3
N1 C8 N2 117.64(17)
N1 C8 S1 124.30(15)
N2 C8 S1 118.06(15)
N1 C9 H9A 109.5
N1 C9 H9B 109.5
H9A C9 H9B 109.5
N1 C9 H9C 109.5
H9A C9 H9C 109.5
H9B C9 H9C 109.5
loop_
_geom_bond_atom_site_label_1
_geom_bond_atom_site_label_2
_geom_bond_distance
S1 C8 1.7087(18)
N1 C8 1.311(3)
N1 C9 1.454(3)
N1 H1B 0.858(10)
N2 C8 1.345(3)
N2 N3 1.389(2)
N2 H2A 0.868(10)
N3 C7 1.279(2)
O1 C3 1.369(2)
O1 H1A 0.823(10)
C1 C6 1.385(3)
C1 C2 1.388(3)
C1 H1C 0.9500
C2 C3 1.383(3)
C2 H2B 0.9500
C3 C4 1.373(3)
C4 C5 1.384(3)
C4 H4A 0.9500
C5 C6 1.392(3)
C5 H5A 0.9500
C6 C7 1.462(2)
C7 H7A 0.9500
C9 H9A 0.9800
C9 H9B 0.9800
C9 H9C 0.9800
loop_
_geom_hbond_atom_site_label_D
_geom_hbond_atom_site_label_H
_geom_hbond_atom_site_label_A
_geom_hbond_site_symmetry_A
_geom_hbond_distance_DH
_geom_hbond_distance_HA
_geom_hbond_distance_DA
_geom_hbond_angle_DHA
_geom_hbond_publ_flag
O1 H1A S1 4_476 0.82(2) 2.41(2) 3.220(2) 171(3) yes
N1 H1B N3 1_555 0.857(18) 2.27(2) 2.681(2) 109.3(15) no
N1 H1B O1 2_446 0.857(18) 2.47(2) 3.018(3) 123.0(16) yes
N2 H2A S1 3_576 0.868(16) 2.617(14) 3.4177(19) 153.8(18) yes
loop_
_geom_torsion_atom_site_label_1
_geom_torsion_atom_site_label_2
_geom_torsion_atom_site_label_3
_geom_torsion_atom_site_label_4
_geom_torsion
C8 N2 N3 C7 -179.80(18)
C6 C1 C2 C3 -0.2(4)
C1 C2 C3 O1 -177.4(2)
C1 C2 C3 C4 1.2(4)
O1 C3 C4 C5 177.5(2)
C2 C3 C4 C5 -1.2(3)
C3 C4 C5 C6 0.2(3)
C2 C1 C6 C5 -0.7(3)
C2 C1 C6 C7 177.5(2)
C4 C5 C6 C1 0.7(3)
C4 C5 C6 C7 -177.60(18)
N2 N3 C7 C6 -177.01(17)
C1 C6 C7 N3 3.7(3)
C5 C6 C7 N3 -178.03(18)
C9 N1 C8 N2 -177.4(2)
C9 N1 C8 S1 2.6(3)
N3 N2 C8 N1 5.9(3)
N3 N2 C8 S1 -174.09(14)
