#------------------------------------------------------------------------------
#$Date: 2016-04-30 05:08:59 +0300 (Sat, 30 Apr 2016) $
#$Revision: 182429 $
#$URL: svn://www.crystallography.net/cod/cif/1/54/32/1543230.cif $
#------------------------------------------------------------------------------
#
# This file is available in the Crystallography Open Database (COD),
# http://www.crystallography.net/. The original data for this entry
# were provided by IUCr Journals, http://journals.iucr.org/.
#
# The file may be used within the scientific community so long as
# proper attribution is given to the journal article from which the
# data were obtained.
#
data_1543230
loop_
_publ_author_name
'Ali, Amna Qasem'
'Eltayeb, Naser Eltaher'
'Teoh, Siang Guan'
_publ_section_title
;
 (<i>Z</i>)-2-(5-Fluoro-2-oxoindolin-3-ylidene)-<i>N</i>-methylhydrazinecarbothioamide
;
_journal_coeditor_code           IS4006
_journal_issue                   4
_journal_name_full               IUCrData
_journal_page_first              x160659
_journal_paper_doi               10.1107/S2414314616006593
_journal_volume                  1
_journal_year                    2016
_chemical_formula_iupac          'C10 H9 F N4 O S'
_chemical_formula_moiety         'C10 H9 F N4 O S'
_chemical_formula_sum            'C10 H9 F N4 O S'
_chemical_formula_weight         252.27
_chemical_name_systematic
(<i>Z</i>)-2-(5-Fluoro-2-oxoindolin-3-ylidene)-<i>N</i>-methylhydrazinecarbothioamide
_space_group_crystal_system      orthorhombic
_space_group_IT_number           19
_space_group_name_Hall           'P 2ac 2ab'
_space_group_name_H-M_alt        'P 21 21 21'
_symmetry_space_group_name_Hall  'P 2ac 2ab'
_symmetry_space_group_name_H-M   'P 21 21 21'
_atom_sites_solution_hydrogens   mixed
_audit_creation_method           SHELXL-2014/7
_cell_angle_alpha                90
_cell_angle_beta                 90
_cell_angle_gamma                90
_cell_formula_units_Z            4
_cell_length_a                   5.70580(10)
_cell_length_b                   10.6201(2)
_cell_length_c                   18.8688(4)
_cell_measurement_reflns_used    9924
_cell_measurement_temperature    100(2)
_cell_measurement_theta_max      32.58
_cell_measurement_theta_min      3.73
_cell_volume                     1143.38(4)
_computing_cell_refinement
;
SAINT (Bruker, 2005)
;
_computing_data_collection
;
APEX2 (Bruker, 2005)
;
_computing_data_reduction
;
SAINT (Bruker, 2005)
;
_computing_molecular_graphics
;
SHELXTL (Sheldrick, 2008)
;
_computing_publication_material
;
SHELXTL (Sheldrick, 2008) and PLATON (Spek, 2009)
;
_computing_structure_refinement
;
SHELXL2014 (Sheldrick, 2015)
;
_computing_structure_solution
;
SHELXS2014 (Sheldrick, 2008)
;
_diffrn_ambient_temperature      100(2)
_diffrn_measured_fraction_theta_full 1.000
_diffrn_measured_fraction_theta_max 0.999
_diffrn_measurement_device_type  'Bruker APEXII CCD'
_diffrn_measurement_method       '\f and \w scans'
_diffrn_radiation_type           MoK\a
_diffrn_radiation_wavelength     0.71073
_diffrn_reflns_av_R_equivalents  0.0186
_diffrn_reflns_limit_h_max       8
_diffrn_reflns_limit_h_min       -8
_diffrn_reflns_limit_k_max       14
_diffrn_reflns_limit_k_min       -16
_diffrn_reflns_limit_l_max       28
_diffrn_reflns_limit_l_min       -28
_diffrn_reflns_number            16340
_diffrn_reflns_theta_full        25.242
_diffrn_reflns_theta_max         32.612
_diffrn_reflns_theta_min         2.159
_exptl_absorpt_coefficient_mu    0.285
_exptl_absorpt_correction_T_max  0.8540
_exptl_absorpt_correction_T_min  0.7822
_exptl_absorpt_correction_type   multi-scan
_exptl_absorpt_process_details
;
(<i>SADABS</i>; Bruker, 2005)
;
_exptl_crystal_colour            yellow
_exptl_crystal_density_diffrn    1.466
_exptl_crystal_description       block
_exptl_crystal_F_000             520
_exptl_crystal_size_max          0.528
_exptl_crystal_size_mid          0.295
_exptl_crystal_size_min          0.167
_refine_diff_density_max         0.310
_refine_diff_density_min         -0.192
_refine_ls_abs_structure_details
;
Flack <i>x</i> determined using 1583 quotients
[(<i>I</i>^+^)-(<i>I</i>^-^)]/[(<i>I</i>^+^)+(<i>I</i>^-^)]
(Parsons <i>et al.</i>, 2013)
;
_refine_ls_abs_structure_Flack   0.031(15)
_refine_ls_extinction_method     none
_refine_ls_goodness_of_fit_ref   1.047
_refine_ls_hydrogen_treatment    mixed
_refine_ls_matrix_type           full
_refine_ls_number_parameters     167
_refine_ls_number_reflns         4144
_refine_ls_number_restraints     0
_refine_ls_restrained_S_all      1.047
_refine_ls_R_factor_all          0.0292
_refine_ls_R_factor_gt           0.0266
_refine_ls_shift/su_max          0.000
_refine_ls_shift/su_mean         0.000
_refine_ls_structure_factor_coef Fsqd
_refine_ls_weighting_details
'w=1/[\s^2^(Fo^2^)+(0.0376P)^2^+0.2071P] where P=(Fo^2^+2Fc^2^)/3'
_refine_ls_weighting_scheme      calc
_refine_ls_wR_factor_gt          0.0675
_refine_ls_wR_factor_ref         0.0692
_reflns_number_gt                3953
_reflns_number_total             4144
_reflns_threshold_expression     'I > 2\s(I)'
_cod_data_source_file            is4006sup1.cif
_cod_data_source_block           I
_cod_database_code               1543230
_shelx_space_group_comment
;
The symmetry employed for this shelxl refinement is uniquely defined
by the following loop, which should always be used as a source of
symmetry information in preference to the above space-group names.
They are only intended as comments.
;
_shelx_estimated_absorpt_t_min   0.864
_shelx_estimated_absorpt_t_max   0.954
_shelx_hkl_file
;
   1   0   0 -0.2129  0.0569   3
  -1   0   0 -0.1560  0.1019   1
   1   0   0 0.19905 0.13561   1
   2   0   0 96.3593  2.5675   1
  -2   0   0 93.6021  2.5919   1
  -2   0   0 99.1981  2.5787   3
  -3   0   0 -1.4762  0.4248   1
   3   0   0 -0.8420  0.3715   3
   3   0   0 -1.2094  0.3833   1
  -3   0   0 -1.4759  0.6664   3
   4   0   0 3509.13   52.76   1
  -4   0   0 3580.22   56.10   3
  -4   0   0 3502.84   52.83   1
  -5   0   0 1.43180 0.82025   1
  -5   0   0 -0.8409  0.5452   5
  -5   0   0 -0.6124  0.7143   3
   5   0   0 0.33006 0.69582   1
  -6   0   0 1149.51   20.16   5
  -6   0   0 1129.49   20.32   1
  -6   0   0 1162.62   19.74   2
  -6   0   0 1145.09   20.94   3
  -7   0   0 0.54113 1.07601   3
  -7   0   0 0.29709 0.76041   1
  -7   0   0 0.28390 0.68680   2
  -7   0   0 0.43976 0.90825   5
  -8   0   0 4113.24   62.14   5
  -8   0   0 4026.94   67.05   3
  -8   0   0 4093.43   63.55   1
  -9   0   0 4.50552 1.44791   1
  -9   0   0 2.70948 1.36916   2
  -9   0   0 2.16663 1.59843   3
  -9   0   0 3.51273 1.37571   5
 -10   0   0 398.954  11.240   1
 -10   0   0 398.935  10.639   2
 -10   0   0 408.182  11.504   3
 -11   0   0 0.38656 1.27467   2
 -11   0   0 0.54799 1.63929   3
 -11   0   0 0.06964 1.07993   1
 -12   0   0 27.3051  3.6675   1
 -12   0   0 28.3091  3.8781   3
 -12   0   0 29.0642  3.2025   2
 -13   0   0 0.24695 1.82532   3
 -13   0   0 4.58445 1.71878   1
 -13   0   0 0.75798 1.18703   2
 -14   0   0 3.55978 2.40071   3
 -14   0   0 3.67376 1.97947   2
 -15   0   0 0.25817 1.80781   2
 -15   0   0 -0.1988  1.9258   3
 -16   0   0 15.3410  3.5653   3
 -16   0   0 22.5104  4.1595   2
   0  -1   0 -2.3174  0.3362   5
   0   1   0 -2.1800  0.3617   4
   0   1   0 -2.4053  0.3089   1
   0   1   0 -0.0246  0.5310   5
   1  -1   0 1819.27   26.58   5
  -1   1   0 1813.81   26.51   1
   1   1   0 1772.61   27.35   1
  -1   1   0 1856.17   26.69   5
   1   1   0 1798.01   24.83   4
   2  -1   0 98.2698  2.6993   3
  -2   1   0 94.2058  2.3527   1
  -2   1   0 95.2043  3.1826   5
   2   1   0 93.7695  3.1198   1
   2   1   0 92.2649  2.5890   4
  -2   1   0 93.6395  2.6082   3
   3  -1   0 78.2730  2.6836   3
  -3  -1   0 74.8239  3.0413   1
  -3   1   0 77.2360  3.0544   5
   3   1   0 77.2480  3.0170   1
  -3   1   0 76.2188  2.6869   3
  -3   1   0 79.5451  2.3100   1
   4  -1   0 28.7028  1.7176   2
   4  -1   0 27.0867  1.9471   5
   4  -1   0 30.3449  1.9562   3
  -4  -1   0 31.4699  2.2005   1
  -4   1   0 26.2333  1.9836   5
  -4   1   0 28.9362  1.6221   1
   4   1   0 28.3184  2.0034   1
  -4   1   0 26.5868  1.9044   3
  -5  -1   0 527.224  11.521   1
   5  -1   0 509.069  10.836   3
   5  -1   0 543.815  10.489   2
   5   1   0 523.458  11.359   1
  -5   1   0 540.211  10.331   2
  -5   1   0 539.466  10.121   1
  -5   1   0 516.665  10.958   3
  -5   1   0 517.874  11.265   5
  -6  -1   0 648.922  12.698   3
  -6  -1   0 639.398  13.860   1
   6  -1   0 636.352  13.254   3
  -6   1   0 633.954  13.640   5
  -6   1   0 658.714  12.663   2
  -6   1   0 652.505  13.470   3
   6   1   0 642.741  13.793   1
  -6   1   0 657.625  12.412   1
  -7  -1   0 747.379  16.046   1
  -7  -1   0 771.930  15.069   3
   7  -1   0 746.806  15.332   3
  -7   1   0 745.478  14.448   1
  -7   1   0 768.265  15.766   3
  -7   1   0 752.892  14.714   2
  -7   1   0 710.904  15.671   5
   7   1   0 758.155  16.019   1
  -8  -1   0 24.0962  2.5613   1
   8  -1   0 19.9994  2.6701   3
  -8  -1   0 21.6747  2.5983   3
  -8   1   0 26.5958  2.3121   2
  -8   1   0 20.7862  2.1133   1
  -8   1   0 22.9798  2.9027   5
  -8   1   0 21.8625  2.8489   3
   8   1   0 19.4104  2.6355   1
  -9  -1   0 98.9562  5.2859   1
  -9  -1   0 99.0289  4.8498   3
  -9   1   0 103.504   4.647   1
  -9   1   0 106.966   5.354   3
  -9   1   0 93.7651  4.3902   2
   9   1   0 96.6812  5.2937   1
  -9   1   0 104.789   5.473   5
 -10  -1   0 30.1190  2.7419   2
 -10  -1   0 28.6310  3.1244   1
 -10   1   0 30.0879  3.5531   3
 -10   1   0 21.5308  2.9288   2
 -10   1   0 30.4256  2.7767   1
 -11  -1   0 1.70585 1.59795   2
 -11  -1   0 3.43273 1.85502   1
 -11   1   0 6.93700 1.82687   1
 -11   1   0 4.79509 1.66964   2
 -11   1   0 2.22235 2.06242   3
 -12  -1   0 21.2282  3.4668   1
 -12  -1   0 16.9570  2.7335   2
 -12   1   0 18.7852  2.8364   2
 -12   1   0 24.9130  3.7441   3
 -13  -1   0 168.710   8.227   1
 -13   1   0 165.278   8.078   3
 -13   1   0 163.322   7.268   2
 -14  -1   0 48.1350  4.6001   1
 -14  -1   0 50.6926  4.3384   2
 -14   1   0 48.8276  4.8068   3
 -14   1   0 49.8619  4.4099   2
 -15  -1   0 93.1355  5.8773   2
 -15  -1   0 90.9035  6.4000   1
 -15   1   0 79.8570  6.3213   3
   0  -2   0 1906.97   28.72   5
   0   2   0 1835.40   26.88   4
   0   2   0 1888.71   28.68   5
   0   2   0 1829.16   28.74   1
  -1  -2   0 0.51250 0.56205   5
   1  -2   0 1.74548 0.64982   5
   1   2   0 1.17133 0.65803   1
  -1   2   0 2.18509 0.78291   5
  -1   2   0 1.35233 0.56391   1
   1   2   0 1.19796 0.63885   4
   2  -2   0 363.584   8.238   5
  -2   2   0 371.187   8.459   5
  -2   2   0 370.274   6.906   1
   2   2   0 353.162   8.152   1
   2   2   0 364.007   7.246   4
   3  -2   0 1103.06   19.33   3
   3  -2   0 1144.03   18.79   2
   3  -2   0 1148.61   19.73   5
  -3   2   0 1116.84   19.84   5
   3   2   0 1117.22   20.01   1
  -3   2   0 1134.49   17.94   1
  -3   2   0 1148.08   18.10   3
   3   2   0 1155.12   17.76   4
  -3   2   0 1124.49   18.12   3
   4  -2   0 4044.33   59.98   5
   4  -2   0 3989.51   64.42   3
   4  -2   0 4137.37   62.53   2
  -4  -2   0 4046.85   62.41   1
  -4   2   0 4060.71   59.46   1
  -4   2   0 3960.55   60.27   5
   4   2   0 4127.95   62.35   1
  -4   2   0 4024.46   63.67   3
  -5  -2   0 882.642  17.591   1
   5  -2   0 854.128  16.477   3
  -5   2   0 845.890  15.908   3
  -5   2   0 848.176  17.090   5
  -5   2   0 878.097  14.889   1
   5   2   0 851.662  17.246   1
   6  -2   0 60.8119  3.4634   3
   6  -2   0 69.6764  3.4492   2
  -6  -2   0 64.3948  3.9169   1
  -6   2   0 70.5381  2.8932   2
  -6   2   0 68.4533  2.8971   1
   6   2   0 64.3565  3.8691   1
  -6   2   0 64.5384  3.8969   5
   7  -2   0 697.829  15.175   3
   7  -2   0 690.612  14.456   2
  -7  -2   0 711.522  16.255   1
  -7   2   0 724.030  13.801   2
  -7   2   0 710.354  13.555   1
  -7   2   0 683.437  15.865   5
  -7   2   0 699.387  14.724   3
   7   2   0 683.974  15.958   1
  -8  -2   0 721.766  17.071   1
   8  -2   0 723.491  16.037   3
   8   2   0 703.281  16.842   1
  -8   2   0 741.968  14.656   2
  -8   2   0 721.246  14.336   1
  -8   2   0 688.534  16.688   5
  -8   2   0 721.962  15.675   3
   9  -2   0 4.24704 2.12244   3
  -9  -2   0 8.30664 2.14072   1
  -9   2   0 6.60966 1.68930   2
  -9   2   0 9.27260 2.07411   3
   9   2   0 3.25423 1.73624   1
  -9   2   0 7.80618 1.58214   1
 -10  -2   0 43.8143  4.0324   1
  10  -2   0 45.3975  3.9314   3
 -10   2   0 48.7470  3.7520   3
  10   2   0 43.6353  4.2805   1
 -11  -2   0 20.3799  3.4273   1
  11  -2   0 20.0459  3.3537   3
 -11   2   0 20.1994  3.0872   3
  11   2   0 19.8023  3.5025   1
 -12  -2   0 91.9670  5.0055   2
 -12  -2   0 90.9318  6.1862   1
 -12   2   0 97.7488  5.6230   3
 -13  -2   0 2.47896 1.52957   2
 -13  -2   0 1.46295 1.69114   1
 -13   2   0 1.28596 1.47070   3
 -14  -2   0 29.4162  3.4388   2
 -14  -2   0 37.3118  4.0204   1
 -14   2   0 34.9042  3.7648   3
 -15  -2   0 71.9549  5.3206   2
 -15   2   0 78.4793  5.3153   3
   0  -3   0 -2.0891  0.3658   5
   0   3   0 -0.9765  0.5330   1
   0   3   0 -0.5516  0.7126   5
   0   3   0 -1.1375  0.6576   4
   1  -3   0 11.5496  1.7881   5
  -1  -3   0 11.7384  1.7316   5
  -1   3   0 10.1158  1.6943   5
   1   3   0 11.9666  1.6499   4
  -1   3   0 9.55940 1.58855   4
   1   3   0 13.2865  1.7268   1
  -1   3   0 11.3075  1.3182   1
  -2  -3   0 1086.53   19.28   5
   2  -3   0 1076.54   19.74   5
   2   3   0 1071.91   19.66   1
   2   3   0 1073.60   17.92   4
  -2   3   0 1091.83   17.96   1
  -2   3   0 1019.05   19.77   5
  -3  -3   0 487.970  10.887   5
   3  -3   0 494.165  11.425   5
   3  -3   0 479.831   9.052   2
  -3   3   0 486.695   9.282   1
  -3   3   0 459.050  11.518   5
   3   3   0 488.401   9.985   4
   3   3   0 476.196  11.273   1
   4  -3   0 33.1922  2.2239   3
   4  -3   0 34.8454  2.2114   2
  -4   3   0 32.9351  1.8427   1
   4   3   0 30.0186  2.6969   1
   4   3   0 33.8280  2.3514   4
  -4   3   0 29.3565  2.6867   5
   5  -3   0 118.839   4.484   2
   5  -3   0 118.898   4.515   3
  -5  -3   0 115.213   5.494   1
   5   3   0 117.118   5.380   1
  -5   3   0 115.511   5.533   5
  -5   3   0 119.101   3.777   1
  -6  -3   0 -0.8819  0.8343   1
   6  -3   0 0.49062 1.13010   2
   6  -3   0 1.00489 1.18829   3
   6   3   0 2.34674 1.28487   1
  -6   3   0 1.10114 1.05017   5
  -6   3   0 0.45408 0.72966   3
  -6   3   0 2.32328 0.80959   1
   7  -3   0 0.85777 1.69027   3
  -7  -3   0 1.33311 1.49053   1
   7  -3   0 1.29862 1.66282   2
  -7   3   0 5.73108 1.77360   5
   7   3   0 3.67089 1.81349   1
  -7   3   0 -0.9399  1.1808   3
   8  -3   0 3.40627 1.97355   3
  -8  -3   0 3.98043 1.59659   1
   8  -3   0 0.86794 1.67672   2
   8   3   0 3.65158 1.82030   1
  -8   3   0 2.19380 1.31335   3
   9  -3   0 405.376  11.302   2
   9  -3   0 427.247  12.039   3
  -9  -3   0 417.857  13.184   1
   9   3   0 421.335  13.207   1
  -9   3   0 416.248  10.596   3
 -10  -3   0 11.6986  2.4007   1
  10  -3   0 10.1034  3.2589   3
  10   3   0 9.05049 2.68602   1
 -10   3   0 12.6304  2.4046   3
 -11  -3   0 1106.01   25.92   1
  11  -3   0 1128.92   24.68   3
  11   3   0 1116.41   26.34   1
 -11   3   0 1117.46   23.20   3
 -12  -3   0 -1.8617  1.4361   1
  12  -3   0 -0.8005  2.6350   3
 -12   3   0 1.06046 1.73754   3
  12   3   0 3.62262 2.31665   1
 -13  -3   0 4.93920 2.31879   2
 -13  -3   0 6.17468 2.04046   1
 -13   3   0 2.33485 2.01685   3
 -14  -3   0 92.8549  5.5674   2
 -14   3   0 91.4749  5.6408   3
 -15  -3   0 402.155  12.981   2
 -15   3   0 391.453  12.615   3
   0   4   0 0.28969 0.79355   1
   0   4   0 -0.2382  0.8618   5
   0   4   0 0.91617 1.07743   4
  -1   4   0 8.43872 1.82162   5
  -1   4   0 8.89555 1.81127   4
   1   4   0 9.78775 1.85484   4
  -1   4   0 10.0757  1.5827   1
   1   4   0 9.86041 1.68027   1
  -2   4   0 64.3767  3.8615   4
  -2   4   0 69.4526  4.2330   5
   2   4   0 64.9452  3.7891   1
   2   4   0 66.9578  3.6417   4
  -2   4   0 62.4921  3.0267   1
   3  -4   0 213.211   5.001   2
  -3   4   0 212.561   5.726   1
   3   4   0 212.616   7.373   1
  -3   4   0 207.257   7.792   5
   3   4   0 207.293   6.624   4
  -4  -4   0 1220.90   24.59   1
   4  -4   0 1260.54   21.76   2
   4   4   0 1255.21   21.64   4
  -4   4   0 1233.55   24.78   5
   4   4   0 1253.69   24.54   1
  -5  -4   0 5.35194 1.86429   1
   5  -4   0 6.87446 1.57221   2
   5   4   0 4.05375 1.42704   4
   5   4   0 3.47800 1.61520   1
  -5   4   0 5.27269 1.74570   5
   6  -4   0 16.5944  2.5442   2
  -6  -4   0 18.5612  3.0671   1
   6   4   0 17.2159  2.8755   1
   7  -4   0 91.3908  4.8729   2
   7  -4   0 97.1114  5.0182   3
  -7  -4   0 92.0904  5.8008   1
   7   4   0 93.2449  5.7874   1
   8  -4   0 17.8119  3.0099   2
   8  -4   0 23.1775  3.3554   3
  -8  -4   0 18.2969  3.3604   1
   8   4   0 23.1308  3.5888   1
   9  -4   0 12.8635  3.1496   3
   9  -4   0 8.33733 2.44604   2
  -9  -4   0 13.7339  3.0597   1
   9   4   0 11.2579  2.8492   1
  10  -4   0 57.3996  5.2267   3
  10  -4   0 55.1399  4.5813   2
 -10  -4   0 56.0695  5.2479   1
  10   4   0 60.3240  5.3901   1
  11  -4   0 12.2043  3.5219   3
 -11  -4   0 10.6886  2.7435   1
  11   4   0 12.2691  3.4057   1
  12  -4   0 -1.7769  3.0745   3
  12   4   0 -0.3503  1.7435   1
  13  -4   0 8.54539 3.83454   3
  14  -4   0 44.2599  4.7475   3
 -14  -4   0 39.8703  3.8729   2
   0   5   0 0.64448 1.01772   1
   0   5   0 -0.4989  1.1153   4
  -1   5   0 51.3292  3.7774   4
   1   5   0 53.8085  3.6674   1
   1   5   0 51.2516  3.7557   4
  -1   5   0 56.0890  3.4129   1
  -1   5   0 54.4550  4.0158   5
   2   5   0 702.128  15.262   4
  -2   5   0 695.012  15.707   4
  -2   5   0 693.236  17.102   5
   2   5   0 696.243  15.997   1
   3  -5   0 173.031   4.679   2
   3   5   0 176.515   7.207   1
  -3   5   0 177.995   7.265   4
   3   5   0 172.297   6.727   4
   4  -5   0 3.16450 1.33186   2
  -4  -5   0 5.67102 1.88871   1
   4   5   0 5.71306 1.71661   1
   4   5   0 4.85427 1.71113   4
  -4   5   0 5.19691 1.94236   4
   5  -5   0 -1.7604  1.2395   2
  -5  -5   0 0.93749 1.31238   1
   5   5   0 -0.7043  1.2587   4
   5   5   0 -0.1127  1.5625   1
   6  -5   0 233.847   7.891   2
  -6  -5   0 228.441   9.567   1
   6   5   0 246.228   9.654   1
   7  -5   0 434.618  11.983   2
  -7  -5   0 439.460  14.183   1
   7   5   0 430.742  13.990   1
   8  -5   0 119.889   6.156   2
  -8  -5   0 121.254   7.352   1
   8   5   0 112.721   7.021   1
  -9  -5   0 448.585  15.217   1
   9  -5   0 420.044  12.801   2
   9   5   0 432.911  14.981   1
 -10  -5   0 7.78211 2.75658   1
  10  -5   0 4.84693 2.74436   3
  10  -5   0 3.64800 2.45540   2
  10   5   0 15.0944  3.3836   1
 -11  -5   0 293.914  12.706   1
  11  -5   0 299.528  11.028   2
  11  -5   0 270.002  11.102   3
  11   5   0 310.065  12.943   1
  12  -5   0 9.49366 3.81935   3
  13  -5   0 154.597   8.879   3
   0   6   0 626.888  15.473   4
  -1   6   0 1.89829 1.93125   4
   1   6   0 4.37846 2.15907   4
  -2   6   0 190.824   8.028   4
   2   6   0 193.955   7.902   4
   2   6   0 186.416   7.807   1
  -3  -6   0 67.8112  4.9358   1
  -3   6   0 66.9761  5.0482   4
   3   6   0 69.2124  4.8190   4
   3   6   0 73.4766  5.0865   1
  -4  -6   0 498.217  14.736   1
   4  -6   0 502.211  11.544   2
  -4   6   0 490.706  14.191   4
   4   6   0 512.022  13.260   4
   4   6   0 493.016  14.464   1
  -5  -6   0 41.8290  4.2341   1
   5  -6   0 38.4592  3.4200   2
   5   6   0 40.6517  3.7998   4
  -5   6   0 37.0970  4.6608   4
   5   6   0 35.6404  4.5489   1
  -6  -6   0 1.58969 1.53318   1
   6  -6   0 -1.3232  1.9754   2
  -6   6   0 0.38511 1.86607   4
   6   6   0 3.75299 1.67283   1
   7  -6   0 30.4763  3.8702   2
  -7  -6   0 26.3389  4.3239   1
   7   6   0 34.5682  4.6957   1
  -8  -6   0 172.233   9.362   1
   8  -6   0 172.961   7.816   2
   8   6   0 186.556   9.577   1
   9  -6   0 296.955  11.028   2
  -9  -6   0 310.559  13.009   1
   9   6   0 311.641  12.824   1
  10  -6   0 -0.9404  2.2990   2
  11  -6   0 90.3085  6.5785   2
   0   7   0 0.05330 1.99420   4
  -1   7   0 0.13428 1.95739   4
   1   7   0 1.16296 2.01355   4
   2   7   0 -1.0612  1.9440   4
  -2   7   0 -1.9374  1.8806   4
   3   7   0 3.27335 2.17637   4
  -3   7   0 3.79052 2.34482   4
   4  -7   0 15.7762  2.4837   2
   4   7   0 19.6717  3.3989   4
  -4   7   0 13.1931  3.3298   4
   5  -7   0 207.746   7.976   2
  -5  -7   0 202.658   9.671   1
   5   7   0 200.742   9.690   1
  -5   7   0 209.568   9.727   4
   5   7   0 209.254   8.729   4
  -6  -7   0 0.60876 1.69467   1
   6  -7   0 0.47795 2.20637   2
   6   7   0 1.44215 2.05013   1
  -6   7   0 -1.1274  2.4246   4
  -7  -7   0 50.7092  5.2616   1
   7  -7   0 48.3536  4.7696   2
   7   7   0 47.5119  4.9007   1
  -7   7   0 56.6501  5.7080   4
   8  -7   0 39.4383  4.3353   2
  -8   7   0 37.5969  5.5132   4
   9  -7   0 13.0518  3.1632   2
  -9   7   0 15.8085  3.7252   4
   0   8   0 386.726  13.483   4
  -1   8   0 31.5256  4.9654   4
   1   8   0 25.7763  4.5810   4
  -2   8   0 167.273   8.982   4
   2   8   0 170.570   8.739   4
  -3   8   0 4.96221 2.86445   4
   3   8   0 5.91129 3.03228   4
   4  -8   0 155.596   6.726   2
  -4   8   0 166.737   9.182   4
   5  -8   0 123.358   6.633   2
  -5   8   0 132.617   8.087   4
   6  -8   0 -4.3435  2.2443   2
  -6   8   0 -0.9115  2.2247   4
 -16   0   1 411.027  13.771   2
 -16   0   1 420.492  14.787   3
 -15   0   1 -0.5649  1.8249   2
 -15   0   1 3.42509 2.32149   3
 -14   0   1 258.911  10.481   3
 -14   0   1 248.935   9.528   2
 -13   0   1 39.9044  3.7598   2
 -13   0   1 41.3572  3.8847   1
 -13   0   1 39.6747  4.2861   3
 -12   0   1 153.335   6.595   2
 -12   0   1 155.437   7.399   3
 -12   0   1 154.677   7.006   1
 -11   0   1 68.7502  4.2438   2
 -11   0   1 63.7732  4.3965   1
 -11   0   1 65.5210  4.6830   3
 -10   0   1 1554.90   28.76   1
 -10   0   1 1528.25   28.12   2
 -10   0   1 1530.95   29.77   3
  -9   0   1 257.040   8.663   5
  -9   0   1 262.982   8.278   1
  -9   0   1 266.892   7.770   2
  -9   0   1 267.196   8.424   3
  -8   0   1 799.265  16.159   2
  -8   0   1 855.918  17.557   3
  -8   0   1 833.982  17.345   5
  -8   0   1 828.150  16.999   1
   8   0  -1 863.831  17.171   1
   7   0  -1 247.409   7.253   1
  -7   0   1 250.176   7.230   3
  -7   0   1 258.440   7.616   5
  -7   0   1 244.819   7.153   1
  -6   0   1 371.493   8.695   3
  -6   0   1 364.099   8.856   5
  -6   0   1 365.059   8.662   1
  -6   0   1 343.105   7.832   2
   6   0  -1 369.436   8.666   1
  -5   0   1 58.5255  2.4053   2
  -5   0   1 57.4014  2.7766   1
  -5   0   1 60.2851  2.8122   3
   5   0  -1 54.3892  2.6661   1
  -4   0   1 94.8119  3.3315   1
   4   0  -1 95.8357  3.2682   1
  -4   0   1 96.0409  3.2549   3
  -4   0   1 99.6294  2.9436   2
  -2   0   1 3486.41   50.12   1
   2   0  -1 3456.55   50.65   1
  -2   0   1 3378.09   54.79   3
   1   0  -1 63.3991  1.5458   1
   0   0  -1 -0.5883  0.0305   1
   0   0   1 -0.6012  0.0326   1
  -1   0  -1 62.3656  1.4264   5
   1   0   1 62.4654  1.4175   5
  -2   0  -1 3453.14   53.73   3
  -2   0  -1 3344.80   50.81   1
  -2   0  -1 3300.45   48.77   5
  -3   0  -1 1.05510 0.55366   1
  -3   0  -1 1.37046 0.59349   5
   3   0   1 1.40221 0.56161   3
  -4   0  -1 97.5277  3.3408   5
   4   0   1 96.1038  3.0096   3
  -4   0  -1 93.3103  3.2817   3
  -4   0  -1 98.6668  3.3930   1
  -5   0  -1 55.7191  2.7842   3
  -5   0  -1 56.5247  2.7391   1
  -5   0  -1 55.3732  2.7523   5
  -6   0  -1 359.033   8.621   3
  -6   0  -1 369.977   8.785   5
  -6   0  -1 362.673   8.734   1
  -7   0  -1 243.198   7.165   1
  -7   0  -1 244.656   7.126   3
  -7   0  -1 233.897   7.146   5
  -8   0  -1 847.123  17.149   1
  -8   0  -1 804.219  16.951   5
  -8   0  -1 849.466  17.470   3
  -9   0  -1 280.469   8.593   3
  -9   0  -1 260.299   7.556   2
  -9   0  -1 261.009   8.645   5
  -9   0  -1 262.806   8.391   1
 -10   0  -1 1505.18   28.61   1
 -10   0  -1 1535.34   27.95   2
 -10   0  -1 1558.79   29.78   3
 -11   0  -1 66.1865  4.4909   1
 -11   0  -1 68.7378  4.8325   3
 -11   0  -1 68.6683  4.2894   2
 -12   0  -1 141.225   6.381   2
 -12   0  -1 151.616   7.197   3
 -12   0  -1 136.053   6.710   1
 -13   0  -1 37.4584  3.7303   2
 -13   0  -1 38.6740  4.2025   3
 -13   0  -1 40.3367  3.9333   1
 -14   0  -1 250.294   9.461   2
 -14   0  -1 274.484  10.796   3
 -14   0  -1 248.991  10.082   1
 -15   0  -1 3.42184 2.11677   2
 -15   0  -1 5.16902 2.36729   3
 -16   0  -1 400.896  13.477   2
 -16   0  -1 412.298  14.608   3
 -15  -1   1 6.43081 2.32674   2
 -15   1   1 3.18571 2.60483   3
 -14  -1   1 37.6868  3.7504   2
 -14  -1   1 34.7989  3.9073   1
 -14   1   1 29.1855  4.4998   3
 -13  -1   1 33.0387  4.3837   1
 -13  -1   1 30.5626  3.3902   2
 -13   1   1 32.1908  3.6014   2
 -13   1   1 36.6016  4.7547   3
 -12  -1   1 12.8062  2.4404   2
 -12  -1   1 9.25832 2.38670   1
 -12   1   1 12.7072  2.4320   2
 -12   1   1 11.4599  2.7654   3
 -11  -1   1 382.231  12.112   1
 -11  -1   1 388.881  10.686   2
 -11   1   1 399.289  10.996   2
 -11   1   1 394.798  11.917   3
 -11   1   1 403.518  11.012   1
 -10  -1   1 97.6462  5.5493   1
 -10  -1   1 103.382   4.703   2
 -10   1   1 106.622   5.635   3
 -10   1   1 105.202   4.921   2
 -10   1   1 107.700   4.941   1
  10   1  -1 115.532   6.009   1
  -9  -1   1 52.5459  3.9230   1
  -9  -1   1 51.6576  3.7393   3
  -9  -1   1 53.9742  3.2258   2
   9   1  -1 50.4264  3.8970   1
  -9   1   1 60.5473  3.5909   2
  -9   1   1 53.6515  3.3322   1
  -9   1   1 56.4196  4.0480   5
  -9   1   1 54.3279  3.9964   3
  -8  -1   1 307.268   9.301   1
  -8  -1   1 300.275   8.280   3
   8  -1  -1 294.351   8.349   3
  -8   1   1 295.872   7.888   1
  -8   1   1 287.849   9.182   5
  -8   1   1 308.071   8.160   2
  -8   1   1 311.857   8.897   3
   8   1  -1 288.098   9.006   1
   7  -1  -1 668.623  14.033   3
  -7  -1   1 654.571  13.496   3
  -7  -1   1 666.188  14.735   1
   7   1  -1 649.329  14.511   1
  -7   1   1 665.115  13.385   2
  -7   1   1 665.009  13.026   1
  -7   1   1 658.648  14.262   3
  -7   1   1 641.251  14.488   5
  -6  -1   1 908.659  18.163   1
  -6  -1   1 945.461  17.246   3
   6  -1  -1 920.292  17.813   3
  -6   1   1 966.555  17.134   2
  -6   1   1 946.712  18.079   3
  -6   1   1 943.602  16.459   1
   6   1  -1 943.343  18.175   1
  -6   1   1 926.523  17.962   5
  -5  -1   1 158.526   4.309   3
   5  -1  -1 157.774   4.879   3
  -5  -1   1 159.259   5.440   1
  -5   1   1 151.101   5.245   5
  -5   1   1 154.878   4.891   3
   5   1  -1 155.509   5.270   1
  -5   1   1 165.005   4.315   1
  -5   1   1 158.234   4.423   2
   4  -1  -1 477.979   9.219   2
  -4  -1   1 464.448  10.117   1
   4  -1  -1 465.570   9.568   3
  -4   1   1 468.863   9.551   3
  -4   1   1 464.702   9.885   5
  -4   1   1 479.201   8.529   1
   4   1  -1 466.709  10.025   1
   3  -1  -1 2664.18   39.85   5
   3  -1  -1 2724.05   43.29   3
   3   1  -1 2712.71   41.55   1
  -3   1   1 2700.83   41.06   1
  -3   1   1 2731.69   43.20   3
  -3   1   1 2736.49   40.16   5
   2  -1  -1 32.5901  1.7369   5
   2  -1  -1 31.1963  1.4318   3
   2   1  -1 31.6625  1.8161   1
  -2   1   1 31.8157  1.4275   3
  -2   1   1 33.0565  1.7981   5
  -2   1   1 33.2754  1.0525   1
   2   1  -1 33.7518  1.5481   4
   1  -1  -1 562.810   9.770   5
   1   1  -1 593.947   9.247   4
  -1   1   1 589.507   8.776   1
   1   1  -1 590.107  10.247   1
  -1   1   1 586.876   9.894   5
   0  -1  -1 751.291  11.626   5
   0  -1   1 727.338  11.879   5
   0   1   1 722.926  10.764   4
   0   1  -1 737.668  11.197   4
   0   1  -1 741.495  12.054   1
   0   1   1 751.079  11.625   5
   0   1  -1 754.532  11.928   5
   0   1   1 748.241  11.512   1
  -1  -1  -1 589.812   9.780   1
   1   1   1 554.957   9.626   1
  -1   1  -1 578.002   9.818   5
   1   1   1 544.046   8.521   4
  -1   1  -1 560.891   9.395   1
   2  -1   1 34.3712  1.5102   3
   2  -1   1 33.8328  1.7804   5
  -2  -1  -1 32.9496  1.7853   1
  -2   1  -1 33.4335  1.4598   1
  -2   1  -1 31.1555  1.7787   5
   2   1   1 30.3752  1.7102   1
   3  -1   1 2739.06   39.79   5
  -3  -1  -1 2699.29   41.28   1
   3  -1   1 2654.36   42.96   3
   3   1   1 2674.95   41.13   1
  -3   1  -1 2641.14   42.95   3
  -3   1  -1 2710.07   40.03   1
  -3   1  -1 2746.66   39.95   5
   4  -1   1 466.107   9.160   2
   4  -1   1 465.079   9.618   5
  -4  -1  -1 471.248  10.031   1
   4  -1   1 451.702   9.410   3
  -4   1  -1 466.124   8.852   1
  -4   1  -1 461.321   9.826   5
  -4   1  -1 472.204   8.889   2
  -4   1  -1 464.855   9.558   3
   4   1   1 464.570   9.878   1
   5  -1   1 151.861   4.524   2
   5  -1   1 152.228   5.053   5
  -5  -1  -1 157.322   5.321   1
   5  -1   1 150.364   4.739   3
   5   1   1 150.418   5.145   1
  -5   1  -1 155.960   4.485   1
  -5   1  -1 159.473   4.951   3
  -5   1  -1 157.402   4.445   2
  -5   1  -1 155.430   5.261   5
  -6  -1  -1 940.329  18.177   1
  -6  -1  -1 932.237  17.067   3
   6  -1   1 900.810  17.566   3
   6   1   1 923.170  17.986   1
  -6   1  -1 956.121  16.954   2
  -6   1  -1 941.802  16.727   1
  -6   1  -1 895.524  17.661   5
  -6   1  -1 943.621  17.992   3
  -7  -1  -1 658.347  13.580   3
   7  -1   1 649.189  13.866   3
  -7  -1  -1 658.215  14.612   1
  -7   1  -1 650.102  14.497   5
  -7   1  -1 666.515  13.326   2
  -7   1  -1 687.323  14.428   3
  -7   1  -1 661.227  13.327   1
   7   1   1 653.240  14.659   1
   8  -1   1 305.789   8.411   3
  -8  -1  -1 281.834   8.101   3
  -8  -1  -1 297.278   9.152   1
  -8   1  -1 294.211   8.729   3
   8   1   1 294.293   9.159   1
  -8   1  -1 291.703   9.162   5
  -8   1  -1 309.774   8.249   1
  -8   1  -1 307.963   8.080   2
  -9  -1  -1 55.6212  3.7903   3
  -9  -1  -1 54.7360  3.9795   1
  -9   1  -1 50.1640  3.4331   2
  -9   1  -1 52.5975  3.9373   3
  -9   1  -1 56.5409  4.0034   5
  -9   1  -1 52.3778  3.3749   1
 -10  -1  -1 99.5406  5.5917   1
 -10   1  -1 103.685   5.045   1
 -10   1  -1 104.145   5.546   3
 -10   1  -1 115.444   5.107   2
 -11  -1  -1 389.571  10.447   2
 -11  -1  -1 379.764  12.007   1
 -11   1  -1 377.527  10.662   2
 -11   1  -1 381.780  11.755   3
 -11   1  -1 371.690  10.792   1
 -12  -1  -1 11.0560  2.3108   2
 -12  -1  -1 12.8730  2.7066   1
 -12   1  -1 6.56004 1.84515   1
 -12   1  -1 10.2982  2.8265   3
 -12   1  -1 9.36305 2.19482   2
 -13  -1  -1 43.8486  4.1800   1
 -13   1  -1 39.8653  3.8068   2
 -13   1  -1 31.6040  4.4496   3
 -14  -1  -1 30.8010  4.5075   1
 -14  -1  -1 29.4635  3.9628   2
 -14   1  -1 27.7182  4.4034   3
 -14   1  -1 33.1183  3.7930   2
 -15  -1  -1 4.99424 1.92067   1
 -15  -1  -1 0.59386 1.95654   2
 -15   1  -1 1.06342 2.42793   3
 -15  -2   1 17.0608  3.2781   2
 -15   2   1 20.1380  3.1380   3
 -14  -2   1 163.433   7.474   2
 -14  -2   1 173.673   8.892   1
 -14   2   1 170.987   8.027   3
 -13  -2   1 121.480   7.364   1
 -13  -2   1 119.518   5.915   2
 -13   2   1 123.343   6.663   3
 -12  -2   1 436.530  11.711   2
 -12  -2   1 431.626  14.140   1
 -12   2   1 427.155  12.893   3
  12   2  -1 439.606  14.353   1
 -11  -2   1 15.0210  2.3931   2
 -11  -2   1 15.9983  3.0895   1
 -11   2   1 14.1174  2.6809   3
  11   2  -1 12.9408  3.1106   1
  10  -2  -1 257.142   8.940   3
 -10  -2   1 255.442   9.822   1
 -10   2   1 285.067   9.098   3
  10   2  -1 267.491  10.012   1
   9  -2  -1 225.706   7.979   3
  -9  -2   1 234.589   8.921   1
   9   2  -1 233.328   8.911   1
  -9   2   1 237.283   7.869   3
  -8  -2   1 936.557  20.768   1
   8  -2  -1 966.236  20.029   3
  -8   2   1 977.814  19.661   3
  -8   2   1 958.459  20.688   5
  -8   2   1 988.268  18.445   2
  -8   2   1 977.524  17.729   1
   7  -2  -1 50.6485  3.1606   2
  -7  -2   1 47.0233  3.4578   1
   7  -2  -1 50.8839  3.5095   3
  -7   2   1 51.0466  2.6245   1
  -7   2   1 49.0394  3.1407   3
   7   2  -1 51.8085  3.7909   1
  -7   2   1 49.4830  3.6119   5
  -7   2   1 54.5304  2.8574   2
   6  -2  -1 532.786  12.156   3
   6  -2  -1 551.296  11.843   2
  -6  -2   1 547.920  13.311   1
  -6   2   1 562.940  13.237   5
   6   2  -1 543.236  13.077   1
  -6   2   1 557.492  10.812   2
  -6   2   1 561.392  10.552   1
  -5  -2   1 690.193  15.010   1
   5  -2  -1 705.173  14.018   3
   5  -2  -1 709.359  14.438   5
   5   2  -1 704.534  14.978   1
  -5   2   1 676.165  14.658   5
  -5   2   1 689.399  13.346   3
  -5   2   1 697.639  12.070   1
   4  -2  -1 898.662  16.992   5
   4  -2  -1 928.930  16.874   3
   4  -2  -1 905.499  16.302   2
  -4   2   1 930.779  17.455   5
  -4   2   1 911.848  14.782   1
   4   2  -1 951.065  17.801   1
  -4   2   1 906.543  15.975   3
   3  -2  -1 1175.78   19.14   2
   3  -2  -1 1155.04   19.73   3
   3  -2  -1 1177.66   20.02   5
   3   2  -1 1145.07   18.15   4
   3   2  -1 1134.05   20.51   1
  -3   2   1 1145.00   20.14   5
  -3   2   1 1154.10   17.79   1
   2  -2  -1 231.261   6.151   5
   2   2  -1 237.955   6.330   1
   2   2  -1 245.702   5.667   4
  -2   2   1 243.917   6.448   5
  -2   2   1 242.352   4.646   1
   1  -2  -1 479.388   9.569   5
  -1  -2   1 468.483   9.500   5
   1   2  -1 474.775   8.900   4
   1   2  -1 483.140   9.706   1
  -1   2   1 493.932   9.792   5
  -1   2   1 470.449   8.302   1
   0  -2  -1 836.326  14.183   5
   0  -2   1 834.282  14.468   5
   0   2   1 819.952  14.149   5
   0   2  -1 797.208  14.093   1
   0   2  -1 811.864  14.351   5
   0   2   1 797.717  13.572   1
   0   2   1 823.013  13.098   4
   0   2  -1 803.268  13.430   4
  -1  -2  -1 486.282   9.351   5
   1  -2   1 481.845   9.838   5
  -1   2  -1 482.052   9.890   5
   1   2   1 485.354   9.370   1
  -1   2  -1 475.451   9.050   1
   1   2   1 478.214   8.573   4
   2  -2   1 235.810   6.284   5
  -2   2  -1 236.003   5.327   1
   2   2   1 228.308   5.217   4
  -2   2  -1 242.591   6.480   5
   2   2   1 237.446   6.062   1
   3  -2   1 1141.58   19.73   3
  -3  -2  -1 1145.83   20.35   1
   3  -2   1 1141.23   19.08   2
  -3   2  -1 1172.62   20.26   5
  -3   2  -1 1152.82   18.64   1
  -3   2  -1 1134.36   18.60   3
   3   2   1 1131.23   17.62   4
   3   2   1 1152.28   20.21   1
  -4  -2  -1 927.554  17.636   1
   4  -2   1 935.413  16.799   3
   4  -2   1 928.552  16.355   2
  -4   2  -1 892.781  17.254   5
  -4   2  -1 867.578  15.932   3
   4   2   1 903.456  17.326   1
  -4   2  -1 910.764  15.531   1
   5  -2   1 624.711  13.279   2
   5  -2   1 729.908  14.589   5
  -5  -2  -1 678.753  14.710   1
   5  -2   1 707.401  13.955   3
   5   2   1 698.771  14.719   1
  -5   2  -1 695.468  14.695   5
  -5   2  -1 688.097  13.330   3
  -5   2  -1 682.972  12.696   1
  -6  -2  -1 550.566  13.180   1
   6  -2   1 549.877  11.836   2
   6  -2   1 564.723  12.281   3
   6   2   1 547.087  13.061   1
  -6   2  -1 552.918  10.877   2
  -6   2  -1 537.244  12.966   5
  -6   2  -1 541.825  11.065   1
   7  -2   1 48.7610  3.1969   2
  -7  -2  -1 58.2334  3.9043   1
   7  -2   1 50.0146  3.4065   3
  -7   2  -1 52.5687  2.7668   2
  -7   2  -1 48.5523  3.1447   3
  -7   2  -1 53.2199  3.7621   5
   7   2   1 50.2756  3.7002   1
  -7   2  -1 54.2914  2.9424   1
  -8  -2  -1 958.715  20.665   1
   8  -2   1 994.280  18.940   2
   8  -2   1 978.940  19.809   3
  -8   2  -1 916.735  20.163   5
  -8   2  -1 933.517  19.361   3
  -8   2  -1 951.119  18.078   1
   8   2   1 923.869  20.383   1
  -8   2  -1 955.180  18.102   2
   9  -2   1 222.713   7.869   3
  -9  -2  -1 233.961   8.851   1
  -9   2  -1 236.589   7.850   3
  -9   2  -1 235.899   7.144   2
  -9   2  -1 238.868   7.342   1
   9   2   1 221.465   8.819   1
  10  -2   1 275.856   9.046   3
 -10  -2  -1 259.225   9.825   1
 -10   2  -1 259.730   8.760   3
  10   2   1 251.624   9.813   1
 -11  -2  -1 16.4719  2.9577   1
  11  -2   1 14.2057  3.0202   3
 -11   2  -1 14.6688  2.6496   3
 -12  -2  -1 454.277  11.847   2
 -12  -2  -1 435.489  14.254   1
 -12   2  -1 448.967  13.127   3
 -13  -2  -1 119.756   7.274   1
 -13  -2  -1 120.620   5.868   2
 -13   2  -1 117.281   6.439   3
 -14  -2  -1 169.622   7.545   2
 -14  -2  -1 172.502   8.943   1
 -14   2  -1 178.599   8.237   3
 -15  -2  -1 16.7550  3.3424   2
 -15   2  -1 23.1167  3.4714   3
 -15  -3   1 7.73918 2.43438   2
 -15   3   1 8.78128 2.53171   3
 -14  -3   1 16.2467  3.0947   2
 -14   3   1 14.3255  2.8624   3
 -13  -3   1 40.3210  3.9587   1
 -13  -3   1 26.7761  3.6124   2
 -13   3   1 31.0573  3.4397   3
  13   3  -1 25.3721  4.4423   1
 -12  -3   1 45.9362  3.6519   2
  12  -3  -1 39.7630  4.6826   3
 -12  -3   1 48.5159  4.7866   1
  12   3  -1 42.4748  4.8615   1
 -12   3   1 47.5860  3.9703   3
 -11  -3   1 59.3166  5.1301   1
  11  -3  -1 67.9389  5.5434   3
  11   3  -1 62.6399  5.5745   1
 -11   3   1 58.4271  4.2586   3
  10  -3  -1 50.7080  4.6979   3
 -10  -3   1 50.2696  4.5693   1
 -10   3   1 48.4720  3.5525   3
  10   3  -1 40.6892  4.4158   1
   9  -3  -1 214.230   8.106   3
  -9  -3   1 203.923   8.831   1
   9   3  -1 200.926   8.818   1
  -9   3   1 209.960   6.848   3
   8  -3  -1 451.874  12.099   3
   8  -3  -1 454.207  11.608   2
  -8  -3   1 458.158  13.437   1
   8   3  -1 447.698  13.259   1
  -8   3   1 445.705  10.449   3
  -7  -3   1 807.029  19.197   1
   7  -3  -1 844.831  17.927   3
   7  -3  -1 847.687  17.374   2
   7   3  -1 841.926  19.185   1
  -7   3   1 860.973  15.910   3
  -7   3   1 816.921  19.021   5
   6  -3  -1 129.556   5.120   3
   6  -3  -1 128.042   5.002   2
  -6  -3   1 125.697   6.087   1
   6   3  -1 125.404   5.953   1
  -6   3   1 130.634   3.585   3
  -6   3   1 120.402   5.931   5
   5  -3  -1 305.658   7.868   2
   5  -3  -1 315.356   8.027   3
  -5   3   1 305.530   6.460   1
  -5   3   1 303.795   9.457   5
   5   3  -1 319.607   9.512   1
   4  -3  -1 88.2955  3.4391   2
   4  -3  -1 89.9171  3.5325   3
   4   3  -1 86.3959  3.7969   4
  -4   3   1 92.1363  2.8122   1
   4   3  -1 90.5801  4.5271   1
  -4   3   1 84.3920  4.5020   5
   3  -3  -1 849.114  17.086   5
  -3  -3   1 872.080  16.889   5
   3  -3  -1 859.274  14.884   2
   3   3  -1 917.096  17.773   1
   3   3  -1 872.632  15.596   4
  -3   3   1 900.576  14.551   1
  -3   3   1 898.400  17.711   5
   2  -3  -1 305.256   8.207   5
  -2  -3   1 299.303   8.012   5
  -2   3   1 303.866   8.408   5
  -2   3   1 314.468   6.471   1
   2   3  -1 312.000   8.280   1
   2   3  -1 315.232   7.590   4
  -1  -3   1 2817.03   42.89   5
  -1   3   1 2809.99   40.25   4
   1   3  -1 2788.18   43.71   1
  -1   3   1 2682.80   42.81   5
  -1   3   1 2787.63   41.97   1
   1   3  -1 2764.21   40.30   4
   0  -3   1 9.80685 1.64551   5
   0  -3  -1 10.1804  1.7274   5
   0   3  -1 8.52703 1.63944   5
   0   3   1 9.86034 1.42760   1
   0   3   1 8.28681 1.45446   4
   0   3  -1 8.25273 1.55039   4
   0   3   1 10.4174  1.7216   5
   0   3  -1 8.65380 1.50110   1
   1  -3   1 2765.90   42.89   5
  -1  -3  -1 2816.29   42.31   5
   1   3   1 2762.06   42.97   1
  -1   3  -1 2757.94   42.60   1
  -1   3  -1 2745.64   40.40   4
  -1   3  -1 2733.89   42.97   5
   1   3   1 2746.71   39.66   4
   2  -3   1 307.348   8.349   5
  -2  -3  -1 305.243   7.847   5
  -2   3  -1 313.604   7.162   1
   2   3   1 306.813   7.212   4
  -2   3  -1 290.030   8.349   5
   2   3   1 315.832   7.991   1
   3  -3   1 905.504  17.492   5
   3  -3   1 892.892  15.890   3
  -3  -3  -1 889.369  17.465   1
  -3  -3  -1 876.839  16.420   5
   3  -3   1 892.935  15.184   2
  -3   3  -1 855.047  15.430   1
  -3   3  -1 868.464  17.682   5
   3   3   1 865.719  17.245   1
   3   3   1 866.047  15.181   4
   4  -3   1 83.9340  3.4179   2
   4  -3   1 92.3548  3.6006   3
  -4  -3  -1 89.6401  4.4938   1
   4   3   1 91.5525  3.6579   4
  -4   3  -1 79.5237  4.3802   5
  -4   3  -1 90.4055  3.3514   1
   4   3   1 87.7170  4.3722   1
   5  -3   1 319.262   8.192   3
   5  -3   1 314.860   8.044   2
  -5  -3  -1 316.353   9.553   1
  -5   3  -1 311.704   7.377   1
   5   3   1 307.105   9.254   1
  -5   3  -1 320.668   9.786   5
  -6  -3  -1 119.896   5.815   1
   6  -3   1 125.102   4.955   2
   6  -3   1 125.069   5.075   3
   6   3   1 125.121   5.832   1
  -6   3  -1 130.383   4.384   1
  -6   3  -1 115.548   3.700   3
  -6   3  -1 108.447   5.656   5
   7  -3   1 848.818  17.484   2
   7  -3   1 861.842  17.975   3
  -7  -3  -1 861.790  19.368   1
  -7   3  -1 833.541  15.895   1
  -7   3  -1 827.074  19.126   5
  -7   3  -1 820.845  16.042   3
   7   3   1 826.573  19.041   1
   8  -3   1 458.662  11.651   2
  -8  -3  -1 421.865  12.929   1
   8  -3   1 446.642  12.007   3
  -8   3  -1 438.855  10.489   3
   8   3   1 449.043  13.185   1
  -9  -3  -1 210.033   8.870   1
   9  -3   1 202.363   7.895   3
   9  -3   1 210.614   7.615   2
  -9   3  -1 201.063   6.811   3
   9   3   1 192.353   8.616   1
 -10  -3  -1 46.8471  4.3193   1
  10  -3   1 49.7130  4.5394   3
  10   3   1 46.3380  4.6102   1
 -10   3  -1 53.3821  3.7115   3
  11  -3   1 69.5414  5.3104   3
 -11  -3  -1 55.6194  5.1091   1
  11   3   1 52.6424  5.2821   1
 -11   3  -1 61.6440  4.3086   3
  12  -3   1 34.4836  4.5302   3
 -12  -3  -1 49.4163  4.6898   1
 -12   3  -1 46.4242  3.8777   3
  13  -3   1 29.6588  4.5063   3
 -13  -3  -1 38.5732  4.3597   1
 -13   3  -1 28.0893  3.4000   3
 -14  -3  -1 17.5636  3.0615   2
 -14   3  -1 17.8642  3.1473   3
 -15  -3  -1 5.54922 2.61558   2
 -15   3  -1 6.82600 2.49165   3
 -14  -4   1 105.823   5.963   2
 -13  -4   1 55.1278  4.2511   2
  13  -4  -1 56.5196  5.8157   3
  12  -4  -1 252.962  10.660   3
 -12  -4   1 273.484  11.617   1
  12   4  -1 258.043  11.873   1
 -11  -4   1 94.4301  6.6443   1
  11  -4  -1 81.1010  5.9639   3
  11   4  -1 83.5474  6.5839   1
  10  -4  -1 71.8097  5.4978   3
  10  -4  -1 69.7672  5.0724   2
 -10  -4   1 74.9815  5.7356   1
  10   4  -1 85.9069  6.2062   1
  -9  -4   1 75.8519  5.7797   1
   9  -4  -1 61.4361  4.5610   2
   9  -4  -1 68.7860  5.1243   3
   9   4  -1 78.8845  5.5805   1
   8  -4  -1 112.017   5.791   3
  -8  -4   1 103.307   6.473   1
   8  -4  -1 100.488   5.312   2
   8   4  -1 118.834   6.636   1
   7  -4  -1 42.3647  3.4947   2
  -7  -4   1 40.9609  4.0176   1
   7  -4  -1 41.1882  3.5481   3
   7   4  -1 39.7829  3.8666   1
   6  -4  -1 491.214  11.746   2
  -6  -4   1 474.685  13.808   1
   6   4  -1 485.827  13.732   1
   5  -4  -1 51.6511  3.1361   2
  -5  -4   1 50.7974  4.0211   1
  -5   4   1 52.1363  4.0329   5
   5   4  -1 56.1039  3.4698   4
   5   4  -1 58.8127  4.2753   1
   4  -4  -1 401.026   8.961   2
   4   4  -1 411.174   9.983   4
  -4   4   1 387.934  11.592   5
   4   4  -1 396.377  11.290   1
   3  -4  -1 71.5696  2.5448   2
  -3   4   1 79.6861  4.6673   5
   3   4  -1 76.0657  3.9774   4
  -3   4   1 77.1223  2.9427   1
   3   4  -1 73.9866  4.3218   1
   2   4  -1 123.882   5.045   4
  -2   4   1 130.759   5.277   4
  -2   4   1 119.268   5.612   5
  -2   4   1 125.794   4.095   1
   2   4  -1 125.130   5.369   1
  -1   4   1 361.185  10.227   5
  -1   4   1 384.984   9.508   4
   1   4  -1 379.938   9.840   1
   1   4  -1 390.183   9.634   4
  -1   4   1 371.423   8.561   1
   0   4  -1 140.342   5.857   5
   0   4  -1 136.161   5.328   4
   0   4   1 132.334   5.554   5
   0   4   1 135.022   5.135   4
   0   4  -1 137.600   5.175   1
   0   4   1 137.944   4.834   1
  -1   4  -1 392.699   9.361   1
  -1   4  -1 366.543  10.431   5
   1   4   1 383.709   9.239   4
  -1   4  -1 385.787   9.824   4
   1   4   1 371.320   9.387   1
  -2   4  -1 122.580   4.530   1
   2   4   1 120.563   5.059   1
  -2   4  -1 116.132   5.145   4
  -2   4  -1 120.290   5.635   5
   2   4   1 119.394   4.752   4
   3  -4   1 70.2931  2.7107   2
  -3  -4  -1 83.4262  4.4547   1
   3   4   1 72.5505  3.6993   4
   3   4   1 74.1447  4.2205   1
  -3   4  -1 74.5517  4.5690   5
  -3   4  -1 73.4671  3.3713   1
  -4  -4  -1 398.268  11.220   1
   4  -4   1 397.232   8.993   2
  -4   4  -1 374.001  11.429   5
   4   4   1 389.318   9.483   4
   4   4   1 391.008  10.987   1
  -4   4  -1 405.580   9.024   1
  -5  -4  -1 55.1801  4.0903   1
   5  -4   1 49.1320  3.1659   2
   5   4   1 59.4387  4.0844   1
   5   4   1 53.8484  3.2864   4
  -5   4  -1 51.4751  4.1428   5
   6  -4   1 496.749  12.044   2
   6  -4   1 482.270  11.946   3
  -6  -4  -1 501.733  13.869   1
   6   4   1 479.061  13.583   1
   7  -4   1 43.4995  3.5803   3
  -7  -4  -1 44.9258  4.1305   1
   7  -4   1 42.9392  3.5445   2
   7   4   1 40.7016  3.8649   1
  -8  -4  -1 109.222   6.535   1
   8  -4   1 104.266   5.489   2
   8  -4   1 115.027   5.871   3
   8   4   1 112.454   6.537   1
   9  -4   1 68.2774  4.7152   2
  -9  -4  -1 68.5580  5.4783   1
   9  -4   1 66.0369  4.9912   3
   9   4   1 72.0720  5.3268   1
  10  -4   1 79.3747  5.3148   2
  10  -4   1 85.0634  5.8381   3
 -10  -4  -1 88.5904  6.3406   1
  10   4   1 85.4814  6.1890   1
 -11  -4  -1 77.3247  6.1041   1
  11  -4   1 84.3897  5.9703   3
  11   4   1 81.0473  6.4297   1
  12  -4   1 252.753  10.671   3
 -12  -4  -1 262.414  11.642   1
  12   4   1 250.858  11.643   1
  13  -4   1 52.8080  5.5359   3
  14  -4   1 79.3070  6.0237   3
 -14  -4  -1 106.657   5.878   2
 -13  -5   1 2.08883 1.94190   2
  13  -5  -1 -5.9637  3.1859   3
  12  -5  -1 62.0892  6.1021   3
  11  -5  -1 17.9034  4.1321   3
 -11  -5   1 17.7963  3.8801   1
 -10  -5   1 127.142   8.108   1
  10  -5  -1 123.740   6.740   2
  10  -5  -1 125.176   6.998   3
  10   5  -1 130.038   8.099   1
  -9  -5   1 7.00025 2.63978   1
   9  -5  -1 11.1116  2.9393   2
   9   5  -1 12.0721  3.0308   1
   8  -5  -1 196.021   7.876   2
  -8  -5   1 190.258   9.358   1
   8   5  -1 202.248   9.535   1
  -7  -5   1 624.358  17.671   1
   7  -5  -1 614.038  14.959   2
   7   5  -1 586.569  16.978   1
   6  -5  -1 134.908   5.879   2
  -6  -5   1 138.508   7.449   1
   6   5  -1 145.136   7.453   1
  -5  -5   1 271.575  10.128   1
   5  -5  -1 266.964   7.849   2
   5   5  -1 259.281   8.562   4
   5   5  -1 253.193   9.706   1
   4  -5  -1 246.589   6.761   2
   4   5  -1 262.263   8.415   4
   4   5  -1 250.113   9.225   1
   3   5  -1 455.587  11.687   4
   3   5  -1 456.549  12.694   1
  -3   5   1 454.212  12.100   4
   2   5  -1 404.113  11.443   1
   2   5  -1 402.373  10.934   4
  -2   5   1 414.277  12.283   5
  -2   5   1 401.351  11.029   4
   1   5  -1 1091.02   21.13   4
  -1   5   1 1091.68   21.06   4
  -1   5   1 1125.39   23.03   5
   1   5  -1 1122.09   22.11   1
   0   5  -1 181.764   6.662   1
   0   5  -1 176.447   6.849   4
   0   5   1 169.974   6.578   4
   0   5   1 185.671   6.307   1
   1   5   1 1119.14   20.76   4
  -1   5  -1 1121.06   21.16   1
  -1   5  -1 1092.07   23.00   5
   1   5   1 1074.21   21.23   1
  -2  -5  -1 399.636  11.145   1
  -2   5  -1 401.452  11.270   4
   2   5   1 394.819  10.996   1
   2   5   1 408.155  10.637   4
   3  -5   1 457.116   9.320   2
  -3  -5  -1 454.046  12.526   1
  -3   5  -1 447.410  12.304   4
   3   5   1 466.284  11.524   4
   3   5   1 460.477  12.453   1
   4  -5   1 251.664   6.944   2
  -4  -5  -1 245.526   9.078   1
   4   5   1 245.200   7.883   4
  -4   5  -1 243.977   8.869   4
   4   5   1 250.840   8.941   1
   5  -5   1 253.251   7.755   2
  -5  -5  -1 232.000   9.253   1
   5   5   1 254.356   9.475   1
   5   5   1 274.549   8.317   4
   6  -5   1 141.054   6.075   2
  -6  -5  -1 148.804   7.483   1
   6   5   1 139.205   7.169   1
  -7  -5  -1 603.741  17.186   1
   7  -5   1 609.754  14.955   2
   7   5   1 618.169  17.139   1
   8  -5   1 199.615   7.990   2
  -8  -5  -1 185.041   9.100   1
   8   5   1 181.608   9.015   1
  -9  -5  -1 14.5402  3.4272   1
   9  -5   1 11.5604  3.0921   2
   9   5   1 11.5019  3.0882   1
 -10  -5  -1 120.866   7.800   1
  10  -5   1 115.089   6.633   2
  10  -5   1 120.886   6.953   3
  10   5   1 126.645   8.009   1
  11  -5   1 22.3501  4.1025   2
 -11  -5  -1 16.1747  3.5574   1
  11  -5   1 13.4646  4.1542   3
  12  -5   1 62.1986  6.1895   3
  13  -5   1 4.11577 3.64702   3
  11  -6  -1 3.39329 3.06974   2
  10  -6  -1 159.311   8.182   2
  -9  -6   1 19.3719  3.9659   1
   9  -6  -1 16.6778  3.5109   2
   9   6  -1 20.4882  3.7154   1
  -8  -6   1 128.270   8.066   1
   8  -6  -1 123.855   6.530   2
   8   6  -1 129.890   8.081   1
  -7  -6   1 19.6776  3.8299   1
   7  -6  -1 18.4826  3.2368   2
   7   6  -1 13.9076  3.3311   1
   6  -6  -1 111.472   5.758   2
  -6  -6   1 107.354   6.909   1
   6   6  -1 107.430   5.930   4
  -6   6   1 109.550   6.606   4
   6   6  -1 106.737   6.842   1
  -5  -6   1 110.267   6.821   1
   5  -6  -1 102.895   5.145   2
   5   6  -1 105.336   5.800   4
  -5   6   1 95.5183  6.1475   4
   5   6  -1 113.408   6.653   1
   4  -6  -1 61.2385  3.6328   2
  -4  -6   1 58.9352  4.8697   1
   4   6  -1 70.8936  5.2915   1
  -4   6   1 58.6722  4.9247   4
   4   6  -1 60.6940  4.6060   4
   3   6  -1 333.715  11.194   1
  -3   6   1 305.058  10.515   4
   3   6  -1 321.898  10.425   4
   2   6  -1 102.696   5.921   4
  -2   6   1 107.231   5.931   4
   2   6  -1 103.781   5.826   1
  -1   6   1 74.9044  4.9286   4
   1   6  -1 73.5542  4.9950   4
   1   6  -1 73.1804  4.7559   1
   0   6  -1 141.022   6.826   4
   0   6   1 154.494   6.885   4
  -1   6  -1 59.3424  4.5777   4
   1   6   1 66.7616  4.6048   4
  -2  -6  -1 108.088   5.831   1
  -2   6  -1 113.128   6.302   4
   2   6   1 106.449   5.816   4
   2   6   1 122.437   6.036   1
  -3  -6  -1 335.589  11.056   1
   3   6   1 333.198  10.851   1
   3   6   1 338.509  10.351   4
  -3   6  -1 318.406  11.044   4
   4  -6   1 60.4484  3.6279   2
  -4  -6  -1 61.4331  4.8097   1
  -4   6  -1 55.5653  4.8465   4
   4   6   1 56.8108  4.6269   1
   4   6   1 59.3823  4.3520   4
   5  -6   1 101.031   5.119   2
  -5  -6  -1 99.8594  6.2246   1
   5   6   1 93.9909  6.1487   1
  -5   6  -1 101.815   6.482   4
   5   6   1 105.755   5.590   4
  -6  -6  -1 103.994   6.650   1
   6  -6   1 111.309   5.817   2
   6   6   1 105.332   6.631   1
  -6   6  -1 105.436   6.694   4
  -7  -6  -1 22.1499  3.8928   1
   7  -6   1 18.5103  3.3374   2
   7   6   1 21.0476  3.5181   1
   8  -6   1 117.390   6.451   2
  -8  -6  -1 132.784   8.082   1
   8   6   1 133.835   8.012   1
   9  -6   1 18.8894  3.5788   2
  -9  -6  -1 14.3588  3.3672   1
   9   6   1 24.9541  4.1523   1
  10  -6   1 156.880   8.104   2
  11  -6   1 5.21030 3.08356   2
   9  -7  -1 18.9173  3.7166   2
  -9   7   1 21.1510  4.1476   4
   8  -7  -1 -2.2571  2.0779   2
  -8   7   1 4.90906 2.89069   4
  -7  -7   1 52.6422  5.3082   1
   7  -7  -1 48.4807  4.8154   2
   7   7  -1 50.7197  5.2081   1
  -7   7   1 42.9472  5.6364   4
   6  -7  -1 44.1084  4.2741   2
  -6  -7   1 35.4102  5.1004   1
  -6   7   1 41.1108  5.4497   4
   6   7  -1 33.1518  4.9642   1
  -5  -7   1 122.157   7.609   1
   5  -7  -1 125.649   6.120   2
   5   7  -1 120.352   6.776   4
  -5   7   1 130.469   7.728   4
   5   7  -1 122.845   7.557   1
  -4  -7   1 52.0195  4.8484   1
   4  -7  -1 55.2621  3.7392   2
   4   7  -1 66.3378  5.1931   4
  -4   7   1 57.7934  5.1587   4
   3   7  -1 451.355  13.550   4
  -3   7   1 449.916  13.929   4
  -2   7   1 86.0604  6.0169   4
   2   7  -1 85.8029  5.8532   4
  -1   7   1 147.385   7.497   4
   1   7  -1 152.698   7.742   4
   0   7  -1 0.95082 1.98564   4
   0   7   1 1.43336 1.89049   4
   1   7   1 163.424   7.804   4
  -1   7  -1 158.457   8.076   4
  -2   7  -1 81.4450  5.9437   4
   2   7   1 95.3668  5.8989   4
  -3   7  -1 445.367  14.137   4
   3   7   1 454.396  13.243   4
   4  -7   1 57.4415  3.7474   2
  -4   7  -1 57.4052  5.2034   4
   4   7   1 63.2835  4.8860   4
   5  -7   1 116.296   6.037   2
  -5  -7  -1 127.465   7.492   1
  -5   7  -1 115.258   7.387   4
   5   7   1 126.529   6.751   4
   6  -7   1 42.3816  4.2758   2
  -6  -7  -1 43.7979  4.7764   1
  -6   7  -1 39.7214  5.5115   4
   6   7   1 41.5670  4.7525   1
  -7  -7  -1 43.8875  4.9815   1
   7  -7   1 47.1388  4.6553   2
  -7   7  -1 54.0147  5.3426   4
   7   7   1 59.3129  5.3602   1
   8  -7   1 3.89218 2.30182   2
  -8   7  -1 4.25181 2.91272   4
   9  -7   1 23.3896  3.9796   2
  -9   7  -1 16.6876  3.7398   4
   6  -8  -1 44.7491  4.6903   2
   5  -8  -1 28.4901  4.1537   2
   5   8  -1 33.5440  4.6212   4
  -4   8   1 20.0667  4.2289   4
   4   8  -1 19.4829  3.9844   4
   3   8  -1 17.0424  3.6862   4
   2   8  -1 24.5851  4.4011   4
   1   8  -1 2.53708 2.71056   4
   0   8  -1 22.6956  4.2191   4
  -1   8  -1 9.25968 3.36123   4
  -2   8  -1 25.5852  4.5624   4
  -3   8  -1 14.5737  3.6685   4
   4  -8   1 22.5178  3.4597   2
  -4   8  -1 21.8902  4.2809   4
   5  -8   1 31.9132  4.4175   2
  -5   8  -1 37.3831  4.9774   4
   6  -8   1 40.6929  4.6790   2
  -6   8  -1 42.7872  5.6336   4
 -16   0   2 -0.1040  2.2570   2
 -16   0   2 4.11131 2.52152   3
 -15   0   2 7.11924 2.67760   2
 -15   0   2 2.64321 2.45417   3
 -14   0   2 3.10169 2.37652   3
 -14   0   2 2.71005 1.96775   2
 -13   0   2 47.6886  4.0541   2
 -13   0   2 43.1665  3.9531   1
 -13   0   2 47.6936  4.6021   3
 -12   0   2 46.0919  4.3343   3
 -12   0   2 47.7434  3.9677   1
 -12   0   2 44.4645  3.7532   2
 -11   0   2 16.9083  2.6712   2
 -11   0   2 24.8182  3.2945   1
 -11   0   2 24.5663  3.5308   3
 -10   0   2 0.65881 1.40821   2
 -10   0   2 1.46626 1.23027   1
 -10   0   2 0.48351 1.62484   3
  -9   0   2 397.617  10.791   3
  -9   0   2 391.591  10.597   1
  -9   0   2 400.387  10.023   2
  -9   0   2 392.059  11.193   5
   9   0  -2 394.175  10.618   1
   8   0  -2 644.016  14.057   1
  -8   0   2 630.676  13.886   1
  -8   0   2 634.781  14.249   3
  -8   0   2 639.295  14.445   5
  -8   0   2 610.464  13.166   2
  -7   0   2 505.867  11.660   3
   7   0  -2 509.522  11.475   1
  -7   0   2 518.857  11.959   5
  -7   0   2 519.426  11.609   1
  -6   0   2 65.4711  3.2636   3
  -6   0   2 64.2563  3.2428   1
   6   0  -2 69.4727  3.3313   1
   5   0  -2 999.661  17.433   1
  -5   0   2 978.256  17.487   1
  -5   0   2 1002.79   18.10   3
  -4   0   2 2123.02   32.11   1
  -4   0   2 2155.06   33.79   3
   4   0  -2 2081.01   31.87   1
  -4   0   2 1853.96   32.03   2
   3   0  -2 31.6542  1.6489   1
  -3   0   2 29.2243  1.6912   3
   2   0  -2 158.515   3.612   1
  -2   0   2 160.729   3.664   3
   1   0  -2 7865.29  117.22   1
  -1   0   2 7909.81  125.02   3
   0   0   2 406.706   6.845   3
  -1   0  -2 7728.30  116.47   1
  -1   0  -2 7819.25  109.00   5
   1   0   2 7665.06  108.61   5
  -2   0  -2 162.864   3.754   3
  -2   0  -2 157.537   3.421   5
  -3   0  -2 29.0010  1.5404   5
  -3   0  -2 27.4124  1.8191   3
  -3   0  -2 30.0176  1.6858   1
   3   0   2 29.7246  1.4595   3
  -4   0  -2 2164.01   34.70   3
   4   0   2 2073.75   33.90   3
  -4   0  -2 2107.81   31.62   5
  -4   0  -2 2108.98   32.97   1
  -5   0  -2 997.419  17.592   1
  -5   0  -2 983.710  16.993   5
   5   0   2 966.083  17.106   3
  -5   0  -2 993.044  18.033   3
  -6   0  -2 62.9753  3.2710   3
  -6   0  -2 68.9688  3.3145   5
  -6   0  -2 64.8816  3.3132   1
  -7   0  -2 522.197  11.765   1
  -7   0  -2 504.181  11.657   3
  -7   0  -2 514.525  11.645   5
  -8   0  -2 616.679  13.913   5
  -8   0  -2 613.344  13.821   1
  -8   0  -2 629.240  14.064   3
  -9   0  -2 390.530   9.666   2
  -9   0  -2 381.258  10.543   3
  -9   0  -2 373.457  10.676   5
  -9   0  -2 371.559  10.413   1
 -10   0  -2 2.66515 1.62878   2
 -10   0  -2 1.66632 1.36090   1
 -10   0  -2 1.81464 1.78771   3
 -10   0  -2 5.54819 1.57148   5
 -11   0  -2 23.8155  3.5233   3
 -11   0  -2 23.5681  2.7979   2
 -11   0  -2 22.6261  3.0752   1
 -12   0  -2 43.5368  3.9028   1
 -12   0  -2 44.5858  4.2224   3
 -12   0  -2 46.5052  3.9388   2
 -13   0  -2 46.1342  4.1854   1
 -13   0  -2 51.0059  4.7595   3
 -13   0  -2 54.0014  4.2747   2
 -14   0  -2 6.28949 2.39137   2
 -14   0  -2 9.60359 3.05792   3
 -15   0  -2 10.0715  2.3472   2
 -15   0  -2 5.12653 2.44734   3
 -16   0  -2 4.19884 2.38858   2
 -16   0  -2 4.02898 2.13425   3
 -15  -1   2 144.171   7.444   2
 -15   1   2 150.974   8.450   3
 -14  -1   2 14.4563  2.7405   2
 -14  -1   2 11.4247  2.7458   1
 -14   1   2 7.43585 2.85327   3
 -13  -1   2 316.208  11.616   1
 -13  -1   2 313.737  10.373   2
 -13   1   2 345.379  10.947   2
 -13   1   2 320.359  11.572   3
 -12  -1   2 26.5658  3.6442   1
 -12  -1   2 19.5352  2.9010   2
 -12   1   2 25.7872  3.9139   3
 -12   1   2 22.7447  3.2404   2
 -11  -1   2 556.236  15.194   1
 -11  -1   2 556.411  13.614   2
 -11   1   2 590.260  14.154   2
 -11   1   2 565.448  15.040   3
  11   1  -2 575.121  15.505   1
 -10  -1   2 79.2422  4.1754   2
 -10  -1   2 66.1914  4.2676   3
 -10  -1   2 70.7721  4.7043   1
 -10   1   2 69.9381  4.0296   1
 -10   1   2 79.6704  4.2969   2
  10   1  -2 71.6602  4.8365   1
 -10   1   2 78.6130  4.7928   3
  -9  -1   2 860.865  17.978   3
  -9  -1   2 851.193  18.737   1
  -9  -1   2 845.030  16.652   2
  -9   1   2 835.399  16.742   1
  -9   1   2 834.268  18.352   3
   9   1  -2 835.712  18.570   1
  -9   1   2 842.134  17.217   2
  -9   1   2 823.261  18.728   5
  -8  -1   2 306.142   9.444   1
  -8  -1   2 317.417   7.894   2
  -8  -1   2 315.950   8.635   3
  -8   1   2 317.521   8.344   2
  -8   1   2 321.078   9.102   3
  -8   1   2 321.143   9.753   5
   8   1  -2 322.570   9.572   1
  -8   1   2 317.137   8.159   1
  -7  -1   2 386.880  10.437   1
   7  -1  -2 394.407   9.825   3
  -7  -1   2 414.481   9.623   3
  -7   1   2 395.180  10.555   5
  -7   1   2 404.951   9.312   2
  -7   1   2 401.656   8.991   1
  -7   1   2 399.364  10.013   3
   7   1  -2 399.018  10.434   1
  -6  -1   2 572.342  12.918   1
  -6  -1   2 592.730  11.791   3
   6  -1  -2 563.922  12.196   3
   6   1  -2 575.497  12.778   1
  -6   1   2 580.706  11.139   1
  -6   1   2 576.063  11.571   2
  -6   1   2 581.289  12.370   3
  -6   1   2 565.260  12.708   5
   5  -1  -2 1318.15   23.39   3
  -5  -1   2 1310.47   22.54   3
  -5  -1   2 1336.80   23.47   1
  -5   1   2 1318.49   21.25   1
  -5   1   2 1333.82   22.27   2
  -5   1   2 1318.34   22.78   5
  -5   1   2 1329.64   23.44   3
   5   1  -2 1346.47   23.38   1
   4  -1  -2 431.724   8.669   2
   4  -1  -2 436.842   9.120   3
  -4   1   2 441.769   9.116   3
  -4   1   2 428.415   9.404   5
   4   1  -2 439.578   9.619   1
  -4   1   2 438.157   7.903   1
   3  -1  -2 151.523   4.015   3
   3  -1  -2 160.447   4.424   5
   3   1  -2 143.426   4.436   1
  -3   1   2 148.149   3.116   1
  -3   1   2 144.543   4.346   5
  -3   1   2 140.980   3.859   3
   2  -1  -2 5297.63   81.81   5
   2  -1  -2 5278.34   85.07   3
  -2   1   2 5251.04   82.62   3
  -2   1   2 5192.50   84.75   5
   2   1  -2 5337.42   77.13   1
   2   1  -2 5228.29   70.89   4
   1  -1  -2 1130.15   16.84   5
   1   1  -2 1084.39   17.75   1
  -1   1   2 1102.11   16.84   5
   1   1  -2 1077.70   16.01   4
   0  -1  -2 801.279  12.324   1
   0  -1  -2 823.874  12.330   5
   0   1   2 801.483  12.293   1
   0   1  -2 801.254  13.270   1
   0   1   2 784.201  11.348   4
   0   1  -2 822.838  12.948   5
   0   1   2 818.461  12.356   5
   0   1  -2 795.727  12.174   4
  -1  -1  -2 1114.28   16.15   5
  -1  -1  -2 1080.89   17.21   1
   1  -1   2 1099.29   17.14   5
   1   1   2 1089.28   17.17   1
  -1   1  -2 1126.96   17.21   5
  -1   1  -2 1112.86   17.41   1
   1   1   2 1085.93   15.22   4
  -1   1  -2 1087.36   17.48   3
   2  -1   2 5447.44   74.49   5
   2  -1   2 5136.53   83.22   3
  -2  -1  -2 5341.54   80.04   1
   2   1   2 5320.33   77.22   1
  -2   1  -2 5316.10   77.89   5
  -2   1  -2 5256.66   81.19   1
  -3  -1  -2 144.337   4.376   1
   3  -1   2 150.681   4.024   3
   3  -1   2 149.443   3.939   2
   3  -1   2 151.527   4.377   5
   3   1   2 153.673   4.427   1
  -3   1  -2 154.399   4.464   5
  -3   1  -2 151.585   3.985   1
  -3   1  -2 144.902   4.054   3
   4  -1   2 433.903   8.827   2
   4  -1   2 455.189   9.398   5
  -4  -1  -2 441.886   9.589   1
   4  -1   2 432.222   9.096   3
  -4   1  -2 428.837   9.199   3
  -4   1  -2 442.592   8.813   1
  -4   1  -2 432.884   9.401   5
   4   1   2 438.107   9.505   1
  -4   1  -2 457.550   8.595   2
   5  -1   2 1343.75   22.42   5
  -5  -1  -2 1335.08   23.32   1
   5  -1   2 1342.29   23.48   3
   5  -1   2 1336.32   22.55   2
  -5   1  -2 1333.03   22.16   1
  -5   1  -2 1349.55   22.33   2
  -5   1  -2 1300.54   23.52   3
   5   1   2 1342.44   23.38   1
  -5   1  -2 1305.07   22.70   5
   6  -1   2 558.829  12.021   3
  -6  -1  -2 569.460  12.721   1
  -6  -1  -2 575.227  11.558   3
   6  -1   2 554.043  11.399   2
  -6   1  -2 594.950  11.565   2
  -6   1  -2 562.082  12.311   3
   6   1   2 588.116  12.869   1
  -6   1  -2 580.449  12.643   5
  -6   1  -2 578.777  11.727   1
  -7  -1  -2 403.793  10.568   1
  -7  -1  -2 396.688   9.546   3
   7  -1   2 401.355   9.777   3
  -7   1  -2 399.330  10.081   3
   7   1   2 404.948  10.556   1
  -7   1  -2 416.458   9.648   1
  -7   1  -2 397.439  10.455   5
  -7   1  -2 403.892   9.301   2
  -8  -1  -2 314.833   8.614   3
  -8  -1  -2 309.988   9.378   1
   8  -1   2 304.166   8.425   3
  -8   1  -2 315.225   8.332   2
  -8   1  -2 308.373   8.469   1
  -8   1  -2 312.372   9.083   3
  -8   1  -2 312.062   9.476   5
  -9  -1  -2 815.912  17.565   5
  -9  -1  -2 827.066  18.672   1
  -9   1  -2 866.269  18.660   3
  -9   1  -2 868.120  17.622   1
  -9   1  -2 871.453  17.427   2
  -9   1  -2 872.250  18.937   5
 -10  -1  -2 73.6068  4.4930   5
 -10  -1  -2 77.6175  4.9549   1
 -10   1  -2 73.9630  4.2988   2
 -10   1  -2 73.4153  4.2481   1
 -10   1  -2 73.7422  4.8045   3
 -11  -1  -2 569.798  15.399   1
 -11   1  -2 548.277  14.830   3
 -11   1  -2 565.136  14.177   1
 -11   1  -2 587.253  14.039   2
 -12  -1  -2 24.3164  3.1516   2
 -12  -1  -2 18.3871  3.2457   1
 -12   1  -2 22.2292  3.1040   2
 -12   1  -2 19.0528  2.9320   1
 -12   1  -2 26.6500  3.9955   3
 -13  -1  -2 344.108  12.094   1
 -13   1  -2 339.978  10.916   2
 -13   1  -2 333.325  11.901   3
 -14  -1  -2 8.28298 2.51711   1
 -14  -1  -2 6.53853 2.45414   2
 -14   1  -2 9.04540 3.02590   3
 -14   1  -2 9.13973 2.53434   2
 -15  -1  -2 149.340   8.253   1
 -15  -1  -2 134.760   7.237   2
 -15   1  -2 148.435   8.165   3
 -15  -2   2 14.3089  2.6861   2
 -15   2   2 12.4652  2.5796   3
 -14  -2   2 69.3200  5.2880   1
 -14  -2   2 58.0120  4.5625   2
 -14   2   2 65.4919  4.9092   3
 -13  -2   2 108.102   5.628   2
 -13  -2   2 108.579   6.976   1
 -13   2   2 102.725   5.974   3
 -12  -2   2 22.2279  3.1953   2
 -12  -2   2 26.4989  4.0390   1
  12   2  -2 27.0538  4.2155   1
 -12   2   2 28.2970  3.2890   3
 -11  -2   2 3.36746 1.74140   1
 -11  -2   2 5.47084 1.75399   2
  11   2  -2 5.59588 2.25907   1
 -11   2   2 6.01353 1.86929   3
  10  -2  -2 165.725   7.023   3
 -10  -2   2 168.860   5.913   2
 -10  -2   2 172.878   7.883   1
 -10   2   2 164.764   6.835   3
  10   2  -2 163.059   7.777   1
   9  -2  -2 66.0895  4.5896   3
  -9  -2   2 64.1988  4.7040   1
  -9   2   2 68.8662  4.2267   3
   9   2  -2 65.7196  4.7554   1
  -8  -2   2 40.5478  3.5204   1
   8  -2  -2 37.4330  3.5747   3
  -8   2   2 38.1745  3.1639   3
  -8   2   2 47.4696  3.7617   5
  -8   2   2 42.0569  2.8543   2
  -8   2   2 41.1058  2.5183   1
   8   2  -2 40.8790  3.6556   1
  -7  -2   2 26.2389  2.7575   1
   7  -2  -2 25.8732  2.8015   3
  -7   2   2 22.3880  1.7331   1
  -7   2   2 23.3111  2.9848   5
   7   2  -2 20.4500  2.8045   1
  -7   2   2 25.7252  2.0443   2
  -7   2   2 18.0269  1.9644   3
   6  -2  -2 327.192   8.533   3
  -6  -2   2 329.005   9.585   1
   6  -2  -2 323.543   8.115   2
  -6   2   2 318.559   6.758   1
  -6   2   2 306.219   9.181   5
  -6   2   2 311.267   7.898   3
   6   2  -2 315.041   9.309   1
   5  -2  -2 310.431   7.890   3
   5  -2  -2 322.429   8.495   5
   5   2  -2 317.039   8.867   1
  -5   2   2 315.290   6.231   1
  -5   2   2 312.676   8.786   5
  -5   2   2 312.015   7.313   3
   4  -2  -2 991.152  17.759   3
   4  -2  -2 1006.41   18.05   5
   4  -2  -2 985.867  17.226   2
  -4   2   2 959.153  16.807   3
  -4   2   2 958.471  15.123   1
  -4   2   2 959.744  18.161   5
   4   2  -2 975.826  16.207   4
   4   2  -2 972.524  18.669   1
   3  -2  -2 523.336  10.140   3
   3  -2  -2 532.173   9.866   2
   3  -2  -2 542.474  11.096   5
   3   2  -2 536.694  11.585   1
  -3   2   2 541.770  11.348   5
   3   2  -2 524.545   9.990   4
   2  -2  -2 2258.39   34.30   5
   2   2  -2 2255.73   32.43   4
   2   2  -2 2208.46   35.73   1
  -2   2   2 2274.19   34.62   5
   1  -2  -2 61.1729  2.7097   5
  -1  -2   2 65.7232  2.8909   5
  -1   2   2 63.5776  1.8832   1
  -1   2   2 67.0681  2.8921   5
   1   2  -2 58.0172  2.8159   1
   1   2  -2 62.4175  2.6842   4
   0  -2  -2 2206.79   32.60   5
   0  -2   2 2224.52   33.38   5
   0   2   2 2177.38   32.72   1
   0   2  -2 2172.96   33.93   1
   0   2   2 2169.51   30.56   4
   0   2  -2 2140.86   33.17   5
   0   2   2 2199.54   32.68   5
   0   2  -2 2143.72   31.38   4
   1  -2   2 55.1036  2.7755   5
  -1  -2  -2 64.8255  2.6050   1
  -1  -2  -2 62.9721  2.5803   5
   1   2   2 63.2522  2.5400   1
  -1   2  -2 63.5355  2.6597   1
   1   2   2 61.8303  2.2975   4
  -1   2  -2 63.8208  2.9817   5
  -2  -2  -2 2232.62   33.49   5
  -2  -2  -2 2252.89   35.40   1
   2   2   2 2271.06   35.27   1
   2   2   2 2250.02   31.59   4
  -2   2  -2 2265.69   35.03   5
  -2   2  -2 2279.93   34.75   1
   3  -2   2 538.418  11.279   5
   3  -2   2 527.177  10.366   3
   3  -2   2 533.717  10.105   2
  -3  -2  -2 540.807  11.262   1
  -3   2  -2 536.591  11.449   5
  -3   2  -2 530.691  10.208   1
   3   2   2 519.718   9.320   4
   3   2   2 537.371  11.185   1
  -3   2  -2 529.343   9.506   3
   4  -2   2 984.558  17.842   3
  -4  -2  -2 964.613  18.375   1
   4  -2   2 983.702  18.074   5
   4  -2   2 965.033  17.286   2
   4   2   2 987.634  18.282   1
  -4   2  -2 964.343  16.806   1
  -4   2  -2 970.387  18.251   5
  -4   2  -2 958.131  17.066   3
   5  -2   2 316.802   7.711   2
   5  -2   2 314.418   8.511   5
  -5  -2  -2 318.224   8.765   1
   5  -2   2 309.259   7.791   3
  -5   2  -2 305.534   8.719   5
  -5   2  -2 310.768   7.431   1
   5   2   2 319.881   8.750   1
  -5   2  -2 314.015   7.501   3
   6  -2   2 321.962   8.425   3
   6  -2   2 316.341   8.143   2
  -6  -2  -2 312.813   9.194   1
   6   2   2 326.689   9.284   1
  -6   2  -2 308.372   9.163   5
  -6   2  -2 323.452   7.856   1
  -6   2  -2 303.605   8.038   3
  -6   2  -2 328.941   7.338   2
   7  -2   2 21.1537  2.4909   2
  -7  -2  -2 22.8058  2.5924   1
   7  -2   2 21.7287  2.6407   3
  -7   2  -2 21.1599  1.8970   2
  -7   2  -2 22.3886  2.8588   5
   7   2   2 19.8665  2.7988   1
  -7   2  -2 21.8214  2.5259   3
  -7   2  -2 26.8828  2.2235   1
   8  -2   2 36.3562  3.0786   2
   8  -2   2 42.3183  3.5104   3
  -8  -2  -2 41.8784  3.6352   1
   8   2   2 35.6451  3.5678   1
  -8   2  -2 43.4818  2.9864   1
  -8   2  -2 39.3365  3.3603   3
  -8   2  -2 44.1548  2.8123   2
  -8   2  -2 42.3498  3.5223   5
   9  -2   2 63.8616  4.2699   3
  -9  -2  -2 65.4116  4.6443   1
  -9   2  -2 65.1782  4.1677   3
  -9   2  -2 64.4062  3.8289   1
   9   2   2 66.7926  4.7904   1
  -9   2  -2 72.0624  3.7497   2
 -10  -2  -2 165.368   7.671   1
  10  -2   2 167.616   6.904   3
 -10   2  -2 171.189   6.948   3
 -10   2  -2 174.710   6.683   1
 -11  -2  -2 6.64655 2.07660   1
  11  -2   2 7.82609 2.68602   3
 -11   2  -2 6.57524 2.04182   3
 -12  -2  -2 32.0769  4.2261   1
 -12   2  -2 28.3558  3.2729   3
 -13  -2  -2 108.478   5.555   2
 -13  -2  -2 100.529   6.683   1
 -13   2  -2 99.8720  5.8928   3
 -14  -2  -2 59.9109  4.4401   2
 -14  -2  -2 50.3807  4.9781   1
 -14   2  -2 60.1336  4.7199   3
 -15  -2  -2 9.31943 2.75118   2
 -15   2  -2 15.5681  2.6651   3
 -15  -3   2 116.855   6.594   2
 -15   3   2 112.687   6.352   3
 -14  -3   2 75.5930  5.1267   2
 -14   3   2 72.3908  5.0568   3
 -13  -3   2 143.852   8.345   1
 -13  -3   2 152.038   6.763   2
 -13   3   2 147.448   6.928   3
  13   3  -2 144.409   8.709   1
  12  -3  -2 -3.7898  2.6463   3
 -12  -3   2 5.77477 2.01182   1
 -12  -3   2 5.70315 2.07121   2
 -12   3   2 9.48531 2.27554   3
  12   3  -2 3.42787 2.35722   1
 -11  -3   2 369.090   9.656   2
 -11  -3   2 348.900  12.881   1
  11  -3  -2 358.348  11.888   3
 -11   3   2 371.131  10.683   3
  10  -3  -2 62.0673  5.0998   3
 -10  -3   2 58.4865  4.8981   1
  10   3  -2 55.1104  4.9985   1
 -10   3   2 64.7642  3.9431   3
  -9  -3   2 229.268   9.366   1
   9  -3  -2 238.780   8.679   3
  -9   3   2 222.519   7.093   3
   9   3  -2 206.839   9.032   1
   8  -3  -2 102.501   4.976   2
  -8  -3   2 95.7217  5.8124   1
   8  -3  -2 104.652   5.397   3
  -8   3   2 100.219   4.186   3
   8   3  -2 94.6832  5.7638   1
   7  -3  -2 1257.45   23.38   2
  -7  -3   2 1230.79   25.49   1
   7  -3  -2 1263.22   24.21   3
   7   3  -2 1204.50   25.15   1
  -7   3   2 1212.39   21.68   3
  -7   3   2 1197.88   24.85   5
   6  -3  -2 33.7872  2.8417   3
   6  -3  -2 34.9284  2.7578   2
  -6  -3   2 28.9447  3.0497   1
   6   3  -2 37.5615  3.4215   1
  -6   3   2 34.4444  1.7067   3
  -6   3   2 33.7009  3.1568   5
   5  -3  -2 152.107   5.181   3
   5  -3  -2 153.204   5.056   2
   5   3  -2 138.604   6.048   1
   5   3  -2 142.432   5.105   4
  -5   3   2 140.458   6.144   5
  -5   3   2 145.881   3.446   1
   4  -3  -2 290.757   6.959   2
   4  -3  -2 295.452   7.142   3
   4   3  -2 291.170   8.839   1
   4   3  -2 289.199   7.531   4
  -4   3   2 291.986   8.816   5
   3  -3  -2 647.039  13.677   5
   3  -3  -2 638.758  11.314   2
   3   3  -2 638.971  14.140   1
  -3   3   2 645.637  10.470   1
  -3   3   2 628.603  13.953   5
   3   3  -2 643.138  12.583   4
   2  -3  -2 262.027   7.401   5
  -2  -3   2 273.711   7.583   5
   2   3  -2 267.079   6.999   4
  -2   3   2 259.023   7.630   5
  -2   3   2 264.983   5.361   1
   2   3  -2 258.650   7.583   1
   1  -3  -2 260.009   7.193   5
  -1  -3   2 269.627   7.509   5
   1   3  -2 275.207   7.017   4
  -1   3   2 249.374   7.217   5
   1   3  -2 264.081   7.334   1
  -1   3   2 268.113   6.623   4
  -1   3   2 256.623   5.727   1
   0  -3  -2 23.3027  1.9932   5
   0  -3   2 23.4665  2.0508   5
   0   3  -2 26.6947  2.1085   1
   0   3   2 22.8171  1.6720   1
   0   3   2 23.3118  1.9966   5
   0   3  -2 24.1350  2.0960   4
   0   3  -2 21.8982  2.0767   5
   0   3   2 26.9568  1.9561   4
   1  -3   2 270.076   7.642   5
  -1  -3  -2 280.661   7.253   5
  -1   3  -2 271.059   7.176   4
   1   3   2 264.593   6.377   4
  -1   3  -2 267.126   6.929   1
   1   3   2 271.480   6.776   1
  -1   3  -2 254.214   7.571   5
  -2  -3  -2 273.048   7.081   5
  -2  -3  -2 263.341   7.188   1
   2  -3   2 251.803   7.548   5
  -2   3  -2 262.694   6.688   1
   2   3   2 263.726   7.096   1
   2   3   2 254.042   6.304   4
  -2   3  -2 256.375   7.747   5
   3  -3   2 640.868  11.839   2
  -3  -3  -2 631.008  13.704   1
   3  -3   2 648.899  12.415   3
   3  -3   2 646.703  14.013   5
  -3  -3  -2 633.172  12.807   5
   3   3   2 656.878  13.691   1
   3   3   2 648.000  11.845   4
  -3   3  -2 646.270  12.509   1
  -3   3  -2 644.484  14.268   5
   4  -3   2 289.329   7.150   2
   4  -3   2 292.512   7.343   3
  -4  -3  -2 290.315   8.550   1
  -4   3  -2 278.195   8.793   5
   4   3   2 294.378   8.499   1
  -4   3  -2 290.444   7.182   1
   4   3   2 299.095   7.044   4
   5  -3   2 144.122   5.130   3
  -5  -3  -2 145.127   6.065   1
   5  -3   2 142.484   5.048   2
  -5   3  -2 147.794   4.841   1
  -5   3  -2 149.432   3.314   3
  -5   3  -2 144.681   6.269   5
   5   3   2 142.006   5.914   1
  -6  -3  -2 32.5791  3.1968   1
   6  -3   2 28.8756  2.5276   2
   6  -3   2 33.2038  2.8162   3
  -6   3  -2 34.1000  2.3934   1
  -6   3  -2 33.7997  2.1172   3
   6   3   2 37.5193  3.2142   1
  -6   3  -2 33.0379  3.1613   5
  -7  -3  -2 1207.75   24.91   1
   7  -3   2 1256.03   23.45   2
   7  -3   2 1223.78   23.87   3
  -7   3  -2 1203.12   22.04   3
  -7   3  -2 1210.63   24.86   5
   7   3   2 1213.45   24.85   1
  -7   3  -2 1218.60   21.90   1
  -8  -3  -2 90.0415  5.5484   1
   8  -3   2 99.0878  5.3353   3
   8  -3   2 95.6967  5.0106   2
   8   3   2 104.618   5.939   1
  -8   3  -2 101.931   4.424   3
   9  -3   2 215.236   8.123   3
   9  -3   2 206.617   7.644   2
  -9  -3  -2 222.574   9.071   1
  -9   3  -2 225.189   7.344   3
   9   3   2 229.739   9.353   1
  10  -3   2 65.0801  4.9168   3
 -10  -3  -2 62.0589  5.0370   1
 -10   3  -2 67.4428  4.2462   3
  10   3   2 59.7549  5.1255   1
  11  -3   2 366.100  11.725   3
 -11  -3  -2 347.087  12.649   1
 -11   3  -2 353.770  10.677   3
 -12  -3  -2 10.1834  2.5954   1
  12  -3   2 5.51350 2.78408   3
 -12   3  -2 8.09030 2.17165   3
 -13  -3  -2 140.652   8.267   1
  13  -3   2 141.537   7.493   3
 -13   3  -2 148.478   7.011   3
 -14  -3  -2 74.7501  5.0733   2
 -14   3  -2 74.9686  5.1293   3
 -15  -3  -2 115.099   6.544   2
 -15   3  -2 111.398   6.416   3
 -14  -4   2 5.57663 2.43290   2
  13  -4  -2 30.4729  5.2331   3
 -13  -4   2 30.2601  3.3279   2
 -12  -4   2 39.4505  3.5595   2
 -12  -4   2 42.2848  4.6626   1
  12  -4  -2 40.1464  5.6294   3
  12   4  -2 34.5473  5.1518   1
 -11  -4   2 79.3106  6.1824   1
  11  -4  -2 64.4456  5.7073   3
  11   4  -2 68.7765  6.0899   1
  10  -4  -2 229.307   9.324   3
 -10  -4   2 219.605  10.167   1
  10   4  -2 215.550  10.165   1
   9  -4  -2 244.144   8.682   2
   9  -4  -2 240.793   8.992   3
  -9  -4   2 226.055  10.039   1
   9   4  -2 223.691   9.865   1
   8  -4  -2 134.884   6.308   3
  -8  -4   2 126.801   7.225   1
   8  -4  -2 106.023   5.485   2
   8   4  -2 147.566   7.535   1
   7  -4  -2 207.585   7.501   3
   7  -4  -2 207.870   7.324   2
  -7  -4   2 197.487   8.757   1
   7   4  -2 210.058   8.847   1
   6  -4  -2 696.214  14.921   2
  -6  -4   2 654.435  17.063   1
   6   4  -2 665.761  17.039   1
   5  -4  -2 46.3408  3.0207   2
   5   4  -2 43.9304  3.8093   1
  -5   4   2 48.7089  3.8913   5
   5   4  -2 45.4140  3.2728   4
   4  -4  -2 809.707  14.849   2
   4   4  -2 776.833  15.623   4
  -4   4   2 764.439  17.825   5
   4   4  -2 766.747  17.686   1
   3  -4  -2 1.83142 0.75045   2
   3   4  -2 0.39630 1.12555   4
   3   4  -2 0.55014 1.12432   1
  -3   4   2 1.79301 1.11723   5
  -2   4   2 977.589  20.167   5
   2   4  -2 1008.48   18.71   4
  -2   4   2 1012.56   16.98   1
  -2   4   2 1005.05   18.51   4
   2   4  -2 1022.67   20.33   1
   1   4  -2 33.4567  2.7960   4
  -1   4   2 42.7400  3.1903   5
   1   4  -2 45.1102  3.2087   1
  -1   4   2 41.4868  2.9790   4
  -1   4   2 40.7390  2.3111   1
   0   4   2 221.540   6.203   1
   0   4  -2 212.257   6.943   4
   0   4   2 214.353   7.198   5
   0   4  -2 222.721   7.702   5
   0   4  -2 237.133   7.227   1
   0   4   2 218.574   6.556   4
  -1  -4  -2 44.1857  3.0480   5
  -1   4  -2 37.0380  3.1141   5
   1   4   2 37.6867  2.6632   4
  -1   4  -2 40.4738  3.1182   4
  -1   4  -2 44.8105  2.9209   1
   1   4   2 38.6376  2.6714   1
  -2  -4  -2 1013.66   19.59   1
  -2   4  -2 997.500  19.217   4
   2   4   2 1020.04   17.99   4
  -2   4  -2 1024.20   18.91   1
  -2   4  -2 966.580  20.486   5
   2   4   2 1027.69   19.51   1
  -3  -4  -2 1.87773 1.10342   1
   3  -4   2 2.08796 0.92926   2
   3   4   2 1.93387 1.11134   1
  -3   4  -2 3.38555 1.43793   5
  -3   4  -2 3.42470 1.01243   1
   3   4   2 1.22038 1.01390   4
  -4  -4  -2 786.954  17.504   1
   4  -4   2 769.415  15.104   2
   4   4   2 787.308  15.053   4
   4   4   2 793.707  17.341   1
  -4   4  -2 813.011  18.318   5
  -4   4  -2 783.819  15.317   1
  -5  -4  -2 45.0850  3.7642   1
   5  -4   2 46.3401  3.1739   2
   5   4   2 46.8412  3.7551   1
  -5   4  -2 45.7739  2.8969   1
  -5   4  -2 42.7837  3.7646   5
  -6  -4  -2 683.981  16.972   1
   6  -4   2 701.634  15.453   3
   6  -4   2 682.968  15.130   2
   6   4   2 667.460  16.700   1
  -7  -4  -2 191.709   8.363   1
   7  -4   2 213.863   7.594   3
   7  -4   2 193.485   7.196   2
   7   4   2 208.387   8.618   1
  -8  -4  -2 135.575   7.233   1
   8  -4   2 139.059   6.356   2
   8  -4   2 149.284   6.603   3
   8   4   2 141.908   7.311   1
   9  -4   2 249.263   9.319   3
  -9  -4  -2 243.433  10.159   1
   9  -4   2 242.276   8.796   2
   9   4   2 238.971  10.088   1
  10  -4   2 233.450   9.325   3
  10  -4   2 226.288   8.882   2
 -10  -4  -2 234.881  10.354   1
  10   4   2 231.444  10.435   1
 -11  -4  -2 73.7335  6.0473   1
  11  -4   2 64.9865  5.4257   3
  11   4   2 65.6253  5.8386   1
 -12  -4  -2 35.2479  4.8508   1
  12  -4   2 36.0817  5.3147   3
  13  -4   2 20.9361  4.5357   3
  14  -4   2 1.35514 2.21408   3
  13  -5  -2 -2.6367  3.2764   3
 -13  -5   2 1.36405 1.47209   2
  12  -5  -2 0.02052 3.58426   3
  11  -5  -2 143.818   8.183   3
 -11  -5   2 150.938   9.120   1
  11   5  -2 162.034   9.331   1
 -10  -5   2 21.1471  4.2322   1
  10  -5  -2 19.5827  3.5898   2
  10  -5  -2 15.7437  3.4112   3
  10   5  -2 19.1474  3.8969   1
  -9  -5   2 175.496   9.347   1
   9  -5  -2 184.337   8.023   2
   9   5  -2 202.890   9.786   1
   8  -5  -2 6.18204 2.20659   2
  -8  -5   2 6.46423 2.32453   1
   8   5  -2 5.17136 2.11607   1
  -7  -5   2 76.5851  5.8392   1
   7  -5  -2 76.3760  4.7451   2
   7   5  -2 85.5367  5.9759   1
   6  -5  -2 172.096   6.559   2
  -6  -5   2 159.515   8.050   1
   6   5  -2 165.460   6.800   4
   6   5  -2 163.165   8.067   1
   5  -5  -2 20.1758  2.5857   2
   5   5  -2 19.6245  2.9450   4
   5   5  -2 17.6742  3.1846   1
   4  -5  -2 24.0048  2.3248   2
   4   5  -2 26.6569  3.6888   1
   4   5  -2 28.2287  3.3154   4
   3   5  -2 236.726   8.177   4
  -3   5   2 240.401   8.259   4
   3   5  -2 256.065   9.158   1
  -2   5   2 150.018   6.968   5
   2   5  -2 149.681   6.605   1
   2   5  -2 151.946   6.452   4
  -2   5   2 151.960   6.317   4
  -1   5   2 67.6408  4.1266   4
   1   5  -2 75.3302  4.5427   4
   1   5  -2 76.7250  4.5667   1
  -1   5   2 71.4624  4.6206   5
   0  -5  -2 74.9867  3.7807   1
   0   5  -2 61.1994  3.9848   1
   0   5   2 63.7787  3.5933   1
   0   5  -2 70.2265  4.3971   4
   0   5   2 72.9553  4.5602   5
   0   5   2 67.5102  4.0818   4
  -1  -5  -2 74.0367  4.0652   1
   1   5   2 77.0796  4.2991   4
  -1   5  -2 76.5088  4.6801   4
  -1   5  -2 71.2649  4.7388   5
  -1   5  -2 74.6971  4.2326   1
   1   5   2 78.3663  4.1808   1
  -2  -5  -2 152.873   6.284   1
  -2   5  -2 155.075   5.914   1
  -2   5  -2 151.764   6.689   4
   2   5   2 150.466   6.032   4
   2   5   2 150.351   6.137   1
  -3  -5  -2 253.978   8.688   1
   3  -5   2 252.342   6.293   2
  -3   5  -2 242.592   8.746   4
   3   5   2 248.970   7.748   4
   3   5   2 234.255   8.311   1
   4  -5   2 23.6945  2.3612   2
  -4  -5  -2 26.3038  3.4440   1
   4   5   2 28.2636  3.1073   1
  -4   5  -2 28.5078  3.7491   4
   4   5   2 26.3975  2.7037   4
   5  -5   2 20.8082  2.7332   2
  -5  -5  -2 19.9418  3.1758   1
   5   5   2 23.5514  3.3305   1
   5   5   2 18.8585  2.6488   4
  -6  -5  -2 170.254   7.992   1
   6  -5   2 172.907   6.723   2
   6   5   2 165.649   7.809   1
  -7  -5  -2 77.8438  5.6370   1
   7  -5   2 80.1529  4.8082   2
   7   5   2 81.4466  5.7901   1
   8  -5   2 6.71891 2.34615   2
  -8  -5  -2 2.01323 1.95974   1
   8   5   2 7.76168 2.48445   1
  -9  -5  -2 200.289   9.676   1
   9  -5   2 191.550   8.281   2
   9   5   2 188.721   9.361   1
 -10  -5  -2 15.6529  3.5766   1
  10  -5   2 11.9648  3.3068   3
  10  -5   2 16.0947  3.4311   2
  10   5   2 18.4492  4.0290   1
  11  -5   2 140.030   7.575   2
 -11  -5  -2 143.872   8.677   1
  11  -5   2 144.994   8.067   3
  11   5   2 155.522   8.541   1
  12  -5   2 5.27334 3.55820   3
  13  -5   2 -0.4015  3.1665   3
  10  -6  -2 14.7619  3.5807   2
  -9  -6   2 52.2043  5.5629   1
   9  -6  -2 55.7298  5.0308   2
   9   6  -2 61.2813  5.5791   1
  -8  -6   2 254.110  11.522   1
   8  -6  -2 236.642   9.193   2
   8   6  -2 239.171  11.204   1
  -7  -6   2 28.8116  4.5416   1
   7  -6  -2 39.3688  3.9085   2
   7   6  -2 30.3557  4.4966   1
  -6  -6   2 184.680   9.285   1
   6  -6  -2 187.276   7.397   2
  -6   6   2 197.116   8.744   4
   6   6  -2 198.680   8.066   4
   6   6  -2 182.516   8.990   1
   5  -6  -2 115.419   5.339   2
  -5  -6   2 114.078   7.006   1
   5   6  -2 131.780   7.307   1
  -5   6   2 118.705   6.663   4
   5   6  -2 107.816   6.040   4
   4  -6  -2 143.069   5.413   2
   4   6  -2 153.516   7.084   4
   4   6  -2 165.346   7.995   1
  -4   6   2 151.218   7.395   4
  -3   6   2 204.942   8.345   4
   3   6  -2 208.227   8.773   1
   3   6  -2 199.395   8.160   4
  -2   6   2 353.676  11.055   4
   2   6  -2 373.976  11.503   4
   2   6  -2 355.616  11.560   1
   1   6  -2 288.627  10.006   4
   1   6  -2 295.906   9.986   1
  -1   6   2 279.437   9.478   4
   0   6  -2 1054.60   22.19   4
   0   6   2 1042.76   21.18   4
   1   6   2 300.570   9.637   4
  -1   6  -2 277.353   9.923   4
  -2   6  -2 333.774  11.227   4
   2   6   2 356.629  10.607   4
   3  -6   2 197.598   5.975   2
  -3  -6  -2 207.635   8.262   1
   3   6   2 193.419   8.025   1
   3   6   2 199.229   7.626   4
  -3   6  -2 204.711   8.840   4
  -4  -6  -2 157.762   7.486   1
   4  -6   2 149.585   5.678   2
   4   6   2 148.939   7.236   1
   4   6   2 152.824   6.657   4
  -4   6  -2 146.647   7.578   4
   5  -6   2 114.657   5.551   2
  -5  -6  -2 108.108   6.471   1
  -5   6  -2 124.739   7.074   4
   5   6   2 122.212   5.937   4
   5   6   2 118.658   6.732   1
  -6  -6  -2 199.765   9.158   1
   6  -6   2 185.350   7.545   2
   6   6   2 177.566   8.644   1
  -6   6  -2 185.941   8.983   4
   7  -6   2 30.9187  4.0006   2
  -7  -6  -2 30.4635  4.3985   1
   7   6   2 42.0963  4.3183   1
  -8  -6  -2 245.594  11.013   1
   8  -6   2 246.169   9.559   2
   8   6   2 241.584  10.817   1
  -9  -6  -2 53.3303  5.3436   1
   9   6   2 49.0267  5.1514   1
  10  -6   2 16.3113  3.7039   2
  11  -6   2 4.21630 3.09434   2
   9  -7  -2 82.6208  5.8978   2
  -9   7   2 84.9087  6.7881   4
   8  -7  -2 4.18636 2.64688   2
  -8   7   2 2.37489 2.90545   4
   7  -7  -2 299.477  10.821   2
  -7  -7   2 297.079  12.799   1
  -7   7   2 305.624  12.288   4
   7   7  -2 312.299  13.064   1
  -6  -7   2 2.14564 1.79395   1
   6  -7  -2 0.06903 2.08784   2
  -6   7   2 -0.5298  2.4246   4
   6   7  -2 3.29300 2.34480   1
   6   7  -2 -0.4563  1.9673   4
  -5  -7   2 29.8467  4.6084   1
   5  -7  -2 23.7308  3.4609   2
  -5   7   2 27.4041  4.5359   4
   5   7  -2 23.2188  3.7439   4
   5   7  -2 27.3843  4.3379   1
   4  -7  -2 48.6255  3.5140   2
  -4  -7   2 52.5436  5.1072   1
   4   7  -2 44.0031  4.3344   4
   4   7  -2 50.8363  4.9990   1
  -4   7   2 48.8424  4.8783   4
   3   7  -2 52.9266  4.7315   4
  -3   7   2 50.0454  4.6819   4
   2   7  -2 4.90310 2.39776   4
  -2   7   2 7.91689 2.46654   4
   1   7  -2 34.4199  4.5535   4
  -1   7   2 42.5247  4.2503   4
   0   7  -2 8.61534 2.89083   4
   0   7   2 3.53804 2.40284   4
  -1   7  -2 38.5067  4.8813   4
   1   7   2 39.4492  4.1091   4
   2   7   2 2.87037 2.15593   4
  -2   7  -2 3.64105 2.31445   4
  -3   7  -2 47.2881  4.7572   4
   3   7   2 54.7888  4.6622   4
   4  -7   2 48.5425  3.7269   2
   4   7   2 51.8185  4.5289   4
  -4   7  -2 56.8710  5.2721   4
   5  -7   2 27.6298  3.7452   2
   5   7   2 27.2473  3.8667   4
  -5   7  -2 32.2388  4.8702   4
   6  -7   2 3.02693 2.50442   2
  -6  -7  -2 0.88441 1.87818   1
  -6   7  -2 -4.6684  2.1300   4
   7  -7   2 307.754  11.060   2
  -7  -7  -2 309.643  12.598   1
   7   7   2 320.175  12.617   1
  -7   7  -2 312.478  12.719   4
   8  -7   2 5.44539 2.34837   2
  -8   7  -2 8.38818 3.12420   4
   9  -7   2 79.2857  6.0179   2
  -9   7  -2 78.4270  6.7145   4
   6  -8  -2 74.9615  5.6134   2
   5  -8  -2 80.3832  5.3401   2
   5   8  -2 80.4918  6.0052   4
   4   8  -2 62.8819  5.6399   4
   3   8  -2 15.9060  3.7306   4
   2   8  -2 47.6354  5.5886   4
   1   8  -2 19.6331  4.0056   4
   0   8  -2 69.9097  6.1283   4
  -1   8  -2 19.4551  4.0749   4
  -2   8  -2 47.4104  5.9322   4
  -3   8  -2 4.41536 2.86874   4
   4  -8   2 43.0112  3.9587   2
  -4   8  -2 40.2120  5.3726   4
   5  -8   2 75.5762  5.6231   2
  -5   8  -2 82.3849  6.5352   4
   6  -8   2 68.9292  5.7058   2
 -16   0   3 8.28344 2.95816   3
 -16   0   3 4.03748 2.65634   2
 -15   0   3 151.041   8.513   3
 -15   0   3 146.574   7.718   2
 -14   0   3 58.8753  4.7960   2
 -14   0   3 48.4605  4.8799   3
 -13   0   3 214.263   8.462   2
 -13   0   3 207.056   9.020   3
 -12   0   3 72.2168  5.1567   3
 -12   0   3 65.2222  4.4395   2
 -12   0   3 68.4425  4.7220   1
 -11   0   3 116.039   6.060   3
 -11   0   3 106.509   5.586   1
 -11   0   3 114.121   5.414   2
 -10   0   3 106.784   5.069   2
  10   0  -3 113.991   5.529   1
 -10   0   3 112.516   5.731   3
 -10   0   3 100.899   5.206   1
  -9   0   3 106.136   5.303   3
   9   0  -3 108.898   5.158   1
  -9   0   3 113.156   4.777   2
  -9   0   3 101.120   5.356   5
  -9   0   3 101.816   4.899   1
  -8   0   3 661.992  14.536   1
  -8   0   3 665.645  15.137   5
   8   0  -3 688.345  14.630   1
  -8   0   3 680.883  15.053   3
  -8   0   3 670.200  13.970   2
   7   0  -3 49.5716  3.0721   1
  -7   0   3 50.6656  3.2443   3
  -7   0   3 48.7876  2.7847   2
  -7   0   3 53.4443  3.1726   1
  -6   0   3 1323.73   23.62   3
  -6   0   3 1264.42   22.50   1
   6   0  -3 1302.91   22.50   1
  -5   0   3 1367.36   23.81   3
  -5   0   3 1339.88   22.80   1
  -4   0   3 114.273   3.734   3
   4   0  -3 121.197   3.781   1
   3   0  -3 137.714   3.773   1
  -3   0   3 141.664   3.819   3
   2   0  -3 10.0854  1.0218   1
  -2   0   3 6.80869 1.06216   3
  -1   0   3 216.449   4.480   3
   1   0  -3 212.793   4.375   1
   0   0  -3 -3.1473  0.2276   4
   0   0  -3 -3.6451  0.4130   3
   0   0  -3 -2.5562  0.4225   1
   0   0   3 -3.8605  0.3162   3
   1   0   3 212.770   3.635   5
  -1   0  -3 212.910   4.498   1
  -1   0  -3 213.002   3.644   5
  -1   0  -3 210.763   4.389   3
   2   0   3 8.34681 0.80388   5
  -2   0  -3 8.43785 1.23931   3
  -2   0  -3 8.05834 1.02371   1
  -2   0  -3 8.59661 0.82052   5
  -3   0  -3 141.402   3.979   3
  -3   0  -3 143.099   3.991   1
   3   0   3 133.836   3.398   3
  -3   0  -3 138.383   3.555   5
  -4   0  -3 116.472   3.610   5
  -4   0  -3 111.434   3.726   3
   4   0   3 109.633   3.204   3
  -4   0  -3 112.963   3.786   1
   5   0   3 1310.18   22.22   3
  -5   0  -3 1331.84   22.57   1
  -5   0  -3 1339.83   23.33   3
  -5   0  -3 1297.76   21.57   5
   6   0   3 1298.68   22.11   3
  -6   0  -3 1299.84   22.81   1
  -6   0  -3 1291.01   23.45   3
  -6   0  -3 1282.31   22.02   5
  -7   0  -3 45.8610  2.9962   5
  -7   0  -3 50.4551  3.3879   3
  -7   0  -3 51.3509  3.2064   1
  -8   0  -3 666.803  14.600   5
  -8   0  -3 674.977  14.816   1
  -8   0  -3 667.173  14.887   3
  -9   0  -3 104.464   5.120   1
  -9   0  -3 102.687   5.150   5
  -9   0  -3 105.044   5.272   3
 -10   0  -3 110.082   5.557   1
 -10   0  -3 112.530   5.637   5
 -10   0  -3 112.884   5.080   2
 -10   0  -3 109.802   5.715   3
 -11   0  -3 107.577   5.768   1
 -11   0  -3 105.933   5.934   3
 -11   0  -3 106.658   5.221   2
 -12   0  -3 70.5289  5.1797   3
 -12   0  -3 69.9928  4.5780   2
 -12   0  -3 72.0751  4.9746   1
 -13   0  -3 194.421   8.663   1
 -13   0  -3 217.406   9.094   3
 -13   0  -3 205.751   8.184   2
 -14   0  -3 65.4842  5.3968   3
 -14   0  -3 54.6194  4.5630   2
 -14   0  -3 57.4661  4.8422   1
 -15   0  -3 142.878   7.323   2
 -15   0  -3 145.779   8.135   3
 -16   0  -3 12.7310  3.1893   2
 -16   0  -3 9.49253 2.67268   3
 -15  -1   3 76.2571  5.5486   2
 -15   1   3 75.4417  6.0460   3
 -14  -1   3 67.7944  5.4759   1
 -14  -1   3 71.6776  5.0791   2
 -14   1   3 64.1969  5.5718   3
 -13  -1   3 21.2929  3.0761   2
 -13  -1   3 10.7888  2.7568   1
 -13   1   3 19.1282  3.6913   3
 -13   1   3 12.4831  2.7646   2
 -12  -1   3 239.956   9.639   1
 -12   1   3 248.714   9.608   3
 -12   1   3 261.345   9.038   2
  12   1  -3 253.166   9.940   1
 -11  -1   3 34.6734  3.5051   1
 -11  -1   3 40.4369  3.3387   2
 -11   1   3 29.2909  3.5897   3
 -11   1   3 37.2191  3.3775   2
  11   1  -3 29.7703  3.9103   1
 -10  -1   3 202.591   8.130   1
 -10  -1   3 205.747   6.953   2
 -10  -1   3 217.377   7.712   3
 -10   1   3 208.797   7.817   3
  10   1  -3 209.594   8.238   1
 -10   1   3 197.564   6.819   1
 -10   1   3 208.017   7.231   2
  -9  -1   3 379.245  10.251   3
  -9  -1   3 374.285  11.071   1
  -9  -1   3 376.247   9.531   2
  -9   1   3 369.765   9.797   2
  -9   1   3 377.378  10.603   3
   9   1  -3 355.502  10.849   1
  -9   1   3 375.996   9.523   1
  -8  -1   3 102.647   4.088   2
  -8  -1   3 98.9033  4.5327   3
  -8  -1   3 107.751   5.219   1
  -8   1   3 94.1518  4.6560   3
   8   1  -3 101.257   5.098   1
  -8   1   3 99.1942  4.1552   1
  -8   1   3 102.916   4.362   2
  -8   1   3 97.9625  5.1772   5
  -7  -1   3 593.523  11.692   2
  -7  -1   3 574.332  12.529   3
  -7  -1   3 571.567  13.590   1
   7  -1  -3 569.581  12.824   3
  -7   1   3 580.382  11.690   1
   7   1  -3 588.874  13.520   1
  -7   1   3 599.693  13.151   3
  -7   1   3 573.197  12.218   2
  -7   1   3 607.914  13.867   5
  -6  -1   3 89.5945  4.3434   1
   6  -1  -3 95.3179  4.1177   3
  -6  -1   3 93.3615  3.6898   3
  -6  -1   3 94.7328  3.2815   2
  -6   1   3 95.3783  3.6630   2
  -6   1   3 94.5295  4.4196   5
   6   1  -3 91.0207  4.3079   1
  -6   1   3 92.5298  3.9754   3
  -6   1   3 93.8790  3.3932   1
  -5  -1   3 2151.33   33.49   2
   5  -1  -3 2157.90   32.79   1
   5  -1  -3 2126.42   35.95   3
  -5  -1   3 2148.21   35.22   3
  -5   1   3 2122.47   32.72   1
  -5   1   3 2171.39   34.45   2
  -5   1   3 2164.99   34.24   5
  -5   1   3 2124.28   35.98   3
   5   1  -3 2118.54   35.02   1
  -4  -1   3 104.045   3.130   3
   4  -1  -3 105.135   2.844   1
   4  -1  -3 104.800   3.661   3
  -4   1   3 105.902   2.882   1
  -4   1   3 102.012   3.952   5
  -4   1   3 104.333   3.538   3
   4   1  -3 103.354   4.010   1
   3  -1  -3 2142.72   30.77   1
   3  -1  -3 2158.53   34.27   3
  -3   1   3 2184.66   30.85   1
  -3   1   3 1844.26   33.85   3
   3   1  -3 2177.31   33.41   1
   2  -1  -3 994.357  15.742   5
   2  -1  -3 977.604  16.493   3
   2   1  -3 986.622  16.839   1
  -2   1   3 989.611  15.907   5
   2   1  -3 951.797  14.797   4
  -2   1   3 974.328  16.294   3
   1  -1  -3 9308.77  137.09   1
   1  -1  -3 9467.34  139.88   5
   1   1  -3 9540.85  132.99   4
   1   1  -3 9680.29  145.06   1
  -1   1   3 9542.09  140.24   5
   0  -1  -3 2941.20   42.71   5
   0  -1   3 3028.43   42.99   5
   0  -1  -3 3013.20   45.11   1
   0   1   3 3039.60   42.66   5
   0   1  -3 3014.77   46.20   3
   0   1   3 3001.75   39.48   4
   0   1  -3 3002.30   44.83   1
   0   1  -3 3035.25   40.87   4
  -1  -1  -3 9428.06  134.66   5
   1  -1   3 9581.58  140.04   5
  -1  -1  -3 9505.33  143.74   1
   1  -1   3 9615.76  150.21   3
  -1   1  -3 9590.28  140.80   5
  -1   1  -3 9422.88  145.54   1
  -1   1  -3 9592.90  150.16   3
   2  -1   3 965.532  15.592   5
  -2  -1  -3 957.680  15.864   1
   2  -1   3 947.945  16.204   3
  -2   1  -3 953.391  15.611   5
  -2   1  -3 958.900  15.852   1
  -2   1  -3 910.106  16.117   3
  -3  -1  -3 2113.00   33.81   1
   3  -1   3 2188.12   35.30   3
   3  -1   3 2185.35   34.15   2
   3  -1   3 2194.86   32.75   5
  -3   1  -3 2181.16   35.34   3
   3   1   3 2106.03   33.76   1
  -3   1  -3 2194.15   32.87   5
  -3   1  -3 2187.72   33.47   1
   4  -1   3 102.912   3.786   5
   4  -1   3 104.771   3.536   3
   4  -1   3 106.241   3.491   2
  -4  -1  -3 100.127   3.865   1
  -4   1  -3 106.297   3.224   2
  -4   1  -3 106.266   3.731   3
  -4   1  -3 104.148   3.620   1
   4   1   3 107.361   3.962   1
  -4   1  -3 102.913   3.865   5
   5  -1   3 2157.70   34.39   2
   5  -1   3 2090.46   35.56   3
   5  -1   3 2142.80   33.32   5
  -5  -1  -3 2140.03   34.80   1
  -5   1  -3 2100.51   33.60   5
  -5   1  -3 2085.35   35.85   3
  -5   1  -3 2164.85   34.13   2
  -5   1  -3 2139.25   33.88   1
  -6  -1  -3 100.688   4.430   1
   6  -1   3 91.6195  3.5810   2
   6  -1   3 85.7969  3.7436   3
   6  -1   3 94.4025  4.0696   5
  -6  -1  -3 88.1469  3.6781   3
  -6   1  -3 88.7499  4.1271   5
  -6   1  -3 88.7419  4.0434   3
  -6   1  -3 88.4521  3.5655   2
  -6   1  -3 92.8927  3.8694   1
  -7  -1  -3 577.498  13.411   1
   7  -1   3 579.395  12.589   3
  -7  -1  -3 561.909  12.263   3
  -7   1  -3 591.940  12.121   2
  -7   1  -3 582.134  12.521   1
  -7   1  -3 582.221  13.305   5
  -7   1  -3 565.249  13.031   3
  -8  -1  -3 91.5304  4.4506   5
   8  -1   3 94.7574  4.4788   3
  -8  -1  -3 106.181   4.751   3
  -8  -1  -3 95.6506  4.9596   1
  -8   1  -3 106.461   4.689   1
  -8   1  -3 104.678   5.196   5
  -8   1  -3 102.829   5.023   3
  -8   1  -3 103.615   4.393   2
  -9  -1  -3 372.641  11.060   1
  -9  -1  -3 380.394  10.347   5
   9  -1   3 369.291   9.913   3
  -9   1  -3 391.530  10.369   1
  -9   1  -3 378.995  10.805   3
  -9   1  -3 381.094   9.906   2
  -9   1  -3 372.398  11.088   5
 -10  -1  -3 209.329   7.644   5
 -10  -1  -3 201.859   8.093   1
  10  -1   3 199.778   6.966   3
 -10   1  -3 195.231   7.294   1
 -10   1  -3 196.715   7.811   3
 -10   1  -3 195.723   7.025   2
 -11  -1  -3 33.0703  3.4718   1
 -11   1  -3 34.4532  3.2402   1
 -11   1  -3 38.2174  4.0807   3
 -11   1  -3 36.1391  3.4414   2
 -12  -1  -3 247.504   8.480   2
 -12  -1  -3 235.195   9.686   1
 -12   1  -3 263.176   9.765   3
 -12   1  -3 265.356   9.401   1
 -12   1  -3 255.971   8.801   2
 -13  -1  -3 16.8175  3.2620   1
 -13   1  -3 19.3291  2.9399   2
 -13   1  -3 16.7183  3.5068   3
 -14  -1  -3 68.7086  5.0356   2
 -14  -1  -3 69.2211  5.6109   1
 -14   1  -3 67.0123  5.7723   3
 -14   1  -3 66.1662  4.8940   2
 -15  -1  -3 64.5159  5.1630   2
 -15  -1  -3 73.8363  5.8293   1
 -15   1  -3 68.3936  5.9759   3
 -14  -2   3 115.830   7.379   1
 -14  -2   3 120.267   6.369   2
 -14   2   3 130.835   7.008   3
 -13  -2   3 11.1431  2.3561   2
 -13  -2   3 11.0177  2.8845   1
 -13   2   3 14.7466  2.9450   3
  13   2  -3 8.31362 2.97628   1
 -12  -2   3 201.706   7.535   2
 -12  -2   3 202.466   9.300   1
  12   2  -3 211.226   9.650   1
 -12   2   3 210.605   8.439   3
 -11  -2   3 111.988   6.574   1
 -11  -2   3 106.224   5.067   2
  11   2  -3 102.945   6.458   1
 -11   2   3 101.583   5.488   3
  10  -2  -3 457.385  12.612   3
 -10  -2   3 457.803  11.010   2
 -10  -2   3 455.974  13.758   1
  10   2  -3 450.077  13.738   1
 -10   2   3 480.567  12.638   3
  -9  -2   3 452.632  10.405   2
   9  -2  -3 495.465  12.718   3
  -9  -2   3 454.049  13.298   1
  -9   2   3 462.648  11.994   3
   9   2  -3 457.080  13.273   1
  -8  -2   3 262.438   9.364   1
   8  -2  -3 256.463   8.437   3
  -8   2   3 276.397   8.186   3
  -8   2   3 275.620   9.528   5
   8   2  -3 280.691   9.486   1
  -7  -2   3 74.8375  4.5454   1
   7  -2  -3 72.5127  4.1417   3
  -7   2   3 67.6645  4.3321   5
  -7   2   3 73.1642  2.8726   1
  -7   2   3 70.5837  3.2003   2
   7   2  -3 72.3702  4.4623   1
   6  -2  -3 143.102   5.266   3
   6  -2  -3 130.243   4.823   2
  -6   2   3 135.056   4.696   3
  -6   2   3 133.609   5.759   5
  -6   2   3 136.780   3.672   1
   6   2  -3 134.903   5.751   1
   5  -2  -3 512.190  11.161   3
   5  -2  -3 529.257  11.676   5
   5   2  -3 504.165  12.202   1
  -5   2   3 513.214   8.794   1
  -5   2   3 518.570  12.043   5
  -5   2   3 500.678  10.421   3
   4  -2  -3 139.808   4.939   5
   4  -2  -3 141.048   4.287   2
   4  -2  -3 138.589   4.450   3
   4   2  -3 146.881   5.420   1
  -4   2   3 136.651   3.725   3
   4   2  -3 136.173   4.354   4
  -4   2   3 140.102   5.173   5
   3  -2  -3 520.329  10.706   5
   3  -2  -3 500.853   9.517   2
   3  -2  -3 510.127   9.895   3
  -3   2   3 511.724  10.912   5
   3   2  -3 507.498   9.835   4
   3   2  -3 505.495  11.327   1
   2  -2  -3 319.854   7.295   5
  -2   2   3 298.367   7.297   5
   2   2  -3 298.729   7.685   1
   2   2  -3 302.107   6.853   4
   1  -2  -3 1057.82   17.52   5
  -1  -2   3 1041.78   18.05   5
   1  -2  -3 1032.90   16.03   1
   1   2  -3 1074.85   17.10   4
  -1   2   3 1064.20   16.03   1
  -1   2   3 1083.37   17.75   5
   1   2  -3 1080.85   18.77   1
   0  -2  -3 41.8937  1.7502   1
   0  -2  -3 43.2081  2.0793   5
   0   2   3 40.3565  1.6987   1
   0   2  -3 42.8976  2.3963   5
   0   2  -3 43.7490  2.3119   4
   0   2   3 46.1141  2.1788   5
   0   2  -3 45.5038  2.4362   1
   0   2   3 41.8565  1.7991   4
  -1  -2  -3 1077.16   16.98   5
  -1  -2  -3 1076.70   17.57   1
   1   2   3 1062.49   17.47   1
   1   2   3 1039.58   15.70   4
  -1   2  -3 1034.07   17.11   4
  -1   2  -3 1057.08   18.17   1
  -1   2  -3 1052.60   18.23   5
  -2  -2  -3 304.185   7.136   1
   2  -2   3 312.355   7.644   5
  -2  -2  -3 310.222   6.484   5
   2  -2   3 303.658   6.479   3
   2  -2   3 299.968   6.122   2
   2   2   3 308.029   5.923   4
   2   2   3 309.762   7.102   1
  -2   2  -3 302.733   7.623   5
  -2   2  -3 302.163   7.030   1
   3  -2   3 515.896  10.198   3
   3  -2   3 514.879   9.906   2
   3  -2   3 513.942  10.942   5
  -3  -2  -3 510.944  10.830   1
  -3   2  -3 512.139  11.093   5
   3   2   3 506.498  10.717   1
  -3   2  -3 484.237   9.272   3
  -3   2  -3 500.959  10.188   1
   4  -2   3 142.975   4.476   2
   4  -2   3 134.511   4.382   3
  -4  -2  -3 136.949   5.021   1
   4  -2   3 139.010   5.087   5
  -4   2  -3 140.271   5.241   5
  -4   2  -3 130.409   4.011   3
  -4   2  -3 137.289   4.459   1
   4   2   3 132.519   4.929   1
   5  -2   3 525.131  11.027   2
   5  -2   3 508.296  11.097   3
  -5  -2  -3 503.695  11.891   1
   5  -2   3 525.422  11.787   5
   5   2   3 515.223  11.908   1
  -5   2  -3 527.508  12.138   5
  -5   2  -3 448.347  10.488   3
  -5   2  -3 529.613  10.922   1
  -6  -2  -3 135.782   5.692   1
   6  -2   3 148.284   5.211   2
   6  -2   3 140.151   5.197   3
  -6   2  -3 134.716   4.308   2
   6   2   3 140.018   5.793   1
  -6   2  -3 142.744   5.018   1
  -6   2  -3 144.049   5.898   5
  -6   2  -3 139.405   5.049   3
  -7  -2  -3 72.9658  4.3335   1
   7  -2   3 75.7366  3.8263   2
   7  -2   3 67.5287  3.9173   3
   7   2   3 68.9508  4.3621   1
  -7   2  -3 79.7789  3.8238   1
  -7   2  -3 72.5918  4.3747   5
  -7   2  -3 74.0280  4.0226   3
  -7   2  -3 62.5392  3.2104   2
  -8  -2  -3 278.353   9.326   1
   8  -2   3 272.877   7.913   2
   8  -2   3 264.144   8.293   3
  -8   2  -3 255.688   8.169   3
  -8   2  -3 266.770   7.976   1
  -8   2  -3 263.646   7.390   2
  -8   2  -3 252.609   8.930   5
  -9  -2  -3 451.409  13.155   1
   9  -2   3 481.902  12.358   3
  -9   2  -3 470.412  11.224   2
  -9   2  -3 470.995  11.858   1
  -9   2  -3 469.115  12.257   3
 -10  -2  -3 460.948  13.793   1
  10  -2   3 481.417  12.721   3
 -10   2  -3 482.498  12.447   1
 -10   2  -3 468.591  12.846   3
  11  -2   3 101.255   5.737   3
 -11  -2  -3 102.168   6.335   1
 -11   2  -3 112.196   5.831   3
 -12  -2  -3 212.625   9.441   1
  12  -2   3 202.906   8.137   3
 -12   2  -3 195.561   8.278   3
 -13  -2  -3 13.3062  3.2052   1
 -13   2  -3 11.1317  2.6374   3
 -14  -2  -3 135.815   6.565   2
 -14  -2  -3 124.249   7.742   1
 -14   2  -3 130.598   6.957   3
 -15  -2  -3 80.7595  5.5943   2
 -15   2  -3 81.8906  5.3535   3
 -15  -3   3 44.0171  3.8308   2
 -15   3   3 42.9407  4.0641   3
 -14  -3   3 45.2410  4.1743   2
 -14   3   3 44.1966  4.0347   3
 -13  -3   3 4.96280 2.12046   2
 -13  -3   3 9.29402 2.53846   1
 -13   3   3 6.62920 2.37743   3
  13   3  -3 2.46712 2.44835   1
 -12  -3   3 13.5357  2.6480   2
 -12  -3   3 14.0893  3.1986   1
 -12   3   3 14.3812  2.7646   3
  12   3  -3 12.0797  3.3419   1
 -11  -3   3 28.1035  2.8473   2
  11  -3  -3 26.9511  4.5188   3
 -11  -3   3 28.4750  4.1931   1
  11   3  -3 22.7972  4.0925   1
 -11   3   3 28.1214  3.1699   3
 -10  -3   3 213.716   9.490   1
  10  -3  -3 213.361   8.712   3
  10   3  -3 212.226   9.449   1
 -10   3   3 219.535   7.375   3
   9  -3  -3 136.303   6.485   3
  -9  -3   3 132.965   7.119   1
  -9   3   3 132.214   5.226   3
   9   3  -3 125.274   7.007   1
   8  -3  -3 176.338   7.073   3
   8  -3  -3 172.160   6.588   2
  -8  -3   3 177.687   8.038   1
  -8   3   3 179.066   5.654   3
   8   3  -3 181.177   7.994   1
   7  -3  -3 65.1205  3.9833   2
  -7  -3   3 70.1452  4.8442   1
   7  -3  -3 63.6190  4.3020   3
  -7   3   3 62.8381  4.3922   5
  -7   3   3 59.3342  2.9027   3
   7   3  -3 59.2839  4.6031   1
   6  -3  -3 268.529   7.727   2
   6  -3  -3 275.825   8.060   3
  -6   3   3 281.883   5.694   3
   6   3  -3 264.245   9.140   1
  -6   3   3 279.649   9.336   5
   5  -3  -3 248.336   6.886   2
   5  -3  -3 245.792   6.988   3
  -5   3   3 249.518   8.392   5
   5   3  -3 249.270   8.500   1
   5   3  -3 258.225   7.156   4
   4  -3  -3 216.571   5.839   3
   4  -3  -3 209.893   5.654   2
  -4   3   3 204.783   7.196   5
   4   3  -3 215.214   6.384   4
   4   3  -3 213.466   7.432   1
   3  -3  -3 1715.57   27.46   2
   3   3  -3 1738.37   27.38   4
   3   3  -3 1722.72   30.44   1
  -3   3   3 1746.23   29.56   5
   2  -3  -3 135.201   4.955   5
  -2  -3   3 136.349   5.130   5
   2  -3  -3 134.369   3.055   1
  -2   3   3 129.209   5.090   5
   2   3  -3 131.797   5.262   1
   2   3  -3 132.573   4.780   4
  -2   3   3 131.934   2.998   1
   1  -3  -3 178.766   5.623   5
   1  -3  -3 175.885   4.177   1
  -1  -3   3 179.306   5.924   5
  -1   3   3 158.522   5.470   5
  -1   3   3 163.876   4.013   1
  -1   3   3 163.304   4.852   4
   1   3  -3 161.784   5.677   1
   1   3  -3 158.782   5.279   4
   0  -3  -3 119.358   4.429   5
   0  -3   3 122.904   4.821   5
   0  -3  -3 120.746   3.761   1
   0   3   3 125.509   3.735   1
   0   3  -3 124.911   4.605   4
   0   3   3 120.087   4.459   5
   0   3  -3 117.729   4.825   5
   0   3  -3 126.605   4.736   1
   0   3   3 122.011   3.964   4
  -1  -3  -3 165.818   5.306   5
   1  -3   3 165.081   5.884   5
  -1  -3  -3 167.793   5.078   1
  -1   3  -3 185.228   5.692   1
  -1   3  -3 176.511   5.693   4
   1   3   3 182.143   4.861   4
  -1   3  -3 176.703   6.103   5
   1   3   3 178.618   5.089   1
   2  -3   3 121.573   5.107   5
   2  -3   3 135.551   3.339   2
  -2  -3  -3 137.121   4.644   5
  -2  -3  -3 130.237   4.705   1
   2   3   3 139.880   4.216   4
   2   3   3 134.968   4.728   1
  -2   3  -3 132.974   5.360   5
  -2   3  -3 135.610   4.723   1
  -3  -3  -3 1723.03   29.29   1
   3  -3   3 1722.89   27.87   2
   3  -3   3 1718.53   28.97   3
  -3  -3  -3 1690.33   27.50   5
  -3   3  -3 1709.29   29.66   5
   3   3   3 1724.18   25.75   4
   3   3   3 1706.95   29.10   1
  -3   3  -3 1683.44   28.22   1
  -4  -3  -3 210.203   6.981   1
   4  -3   3 211.096   6.010   3
   4  -3   3 206.207   5.856   2
   4   3   3 211.912   6.969   1
  -4   3  -3 215.522   6.195   1
  -4   3  -3 209.256   7.443   5
   5  -3   3 262.110   7.249   2
  -5  -3  -3 250.983   8.203   1
   5  -3   3 253.121   7.221   3
  -5   3  -3 246.634   5.276   3
   5   3   3 242.887   8.028   1
  -5   3  -3 243.170   8.386   5
  -5   3  -3 252.087   7.012   1
   6  -3   3 282.066   8.108   3
  -6  -3  -3 282.432   9.150   1
   6   3   3 271.497   8.946   1
  -6   3  -3 268.399   6.551   3
  -6   3  -3 272.209   9.264   5
  -6   3  -3 263.784   7.470   1
   7  -3   3 65.8189  4.0541   2
  -7  -3  -3 64.4666  4.5225   1
   7  -3   3 59.9919  4.0831   3
  -7   3  -3 71.4251  4.7134   5
   7   3   3 69.2144  4.6102   1
  -7   3  -3 68.5148  3.4813   3
  -7   3  -3 69.0390  3.7429   1
   8  -3   3 181.839   6.842   2
  -8  -3  -3 170.870   7.602   1
   8  -3   3 171.169   6.827   3
   8   3   3 158.803   7.466   1
  -8   3  -3 160.979   6.141   1
  -8   3  -3 166.256   5.835   3
  -9  -3  -3 129.356   6.942   1
   9  -3   3 133.380   6.123   2
   9  -3   3 129.819   6.292   3
  -9   3  -3 137.138   5.627   3
   9   3   3 132.206   7.080   1
  10  -3   3 215.297   8.477   3
 -10  -3  -3 218.848   9.406   1
  10  -3   3 214.186   8.018   2
 -10   3  -3 221.669   7.736   3
  11  -3   3 33.5810  4.5545   3
 -11  -3  -3 36.4116  4.7847   1
 -11   3  -3 25.7172  3.1682   3
  12  -3   3 6.57876 2.88742   3
 -12  -3  -3 18.5756  3.6092   1
 -12   3  -3 15.8927  2.9727   3
  13  -3   3 1.52682 2.91902   3
 -13  -3  -3 11.6183  2.6326   1
 -13   3  -3 4.16439 2.14018   3
 -14   3  -3 50.2621  4.1518   3
 -15  -3  -3 37.2757  4.0407   2
 -15   3  -3 40.1544  3.9819   3
 -14  -4   3 229.502   9.104   2
  13  -4  -3 5.17023 3.98656   3
 -13  -4   3 11.9285  2.6668   2
 -12  -4   3 92.7618  5.0097   2
 -12  -4   3 110.003   7.001   1
  12  -4  -3 81.3341  6.8542   3
  12   4  -3 104.125   7.471   1
  11  -4  -3 15.5516  3.9941   3
 -11  -4   3 24.0609  2.5195   2
 -11  -4   3 25.4173  4.0516   1
  11   4  -3 21.5582  3.9938   1
 -10  -4   3 636.542  18.721   1
  10  -4  -3 643.359  17.084   3
  10   4  -3 642.384  18.712   1
  -9  -4   3 28.3811  4.3045   1
   9  -4  -3 28.0125  3.9489   3
   9  -4  -3 30.1887  3.5546   2
   9   4  -3 36.7912  4.1776   1
   8  -4  -3 269.787   9.187   3
  -8  -4   3 258.872  10.600   1
   8   4  -3 264.974  10.432   1
  -7  -4   3 8.97371 2.53004   1
   7  -4  -3 5.36360 2.16246   3
   7  -4  -3 9.01920 2.25539   2
   7   4  -3 12.1565  2.4582   1
   6  -4  -3 330.682   9.198   2
   6   4  -3 337.686  11.235   1
   5  -4  -3 258.706   7.374   2
   5   4  -3 276.492   8.222   4
  -5   4   3 264.005   9.418   5
   5   4  -3 253.478   9.297   1
   4  -4  -3 241.806   6.377   2
   4   4  -3 240.844   8.674   1
  -4   4   3 238.841   8.696   5
   4   4  -3 245.809   7.628   4
   3  -4  -3 193.849   4.571   2
   3   4  -3 197.094   7.500   1
  -3   4   3 194.621   7.398   5
   3   4  -3 193.112   6.636   4
   2  -4  -3 71.9943  2.6004   1
   2   4  -3 78.3018  4.4532   1
  -2   4   3 75.2194  3.8846   4
  -2   4   3 73.5156  2.6165   1
   2   4  -3 73.5161  4.0239   4
  -2   4   3 77.2124  4.3858   5
   1  -4  -3 600.285  11.567   1
   1   4  -3 611.271  14.133   1
  -1   4   3 626.342  11.592   1
   1   4  -3 619.820  13.431   4
  -1   4   3 606.210  13.983   5
  -1   4   3 616.436  12.672   4
   0  -4  -3 264.698   6.855   1
   0  -4  -3 270.434   8.002   5
   0   4   3 250.618   7.831   5
   0   4  -3 261.482   7.912   4
   0   4   3 265.701   7.162   4
   0   4  -3 267.552   8.080   1
   0   4   3 253.962   6.660   1
  -1  -4  -3 615.387  13.481   5
  -1  -4  -3 612.690  12.841   1
   1   4   3 603.409  12.160   4
   1   4   3 622.444  12.758   1
  -1   4  -3 623.182  13.549   1
  -1   4  -3 609.383  13.581   4
  -1   4  -3 586.582  14.269   5
  -2  -4  -3 79.9890  4.0465   5
  -2  -4  -3 71.7039  3.8079   1
  -2   4  -3 73.2565  3.8179   1
   2   4   3 70.3735  3.7122   1
   2   4   3 77.6178  3.6613   4
  -2   4  -3 76.8875  4.3208   4
  -2   4  -3 71.9945  4.4248   5
  -3  -4  -3 199.137   6.683   5
  -3  -4  -3 192.198   6.815   1
   3  -4   3 200.304   5.289   2
  -3   4  -3 193.927   6.284   1
   3   4   3 199.306   5.991   4
  -3   4  -3 179.816   7.383   5
   3   4   3 186.379   6.672   1
   4  -4   3 237.986   6.711   2
  -4  -4  -3 247.100   8.271   1
   4   4   3 242.630   8.080   1
  -4   4  -3 239.585   8.822   5
  -4   4  -3 239.752   7.151   1
   4   4   3 241.415   6.799   4
  -5  -4  -3 254.471   8.879   1
   5  -4   3 254.829   7.548   2
  -5   4  -3 246.398   9.286   5
   5   4   3 267.796   8.925   1
  -5   4  -3 255.077   7.428   1
   6  -4   3 350.357   9.767   3
  -6  -4  -3 336.573  10.918   1
   6  -4   3 341.245   9.595   2
   6   4   3 336.829  10.827   1
   7  -4   3 7.75549 2.10414   2
  -7  -4  -3 7.27593 2.26492   1
   7  -4   3 5.96426 2.14473   3
   7   4   3 3.89248 1.88680   1
   8  -4   3 277.901   9.391   3
   8  -4   3 272.141   9.168   2
  -8  -4  -3 271.627  10.385   1
   8   4   3 268.969  10.336   1
   9  -4   3 33.0824  3.8844   3
  -9  -4  -3 31.7591  4.2577   1
   9  -4   3 29.8952  3.5351   2
   9   4   3 37.3139  4.0756   1
 -10  -4  -3 628.436  18.201   1
  10  -4   3 634.393  16.886   3
  10  -4   3 655.796  16.435   2
  10   4   3 612.104  18.116   1
 -11  -4  -3 23.2710  3.9892   1
  11  -4   3 18.7721  3.9547   3
  11  -4   3 19.1442  3.7037   2
 -12  -4  -3 103.352   7.290   1
  12  -4   3 90.2045  6.8670   3
  13  -4   3 -2.9472  2.5853   3
  14  -4   3 225.164   9.865   3
  13  -5  -3 13.5791  4.5562   3
 -13  -5   3 16.7298  2.8358   2
  12  -5  -3 33.9700  5.5836   3
 -12  -5   3 31.8380  2.9239   2
  11  -5  -3 25.8467  4.6009   3
 -11  -5   3 39.4640  5.6940   1
  11   5  -3 30.4396  4.5858   1
  10  -5  -3 71.8539  5.5956   3
  10  -5  -3 77.8495  5.5288   2
 -10  -5   3 74.0931  6.4632   1
  10   5  -3 92.6013  6.1051   1
  -9  -5   3 46.6840  5.0235   1
   9  -5  -3 39.4778  4.0393   2
   9   5  -3 48.2390  5.0317   1
   8  -5  -3 216.780   8.191   2
  -8  -5   3 214.934  10.084   1
   8   5  -3 212.671   9.880   1
  -7  -5   3 45.9865  4.6809   1
   7  -5  -3 41.8994  3.7064   2
   7   5  -3 43.2264  4.4350   1
   6  -5  -3 22.1456  2.9908   2
   6   5  -3 21.3828  3.5387   1
   6   5  -3 21.6744  3.1170   4
   5  -5  -3 96.8771  4.5181   2
   5   5  -3 99.5203  6.0948   1
   5   5  -3 96.6292  5.2772   4
   4  -5  -3 263.105   7.098   2
   4   5  -3 268.756   8.833   4
   4   5  -3 277.627  10.086   1
  -3   5   3 21.6581  3.1832   5
  -3   5   3 15.9770  2.6646   4
   3   5  -3 20.1769  2.9029   4
   3   5  -3 28.1460  3.1597   1
   2   5  -3 281.039   9.138   4
  -2   5   3 305.269   9.063   4
  -2   5   3 281.813   9.819   5
   2   5  -3 291.383   9.746   1
  -1   5   3 169.480   7.081   5
   1   5  -3 165.849   6.870   1
   1   5  -3 158.002   6.694   4
  -1   5   3 172.151   6.412   4
   0  -5  -3 222.057   6.648   1
   0   5  -3 206.538   7.718   4
   0   5   3 207.742   7.045   4
   0   5  -3 219.544   7.763   1
   0   5   3 209.500   7.913   5
  -1  -5  -3 163.984   6.046   1
   1   5   3 174.642   6.160   1
  -1   5  -3 172.080   7.113   4
  -1   5  -3 161.360   6.539   1
   1   5   3 181.130   6.437   4
  -2  -5  -3 288.876   8.877   1
   2   5   3 296.566   8.532   4
   2   5   3 300.514   8.939   1
  -2   5  -3 300.588   8.964   1
  -2   5  -3 291.208   9.676   4
   3  -5   3 19.5707  1.9968   2
  -3  -5  -3 20.0654  2.8615   1
   3   5   3 14.2924  2.2346   4
   3   5   3 16.5900  2.6385   1
  -3   5  -3 12.7899  2.6004   4
  -3   5  -3 13.9282  2.2710   1
  -4  -5  -3 268.084   9.290   1
   4  -5   3 256.783   7.425   2
   4   5   3 257.072   8.939   1
  -4   5  -3 276.249   9.651   4
   4   5   3 262.604   7.956   4
   5  -5   3 98.9724  4.8572   2
  -5  -5  -3 88.7590  5.4849   1
   5   5   3 103.646   5.756   1
  -6  -5  -3 23.7840  3.5763   1
   6  -5   3 20.3987  3.0204   2
   6   5   3 26.5381  3.6545   1
  -7  -5  -3 42.6491  4.3175   1
   7  -5   3 45.0170  3.6663   2
   7   5   3 48.0586  4.4515   1
   8  -5   3 176.312   7.747   2
  -8  -5  -3 204.146   9.359   1
   8   5   3 215.717   9.580   1
   9  -5   3 38.1645  4.0432   3
  -9  -5  -3 44.2125  4.7674   1
   9  -5   3 41.8902  4.2860   2
   9   5   3 35.2122  4.8257   1
  10  -5   3 73.5154  5.6731   3
  10  -5   3 64.4787  5.2160   2
 -10  -5  -3 67.1198  5.9520   1
  10   5   3 76.0175  6.3369   1
  11  -5   3 22.9900  4.1341   2
 -11  -5  -3 33.0291  4.9353   1
  11  -5   3 30.0871  5.0788   3
  12  -5   3 32.4899  5.1176   3
  13  -5   3 14.6285  4.1931   3
  10  -6  -3 140.569   7.635   2
  -9  -6   3 46.4949  5.2437   1
   9  -6  -3 43.9112  4.6662   2
   9   6  -3 43.7404  4.8449   1
  -8  -6   3 286.506  12.470   1
   8  -6  -3 263.457   9.859   2
   8   6  -3 283.492  12.247   1
  -7  -6   3 95.4306  6.9456   1
   7  -6  -3 95.2090  5.5924   2
   7   6  -3 85.4609  6.5431   1
  -6  -6   3 7.56479 2.55021   1
   6  -6  -3 7.48503 2.45552   2
   6   6  -3 6.24374 2.29119   4
   6   6  -3 6.00281 2.38504   1
   5  -6  -3 115.844   5.342   2
  -5   6   3 106.362   6.368   4
   5   6  -3 108.534   6.104   4
   5   6  -3 112.652   6.943   1
   4  -6  -3 36.5795  2.9876   2
   4   6  -3 49.4188  4.5461   1
  -4   6   3 41.1455  4.0870   4
   4   6  -3 47.3285  4.1988   4
  -3   6   3 10.3369  2.5775   4
   3   6  -3 5.84265 2.04615   1
   3   6  -3 3.50074 2.16700   4
   2   6  -3 166.886   7.596   4
  -2   6   3 162.412   7.181   4
   2   6  -3 183.063   8.044   1
   1   6  -3 435.389  12.822   4
   1   6  -3 450.611  13.115   1
  -1   6   3 454.904  12.279   4
   0   6  -3 121.434   6.496   4
   0   6   3 109.955   5.734   4
   0   6  -3 115.987   6.016   1
  -1   6  -3 452.207  13.194   4
   1   6   3 461.590  12.218   4
   2   6   3 186.866   7.230   4
  -2   6  -3 168.826   7.868   4
   3  -6   3 6.59353 1.72543   2
  -3  -6  -3 7.75592 2.15923   1
  -3   6  -3 5.71674 2.36475   4
   3   6   3 7.13652 2.16180   1
   3   6   3 5.26786 2.14986   4
  -4  -6  -3 43.0816  4.0825   1
   4  -6   3 43.1152  3.2328   2
   4   6   3 37.3415  3.6278   4
  -4   6  -3 42.9902  4.9608   4
   4   6   3 41.1711  3.9003   1
  -5  -6  -3 117.546   6.685   1
   5  -6   3 119.962   5.720   2
  -5   6  -3 116.026   6.967   4
   5   6   3 118.920   6.672   1
   5   6   3 117.911   5.734   4
  -6  -6  -3 6.52471 2.37001   1
   6  -6   3 6.78666 2.42324   2
   6   6   3 6.16153 2.23424   1
  -6   6  -3 4.25006 2.45433   4
   7  -6   3 101.449   5.836   2
  -7  -6  -3 93.8988  6.4478   1
   7   6   3 100.627   6.741   1
  -8  -6  -3 271.101  11.516   1
   8  -6   3 267.723  10.033   2
   8   6   3 269.030  11.399   1
  -9  -6  -3 41.3409  5.4261   1
   9   6   3 42.4763  4.3291   1
  10  -6   3 138.468   7.849   2
  11  -6   3 50.8054  5.2738   2
   9  -7  -3 7.72149 2.70361   2
  -9   7   3 9.07503 3.40340   4
   8  -7  -3 26.5826  4.1359   2
  -8   7   3 27.1131  4.7355   4
  -7  -7   3 23.1397  4.1980   1
   7  -7  -3 26.3239  4.2707   2
   7   7  -3 13.5054  4.3425   1
  -7   7   3 20.6931  4.2978   4
   6  -7  -3 13.6736  3.0048   2
  -6  -7   3 18.8586  3.9276   1
   6   7  -3 23.1358  4.2057   1
   6   7  -3 10.9346  3.0811   4
  -6   7   3 10.8560  3.4134   4
  -5  -7   3 121.891   7.910   1
   5  -7  -3 124.233   6.038   2
   5   7  -3 126.255   7.066   4
   5   7  -3 119.084   7.713   1
  -5   7   3 124.072   7.484   4
   4  -7  -3 31.2774  2.9582   2
  -4  -7   3 31.9383  4.6717   1
   4   7  -3 21.7732  4.0637   1
  -4   7   3 29.7731  4.4369   4
   4   7  -3 38.5105  4.7259   4
  -3   7   3 44.2998  4.5774   4
   3   7  -3 49.9010  4.7438   4
  -2   7   3 1.58778 2.07392   4
   2   7  -3 2.11509 2.53710   4
  -1   7   3 109.186   6.412   4
   1   7  -3 98.1740  6.5086   4
   0   7   3 36.2300  4.3591   4
   0   7  -3 34.0829  4.7524   4
  -1   7  -3 98.5366  6.5278   4
  -2   7  -3 5.25889 2.57831   4
  -3   7  -3 51.7156  5.0199   4
   4  -7   3 28.6471  3.3180   2
  -4   7  -3 24.4917  4.2140   4
   5  -7   3 121.304   6.266   2
  -5   7  -3 132.966   8.049   4
   6  -7   3 8.65082 2.99797   2
  -6   7  -3 15.7884  4.0115   4
  -7  -7  -3 25.6224  4.3305   1
   7  -7   3 25.0189  4.0050   2
  -7   7  -3 23.4010  4.5750   4
   7   7   3 13.8328  3.6313   1
   8  -7   3 22.6056  3.6222   2
  -8   7  -3 19.6785  4.0623   4
   9  -7   3 2.79367 2.76847   2
  -9   7  -3 4.99851 2.73265   4
   5  -8  -3 6.50241 2.53651   2
   5   8  -3 8.52279 3.05180   4
   4   8  -3 44.0580  5.3659   4
   3   8  -3 44.7627  5.4867   4
   2   8  -3 2.43932 2.71460   4
   1   8  -3 47.7679  5.8006   4
   0   8  -3 41.8224  5.4317   4
  -1   8  -3 44.6340  5.7653   4
  -2   8  -3 -0.2168  2.5477   4
  -3   8  -3 39.3699  5.4063   4
   4  -8   3 53.5923  4.2741   2
  -4   8  -3 36.6583  4.9815   4
   5  -8   3 -0.0147  2.7201   2
  -5   8  -3 7.82708 2.68659   4
 -15   0   4 107.506   7.212   3
 -15   0   4 112.395   6.765   2
 -14   0   4 5.43211 2.37163   2
 -14   0   4 9.21390 3.02291   3
 -13   0   4 10.2168  3.0469   3
 -13   0   4 7.18874 2.28170   2
 -12   0   4 127.838   6.743   3
 -12   0   4 118.880   6.099   2
 -12   0   4 131.593   6.512   1
 -11   0   4 4.77155 1.59870   1
 -11   0   4 5.16130 2.17151   3
 -11   0   4 7.48077 1.85840   2
  10   0  -4 17.9155  2.8227   1
 -10   0   4 16.3826  2.4905   2
 -10   0   4 13.6863  2.3632   1
 -10   0   4 19.2016  3.0376   3
  -9   0   4 94.2195  4.9169   3
   9   0  -4 97.5122  4.8397   1
  -9   0   4 94.0071  5.2049   5
  -9   0   4 87.7566  4.5993   1
  -9   0   4 90.3244  4.3797   2
  -8   0   4 22.4393  2.6779   3
  -8   0   4 23.3193  2.2884   2
  -8   0   4 20.9789  2.9137   5
   8   0  -4 18.8047  2.4311   1
  -8   0   4 25.9246  2.5523   1
  -7   0   4 1.69888 1.14264   3
  -7   0   4 0.99348 0.81477   2
  -7   0   4 2.45575 1.05881   1
   7   0  -4 0.25123 0.87160   1
  -6   0   4 343.709   8.573   3
   6   0  -4 339.840   8.373   1
  -6   0   4 346.446   8.540   1
  -6   0   4 341.761   7.983   2
  -5   0   4 83.6832  3.4479   3
  -5   0   4 84.9191  3.1297   2
   5   0  -4 83.5069  3.4326   1
   4   0  -4 838.908  14.537   1
  -4   0   4 839.747  15.095   3
  -4   0   4 758.015  14.147   2
  -3   0   4 70.6852  2.6700   3
  -3   0   4 64.6391  2.3541   2
   3   0  -4 63.9372  2.5313   1
   2   0  -4 7.48414 0.95340   1
  -2   0   4 9.43230 1.09861   3
   1   0  -4 1819.23   24.58   4
  -1   0   4 1841.92   29.41   3
   0   0  -4 1.58161 0.45885   1
   0   0  -4 1.24049 0.69762   3
   0   0  -4 1.89995 0.33331   4
   0   0   4 1.87040 0.49845   3
  -1   0  -4 1792.30   27.61   1
   1   0   4 1811.32   25.39   5
  -1   0  -4 1814.04   29.05   3
  -1   0  -4 1837.85   25.37   5
  -2   0  -4 8.99530 1.26087   3
   2   0   4 8.05857 0.70583   5
  -2   0  -4 8.18112 1.06062   1
  -2   0  -4 7.21816 0.69563   5
  -3   0  -4 60.0795  2.1786   5
  -3   0  -4 63.7025  2.7838   3
  -3   0  -4 62.3702  2.6345   1
   3   0   4 60.4784  2.1479   3
   4   0   4 797.774  14.188   3
  -4   0  -4 823.043  14.834   1
  -4   0  -4 824.285  15.096   3
  -4   0  -4 800.278  13.747   5
  -5   0  -4 82.2623  3.2914   5
   5   0   4 80.1144  2.8917   3
  -5   0  -4 84.4316  3.6145   1
  -5   0  -4 87.4313  3.6214   3
  -6   0  -4 347.120   8.648   3
  -6   0  -4 340.727   8.226   5
   6   0   4 330.800   7.336   3
  -6   0  -4 335.353   8.626   1
  -7   0  -4 1.23877 0.79569   5
  -7   0  -4 1.24266 1.50154   3
  -7   0  -4 0.28731 0.79767   1
  -8   0  -4 26.1425  2.5062   5
  -8   0  -4 27.5765  3.1751   3
  -8   0  -4 22.9129  2.5232   1
  -9   0  -4 85.8368  4.9058   3
  -9   0  -4 98.4542  5.0266   1
  -9   0  -4 93.0104  4.8322   5
 -10   0  -4 12.0120  2.2776   5
 -10   0  -4 17.4020  2.9815   3
 -10   0  -4 18.3991  2.8239   1
 -11   0  -4 5.69598 1.83082   2
 -11   0  -4 2.17359 2.06352   3
 -11   0  -4 4.33955 1.72218   1
 -12   0  -4 126.254   6.011   2
 -12   0  -4 118.553   6.381   1
 -12   0  -4 112.608   6.382   3
 -13   0  -4 6.77245 2.34872   2
 -13   0  -4 8.67989 2.77801   3
 -13   0  -4 12.5919  2.6362   1
 -14   0  -4 3.40581 1.77536   1
 -14   0  -4 9.84595 2.85924   3
 -14   0  -4 8.80896 2.59981   2
 -15   0  -4 117.345   7.258   3
 -15   0  -4 115.365   6.707   2
 -15  -1   4 195.889   8.936   2
 -15   1   4 209.501   9.621   3
 -14  -1   4 49.5970  4.4739   2
 -14  -1   4 56.5720  5.1350   1
 -14   1   4 56.7900  5.0145   3
 -13  -1   4 159.959   7.951   1
 -13  -1   4 162.793   7.296   2
 -13   1   4 169.407   8.230   3
 -13   1   4 165.543   7.509   2
 -12  -1   4 14.7149  2.4822   2
 -12  -1   4 11.7845  2.6504   1
 -12   1   4 13.3310  3.0317   3
  12   1  -4 12.9277  2.7630   1
 -12   1   4 12.5344  2.5993   2
 -11  -1   4 236.368   9.101   1
 -11  -1   4 243.141   8.129   2
 -11  -1   4 252.004   8.986   3
  11   1  -4 238.137   9.269   1
 -11   1   4 239.476   8.322   2
 -11   1   4 238.403   9.029   3
 -10  -1   4 331.655  10.745   1
 -10  -1   4 331.944  10.165   3
 -10  -1   4 333.832   9.423   2
 -10   1   4 332.435  10.375   3
 -10   1   4 336.852   9.720   2
  10   1  -4 326.967  10.679   1
 -10   1   4 339.143   9.272   1
  -9  -1   4 1442.52   27.38   3
  -9  -1   4 1407.96   27.63   1
  -9  -1   4 1429.19   25.86   2
  -9   1   4 1433.94   25.28   1
   9   1  -4 1431.55   27.54   1
  -9   1   4 1431.08   26.38   2
  -9   1   4 1432.48   27.79   3
  -8  -1   4 147.214   6.261   1
  -8  -1   4 145.547   5.611   3
  -8  -1   4 146.791   5.103   2
  -8   1   4 137.892   5.250   2
  -8   1   4 141.771   4.982   1
  -8   1   4 139.155   5.756   3
  -8   1   4 134.030   6.145   5
   8   1  -4 134.471   5.966   1
  -7  -1   4 656.217  13.042   2
  -7  -1   4 645.980  14.829   1
   7  -1  -4 653.300  12.816   1
  -7  -1   4 648.211  13.848   3
  -7   1   4 648.596  14.332   3
  -7   1   4 670.245  14.976   5
  -7   1   4 661.945  12.831   1
   7   1  -4 657.003  14.731   1
  -7   1   4 673.208  13.594   2
  -6  -1   4 649.822  12.319   2
  -6  -1   4 657.032  13.218   3
   6  -1  -4 650.379  13.625   3
   6  -1  -4 644.435  12.071   1
  -6   1   4 641.857  12.099   1
  -6   1   4 648.327  14.054   5
  -6   1   4 665.239  13.004   2
   6   1  -4 644.451  14.047   1
  -6   1   4 654.054  13.789   3
  -5  -1   4 66.5875  2.9041   3
   5  -1  -4 67.1568  3.3140   3
   5  -1  -4 68.0340  2.5668   1
  -5  -1   4 71.2105  2.6181   2
  -5   1   4 67.5803  2.5617   1
  -5   1   4 67.8599  3.4722   5
  -5   1   4 70.6829  3.2228   3
   5   1  -4 72.4258  3.6455   1
  -5   1   4 66.2942  2.8236   2
   4  -1  -4 177.244   4.059   1
  -4  -1   4 174.689   4.135   2
   4  -1  -4 179.645   5.117   3
  -4  -1   4 177.505   4.618   3
   4   1  -4 177.485   5.574   1
  -4   1   4 177.900   5.423   5
  -4   1   4 179.619   5.019   3
  -4   1   4 179.141   4.121   1
  -3  -1   4 27.1452  1.5101   3
   3  -1  -4 25.1379  1.1608   1
   3  -1  -4 26.6177  1.8556   3
  -3   1   4 23.8802  1.7569   5
   3   1  -4 23.4621  1.8646   1
   2  -1  -4 9886.33  157.27   3
   2  -1  -4 9820.57  141.28   1
  -2   1   4 9841.79  150.12   5
   2   1  -4 9667.81  135.94   4
  -2   1   4 9981.57  155.70   3
   2   1  -4 9631.43  146.28   1
   1  -1  -4 9229.41  134.81   5
   1  -1  -4 9224.83  134.51   1
   1   1  -4 9350.17  142.72   3
  -1   1   4 9110.83  142.63   3
   1   1  -4 9000.93  127.64   4
  -1   1   4 9329.49  136.10   5
   1   1  -4 9124.46  138.66   1
   0  -1  -4 1901.57   26.84   5
   0  -1   4 1917.48   28.16   5
   0  -1   4 1902.46   30.34   3
   0  -1  -4 1895.62   28.13   1
   0   1  -4 1878.64   29.59   1
   0   1   4 1915.50   26.94   5
   0   1  -4 1855.63   26.66   4
   0   1  -4 1909.72   29.95   3
   1  -1   4 9007.91  143.36   3
  -1  -1  -4 9117.12  127.38   5
  -1  -1  -4 9020.86  138.43   1
   1  -1   4 9353.62  129.23   5
  -1   1  -4 9191.33  136.01   5
  -1   1  -4 8969.78  140.12   1
   2  -1   4 9999.99  154.94   3
  -2  -1  -4 9640.96  164.21   1
   2  -1   4 9654.07  138.70   5
  -2   1  -4 9951.46  147.42   5
  -2   1  -4 9862.66  150.20   1
  -2   1  -4 9771.92  157.61   3
   3  -1   4 24.5904  1.7170   5
  -3  -1  -4 23.1407  1.7261   1
   3  -1   4 24.8622  1.6850   3
   3  -1   4 23.6262  1.5526   2
  -3   1  -4 27.0092  1.8552   1
  -3   1  -4 23.5267  1.7336   5
  -3   1  -4 26.0205  1.9277   3
   4  -1   4 173.444   4.897   3
  -4  -1  -4 175.078   5.354   1
   4  -1   4 183.268   4.847   2
   4  -1   4 177.555   5.163   5
  -4   1  -4 178.360   5.200   1
  -4   1  -4 173.322   5.232   5
  -4   1  -4 171.085   5.134   3
   5  -1   4 73.8415  3.2216   3
   5  -1   4 68.0053  3.2244   5
  -5  -1  -4 66.9428  3.4270   1
   5  -1   4 67.4440  2.9867   2
  -5   1  -4 77.7897  3.4133   1
  -5   1  -4 65.5743  3.3087   5
  -5   1  -4 66.2936  3.3706   3
  -6  -1  -4 657.888  13.002   3
   6  -1   4 648.012  13.280   5
   6  -1   4 643.889  13.370   3
   6  -1   4 656.638  12.768   2
  -6  -1  -4 637.577  13.929   1
  -6   1  -4 642.256  13.344   1
  -6   1  -4 644.187  13.740   3
  -6   1  -4 642.913  13.601   5
  -7  -1  -4 639.981  12.975   5
   7  -1   4 659.029  13.684   3
  -7  -1  -4 654.006  14.532   1
  -7  -1  -4 644.941  13.485   3
  -7   1  -4 615.652  13.965   5
  -7   1  -4 631.156  14.173   3
  -7   1  -4 636.645  13.704   1
  -7   1  -4 633.217  13.025   2
  -8  -1  -4 137.496   5.368   5
  -8  -1  -4 137.069   5.634   3
  -8  -1  -4 137.962   5.997   1
  -8   1  -4 148.445   5.767   1
  -8   1  -4 150.595   6.189   5
  -8   1  -4 144.843   5.222   2
  -8   1  -4 136.910   5.924   3
  -9  -1  -4 1417.20   25.58   5
  -9  -1  -4 1409.48   27.34   1
   9  -1   4 1414.52   26.30   3
  -9   1  -4 1393.40   26.76   5
  -9   1  -4 1418.26   25.85   2
  -9   1  -4 1415.63   27.57   3
  -9   1  -4 1425.67   26.45   1
 -10  -1  -4 329.743  10.734   1
  10  -1   4 336.167   9.351   3
 -10  -1  -4 352.672  10.268   5
 -10   1  -4 335.603  10.503   3
 -10   1  -4 331.692   9.549   2
 -10   1  -4 322.141   9.960   1
 -11  -1  -4 237.892   9.308   1
 -11   1  -4 252.429   8.391   2
 -11   1  -4 223.297   8.818   3
 -11   1  -4 253.667   8.943   1
 -12  -1  -4 18.4216  3.2477   1
 -12   1  -4 13.5756  3.1798   3
 -12   1  -4 11.3544  2.4501   2
 -13  -1  -4 166.283   8.310   1
 -13   1  -4 160.520   7.158   2
 -13   1  -4 172.972   7.903   1
 -13   1  -4 162.176   8.003   3
 -14  -1  -4 43.9425  4.1289   2
 -14  -1  -4 60.8153  4.8928   1
 -14   1  -4 50.0319  5.0512   3
 -14   1  -4 55.1286  4.3050   2
 -15  -1  -4 195.764   8.824   2
 -15   1  -4 193.938   9.537   3
 -15  -2   4 73.9539  5.3380   2
 -15   2   4 96.0502  6.0652   3
 -14  -2   4 5.07051 2.12672   2
 -14  -2   4 4.93285 2.09905   1
 -14   2   4 3.99184 1.93410   3
 -13  -2   4 179.791   7.481   2
 -13  -2   4 174.186   8.697   1
  13   2  -4 173.381   9.163   1
 -13   2   4 176.047   8.041   3
 -12  -2   4 55.1562  3.9683   2
 -12  -2   4 53.0955  4.7754   1
 -12   2   4 60.1633  4.4939   3
  12   2  -4 47.8590  4.8750   1
 -11  -2   4 156.899   7.867   1
 -11  -2   4 154.327   6.193   2
 -11   2   4 146.235   6.690   3
  11   2  -4 156.685   7.931   1
 -10  -2   4 206.482   6.875   2
 -10  -2   4 201.249   8.728   1
  10   2  -4 222.950   9.128   1
 -10   2   4 209.383   7.762   3
  -9  -2   4 298.309  10.421   1
  -9  -2   4 302.299   7.965   2
   9  -2  -4 305.929   9.563   3
   9   2  -4 288.786  10.265   1
  -9   2   4 291.056   9.012   3
   8  -2  -4 134.266   6.012   3
  -8  -2   4 126.304   4.446   2
  -8  -2   4 135.681   6.549   1
  -8   2   4 134.691   6.477   5
  -8   2   4 129.345   5.420   3
   8   2  -4 135.741   6.475   1
  -7  -2   4 621.335  15.400   1
   7  -2  -4 659.096  14.513   3
  -7   2   4 634.404  15.238   5
   7   2  -4 617.267  15.249   1
  -7   2   4 652.890  11.594   1
   6  -2  -4 162.867   5.851   3
  -6   2   4 166.322   3.969   1
   6   2  -4 162.813   6.524   1
  -6   2   4 169.064   5.326   3
  -6   2   4 164.106   6.470   5
   5  -2  -4 470.444  10.901   5
   5  -2  -4 460.436  10.504   3
   5   2  -4 467.418  11.623   1
  -5   2   4 472.368   9.800   3
  -5   2   4 454.357  11.265   5
   4  -2  -4 215.430   5.578   2
   4  -2  -4 207.219   6.258   5
   4  -2  -4 209.292   5.751   3
  -4   2   4 213.217   4.950   3
   4   2  -4 204.334   5.668   4
  -4   2   4 209.449   6.549   5
   4   2  -4 210.824   6.835   1
   3  -2  -4 468.175   9.071   2
   3  -2  -4 489.190  10.222   5
   3  -2  -4 468.596   9.425   3
   3   2  -4 465.767   9.435   4
   3   2  -4 459.407  10.878   1
  -3   2   4 463.703  10.288   5
   2  -2  -4 778.469  14.178   5
   2   2  -4 796.058  15.542   1
  -2   2   4 800.195  14.544   5
   2   2  -4 810.410  13.884   4
   1  -2  -4 51.0490  2.3737   5
   1   2  -4 51.6359  2.8500   1
   1   2  -4 47.5928  2.4197   4
  -1   2   4 52.1339  2.4788   5
   0  -2  -4 173.910   3.997   1
   0  -2  -4 183.027   4.544   5
   0  -2   4 173.304   5.243   5
   0   2   4 173.690   3.846   4
   0   2   4 171.857   4.519   5
   0   2  -4 173.698   4.876   4
   0   2  -4 175.665   5.313   1
   1  -2   4 50.4687  2.7335   5
  -1  -2  -4 51.0286  2.2526   1
  -1  -2  -4 53.3383  2.2026   5
   1   2   4 50.4924  2.2384   1
  -1   2  -4 54.3468  2.7234   1
   1   2   4 51.7028  1.8690   4
  -1   2  -4 48.3428  2.5314   4
  -1   2  -4 49.4012  2.6960   5
   1   2   4 50.2572  2.1181   5
   2  -2   4 792.179  13.572   2
   2  -2   4 788.967  14.770   5
  -2  -2  -4 776.614  14.156   1
   2  -2   4 791.651  14.151   3
  -2  -2  -4 789.287  12.995   5
   2   2   4 778.226  12.000   4
  -2   2  -4 773.134  14.701   5
  -2   2  -4 778.098  14.585   1
   2   2   4 778.120  14.204   1
  -2   2  -4 777.135  12.764   3
  -2   2  -4 754.916  12.728   3
   3  -2   4 463.375  10.328   5
   3  -2   4 470.583   9.428   2
   3  -2   4 465.927   9.657   3
  -3  -2  -4 450.856  10.016   1
  -3   2  -4 463.391   9.935   1
   3   2   4 467.674  10.152   1
  -3   2  -4 457.387   8.907   3
  -3   2  -4 455.466  10.444   5
   4  -2   4 208.338   5.857   3
   4  -2   4 211.245   6.472   5
  -4  -2  -4 220.884   6.538   1
   4   2   4 209.914   6.475   1
  -4   2  -4 207.046   5.480   3
  -4   2  -4 209.740   6.033   1
  -4   2  -4 207.151   6.602   5
   5  -2   4 489.235  10.661   2
  -5  -2  -4 483.549  11.458   1
   5  -2   4 489.159  11.314   5
   5  -2   4 466.396  10.682   3
   5   2   4 461.041  11.324   1
  -5   2  -4 466.440  11.454   5
  -5   2  -4 476.387  10.704   1
   6  -2   4 167.592   5.769   3
  -6  -2  -4 158.621   6.228   1
   6  -2   4 171.046   5.666   2
  -6   2  -4 170.559   6.467   5
  -6   2  -4 154.677   5.444   3
   6   2   4 168.077   6.361   1
  -6   2  -4 162.660   4.832   2
  -6   2  -4 159.059   5.598   1
  -7  -2  -4 614.689  14.913   1
   7  -2   4 612.359  14.067   3
   7  -2   4 653.081  13.842   2
  -7   2  -4 653.297  12.942   2
  -7   2  -4 627.382  14.008   3
  -7   2  -4 632.480  14.997   5
  -7   2  -4 643.453  13.908   1
  -8  -2  -4 136.450   6.357   1
   8  -2   4 131.445   5.762   3
   8  -2   4 129.252   5.409   2
  -8   2  -4 128.846   5.590   3
  -8   2  -4 137.146   5.599   1
  -8   2  -4 130.162   4.919   2
  -8   2  -4 132.767   6.282   5
  -9  -2  -4 285.973  10.130   1
   9  -2   4 297.958   9.250   3
  -9   2  -4 300.092   8.440   2
  -9   2  -4 315.750   9.471   3
  -9   2  -4 311.741   9.289   1
 -10  -2  -4 211.244   7.682   5
  10  -2   4 223.244   8.011   3
 -10  -2  -4 213.356   8.830   1
 -10   2  -4 207.354   7.956   3
 -10   2  -4 207.017   7.698   1
  11  -2   4 144.602   6.758   3
 -11  -2  -4 147.056   7.569   1
 -11   2  -4 150.728   6.904   3
 -11   2  -4 156.879   6.898   1
 -12  -2  -4 67.0884  5.3191   1
  12  -2   4 48.8500  4.4776   3
 -12   2  -4 54.9257  4.5369   3
 -13  -2  -4 168.754   8.751   1
 -13   2  -4 174.342   8.018   3
 -14  -2  -4 9.31391 2.33714   1
 -14  -2  -4 6.48753 2.01871   2
 -14   2  -4 2.95736 1.71696   3
 -15  -2  -4 86.9850  5.7785   2
 -15   2  -4 102.692   6.064   3
 -14  -3   4 29.2207  3.8815   2
 -14   3   4 33.1130  3.5575   3
 -13  -3   4 191.180   9.750   1
 -13  -3   4 190.306   7.806   2
  13   3  -4 194.017  10.008   1
 -13   3   4 200.096   8.007   3
 -12  -3   4 49.0106  4.0148   2
 -12  -3   4 50.0875  4.8765   1
  12   3  -4 46.2090  5.1708   1
 -12   3   4 48.2061  3.8325   3
 -11  -3   4 197.515   9.399   1
 -11  -3   4 178.990   6.671   2
  11  -3  -4 170.479   8.263   3
 -11   3   4 193.771   7.235   3
  11   3  -4 189.937   9.286   1
 -10  -3   4 63.2350  3.5395   2
 -10  -3   4 62.2296  5.1793   1
  10  -3  -4 62.0231  5.0872   3
 -10   3   4 63.7832  3.9157   3
  10   3  -4 66.8914  5.4537   1
   9  -3  -4 13.1045  2.9254   3
  -9  -3   4 4.84643 2.14601   1
   9   3  -4 9.00406 2.50259   1
  -9   3   4 14.7227  2.2148   3
   8  -3  -4 53.6229  4.2629   3
  -8  -3   4 68.4205  4.7747   1
  -8   3   4 58.7124  3.1021   3
   8   3  -4 58.7417  4.6970   1
   7  -3  -4 919.538  19.130   3
   7  -3  -4 878.214  18.220   2
   7   3  -4 895.142  20.463   1
  -7   3   4 921.824  16.500   3
  -7   3   4 883.435  20.021   5
   6  -3  -4 780.236  16.015   2
   6  -3  -4 795.044  16.615   3
  -6   3   4 788.200  17.818   5
   6   3  -4 787.117  18.210   1
   5  -3  -4 442.063  10.301   3
   5  -3  -4 423.574   9.871   2
   5   3  -4 431.087  10.125   4
   5   3  -4 434.664  11.960   1
  -5   3   4 433.158  11.666   5
   4  -3  -4 86.1015  3.4071   2
   4  -3  -4 89.9314  3.6129   3
   4   3  -4 89.9057  4.0563   4
  -4   3   4 90.6736  4.6086   5
   4   3  -4 86.9769  4.7275   1
   3  -3  -4 164.295   4.282   2
   3  -3  -4 168.355   5.883   5
   3   3  -4 169.552   6.401   1
   3   3  -4 178.164   5.742   4
  -3   3   4 172.537   6.225   5
   2  -3  -4 1566.16   25.99   5
  -2  -3   4 1561.40   26.68   5
   2   3  -4 1557.55   27.67   1
  -2   3   4 1533.15   26.37   5
   2   3  -4 1525.99   24.98   4
   1  -3  -4 553.556  11.511   5
  -1  -3   4 563.137  12.420   5
   1  -3  -4 542.139   9.558   1
  -1   3   4 536.676  11.655   5
  -1   3   4 564.274  10.501   4
   1   3  -4 554.421  11.537   4
  -1   3   4 552.904   9.555   1
   1   3  -4 553.322  12.484   1
   0  -3  -4 25.3827  1.9720   5
   0  -3   4 26.3279  2.2040   5
   0   3   4 22.3791  1.9207   5
   0   3   4 24.4506  1.7891   4
   0   3   4 24.9635  1.6013   1
   0   3  -4 22.6450  2.1150   4
   0   3  -4 20.7020  2.1115   1
  -1  -3  -4 568.688  11.268   5
  -1  -3  -4 550.700  10.986   1
   1   3   4 557.096  10.130   4
   1   3   4 549.305  10.932   1
  -1   3  -4 551.512  12.423   5
  -1   3  -4 554.599  12.045   1
  -1   3  -4 538.666  11.641   4
  -2  -3  -4 1524.61   26.13   1
  -2  -3  -4 1562.01   25.12   5
   2  -3   4 1562.04   24.94   2
  -2   3  -4 1534.85   27.07   5
  -2   3  -4 1547.45   26.61   1
   2   3   4 1589.72   23.38   4
   2   3   4 1555.87   26.12   1
   3  -3   4 173.121   4.855   2
  -3  -3  -4 174.365   5.261   5
   3  -3   4 168.229   5.018   3
  -3  -3  -4 170.471   5.821   1
   3   3   4 167.521   5.726   1
  -3   3  -4 166.859   5.575   1
   3   3   4 168.532   4.643   4
  -3   3  -4 159.933   6.213   5
  -4  -3  -4 94.5472  3.8648   5
   4  -3   4 92.4958  3.8455   3
   4  -3   4 84.0403  3.6545   2
  -4  -3  -4 88.3419  4.3625   1
  -4   3  -4 89.3185  4.7006   5
  -4   3  -4 86.9728  3.9393   1
   4   3   4 90.2129  4.3474   1
   5  -3   4 437.677  10.381   2
   5  -3   4 443.547  10.455   3
  -5  -3  -4 443.250  11.452   1
  -5   3  -4 420.600  10.275   1
  -5   3  -4 421.391   8.391   3
  -5   3  -4 435.479  11.897   5
   5   3   4 437.227  11.334   1
  -6  -3  -4 800.999  17.563   1
   6  -3   4 683.826  15.728   2
   6  -3   4 792.530  16.502   3
   6   3   4 785.822  17.483   1
  -6   3  -4 785.758  14.726   3
  -6   3  -4 788.385  17.814   5
  -6   3  -4 778.548  15.844   1
   7  -3   4 932.035  18.835   2
   7  -3   4 907.082  19.099   3
  -7  -3  -4 905.100  20.017   1
  -7   3  -4 901.638  20.217   5
   7   3   4 850.379  19.786   1
  -7   3  -4 897.643  18.158   1
  -7   3  -4 898.363  17.455   3
  -8  -3  -4 50.9295  4.2407   1
   8  -3   4 63.1738  4.1436   2
   8  -3   4 57.5368  4.2544   3
  -8   3  -4 55.1767  3.4314   3
  -8   3  -4 60.0385  3.8310   1
   8   3   4 60.4554  4.4266   1
  -9  -3  -4 7.61229 2.28060   1
   9  -3   4 15.6597  3.0643   3
   9  -3   4 10.5548  2.5257   2
  -9   3  -4 10.8089  2.2204   3
 -10  -3  -4 60.5798  4.9354   1
  10  -3   4 55.1515  4.5511   3
  10  -3   4 63.8258  4.4914   2
 -10   3  -4 57.2718  4.0407   3
 -11  -3  -4 200.669   9.292   1
  11  -3   4 186.056   8.129   3
 -11   3  -4 178.760   7.323   3
  12  -3   4 46.4193  4.4864   3
 -12  -3  -4 42.2845  4.7322   1
 -12   3  -4 49.5138  4.1372   3
 -13  -3  -4 222.294  10.101   1
  13  -3   4 196.776   8.852   3
 -13   3  -4 192.553   8.265   3
 -14   3  -4 30.4783  3.5227   3
 -14  -4   4 18.3844  3.5254   2
 -13  -4   4 341.815  10.750   2
 -12  -4   4 20.9306  3.0830   2
  12  -4  -4 16.0191  4.6013   3
 -12  -4   4 25.7829  3.6880   1
  12   4  -4 15.3820  3.6459   1
 -11  -4   4 107.097   4.874   2
 -11  -4   4 99.3129  7.1044   1
  11  -4  -4 102.312   6.766   3
  11   4  -4 98.7108  7.1924   1
  10  -4  -4 46.2831  4.9431   3
 -10  -4   4 52.2470  4.8532   1
  10   4  -4 53.9723  5.3063   1
  -9  -4   4 75.1105  5.8487   1
   9  -4  -4 97.6521  5.8103   3
   9   4  -4 86.1727  6.2716   1
  -8  -4   4 21.7940  3.7289   1
   8  -4  -4 16.4342  3.1138   3
   8   4  -4 20.7102  3.5663   1
   7  -4  -4 231.193   7.786   2
   7  -4  -4 235.723   8.088   3
   7   4  -4 217.510   9.273   1
   6  -4  -4 527.190  12.472   2
   6   4  -4 537.776  15.035   1
   5  -4  -4 345.716   8.841   2
   5   4  -4 341.284   9.563   4
   5   4  -4 353.664  11.298   1
  -5   4   4 353.488  11.117   5
   4  -4  -4 10.5230  1.6989   2
  -4   4   4 11.8465  2.2336   5
   4   4  -4 12.0676  2.1172   4
   4   4  -4 13.5816  2.5168   1
   3  -4  -4 29.3428  1.7167   2
   3   4  -4 26.9865  3.3850   1
  -3   4   4 30.5872  2.9565   5
   3   4  -4 26.1755  2.6665   4
   2   4  -4 976.758  20.293   1
  -2   4   4 962.635  19.608   5
   2   4  -4 975.871  18.620   4
  -2   4   4 969.118  17.672   4
   1  -4  -4 98.6712  3.2839   1
   1   4  -4 93.0410  4.6437   4
  -1   4   4 97.0398  4.1850   4
  -1   4   4 94.4340  3.2342   1
  -1   4   4 89.4373  4.5901   5
   1   4  -4 97.4355  4.9354   1
   0  -4  -4 1661.65   26.91   1
   0   4  -4 1654.29   29.46   1
   0   4   4 1620.67   28.18   5
   0   4  -4 1607.68   27.61   4
   0   4   4 1657.06   25.96   4
   0   4   4 1638.75   26.72   1
  -1  -4  -4 95.2025  4.0493   1
  -1  -4  -4 100.736   4.460   5
  -1   4  -4 97.2028  4.8228   4
   1   4   4 96.3417  3.9798   1
  -1   4  -4 103.879   4.779   1
   1   4   4 96.9726  4.0285   4
  -1   4  -4 92.0914  4.9331   5
  -2  -4  -4 992.274  18.877   1
   2  -4   4 972.761  16.551   2
  -2  -4  -4 960.549  18.592   5
  -2   4  -4 970.809  20.436   5
   2   4   4 983.286  18.751   1
  -2   4  -4 984.553  19.291   1
   2   4   4 998.795  17.111   4
  -2   4  -4 992.724  19.286   4
   3  -4   4 25.3768  2.0331   2
  -3  -4  -4 23.7121  2.4597   1
  -3  -4  -4 24.9655  2.2882   5
  -3   4  -4 29.7480  2.8843   4
   3   4   4 27.0161  2.5477   1
  -3   4  -4 31.9716  3.0831   5
  -3   4  -4 28.1588  2.5207   1
   3   4   4 28.6427  2.2881   4
  -4  -4  -4 11.0048  1.7816   5
  -4  -4  -4 10.5266  2.1098   1
   4  -4   4 11.4483  1.8279   2
  -4   4  -4 8.01752 1.71517   1
   4   4   4 10.0959  2.0759   1
   4   4   4 11.2358  1.8169   4
  -4   4  -4 11.6112  2.2782   5
   5  -4   4 337.886   9.176   2
  -5  -4  -4 331.256  10.296   1
   5   4   4 348.546  10.428   1
  -5   4  -4 338.004   9.170   1
  -5   4  -4 333.793  11.053   5
  -6  -4  -4 560.543  14.624   1
   6  -4   4 541.893  13.076   2
   6  -4   4 561.798  13.388   3
   6   4   4 520.929  14.199   1
  -6   4  -4 528.082  12.620   1
   7  -4   4 229.116   8.074   3
  -7  -4  -4 231.908   9.076   1
   7   4   4 227.530   9.039   1
   8  -4   4 21.2658  3.3170   3
   8  -4   4 17.5553  3.0606   2
  -8  -4  -4 24.3078  3.7410   1
   8   4   4 19.4630  3.3778   1
   9  -4   4 82.0967  5.2176   2
  -9  -4  -4 86.1662  5.9979   1
   9  -4   4 81.4213  5.4990   3
   9   4   4 83.3447  5.8636   1
  10  -4   4 53.6954  4.6494   2
  10  -4   4 40.2636  4.5138   3
 -10  -4  -4 53.9835  5.0752   1
 -11  -4  -4 93.6535  6.7888   1
  11  -4   4 98.3947  5.9624   2
  11  -4   4 89.1603  6.3429   3
  12  -4   4 23.9695  4.5490   3
 -12  -4  -4 22.7169  4.0921   1
  13  -4   4 312.845  12.010   3
  12  -5  -4 27.2765  5.3148   3
 -12  -5   4 38.0084  3.3120   2
  11  -5  -4 28.3780  4.8624   3
 -11  -5   4 26.4356  4.6233   1
 -10  -5   4 35.0945  5.3476   1
  10   5  -4 30.9613  4.3963   1
   9  -5  -4 62.8888  4.7347   2
  -9  -5   4 72.0624  6.2150   1
   9   5  -4 76.9059  6.1618   1
  -8  -5   4 61.5238  5.5414   1
   8  -5  -4 60.7829  4.3906   2
   8   5  -4 53.9306  5.1093   1
  -7  -5   4 147.100   8.071   1
   7  -5  -4 124.451   5.918   2
   7   5  -4 118.553   7.289   1
   6  -5  -4 278.961   8.627   2
   6   5  -4 273.657   9.198   4
   6   5  -4 277.303  10.859   1
   5  -5  -4 325.334   8.903   2
   5   5  -4 325.035  11.573   1
   5   5  -4 340.935  10.282   4
   4  -5  -4 110.052   4.302   2
   4   5  -4 95.9454  5.9296   1
   4   5  -4 109.223   5.593   4
  -3   5   4 25.4026  3.1611   4
   3   5  -4 26.0035  3.6837   1
  -3   5   4 19.9497  3.0092   5
   3   5  -4 26.1900  3.3291   4
   2   5  -4 367.130  10.687   4
  -2   5   4 353.848  11.083   5
  -2   5   4 350.848   9.856   4
   2   5  -4 367.969  11.371   1
   1   5  -4 154.868   6.701   4
  -1   5   4 169.230   6.246   4
   1   5  -4 153.415   6.783   1
  -1   5   4 158.857   6.821   5
   0   5  -4 42.3311  3.5318   1
   0   5   4 33.1149  3.1871   5
   0   5   4 42.9789  3.2026   4
   0   5  -4 37.6253  3.5284   4
  -1  -5  -4 170.913   5.987   1
  -1   5  -4 165.566   7.056   4
  -1   5  -4 169.239   6.760   1
   1   5   4 168.155   6.090   4
   1   5   4 160.906   5.831   1
  -2  -5  -4 348.090   9.813   1
   2  -5   4 356.965   7.549   2
  -2   5  -4 351.594  10.876   4
  -2   5  -4 353.805  10.187   1
   2   5   4 355.454   9.790   1
   2   5   4 370.513   9.404   4
  -3  -5  -4 25.3938  3.1665   1
   3  -5   4 21.1412  2.1183   2
   3   5   4 24.8702  2.7670   1
  -3   5  -4 27.0578  2.7931   1
   3   5   4 20.2181  2.5744   4
  -3   5  -4 26.5146  3.6089   4
   4  -5   4 111.312   4.735   2
  -4  -5  -4 109.634   5.719   1
  -4   5  -4 116.288   6.257   4
   4   5   4 109.827   5.677   1
   4   5   4 110.297   4.864   4
  -5  -5  -4 333.464  10.921   1
   5  -5   4 334.967   9.572   2
   5   5   4 345.046  10.987   1
  -6  -5  -4 281.731  10.303   1
   6  -5   4 275.982   9.091   2
   6   5   4 288.357  10.335   1
   7  -5   4 127.908   6.209   2
  -7  -5  -4 136.500   7.280   1
   7   5   4 144.536   7.492   1
  -8  -5  -4 65.8298  5.4206   1
   8   5   4 71.4003  5.5951   1
   9  -5   4 75.0304  5.3534   2
   9  -5   4 72.6967  5.2934   3
  -9  -5  -4 75.1292  5.9994   1
   9   5   4 73.2926  5.9971   1
 -10  -5  -4 28.0926  4.5192   1
  10  -5   4 28.5565  4.2316   3
  10  -5   4 24.4275  4.0458   2
  11  -5   4 38.1223  4.4811   2
 -11  -5  -4 36.3399  5.3284   1
  11  -5   4 31.0214  5.1933   3
  12  -5   4 36.3122  5.0609   2
  12  -5   4 26.1903  4.9520   3
  10  -6  -4 2.14101 2.70086   2
  -9  -6   4 248.482  11.856   1
   9  -6  -4 241.149   9.767   2
   9   6  -4 247.696  11.511   1
  -8  -6   4 226.406  11.088   1
   8  -6  -4 223.875   8.885   2
   8   6  -4 218.371  10.719   1
  -7  -6   4 60.3422  5.7852   1
   7  -6  -4 53.8600  4.3819   2
   7   6  -4 60.6212  5.5077   1
   6  -6  -4 102.043   5.516   2
  -6   6   4 110.176   6.402   4
   6   6  -4 107.977   6.140   4
   6   6  -4 103.719   7.044   1
   5  -6  -4 39.5957  3.4482   2
   5   6  -4 39.2432  3.9915   4
   5   6  -4 41.6713  4.4757   1
  -5   6   4 33.7653  4.3007   4
   4  -6  -4 178.918   6.031   2
   4   6  -4 175.894   7.768   4
   4   6  -4 167.166   8.298   1
  -4   6   4 176.305   7.723   4
   3   6  -4 264.422   9.648   4
  -3   6   4 259.626   9.206   4
   3   6  -4 260.694  10.278   1
   2   6  -4 445.227  13.107   4
   2   6  -4 451.383  13.694   1
  -2   6   4 453.004  12.302   4
   1   6  -4 39.9642  4.0535   4
   1   6  -4 39.4187  3.8386   1
  -1   6   4 45.8535  3.8969   4
   0   6  -4 261.006   9.774   4
   0   6  -4 247.823   9.300   1
   0   6   4 266.605   8.793   4
  -1   6  -4 31.4592  4.1678   4
   1   6   4 41.2590  3.7409   4
   2   6   4 468.528  11.960   4
  -2   6  -4 440.422  13.441   4
   3  -6   4 267.496   7.587   2
   3   6   4 259.004   8.472   4
  -3   6  -4 264.675  10.194   4
  -4  -6  -4 168.863   7.611   1
   4  -6   4 178.169   6.557   2
  -4   6  -4 182.355   8.576   4
   4   6   4 185.171   7.031   4
   4   6   4 177.650   7.760   1
   5  -6   4 34.2645  3.6083   2
  -5  -6  -4 33.9024  3.7645   1
   5   6   4 37.8873  3.9892   1
  -5   6  -4 45.4074  4.5782   4
   6  -6   4 107.737   5.904   2
  -6  -6  -4 102.841   6.438   1
   6   6   4 118.667   6.836   1
  -6   6  -4 115.625   7.162   4
  -7  -6  -4 53.4999  4.9876   1
   7  -6   4 60.4436  4.4683   2
   7   6   4 53.5902  5.0862   1
   8  -6   4 203.138   8.782   2
  -8  -6  -4 209.649   9.995   1
   8   6   4 219.463  10.176   1
  -9  -6  -4 236.551  11.026   1
   9  -6   4 241.345   9.983   2
   9   6   4 256.194  11.207   1
  10  -6   4 6.99597 3.12950   2
  11  -6   4 44.6627  5.0861   2
   9  -7  -4 137.487   7.487   2
   8  -7  -4 0.54106 2.39645   2
   7  -7  -4 27.2253  4.3034   2
  -7  -7   4 34.2079  5.1141   1
   7   7  -4 37.4549  5.2261   1
  -6  -7   4 165.682   9.466   1
   6  -7  -4 153.283   7.169   2
   6   7  -4 156.272   8.913   1
   6   7  -4 148.769   7.824   4
  -5  -7   4 168.606   9.286   1
   5  -7  -4 176.678   7.134   2
   5   7  -4 189.147   8.780   4
   5   7  -4 177.210   9.561   1
   4  -7  -4 61.8125  3.8148   2
   4   7  -4 62.1517  5.2110   4
   4   7  -4 71.8352  5.9789   1
   3   7  -4 21.1996  3.9210   1
   3   7  -4 14.0503  3.3611   4
   2   7  -4 381.340  12.928   4
   1   7  -4 55.0877  5.2555   4
   0   7  -4 6.26425 2.74171   4
  -1   7  -4 60.9701  5.3616   4
  -2   7  -4 384.753  13.239   4
   3  -7   4 14.9872  2.4981   2
  -3   7  -4 13.1248  3.3581   4
   4  -7   4 59.1564  4.4561   2
  -4   7  -4 52.0702  5.3487   4
   5  -7   4 175.923   7.564   2
  -5   7  -4 174.555   9.336   4
   6  -7   4 163.800   7.937   2
  -6   7  -4 153.576   8.941   4
   7  -7   4 30.5061  4.4233   2
  -7   7  -4 34.6649  5.3599   4
   8  -7   4 7.34207 2.32668   2
  -8   7  -4 1.52443 2.02568   4
   9  -7   4 131.029   7.780   2
   5  -8  -4 6.77677 2.47040   2
   5   8  -4 8.24920 2.93358   4
   4   8  -4 308.612  11.915   4
   3   8  -4 -0.3372  2.2372   4
   2   8  -4 65.2405  5.9727   4
   1   8  -4 24.6447  4.5772   4
   0   8  -4 -1.8212  2.3448   4
  -1   8  -4 18.9991  4.2360   4
  -2   8  -4 67.6099  6.2395   4
  -3   8  -4 7.28449 2.54012   4
   4  -8   4 289.881   9.942   2
  -4   8  -4 278.529  11.998   4
   5  -8   4 5.79286 3.08994   2
  -5   8  -4 10.0993  3.1813   4
 -15   0   5 47.1197  5.1018   3
 -15   0   5 53.4324  4.9847   2
 -14   0   5 21.9647  4.0685   3
 -14   0   5 17.3755  3.3288   2
 -13   0   5 59.7859  4.6813   2
 -13   0   5 69.0796  5.3853   3
 -12   0   5 513.601  14.813   3
 -12   0   5 508.877  13.789   2
 -11   0   5 31.9958  3.2353   1
 -11   0   5 30.4280  3.4509   3
 -11   0   5 33.9753  3.2614   2
  11   0  -5 24.5744  3.2843   1
 -10   0   5 25.0283  3.0547   3
  10   0  -5 29.7957  3.0972   1
 -10   0   5 25.0182  2.7971   1
 -10   0   5 24.5100  2.7061   2
   9   0  -5 65.4055  4.0848   1
  -9   0   5 65.1516  3.8448   2
  -9   0   5 67.0293  4.2469   3
  -9   0   5 67.2481  4.0769   1
  -8   0   5 862.997  17.893   1
  -8   0   5 906.008  17.667   2
  -8   0   5 899.547  18.677   3
   8   0  -5 889.821  17.846   1
  -7   0   5 919.190  18.555   3
  -7   0   5 927.346  17.597   2
   7   0  -5 924.279  17.829   1
  -7   0   5 928.145  18.034   1
  -6   0   5 19.2172  1.9086   1
  -6   0   5 20.2018  2.0580   3
   6   0  -5 17.9535  1.8835   1
  -6   0   5 20.8588  1.8830   2
   5   0  -5 254.252   6.672   1
  -5   0   5 250.245   6.306   2
  -5   0   5 259.238   6.827   3
   4   0  -5 1081.36   18.63   1
  -4   0   5 1101.23   19.66   3
  -4   0   5 1087.99   18.66   2
  -3   0   5 64.6406  2.4388   2
   3   0  -5 64.3676  2.6578   1
  -3   0   5 64.6772  2.6997   3
   2   0  -5 6.25689 0.93925   1
  -2   0   5 9.68505 1.18537   3
   1   0  -5 6402.52   96.33   1
   1   0  -5 6215.75   86.64   4
  -1   0   5 6440.97  101.69   3
   0   0  -5 3.30848 0.73355   1
   0   0  -5 0.26154 0.30971   4
   0   0   5 1.40680 0.58709   3
   0   0  -5 -0.4538  0.8403   3
   1   0   5 6310.35   83.95   5
   1   0   5 5132.94   94.03   3
  -1   0  -5 6230.58   97.92   3
  -1   0  -5 6265.52   92.84   1
  -2   0  -5 6.90359 0.68996   5
  -2   0  -5 7.76689 1.27451   3
  -2   0  -5 7.20405 1.10200   1
   2   0   5 6.86319 0.68990   5
  -3   0  -5 66.1212  2.2782   5
  -3   0  -5 65.0531  2.8365   1
   3   0   5 62.9810  2.2797   3
  -3   0  -5 61.5283  2.8288   3
   3   0   5 65.4091  2.1922   5
  -4   0  -5 1076.83   18.82   1
   4   0   5 1067.22   18.27   3
  -4   0  -5 1076.23   17.36   5
  -4   0  -5 1057.04   19.21   3
  -5   0  -5 244.280   6.661   3
  -5   0  -5 243.301   6.163   5
  -5   0  -5 250.149   6.863   1
   5   0   5 234.884   5.644   3
  -6   0  -5 20.5415  2.4609   3
   6   0   5 19.3722  1.8246   3
  -6   0  -5 21.8154  2.1581   1
  -6   0  -5 24.4948  1.9987   5
  -7   0  -5 914.006  18.084   1
  -7   0  -5 885.913  18.167   3
  -7   0  -5 870.455  16.978   5
   7   0   5 919.801  16.250   3
  -8   0  -5 873.303  18.165   1
  -8   0  -5 877.174  18.337   3
  -8   0  -5 848.942  17.301   5
  -9   0  -5 61.3957  4.3648   3
  -9   0  -5 66.5158  4.2450   1
  -9   0  -5 68.3198  4.1524   5
 -10   0  -5 22.4811  2.9359   5
 -10   0  -5 30.4817  3.7888   3
 -10   0  -5 30.7191  3.6744   1
 -11   0  -5 33.5608  4.1886   3
 -11   0  -5 29.3923  3.2797   1
 -11   0  -5 30.9906  3.0525   2
 -12   0  -5 491.036  14.308   1
 -12   0  -5 506.224  14.483   3
 -12   0  -5 495.892  13.090   2
 -13   0  -5 64.9330  4.6706   2
 -13   0  -5 48.7349  4.4501   1
 -13   0  -5 61.8204  5.0454   3
 -14   0  -5 24.0607  3.9627   3
 -14   0  -5 21.0984  3.6008   1
 -14   0  -5 20.3671  3.4527   2
 -15   0  -5 54.5087  4.7826   2
 -15   0  -5 55.8898  5.2254   3
 -15   0  -5 50.4451  4.9041   1
 -15  -1   5 17.4125  3.5159   2
 -15   1   5 27.2016  4.1952   3
 -14  -1   5 202.622   8.718   2
 -14   1   5 214.949   9.481   3
 -13  -1   5 19.1495  3.2769   1
 -13  -1   5 13.3677  2.8207   2
 -13   1   5 15.7157  3.1454   3
  13   1  -5 9.52684 2.74597   1
 -12  -1   5 140.951   6.849   3
 -12  -1   5 141.540   6.443   2
 -12  -1   5 140.911   7.204   1
 -12   1   5 134.725   6.439   2
  12   1  -5 130.321   7.165   1
 -12   1   5 122.052   6.640   3
 -11  -1   5 65.8595  4.4361   3
 -11  -1   5 68.7719  4.9244   1
 -11   1   5 57.1004  4.4527   3
  11   1  -5 53.6218  4.5099   1
 -11   1   5 52.7998  3.9899   2
 -10  -1   5 293.178  10.128   1
 -10  -1   5 304.879   8.957   2
 -10  -1   5 303.992   9.729   3
 -10   1   5 305.473  10.017   3
  10   1  -5 311.103  10.320   1
 -10   1   5 315.993   9.382   2
  -9  -1   5 116.289   4.937   2
  -9  -1   5 119.293   5.928   1
  -9  -1   5 116.030   5.514   3
  -9   1   5 112.779   5.623   3
  -9   1   5 111.821   4.689   1
   9   1  -5 114.133   5.856   1
  -9   1   5 112.178   5.077   2
  -8  -1   5 383.114  10.153   3
   8  -1  -5 386.791   9.213   1
  -8  -1   5 369.047   9.284   2
  -8  -1   5 366.413  10.787   1
  -8   1   5 403.299   9.919   2
  -8   1   5 392.434  11.293   5
   8   1  -5 392.273  10.899   1
  -8   1   5 390.428  10.540   3
  -8   1   5 388.795   9.202   1
  -7  -1   5 442.635  11.578   1
   7  -1  -5 454.227   9.643   1
  -7  -1   5 436.056   9.868   2
  -7  -1   5 438.372  10.603   3
  -7   1   5 440.049  11.541   5
  -7   1   5 442.198  10.934   3
  -7   1   5 447.720  10.258   2
  -7   1   5 442.462   9.632   1
   7   1  -5 455.267  11.601   1
  -6  -1   5 1239.72   22.45   3
   6  -1  -5 1221.54   20.45   1
  -6  -1   5 1229.52   21.25   2
  -6   1   5 1247.23   21.74   2
  -6   1   5 1230.95   20.57   1
   6   1  -5 1219.22   22.84   1
  -6   1   5 1231.72   22.53   5
  -6   1   5 1212.66   22.82   3
   5  -1  -5 276.680   6.194   1
  -5  -1   5 283.751   6.505   2
  -5  -1   5 283.237   7.077   3
   5   1  -5 289.059   5.345   3
  -5   1   5 285.072   6.845   2
   5   1  -5 291.191   8.005   1
  -5   1   5 297.121   6.405   1
  -5   1   5 288.702   7.417   3
  -5   1   5 287.639   7.825   5
  -4  -1   5 1380.96   22.25   2
   4  -1  -5 1363.70   21.24   1
  -4  -1   5 1364.91   23.37   3
   4  -1  -5 1380.18   23.89   3
   4   1  -5 1353.53   23.74   1
  -4   1   5 1356.72   22.57   2
   4   1  -5 1390.73   21.88   3
  -4   1   5 1347.34   22.74   5
  -4   1   5 1345.64   23.72   3
  -3  -1   5 232.177   5.412   3
   3  -1  -5 236.450   5.821   3
   3  -1  -5 237.524   4.670   1
  -3  -1   5 237.005   5.014   2
   3   1  -5 230.968   4.619   3
  -3   1   5 222.372   5.841   5
   3   1  -5 220.872   6.282   1
   3   1  -5 219.513   5.183   4
   2  -1  -5 614.333  10.059   1
   2  -1  -5 617.715  11.461   3
  -2  -1   5 634.186  11.360   3
  -2   1   5 625.209  11.104   5
  -2   1   5 618.436  11.166   3
   2   1  -5 640.338  10.678   3
   2   1  -5 614.270  12.133   1
   2   1  -5 611.845  10.478   4
   1  -1  -5 6700.51  100.88   1
  -1  -1   5 7087.50  106.13   3
   1  -1  -5 6799.91  109.37   3
  -1   1   5 6768.83   99.51   5
   1   1  -5 6975.96  108.05   3
  -1   1   5 6666.11  106.63   3
   1   1  -5 6831.13  101.14   1
   1   1  -5 6497.54   90.88   4
   0  -1  -5 267.391   4.609   5
   0  -1   5 264.893   5.742   3
   0  -1   5 261.253   5.794   5
   0  -1  -5 263.249   5.299   1
   0   1  -5 265.157   6.418   1
   0   1  -5 257.109   5.464   4
   0   1   5 266.116   4.740   5
   0   1  -5 268.127   5.607   3
  -1  -1  -5 6716.42  101.64   1
   1  -1   5 6785.85  106.29   3
   1  -1   5 6806.87   97.00   5
  -1   1  -5 6734.12  102.19   1
  -1   1  -5 6854.51  101.08   5
   2  -1   5 618.076  11.513   3
  -2  -1  -5 612.305  11.250   1
   2  -1   5 614.405  11.057   5
   2  -1   5 604.383  11.101   2
  -2   1  -5 599.935  11.530   3
  -2   1  -5 605.045  11.009   5
  -2   1  -5 606.283  11.712   1
   3  -1   5 227.442   5.677   3
  -3  -1  -5 225.458   5.918   1
   3  -1   5 221.015   5.673   5
   3  -1   5 226.286   5.556   2
  -3   1  -5 232.370   5.977   3
  -3   1  -5 233.093   5.833   5
  -3   1  -5 232.435   6.134   1
   4  -1   5 1371.73   22.90   2
   4  -1   5 1364.50   22.21   5
   4  -1   5 1349.58   23.59   3
  -4  -1  -5 1333.54   23.17   1
  -4   1  -5 1361.61   23.17   1
  -4   1  -5 1330.82   22.33   5
  -4   1  -5 1368.99   23.97   3
  -5  -1  -5 281.162   7.681   1
   5  -1   5 291.255   7.343   5
   5  -1   5 280.470   7.113   3
  -5  -1  -5 289.151   6.744   3
   5  -1   5 285.093   6.915   2
  -5   1  -5 272.259   7.437   3
  -5   1  -5 276.431   7.515   1
  -5   1  -5 269.701   7.351   5
  -6  -1  -5 1233.10   20.34   5
  -6  -1  -5 1224.02   22.64   1
   6  -1   5 1264.42   21.54   2
  -6  -1  -5 1216.81   22.06   3
   6  -1   5 1248.73   21.48   5
   6  -1   5 1208.50   22.36   3
  -6   1  -5 1202.32   21.81   5
  -6   1  -5 1215.75   22.15   1
  -6   1  -5 1193.19   22.86   3
  -7  -1  -5 430.551   9.804   5
   7  -1   5 450.148   9.736   2
  -7  -1  -5 433.567  11.246   1
  -7  -1  -5 427.344  10.338   3
   7  -1   5 433.769  10.319   3
  -7   1  -5 438.876  10.820   1
  -7   1  -5 434.914  10.940   5
  -7   1  -5 428.394  10.890   3
  -8  -1  -5 389.333  10.886   1
  -8  -1  -5 398.266   9.765   5
  -8   1  -5 369.420  10.221   1
  -8   1  -5 381.329  10.562   5
  -8   1  -5 369.649  10.469   3
  -8   1  -5 375.722   9.478   2
   9  -1   5 103.275   4.886   3
  -9  -1  -5 107.135   5.600   1
  -9  -1  -5 109.530   5.085   5
  -9   1  -5 99.0563  5.4703   3
  -9   1  -5 111.987   5.407   1
  -9   1  -5 109.342   5.599   5
  -9   1  -5 115.386   4.981   2
 -10  -1  -5 301.266   9.364   5
 -10  -1  -5 292.021  10.020   1
  10  -1   5 295.213   8.645   3
 -10   1  -5 306.568   9.731   1
 -10   1  -5 272.451   9.489   3
 -10   1  -5 281.716   8.697   2
 -11  -1  -5 61.5114  4.7485   1
 -11   1  -5 42.8895  4.2943   3
 -11   1  -5 58.7005  4.1900   2
 -11   1  -5 62.5887  4.4220   1
 -12  -1  -5 134.656   7.299   1
 -12   1  -5 137.172   6.869   1
 -12   1  -5 131.944   6.309   2
 -12   1  -5 144.940   7.294   3
 -13  -1  -5 13.3878  2.9382   1
 -13  -1  -5 9.95451 2.47953   2
 -13   1  -5 11.4596  2.7094   1
 -13   1  -5 17.0608  3.6230   3
 -13   1  -5 10.5964  2.7174   2
 -14  -1  -5 206.397   9.571   1
 -14  -1  -5 198.086   8.347   2
 -14   1  -5 199.704   9.472   3
 -14   1  -5 207.032   8.425   2
 -15  -1  -5 25.7079  3.9634   2
 -15   1  -5 19.5974  4.1421   3
 -15  -2   5 38.4000  4.2306   2
 -15   2   5 37.4811  4.2280   3
 -14  -2   5 71.8987  5.1585   2
 -14  -2   5 96.6949  6.6250   1
  14   2  -5 84.2305  6.4643   1
 -14   2   5 74.8486  5.3246   3
 -13  -2   5 48.2925  4.0461   2
 -13  -2   5 53.0180  5.0679   1
  13   2  -5 49.5199  5.2243   1
 -13   2   5 48.4587  4.2534   3
 -12  -2   5 173.930   6.990   2
 -12  -2   5 177.853   8.721   1
 -12   2   5 181.103   7.865   3
  12   2  -5 175.230   8.820   1
 -11  -2   5 1.56604 1.57660   1
 -11  -2   5 2.45231 1.41225   2
  11   2  -5 1.13934 1.91078   1
 -11   2   5 1.33842 1.53178   3
 -10  -2   5 31.2060  2.8647   2
 -10  -2   5 36.1339  3.6321   1
 -10   2   5 25.8630  2.9900   3
  10   2  -5 22.9733  3.6668   1
  -9  -2   5 596.792  15.970   1
  -9  -2   5 602.164  13.087   2
  -9   2   5 603.695  14.445   3
   9   2  -5 597.121  15.832   1
  -8  -2   5 1461.12   25.31   2
  -8  -2   5 1433.82   28.68   1
   8  -2  -5 1518.77   28.26   3
  -8   2   5 1426.38   28.11   5
   8   2  -5 1448.85   28.61   1
  -7  -2   5 49.8631  2.6123   2
   7  -2  -5 52.0420  3.8072   3
   7   2  -5 50.1060  3.8890   1
  -7   2   5 53.0073  3.8426   5
  -7   2   5 54.7000  3.1730   3
   6  -2  -5 316.863   8.673   3
  -6  -2   5 312.316   6.769   2
  -6   2   5 309.760   9.353   5
  -6   2   5 313.279   7.950   3
   6   2  -5 317.310   9.645   1
  -5  -2   5 705.728  12.132   2
   5  -2  -5 702.421  14.539   3
  -5   2   5 708.143  13.606   3
  -5   2   5 715.611  15.178   5
   5   2  -5 702.495  15.610   1
   4  -2  -5 306.205   7.827   5
   4  -2  -5 300.654   7.019   2
   4  -2  -5 289.511   7.265   3
   4   2  -5 284.684   7.056   4
  -4   2   5 290.234   8.001   5
   4   2  -5 297.194   8.527   1
  -4   2   5 288.565   6.297   3
   3  -2  -5 561.916  10.612   2
   3  -2  -5 558.769  11.371   5
   3  -2  -5 550.985  11.004   3
   3   2  -5 579.837  12.715   1
   3   2  -5 567.029  10.921   4
  -3   2   5 564.460  11.708   5
   2  -2  -5 522.024  10.181   5
   2  -2  -5 509.358   8.968   2
  -2   2   5 493.394  10.261   5
   2   2  -5 499.904   9.986   4
   2   2  -5 500.553  11.334   1
   1  -2  -5 3005.66   43.35   5
  -1  -2   5 2945.86   44.62   5
   1  -2  -5 2948.61   43.05   1
   1   2  -5 2980.22   42.27   4
   1   2  -5 2975.47   46.66   1
  -1   2   5 2967.17   43.58   5
   0  -2  -5 543.203   9.756   5
   0  -2   5 556.197  11.260   5
   0  -2  -5 548.061   9.508   1
   0   2  -5 527.466  10.393   4
   0   2   5 547.244   9.917   5
   0   2  -5 551.400  11.589   1
   0   2   5 542.049   8.656   4
   1  -2   5 3011.51   47.24   3
  -1  -2  -5 2971.51   44.40   1
  -1  -2  -5 2984.43   42.31   5
   1  -2   5 2972.54   45.27   2
   1  -2   5 3007.48   44.63   5
  -1   2  -5 2949.98   42.30   4
  -1   2  -5 2945.57   46.01   1
   1   2   5 2909.81   39.66   4
   1   2   5 2883.46   42.22   5
  -1   2  -5 2930.51   44.38   5
   2  -2   5 495.222   9.662   2
  -2  -2  -5 500.641  10.135   1
   2  -2   5 503.251  10.093   3
   2  -2   5 493.555  10.722   5
  -2  -2  -5 506.896   8.930   5
  -2   2  -5 509.419  10.861   1
  -2   2  -5 494.697   9.001   3
  -2   2  -5 510.578  10.842   5
   3  -2   5 570.459  11.391   3
   3  -2   5 560.548  11.834   5
   3  -2   5 570.425  11.068   2
  -3  -2  -5 569.759  11.559   1
  -3   2  -5 528.429  10.530   3
  -3   2  -5 534.249  11.758   5
  -3   2  -5 545.686  11.649   1
   4  -2   5 290.000   7.905   5
   4  -2   5 280.340   7.258   3
  -4  -2  -5 279.678   7.688   1
  -4   2  -5 289.535   8.047   5
  -4   2  -5 280.351   7.551   1
  -4   2  -5 290.392   6.993   3
   5  -2   5 711.665  14.255   2
   5  -2   5 714.389  14.795   5
   5  -2   5 704.733  14.540   3
  -5  -2  -5 689.844  14.884   1
  -5   2  -5 715.739  13.055   2
  -5   2  -5 700.215  15.033   5
  -5   2  -5 705.878  14.533   1
  -6  -2  -5 313.478   9.222   1
   6  -2   5 310.286   8.293   2
   6  -2   5 312.207   8.478   3
  -6   2  -5 308.482   8.337   3
  -6   2  -5 316.071   9.296   5
  -6   2  -5 319.746   7.537   2
  -6   2  -5 309.642   8.641   1
   7  -2   5 47.7075  3.2791   2
   7  -2   5 51.5370  3.5068   3
  -7  -2  -5 55.2728  3.9087   1
  -7   2  -5 51.8907  3.4166   1
  -7   2  -5 46.4705  3.3660   3
  -7   2  -5 52.2697  2.9787   2
  -7   2  -5 52.4024  3.7829   5
   8  -2   5 1506.64   26.71   2
   8  -2   5 1415.63   27.58   3
  -8  -2  -5 1397.16   27.97   1
  -8   2  -5 1469.27   25.91   2
  -8   2  -5 1481.78   27.04   1
  -8   2  -5 1441.73   27.69   5
  -8   2  -5 1454.51   27.62   3
   9  -2   5 593.020  14.337   3
  -9  -2  -5 586.911  15.484   1
   9  -2   5 607.805  13.598   2
  -9   2  -5 597.813  13.282   2
  -9   2  -5 575.772  14.341   3
  -9   2  -5 567.692  14.102   1
  10  -2   5 33.1262  3.4159   3
 -10  -2  -5 35.4019  3.5767   1
 -10   2  -5 24.2145  3.1921   1
 -10   2  -5 26.3679  3.4638   3
  11  -2   5 -0.2668  1.8237   3
 -11  -2  -5 0.57806 1.71246   1
 -11   2  -5 4.73683 1.55962   1
 -11   2  -5 0.39704 1.54679   3
  12  -2   5 163.676   7.297   3
 -12  -2  -5 164.399   8.445   1
 -12   2  -5 174.050   7.821   3
 -13  -2  -5 56.9849  5.2103   1
 -13   2  -5 52.9619  4.5021   3
 -14  -2  -5 73.6055  4.9215   2
 -14  -2  -5 73.6001  5.9407   1
 -14   2  -5 89.1279  5.6961   3
 -15  -2  -5 43.1914  4.2596   2
 -15   2  -5 37.4034  3.5548   3
 -14  -3   5 46.1289  4.0133   2
 -14   3   5 45.2072  3.9677   3
 -13  -3   5 6.51952 2.30945   1
 -13  -3   5 3.31844 1.69137   2
  13   3  -5 3.92825 2.51849   1
 -13   3   5 4.18652 1.94227   3
 -12  -3   5 137.851   8.119   1
 -12  -3   5 129.675   6.076   2
 -12   3   5 123.083   5.953   3
  12   3  -5 114.929   7.651   1
 -11  -3   5 166.322   8.579   1
 -11  -3   5 158.454   6.334   2
  11   3  -5 160.951   8.588   1
 -11   3   5 163.227   6.542   3
  10  -3  -5 234.176   9.284   3
 -10  -3   5 226.990   7.124   2
 -10  -3   5 239.285  10.213   1
 -10   3   5 218.852   7.362   3
  10   3  -5 221.948   9.829   1
   9  -3  -5 37.5781  4.0066   3
  -9  -3   5 42.2928  4.0673   1
  -9  -3   5 40.9286  2.7147   2
   9   3  -5 39.0002  4.0408   1
  -9   3   5 40.0569  2.9272   3
   8  -3  -5 118.808   6.009   3
  -8  -3   5 116.658   4.109   2
  -8  -3   5 125.173   6.778   1
   8   3  -5 128.038   6.885   1
  -8   3   5 129.583   4.593   3
   7  -3  -5 114.430   5.487   3
  -7   3   5 110.692   3.715   3
   7   3  -5 110.482   6.131   1
  -7   3   5 118.145   6.076   5
   6  -3  -5 326.854   9.070   3
   6  -3  -5 319.603   8.667   2
  -6   3   5 324.807  10.190   5
   6   3  -5 316.896  10.472   1
   5  -3  -5 487.431  10.847   2
   5  -3  -5 494.607  11.277   3
   5   3  -5 478.322  10.992   4
  -5   3   5 491.273  12.616   5
   5   3  -5 486.856  13.091   1
   4  -3  -5 257.217   6.821   3
   4  -3  -5 252.781   6.529   2
   4   3  -5 259.351   7.343   4
  -4   3   5 261.971   8.216   5
   4   3  -5 261.001   8.634   1
   3  -3  -5 927.624  17.512   5
   3  -3  -5 915.420  16.493   3
   3  -3  -5 926.817  15.858   2
  -3   3   5 917.461  18.010   5
   3   3  -5 893.323  18.940   1
   3   3  -5 918.020  16.883   4
   2  -3  -5 124.296   4.755   5
  -2   3   5 136.768   5.097   5
   2   3  -5 126.408   5.423   1
   2   3  -5 121.894   4.745   4
   1  -3  -5 288.155   7.334   5
  -1  -3   5 293.430   8.273   5
   1  -3  -5 285.171   5.559   1
   1   3  -5 283.494   7.632   4
  -1   3   5 284.066   7.556   5
  -1   3   5 279.285   6.440   4
   1   3  -5 277.641   8.273   1
   0  -3  -5 570.454  11.416   5
   0  -3  -5 566.903  10.473   1
   0   3  -5 586.216  12.946   1
   0   3   5 561.359  11.539   5
   0   3  -5 569.125  11.986   4
   0   3   5 567.996  10.192   4
  -1  -3  -5 280.455   6.958   5
   1  -3   5 285.030   8.305   5
  -1  -3  -5 286.109   6.851   1
   1  -3   5 282.353   5.701   2
   1   3   5 282.741   7.032   5
  -1   3  -5 289.762   8.089   1
  -1   3  -5 288.730   7.842   4
   1   3   5 298.081   6.981   1
   1   3   5 294.823   6.270   4
  -1   3  -5 289.450   8.277   5
  -2  -3  -5 133.557   4.371   5
   2  -3   5 134.857   3.912   2
   2  -3   5 130.626   4.145   3
  -2  -3  -5 132.995   4.640   1
   2  -3   5 137.107   5.440   5
  -2   3  -5 134.167   5.151   4
  -2   3  -5 122.732   5.275   5
  -2   3  -5 130.345   5.045   1
   2   3   5 129.275   3.802   4
   2   3   5 126.720   4.597   1
  -3  -3  -5 919.969  17.520   1
  -3  -3  -5 912.118  16.057   5
   3  -3   5 918.997  17.203   3
   3  -3   5 889.718  16.472   2
  -3   3  -5 898.783  17.627   1
   3   3   5 913.739  14.708   4
  -3   3  -5 882.741  18.267   5
   3   3   5 916.799  17.579   1
   4  -3   5 253.227   6.975   2
   4  -3   5 254.701   7.117   3
  -4  -3  -5 257.723   6.680   5
  -4  -3  -5 262.664   7.849   1
  -4   3  -5 257.733   7.612   1
   4   3   5 256.055   7.848   1
  -4   3  -5 250.233   8.307   5
   5  -3   5 490.978  11.437   2
   5  -3   5 490.048  11.552   3
  -5  -3  -5 504.081  12.475   1
  -5   3  -5 496.059  11.740   1
   5   3   5 500.784  12.503   1
  -5   3  -5 490.605   9.673   3
  -5   3  -5 502.556  12.994   5
  -6  -3  -5 335.499  10.094   1
   6  -3   5 333.778   9.221   3
   6  -3   5 340.977   9.161   2
  -6   3  -5 325.770   9.110   1
  -6   3  -5 302.478  10.010   5
  -6   3  -5 309.811   7.631   3
   6   3   5 316.105   9.867   1
   7  -3   5 108.345   5.241   3
  -7  -3  -5 111.151   5.860   1
   7  -3   5 110.613   5.222   2
  -7   3  -5 114.037   6.012   5
  -7   3  -5 117.838   5.336   1
  -7   3  -5 112.551   4.541   3
  -8  -3  -5 123.920   6.428   1
   8  -3   5 129.344   5.822   2
   8  -3   5 126.363   5.939   3
  -8   3  -5 125.928   5.200   3
  -8   3  -5 117.570   5.601   1
  -9  -3  -5 37.6332  3.8561   1
   9  -3   5 33.5676  3.4480   2
   9  -3   5 33.7032  3.8032   3
  -9   3  -5 40.1588  3.4624   1
  -9   3  -5 39.0623  3.2429   3
  10  -3   5 204.981   8.353   3
 -10  -3  -5 218.907   9.488   1
  10  -3   5 226.342   8.159   2
 -10   3  -5 223.672   7.885   3
  11  -3   5 146.675   7.234   3
 -11  -3  -5 155.835   8.216   1
 -11   3  -5 156.412   6.772   3
 -12  -3  -5 122.269   7.396   1
  12  -3   5 128.252   6.843   3
 -12   3  -5 123.032   6.313   3
 -13  -3  -5 1.73097 1.24983   1
  13  -3   5 0.66316 2.45675   3
 -13   3  -5 7.05633 2.38158   3
  14  -3   5 40.7533  5.0335   3
 -14   3  -5 42.2474  4.0031   3
 -13  -4   5 26.8453  3.7402   2
 -12  -4   5 197.075  10.351   1
 -12  -4   5 189.214   7.367   2
  12  -4  -5 190.521   9.491   3
  12   4  -5 189.253  10.226   1
 -11  -4   5 63.9150  5.4114   1
  11  -4  -5 57.7099  5.6056   3
 -11  -4   5 65.2948  4.0872   2
  11   4  -5 61.6441  5.8804   1
 -10  -4   5 109.655   4.629   2
 -10  -4   5 99.2679  6.7394   1
  10  -4  -5 97.8738  6.7383   3
  10   4  -5 107.332   7.222   1
   9  -4  -5 173.530   7.721   3
  -9  -4   5 164.645   8.596   1
  -9  -4   5 171.774   5.297   2
   9   4  -5 163.289   8.597   1
  -8  -4   5 36.7989  4.1918   1
   8  -4  -5 47.7735  4.1136   3
   8   4  -5 45.0718  4.3784   1
   7  -4  -5 10.1080  2.3644   2
   7   4  -5 12.5540  2.6872   1
   6  -4  -5 638.540  14.277   2
   6   4  -5 628.610  14.332   4
   6   4  -5 646.466  17.025   1
   5  -4  -5 657.592  13.766   2
   5   4  -5 637.444  16.564   1
   5   4  -5 648.920  14.443   4
  -5   4   5 640.939  16.098   5
   4  -4  -5 127.843   4.542   2
   4   4  -5 153.007   6.063   4
   4   4  -5 149.160   6.873   1
  -4   4   5 139.908   6.397   5
   3  -4  -5 1097.16   18.56   2
   3   4  -5 1097.80   22.98   1
  -3   4   5 1127.70   22.19   5
   2   4  -5 89.9417  5.0579   1
   2   4  -5 86.7539  4.5315   4
  -2   4   5 83.7653  4.5211   5
  -2   4   5 90.4834  4.0702   4
   1  -4  -5 245.858   7.463   5
   1  -4  -5 239.118   5.439   1
   1   4  -5 228.465   8.038   1
  -1   4   5 241.554   6.650   4
  -1   4   5 223.513   7.455   5
   1   4  -5 235.736   7.671   4
   0  -4  -5 10.5171  1.4429   1
   0  -4  -5 10.8441  1.8192   5
   0   4  -5 15.1769  2.3457   1
   0   4   5 11.2256  1.8091   5
   0   4  -5 8.66120 1.93006   4
   0   4   5 8.43232 1.56379   4
   0   4   5 10.5476  1.4304   1
  -1  -4  -5 231.202   6.546   1
  -1  -4  -5 225.787   7.036   5
   1   4   5 237.714   6.358   4
   1   4   5 241.434   6.612   1
  -1   4  -5 241.698   7.863   4
  -1   4  -5 239.272   8.304   5
  -1   4  -5 242.589   7.878   1
  -2  -4  -5 95.1787  4.2501   5
  -2  -4  -5 90.7753  4.2255   1
   2  -4   5 88.1582  3.2133   2
  -2   4  -5 85.0404  4.7469   4
  -2   4  -5 96.6381  5.1785   5
  -2   4  -5 95.9249  4.7108   1
   2   4   5 92.9576  3.7796   4
   2   4   5 96.6481  4.2764   1
  -3  -4  -5 1096.21   20.18   5
  -3  -4  -5 1123.28   21.28   1
   3  -4   5 1088.23   19.78   2
   3   4   5 1100.54   21.11   1
   3   4   5 1156.61   18.67   4
  -3   4  -5 1081.44   21.29   1
  -3   4  -5 1107.97   21.47   4
  -3   4  -5 1080.57   22.60   5
  -4  -4  -5 147.327   6.094   1
   4  -4   5 148.108   5.292   2
  -4  -4  -5 148.026   5.478   5
  -4   4  -5 150.295   6.887   5
  -4   4  -5 138.309   5.694   1
   4   4   5 131.656   5.805   1
   5  -4   5 659.078  14.508   2
  -5  -4  -5 650.772  15.595   1
   5  -4   5 668.605  14.752   3
   5   4   5 650.508  15.676   1
  -5   4  -5 639.887  14.542   1
  -6  -4  -5 626.549  15.827   1
   6  -4   5 648.529  14.964   3
   6  -4   5 628.198  14.648   2
   6   4   5 618.180  15.900   1
  -6   4  -5 642.600  14.647   1
  -7  -4  -5 15.6439  2.8996   1
   7  -4   5 3.96993 1.93948   2
   7  -4   5 13.5121  2.6247   3
   7   4   5 8.21003 2.27846   1
  -8  -4  -5 41.6835  4.1190   1
   8  -4   5 37.6030  3.6558   2
   8  -4   5 44.5916  3.9991   3
  -9  -4  -5 176.659   8.445   1
   9  -4   5 164.526   7.525   3
   9  -4   5 169.187   7.443   2
  10  -4   5 105.096   6.110   2
  10  -4   5 108.704   6.505   3
 -10  -4  -5 101.360   6.745   1
 -10   4  -5 105.588   4.163   3
  11  -4   5 57.2951  5.4719   3
 -11  -4  -5 63.8855  5.6528   1
  11  -4   5 56.7159  4.8865   2
 -11   4  -5 55.5568  3.3565   3
  12  -4   5 189.213   8.999   3
 -12  -4  -5 199.770  10.147   1
  13  -4   5 20.8842  4.1917   3
  12  -5  -5 27.7434  5.2431   3
 -12  -5   5 36.1282  3.2787   2
  11  -5  -5 68.8599  6.2820   3
 -10  -5   5 340.391  14.024   1
  10   5  -5 362.586  14.109   1
  -9  -5   5 117.353   7.830   1
   9  -5  -5 80.9807  5.3667   2
   9   5  -5 129.158   7.655   1
  -8  -5   5 19.6409  3.8805   1
   8  -5  -5 26.5459  3.5208   2
   8   5  -5 30.6797  4.4618   1
   7  -5  -5 46.2999  3.7519   2
   7   5  -5 44.8854  4.6578   1
   6  -5  -5 23.1331  3.0483   2
   6   5  -5 16.2669  2.8040   4
   6   5  -5 28.2325  4.0943   1
   5  -5  -5 424.651  10.629   2
   5   5  -5 440.705  13.917   1
   5   5  -5 426.068  11.958   4
   4  -5  -5 8.48499 1.77262   2
   4   5  -5 8.60023 2.20843   4
   4   5  -5 14.8820  2.9178   1
  -3   5   5 557.591  14.989   5
   3   5  -5 580.728  14.262   4
  -3   5   5 582.339  13.398   4
   3   5  -5 572.322  15.562   1
  -2   5   5 228.499   8.539   5
   2   5  -5 221.907   8.729   1
   2   5  -5 219.642   8.149   4
  -2   5   5 230.339   7.538   4
  -1   5   5 140.017   6.393   5
   1   5  -5 138.858   6.601   1
  -1   5   5 139.080   5.584   4
   1   5  -5 147.394   6.535   4
   0   5   5 1.95189 1.38043   5
   0   5  -5 5.04966 1.85803   4
   0   5  -5 5.38384 1.70932   1
   0   5   5 3.53631 1.53009   4
  -1  -5  -5 139.473   5.214   1
  -1   5  -5 133.914   6.368   4
   1   5   5 129.358   5.093   1
   1   5   5 131.640   5.280   4
  -1   5  -5 134.972   6.239   1
  -2  -5  -5 221.523   7.343   1
   2  -5   5 224.268   5.874   2
   2   5   5 215.446   7.245   1
  -2   5  -5 223.403   8.054   1
   2   5   5 229.426   6.995   4
  -2   5  -5 236.869   8.726   4
  -3  -5  -5 580.187  13.957   1
   3  -5   5 569.310  12.234   2
   3   5   5 568.823  13.818   1
  -3   5  -5 577.372  14.084   1
  -3   5  -5 577.369  14.952   4
  -4  -5  -5 5.94123 1.91305   1
   4  -5   5 8.62321 1.99736   2
   4   5   5 10.0223  2.2299   1
  -4   5  -5 10.1632  2.5865   4
   4   5   5 9.15625 1.94215   4
   5  -5   5 417.283  11.180   2
  -5  -5  -5 419.740  12.392   1
   5   5   5 445.548  12.743   1
   6  -5   5 19.6689  2.9800   2
  -6  -5  -5 19.1054  3.2486   1
   6   5   5 24.6896  3.6412   1
   7  -5   5 43.8331  3.8174   2
  -7  -5  -5 51.9061  4.6022   1
   7   5   5 35.4999  3.9379   1
   8  -5   5 18.5553  3.1642   2
  -8  -5  -5 32.3150  4.4140   1
   8   5   5 27.1887  4.1658   1
   9  -5   5 108.700   6.423   2
   9  -5   5 118.143   6.544   3
  -9  -5  -5 118.591   7.385   1
 -10  -5  -5 348.991  13.391   1
  10  -5   5 344.603  12.202   3
  10  -5   5 335.670  11.868   2
  11  -5   5 68.2578  6.1580   3
 -11  -5  -5 82.6154  6.5600   1
  11  -5   5 61.6105  5.5146   2
  12  -5   5 33.3930  5.2660   3
  12  -5   5 29.1696  4.8162   2
   9  -6  -5 39.5114  4.3632   2
  -9  -6   5 39.8156  5.7684   1
   9   6  -5 46.5842  5.0480   1
  -8  -6   5 238.458  11.673   1
   8  -6  -5 242.347   9.341   2
   8   6  -5 274.685  11.967   1
   7  -6  -5 83.4474  5.2514   2
  -7  -6   5 85.9053  6.8240   1
   7   6  -5 94.7694  6.9559   1
   6  -6  -5 44.3288  4.0103   2
  -6   6   5 55.6858  4.8020   4
   6   6  -5 51.2128  4.3998   4
   6   6  -5 46.3148  4.9962   1
   5  -6  -5 37.2874  3.3523   2
   5   6  -5 42.2191  4.1359   4
   5   6  -5 31.7404  4.5377   1
  -5   6   5 40.0179  4.1692   4
   4  -6  -5 91.9243  4.3130   2
  -4   6   5 95.0083  5.7212   4
   4   6  -5 96.9004  6.4240   1
   4   6  -5 96.9291  5.9201   4
   3   6  -5 20.5403  3.3197   1
   3   6  -5 25.8066  3.8225   4
  -3   6   5 18.7209  3.0777   4
   2   6  -5 15.0622  3.1399   4
   2   6  -5 22.6062  3.5382   1
  -2   6   5 14.5766  2.7591   4
   1   6  -5 160.510   7.673   1
  -1   6   5 166.061   6.889   4
   1   6  -5 175.005   7.918   4
   0   6   5 138.720   6.167   4
   0   6  -5 129.791   6.688   1
   0   6  -5 125.271   6.785   4
  -1   6  -5 169.179   7.897   4
  -1   6  -5 179.117   7.680   1
   2  -6   5 14.3059  1.9790   2
  -2   6  -5 18.4645  3.4641   4
   3  -6   5 21.0361  2.6308   2
  -3   6  -5 25.6469  4.0241   4
   4  -6   5 93.9653  4.8734   2
  -4  -6  -5 89.9118  5.4090   1
  -4   6  -5 88.4230  6.1995   4
   4   6   5 94.4884  5.6685   1
  -5  -6  -5 39.9603  3.9307   1
   5  -6   5 39.4268  3.8340   2
  -5   6  -5 32.8650  4.6769   4
   5   6   5 36.3400  3.9732   1
   6  -6   5 48.0597  4.2390   2
  -6  -6  -5 48.0682  4.4972   1
   6   6   5 50.5045  4.5325   1
  -6   6  -5 37.4113  5.0890   4
  -7  -6  -5 95.1338  6.3888   1
   7  -6   5 93.6049  5.5679   2
  -7   6  -5 83.2275  6.4532   4
   7   6   5 88.6931  6.3393   1
  -8  -6  -5 266.416  11.229   1
   8  -6   5 254.274  10.093   2
  -9  -6  -5 24.2017  4.1259   1
   9  -6   5 29.4747  4.4289   2
  10  -6   5 -0.1962  2.2763   2
  11  -6   5 7.42006 3.37399   2
   9  -7  -5 3.29124 2.18908   2
   8  -7  -5 234.190   9.707   2
   7  -7  -5 45.7175  4.7097   2
   6  -7  -5 191.235   7.961   2
  -6  -7   5 174.997   9.887   1
   6   7  -5 193.239  10.124   1
   6   7  -5 198.786   9.108   4
   5  -7  -5 11.2993  2.6600   2
   5   7  -5 14.0728  3.5134   4
   5   7  -5 19.0054  3.9223   1
   4  -7  -5 2.42963 1.67485   2
   4   7  -5 6.37012 2.65153   1
   4   7  -5 6.18544 2.68403   4
   3   7  -5 95.5527  6.6357   1
   3   7  -5 82.8267  6.1040   4
   2   7  -5 35.2459  4.8765   4
   1   7  -5 216.932   9.739   4
   0   7  -5 172.286   8.601   4
  -1   7  -5 214.536   9.856   4
  -2   7  -5 34.6133  4.8115   4
   3  -7   5 91.2301  4.6881   2
  -3   7  -5 78.1067  6.2796   4
   4  -7   5 1.29866 2.12836   2
  -4   7  -5 5.72713 2.59666   4
   5  -7   5 15.2160  3.2159   2
  -5   7  -5 9.38169 3.28400   4
   6  -7   5 175.730   8.221   2
  -6   7  -5 176.342   9.656   4
   7  -7   5 57.6431  5.0685   2
  -7   7  -5 41.0230  5.6769   4
   8  -7   5 225.007   9.692   2
  -8   7  -5 257.053  11.929   4
   9  -7   5 -0.3875  1.9057   2
   5  -8  -5 53.9603  4.4217   2
   5   8  -5 38.4679  5.0236   4
   4   8  -5 27.6760  4.2192   4
   3   8  -5 21.0213  3.8215   4
   2   8  -5 10.0824  3.1552   4
   1   8  -5 72.7344  6.3091   4
   0   8  -5 98.2081  7.1836   4
  -1   8  -5 68.2446  6.1225   4
  -2   8  -5 7.33401 2.96911   4
   3  -8   5 22.5891  3.3085   2
  -3   8  -5 20.4537  4.1593   4
   4  -8   5 24.7277  3.9763   2
  -4   8  -5 30.9077  4.9561   4
   5  -8   5 39.6281  4.6254   2
 -15   0   6 231.100   9.775   2
 -15   0   6 224.484  10.284   3
 -14   0   6 52.8960  5.1501   3
 -14   0   6 51.0702  4.6132   2
 -13   0   6 95.4354  5.8187   2
 -13   0   6 97.3469  6.3486   3
 -12   0   6 11.6758  2.6639   2
 -12   0   6 13.1932  3.0220   3
  11   0  -6 391.597   9.339   3
 -11   0   6 395.956  11.380   2
 -11   0   6 390.476  11.473   1
 -11   0   6 380.802  11.956   3
  11   0  -6 415.078  11.912   1
 -10   0   6 215.709   7.802   1
  10   0  -6 217.856   7.865   1
 -10   0   6 204.840   7.960   3
 -10   0   6 221.260   7.643   2
  -9   0   6 1707.38   32.33   3
   9   0  -6 1733.21   30.69   1
  -9   0   6 1687.67   30.63   1
  -9   0   6 1714.71   30.81   2
  -8   0   6 281.095   8.033   2
  -8   0   6 275.056   8.357   1
  -8   0   6 280.103   8.602   3
   8   0  -6 292.434   8.507   1
   7   0  -6 282.970   7.949   1
  -7   0   6 276.430   8.104   3
  -7   0   6 267.933   7.886   1
  -7   0   6 277.334   7.586   2
   6   0  -6 352.151   8.702   1
  -6   0   6 337.603   8.320   2
  -6   0   6 353.634   9.008   3
  -5   0   6 825.162  15.505   2
   5   0  -6 834.384  15.627   1
  -5   0   6 840.736  16.328   3
  -4   0   6 1695.15   29.37   3
   4   0  -6 1731.46   27.86   1
  -4   0   6 1721.30   28.15   2
  -3   0   6 3496.16   53.32   2
   3   0  -6 3409.56   51.94   1
  -3   0   6 3460.22   55.48   3
  -2   0   6 2430.51   39.36   3
  -2   0   6 2424.76   37.74   2
   2   0  -6 2402.69   37.04   1
   1   0  -6 1368.48   21.98   1
  -1   0   6 1369.35   22.87   3
   1   0  -6 1336.35   18.84   4
   0   0   6 2899.04   46.26   3
   0   0  -6 2882.18   43.90   1
   0   0  -6 2907.64   38.72   4
   0   0  -6 2962.94   46.38   3
  -1   0  -6 1371.47   21.71   1
   1   0   6 1312.47   19.04   5
  -1   0  -6 1328.27   22.22   3
   1   0   6 1258.25   21.79   3
  -2   0  -6 2360.20   37.02   1
   2   0   6 2441.84   33.75   5
  -2   0  -6 2375.44   34.57   5
  -2   0  -6 2373.81   38.75   3
  -3   0  -6 3384.59   51.14   1
   3   0   6 3248.88   52.87   3
   3   0   6 3348.95   47.24   5
  -3   0  -6 3399.92   53.82   3
  -3   0  -6 3378.10   47.46   5
  -4   0  -6 1720.82   26.14   5
  -4   0  -6 1721.59   29.50   3
   4   0   6 1729.73   28.36   3
  -4   0  -6 1707.61   28.46   1
   5   0   6 802.511  14.546   3
  -5   0  -6 813.561  15.891   3
  -5   0  -6 800.426  15.764   1
  -5   0  -6 809.693  14.356   5
  -6   0  -6 320.082   8.006   5
  -6   0  -6 333.457   8.746   3
   6   0   6 339.768   7.404   3
  -6   0  -6 343.832   8.994   1
  -7   0  -6 268.113   7.594   5
   7   0   6 269.289   6.518   3
  -7   0  -6 267.000   8.144   3
  -7   0  -6 284.703   8.371   1
  -8   0  -6 278.990   8.846   3
  -8   0  -6 275.599   8.202   5
  -8   0  -6 272.827   8.671   1
  -9   0  -6 1664.64   30.81   1
  -9   0  -6 1663.26   31.51   3
  -9   0  -6 1651.85   29.44   5
 -10   0  -6 200.302   7.703   5
 -10   0  -6 214.078   8.180   3
 -10   0  -6 209.301   8.138   1
 -11   0  -6 368.813  11.771   1
 -11   0  -6 376.007  11.695   3
 -12   0  -6 10.3969  2.4241   1
 -12   0  -6 9.66334 2.36858   2
 -12   0  -6 16.3291  3.1748   3
 -13   0  -6 100.932   5.703   2
 -13   0  -6 95.6359  6.1724   1
 -13   0  -6 92.9600  6.2865   3
 -14   0  -6 61.8518  5.2756   3
 -14   0  -6 55.6077  5.0745   1
 -14   0  -6 54.2541  4.6865   2
 -15   0  -6 227.654  10.211   3
 -15   0  -6 210.745   9.161   2
 -15  -1   6 18.0920  3.5867   2
 -15   1   6 21.5624  3.6372   3
 -14  -1   6 8.70540 2.72085   2
 -14   1   6 12.2300  2.9622   3
 -13  -1   6 117.238   6.738   3
 -13  -1   6 113.751   6.776   1
 -13  -1   6 115.249   6.229   2
 -13   1   6 123.309   6.957   3
  13   1  -6 124.850   7.243   1
 -12  -1   6 44.3325  3.8965   2
 -12  -1   6 52.9955  4.4599   1
 -12  -1   6 50.4628  4.1482   3
  12   1  -6 48.1220  4.5434   1
 -12   1   6 50.0944  4.3195   3
 -12   1   6 49.1817  4.0606   2
 -11  -1   6 39.5111  3.7563   3
 -11  -1   6 36.9813  3.7529   1
 -11  -1   6 29.5097  2.9862   2
  11   1  -6 31.6566  4.1871   1
 -11   1   6 30.9008  3.4540   3
 -11   1   6 31.0274  3.2283   2
 -10  -1   6 200.973   7.661   3
 -10  -1   6 200.203   8.141   1
 -10  -1   6 187.041   6.865   2
 -10   1   6 190.444   7.636   3
  10   1  -6 195.354   8.029   1
 -10   1   6 193.299   7.116   2
   9  -1  -6 544.059  12.146   1
  -9  -1   6 543.281  13.446   3
  -9  -1   6 532.542  14.130   1
  -9  -1   6 517.109  12.447   2
   9   1  -6 546.046  14.087   1
  -9   1   6 549.504  12.165   1
  -9   1   6 535.455  13.660   3
  -9   1   6 546.846  12.846   2
  -8  -1   6 101.156   4.810   3
   8  -1  -6 102.516   4.151   1
  -8  -1   6 97.2500  4.3783   2
  -8  -1   6 102.654   5.315   1
  -8   1   6 101.742   4.181   1
  -8   1   6 104.190   4.613   2
  -8   1   6 104.927   5.102   3
   8   1  -6 96.1482  5.1875   1
  -8   1   6 104.399   5.377   5
  -7  -1   6 84.8442  3.8002   2
   7  -1  -6 90.7770  3.6751   1
  -7  -1   6 88.1702  4.2389   3
   7   1  -6 91.2423  4.7479   1
  -7   1   6 87.5591  4.6855   5
  -7   1   6 88.3695  3.6599   1
  -7   1   6 88.7633  4.3847   3
  -7   1   6 90.6634  3.9863   2
  -6  -1   6 232.527   6.721   3
   6  -1  -6 229.566   5.894   1
  -6  -1   6 231.417   6.244   2
  -6   1   6 231.422   7.431   5
   6   1  -6 227.498   7.431   1
   6   1  -6 235.165   4.969   3
  -6   1   6 236.605   6.010   1
  -6   1   6 241.061   6.531   2
  -6   1   6 237.805   7.022   3
  -5  -1   6 344.826   8.214   3
  -5  -1   6 347.594   7.677   2
   5  -1  -6 346.657   7.272   1
  -5   1   6 344.108   8.478   3
   5   1  -6 333.150   8.980   1
  -5   1   6 340.712   8.842   5
   5   1  -6 342.336   6.791   3
  -5   1   6 337.406   7.803   2
   5   1  -6 348.863   6.692   3
   4  -1  -6 739.925  12.421   1
  -4  -1   6 741.109  13.944   3
  -4  -1   6 739.282  13.164   2
  -4   1   6 714.184  14.034   3
   4   1  -6 705.717  14.596   1
   4   1  -6 718.419  12.662   3
  -4   1   6 705.965  13.157   2
  -4   1   6 722.907  13.951   5
  -3  -1   6 598.110  10.885   2
   3  -1  -6 598.650  10.219   1
  -3  -1   6 592.631  11.498   3
  -3   1   6 581.567  11.340   5
   3   1  -6 592.633  10.486   4
   3   1  -6 590.578  10.697   3
   3   1  -6 590.587  12.311   1
  -2  -1   6 113.478   3.161   2
  -2  -1   6 109.998   3.418   3
   2  -1  -6 110.143   2.878   1
   2   1  -6 92.4928  3.7838   1
  -2   1   6 96.4148  3.0111   3
   2   1  -6 99.5543  3.1825   4
  -2   1   6 91.1480  3.1816   5
   2   1  -6 99.0432  3.0620   3
  -1  -1   6 1346.83   22.33   3
  -1  -1   6 1342.65   21.32   2
   1  -1  -6 1303.39   20.42   1
  -1   1   6 1301.46   21.17   3
   1   1  -6 1309.25   22.26   1
  -1   1   6 1307.08   19.85   5
   1   1  -6 1306.26   21.82   3
   1   1  -6 1287.81   19.55   4
   0  -1   6 164.511   4.376   5
   0  -1   6 163.422   4.070   2
   0  -1   6 170.595   4.438   3
   0  -1  -6 160.220   4.016   1
   0   1  -6 164.012   4.977   1
   0   1  -6 135.625   3.983   3
   0   1  -6 162.295   4.133   4
   0   1   6 165.176   3.307   5
  -1  -1  -6 1270.48   20.83   1
   1  -1   6 1299.27   22.14   3
   1  -1   6 1321.70   20.52   5
  -1   1  -6 1300.63   22.07   3
  -1   1  -6 1325.84   20.40   5
  -1   1  -6 1283.56   21.94   1
  -1   1  -6 1276.77   19.49   4
   2  -1   6 96.1983  3.3489   5
  -2  -1  -6 91.6810  3.3486   1
   2  -1   6 95.9151  3.3508   3
   2  -1   6 101.776   3.275   2
  -2   1  -6 110.231   3.993   1
  -2   1  -6 108.013   3.687   3
  -2   1  -6 108.431   3.484   5
   3  -1   6 574.376  11.008   5
  -3  -1  -6 577.595   9.072   5
   3  -1   6 592.075  11.273   2
  -3  -1  -6 575.685  11.532   1
   3  -1   6 582.832  11.530   3
  -3   1  -6 567.526  11.722   3
  -3   1  -6 590.709  11.168   5
  -3   1  -6 583.573  11.964   1
   4  -1   6 699.222  13.942   3
  -4  -1  -6 690.972  11.711   5
  -4  -1  -6 700.779  14.118   1
   4  -1   6 735.508  13.711   2
   4  -1   6 724.537  13.476   5
  -4   1  -6 758.346  14.629   3
  -4   1  -6 731.223  13.680   5
  -4   1  -6 743.446  14.497   1
  -5  -1  -6 336.769   8.747   1
   5  -1   6 341.601   8.234   5
   5  -1   6 339.104   7.912   2
  -5  -1  -6 341.528   7.860   3
  -5  -1  -6 340.623   7.090   5
   5  -1   6 335.455   8.169   3
  -5   1  -6 346.075   8.854   1
  -5   1  -6 331.023   8.608   3
  -5   1  -6 335.411   8.374   5
   6  -1   6 233.667   6.319   2
  -6  -1  -6 236.150   6.068   5
   6  -1   6 228.861   6.739   5
   6  -1   6 238.673   6.759   3
  -6  -1  -6 229.579   7.301   1
  -6  -1  -6 240.964   6.726   3
  -6   1  -6 223.310   7.118   3
  -6   1  -6 236.260   7.332   1
  -6   1  -6 231.229   7.056   5
   7  -1   6 89.1120  3.7701   2
  -7  -1  -6 91.8323  4.6612   1
  -7  -1  -6 83.8136  4.3446   3
   7  -1   6 86.4467  4.0934   3
  -7  -1  -6 90.3539  3.8521   5
  -7   1  -6 86.2463  4.3669   1
  -7   1  -6 82.1714  4.5279   3
  -7   1  -6 84.8069  4.3136   5
  -8  -1  -6 104.743   5.269   1
  -8  -1  -6 101.884   4.466   5
  -8   1  -6 97.5690  4.9472   5
  -8   1  -6 95.4238  5.2476   3
  -8   1  -6 98.5042  4.9431   1
   9  -1   6 526.987  12.337   3
  -9  -1  -6 530.612  12.579   5
  -9  -1  -6 541.462  14.066   1
  -9   1  -6 514.332  13.483   3
  -9   1  -6 509.829  13.307   1
  -9   1  -6 523.922  13.521   5
  -9   1  -6 528.162  12.366   2
 -10  -1  -6 195.379   8.153   1
  10  -1   6 197.425   6.908   3
 -10  -1  -6 198.315   7.345   5
 -10   1  -6 203.089   8.022   3
 -10   1  -6 205.197   7.942   1
 -10   1  -6 188.810   6.976   2
 -11  -1  -6 30.4253  3.9508   1
 -11   1  -6 38.6037  3.6054   1
 -11   1  -6 31.0518  3.3467   2
 -11   1  -6 33.1518  3.8910   3
 -12  -1  -6 50.6660  4.5441   1
 -12   1  -6 49.2224  4.6775   3
 -12   1  -6 49.8435  4.0852   2
 -12   1  -6 38.8640  3.9094   1
 -13  -1  -6 124.764   7.307   1
 -13   1  -6 136.641   7.190   1
 -13   1  -6 121.769   7.058   3
 -13   1  -6 120.254   6.344   2
 -14  -1  -6 12.2523  2.4760   1
 -14  -1  -6 6.33789 2.43722   2
 -14   1  -6 10.1369  3.2763   3
 -14   1  -6 6.12159 2.53256   2
 -15  -1  -6 12.6849  3.0610   2
 -15   1  -6 17.7256  4.0085   3
 -14  -2   6 39.9533  4.3532   1
 -14   2   6 30.8394  3.7946   3
  14   2  -6 23.9845  4.1255   1
 -13  -2   6 196.869   9.538   1
 -13  -2   6 183.219   7.871   2
 -13   2   6 193.572   8.472   3
  13   2  -6 188.200   9.478   1
 -12  -2   6 112.459   5.712   2
 -12  -2   6 111.219   6.837   1
  12   2  -6 97.5990  6.7327   1
 -12   2   6 107.485   6.068   3
 -11  -2   6 197.241   7.231   2
 -11  -2   6 198.562   9.043   1
 -11   2   6 198.246   7.942   3
  11   2  -6 207.312   9.202   1
 -10  -2   6 113.958   5.116   2
 -10  -2   6 105.135   6.318   1
  10   2  -6 117.674   6.663   1
 -10   2   6 115.865   5.714   3
  -9  -2   6 277.506   7.971   2
  -9  -2   6 273.879  10.086   1
   9   2  -6 275.554  10.015   1
  -9   2   6 263.765   8.575   3
   8  -2  -6 1.77805 2.22173   3
  -8  -2   6 3.46660 1.29990   2
   8   2  -6 3.76102 1.72961   1
  -7  -2   6 226.537   6.161   2
   7  -2  -6 235.223   7.857   3
  -7   2   6 215.391   8.068   5
  -7   2   6 224.104   6.922   3
   7   2  -6 231.271   8.412   1
  -6  -2   6 759.992  13.886   2
   6  -2  -6 762.143  16.050   3
   6   2  -6 755.840  17.037   1
  -6   2   6 746.090  15.065   3
   5  -2  -6 233.199   6.936   3
  -5  -2   6 235.229   6.073   3
  -5  -2   6 237.225   5.465   2
   5   2  -6 245.095   7.997   1
  -5   2   6 230.476   6.053   3
  -5   2   6 225.019   7.394   5
  -4  -2   6 328.812   6.416   2
   4  -2  -6 323.664   7.917   3
   4   2  -6 318.777   7.631   4
  -4   2   6 311.404   6.725   3
   4   2  -6 314.577   9.102   1
  -4   2   6 311.530   8.475   5
   3  -2  -6 539.477  10.695   3
   3  -2  -6 522.991  10.761   5
   3  -2  -6 512.564  10.124   2
  -3  -2   6 510.740   9.088   2
  -3   2   6 521.002  11.140   5
   3   2  -6 519.582  10.460   4
   3   2  -6 530.462  12.280   1
   2  -2  -6 3347.60   49.00   5
   2  -2  -6 3339.27   51.14   2
   2  -2  -6 3387.93   53.21   3
  -2  -2   6 3321.86   50.57   2
   2   2  -6 3354.99   47.56   4
   2   2  -6 3367.11   52.86   1
  -2   2   6 3362.04   49.43   5
  -1  -2   6 569.147  11.791   5
   1  -2  -6 583.960  10.556   5
  -1  -2   6 588.264   9.972   2
   1  -2  -6 565.845   9.544   1
   1   2  -6 579.268  11.072   4
   1   2  -6 576.005  12.507   1
  -1   2   6 560.548  10.724   5
   0  -2   6 136.336   4.713   5
   0  -2   6 133.483   3.469   2
   0  -2   6 134.421   3.807   3
   0  -2  -6 132.204   3.478   1
   0  -2  -6 129.081   3.567   5
   0   2   6 131.470   2.848   4
   0   2  -6 120.545   4.200   4
   0   2  -6 126.897   4.832   1
   0   2   6 132.657   3.700   5
   1  -2   6 569.257  11.192   3
   1  -2   6 582.938  11.916   5
   1  -2   6 579.267  10.683   2
  -1  -2  -6 575.252   9.726   5
  -1  -2  -6 573.299  10.662   1
  -1   2  -6 581.257  11.237   4
  -1   2  -6 573.439  12.248   1
  -1   2  -6 562.770   9.551   3
   1   2   6 562.645   9.706   5
   1   2   6 579.396   8.665   4
  -1   2  -6 573.692  11.700   5
   2  -2   6 3385.03   51.59   2
   2  -2   6 3378.42   53.45   3
  -2  -2  -6 3328.01   50.31   1
   2  -2   6 3321.74   49.78   5
  -2  -2  -6 3324.25   46.78   5
  -2   2  -6 3201.28   52.14   3
  -2   2  -6 3211.54   49.59   5
  -2   2  -6 3349.92   51.74   1
   3  -2   6 510.777  10.545   2
   3  -2   6 512.278  11.259   5
  -3  -2  -6 518.233  10.979   1
   3  -2   6 528.400  10.942   3
  -3  -2  -6 507.544   8.942   5
  -3   2  -6 506.343  11.386   1
  -3   2  -6 494.524  11.159   5
  -3   2  -6 503.381  10.174   3
   4  -2   6 309.533   8.303   5
   4  -2   6 311.160   7.812   2
  -4  -2  -6 308.276   8.262   1
   4  -2   6 315.265   7.967   3
  -4   2  -6 316.323   8.422   1
  -4   2  -6 322.596   8.632   5
  -4   2  -6 316.177   7.618   3
   5  -2   6 228.948   6.843   3
  -5  -2  -6 234.752   7.339   1
   5  -2   6 236.461   7.295   5
   5  -2   6 235.052   6.778   2
  -5   2  -6 209.691   6.410   3
  -5   2  -6 243.626   5.913   2
  -5   2  -6 230.078   7.386   5
  -5   2  -6 231.835   7.221   1
  -6  -2  -6 739.166  16.352   1
   6  -2   6 758.675  15.827   3
   6  -2   6 755.411  15.470   2
  -6   2  -6 782.655  14.587   2
  -6   2  -6 756.664  15.716   3
  -6   2  -6 760.477  16.111   1
  -6   2  -6 732.854  16.243   5
  -7  -2  -6 219.475   7.987   1
   7  -2   6 221.956   7.091   2
   7  -2   6 214.446   7.218   3
  -7   2  -6 235.843   7.769   1
  -7   2  -6 225.834   8.052   5
  -7   2  -6 234.332   7.488   3
  -7   2  -6 235.998   6.698   2
   8  -2   6 1.18255 1.62574   2
  -8  -2  -6 3.81054 1.68996   1
   8  -2   6 1.85453 1.77549   3
  -8   2  -6 5.99472 1.54225   1
  -8   2  -6 1.38440 1.15616   5
  -8   2  -6 2.09475 1.53977   3
  -8   2  -6 1.74462 1.32326   2
   9  -2   6 299.101   9.150   3
  -9  -2  -6 283.768   9.990   1
   9  -2   6 291.132   8.502   2
  -9   2  -6 272.048   8.202   2
  -9   2  -6 262.408   8.860   3
  -9   2  -6 280.828   9.385   1
  10  -2   6 107.371   5.479   3
 -10  -2  -6 112.096   6.246   1
 -10   2  -6 106.321   5.605   3
 -10   2  -6 89.5701  5.6268   1
 -11  -2  -6 197.092   8.921   1
 -11   2  -6 204.222   8.157   3
 -11   2  -6 179.217   8.140   1
 -12  -2  -6 114.804   6.994   1
  12  -2   6 115.428   6.244   3
 -12   2  -6 114.657   6.427   3
 -13  -2  -6 199.288   9.651   1
 -13   2  -6 191.993   8.654   3
 -14   2  -6 40.5484  3.9324   3
 -15  -2  -6 179.741   8.281   2
 -15   2  -6 187.946   8.536   3
 -14  -3   6 38.3463  3.7278   2
 -14   3   6 40.4371  3.7685   3
 -13  -3   6 115.487   6.288   2
 -13  -3   6 124.331   7.960   1
 -13   3   6 120.295   5.938   3
  13   3  -6 121.615   7.910   1
 -12  -3   6 10.1272  2.7792   1
 -12  -3   6 13.4876  2.4814   2
 -12   3   6 9.61738 2.30238   3
  12   3  -6 3.21844 2.30076   1
 -11  -3   6 179.752   8.958   1
 -11  -3   6 161.362   6.688   2
 -11   3   6 165.825   6.584   3
  11   3  -6 182.207   9.225   1
 -10  -3   6 84.3065  4.3710   2
 -10  -3   6 69.9390  5.5505   1
  10  -3  -6 81.2636  5.7858   3
 -10   3   6 81.4554  4.3049   3
  10   3  -6 71.2217  5.6536   1
  -9  -3   6 99.6866  4.3809   2
   9  -3  -6 99.6665  5.8887   3
  -9  -3   6 90.7040  6.0302   1
  -9   3   6 93.9360  4.2773   3
   9   3  -6 88.7129  6.1025   1
   8  -3  -6 245.384   8.688   3
  -8  -3   6 239.532   6.462   2
   8   3  -6 234.700   9.468   1
  -8   3   6 227.204   6.427   3
  -7  -3   6 97.9195  3.4851   2
   7  -3  -6 99.5670  5.2050   3
  -7   3   6 99.0783  5.5909   5
  -7   3   6 102.065   3.439   3
   7   3  -6 103.191   5.972   1
   6  -3  -6 157.956   6.098   3
   6  -3  -6 154.397   5.734   2
  -6  -3   6 156.880   4.036   2
  -6   3   6 152.165   6.679   5
   6   3  -6 149.289   6.992   1
   5  -3  -6 331.914   8.466   2
   5  -3  -6 340.584   8.874   3
   5   3  -6 322.915  10.383   1
  -5   3   6 334.060   9.949   5
   5   3  -6 331.905   8.778   4
   4  -3  -6 263.020   6.784   2
   4  -3  -6 264.034   7.114   3
   4   3  -6 274.378   9.055   1
  -4   3   6 262.011   8.281   5
   4   3  -6 269.450   7.605   4
   3  -3  -6 20.8873  1.6391   2
   3  -3  -6 16.6819  1.6340   3
   3  -3  -6 20.1303  1.9551   5
   3   3  -6 16.5290  2.1249   4
   3   3  -6 22.5901  2.9231   1
  -3   3   6 19.7142  2.1635   5
   2  -3  -6 987.644  15.939   2
   2  -3  -6 1009.28   18.13   5
   2   3  -6 980.142  18.004   4
  -2   3   6 1000.76   18.56   5
   2   3  -6 1000.89   20.20   1
   1  -3  -6 39.2497  1.6235   1
   1  -3  -6 35.8861  2.3857   5
  -1   3   6 39.4283  2.5665   5
   1   3  -6 41.3578  2.7701   4
  -1   3   6 41.3571  2.1578   4
   1   3  -6 38.7890  3.0082   1
   0  -3  -6 1087.74   18.68   5
   0  -3   6 1127.85   20.88   5
   0  -3   6 1127.08   17.69   2
   0  -3  -6 1090.57   18.06   1
   0   3  -6 1111.42   21.24   1
   0   3  -6 1077.22   19.37   4
   0   3   6 1091.35   18.97   5
   0   3   6 1107.18   17.00   4
   1  -3   6 41.8815  1.9953   2
   1  -3   6 41.5487  2.9063   5
   1  -3   6 43.0000  2.1865   3
  -1  -3  -6 36.9373  2.2119   1
  -1  -3  -6 42.4291  2.3507   5
   1   3   6 43.5623  2.0811   4
  -1   3  -6 39.7179  2.7340   4
  -1   3  -6 39.7289  2.9696   1
   1   3   6 40.5050  2.3275   5
  -1   3  -6 45.4430  3.0965   5
   2  -3   6 1017.82   18.36   3
  -2  -3  -6 1005.64   16.98   5
   2  -3   6 981.157  17.431   2
  -2  -3  -6 987.889  17.969   1
  -2   3  -6 983.404  18.368   4
  -2   3  -6 969.330  19.285   5
  -2   3  -6 981.170  19.210   1
   2   3   6 1010.75   15.50   4
  -3  -3  -6 17.1773  1.6262   5
  -3  -3  -6 20.1865  2.0884   1
   3  -3   6 18.8077  1.9495   3
   3  -3   6 20.5196  1.8692   2
  -3   3  -6 19.8415  2.5582   5
  -3   3  -6 17.5677  2.3562   1
   4  -3   6 258.918   7.245   2
   4  -3   6 265.825   7.404   3
  -4  -3  -6 263.461   6.589   5
  -4  -3  -6 255.821   7.859   1
  -4   3  -6 263.400   7.991   1
  -4   3  -6 258.436   8.464   5
  -4   3  -6 257.260   5.175   3
  -5  -3  -6 330.591   7.949   5
   5  -3   6 338.169   9.027   3
  -5  -3  -6 335.748   9.608   1
  -5   3  -6 313.230   7.213   3
  -5   3  -6 333.959   9.380   1
  -5   3  -6 321.571   9.955   5
   6  -3   6 151.201   5.957   3
   6  -3   6 148.454   5.874   2
  -6  -3  -6 155.574   6.549   1
  -6   3  -6 153.311   5.004   3
  -6   3  -6 154.286   6.873   5
  -6   3  -6 151.199   6.089   1
  -7  -3  -6 109.500   5.768   1
   7  -3   6 109.742   5.211   3
   7  -3   6 102.521   5.047   2
  -7   3  -6 94.2451  4.9814   1
  -7   3  -6 96.7530  5.5264   5
  -7   3  -6 95.8072  4.3116   3
  -8  -3  -6 223.599   8.875   1
   8  -3   6 238.192   8.140   2
   8  -3   6 229.162   8.232   3
  -8   3  -6 227.438   7.294   3
  -8   3  -6 235.179   8.245   1
  -9  -3  -6 101.114   6.070   1
   9  -3   6 88.7893  5.0807   2
   9  -3   6 89.5066  5.4529   3
  -9   3  -6 90.2341  4.7513   3
  -9   3  -6 92.9620  5.3586   1
  10  -3   6 85.8986  5.1713   2
 -10  -3  -6 77.6371  5.6693   1
  10  -3   6 77.1718  5.3001   3
 -10   3  -6 80.5778  4.7642   3
 -11  -3  -6 159.713   8.316   1
  11  -3   6 164.055   7.543   3
 -11   3  -6 157.549   6.943   3
 -12  -3  -6 4.88286 2.14706   1
  12  -3   6 7.80666 3.03489   3
 -12   3  -6 8.05679 2.48554   3
 -13  -3  -6 126.413   7.717   1
 -13   3  -6 113.175   6.339   3
  14  -3   6 32.9425  4.8673   3
 -14   3  -6 37.3155  3.7978   3
 -13  -4   6 132.559   6.545   2
 -12  -4   6 217.675   8.106   2
 -12  -4   6 220.506  10.886   1
  12   4  -6 215.505  10.991   1
 -11  -4   6 16.0122  2.6574   2
  11  -4  -6 9.62179 3.85507   3
 -11  -4   6 17.2743  3.4892   1
  11   4  -6 11.1299  3.3349   1
 -10  -4   6 20.8801  4.0129   1
  10  -4  -6 14.6684  3.7443   3
 -10  -4   6 10.1064  2.1563   2
  10   4  -6 15.4741  3.5023   1
  -9  -4   6 21.9772  3.7834   1
  -9  -4   6 28.9897  2.4408   2
   9  -4  -6 33.1202  4.0093   3
   9   4  -6 29.1747  4.4875   1
  -8  -4   6 10.7457  1.5779   2
   8  -4  -6 13.2757  3.0417   3
   8   4  -6 12.2610  3.0666   1
   7  -4  -6 313.977   9.369   2
   6  -4  -6 170.968   6.359   2
   6   4  -6 174.140   8.116   1
   6   4  -6 174.216   6.787   4
   5  -4  -6 685.483  14.426   2
   5   4  -6 685.081  17.588   1
   5   4  -6 705.218  15.356   4
  -5   4   6 682.763  16.851   5
   4  -4  -6 220.077   6.255   2
   4   4  -6 219.543   7.575   4
   4   4  -6 244.173   9.119   1
  -4   4   6 231.243   8.416   5
   3  -4  -6 136.892   4.011   2
  -3   4   6 130.685   5.985   5
   3   4  -6 128.748   5.666   4
   3   4  -6 138.804   6.602   1
  -2   4   6 445.104  10.008   4
  -2   4   6 448.647  11.611   5
   2   4  -6 464.002  12.660   1
   2   4  -6 448.625  11.360   4
   1  -4  -6 47.5370  3.0868   5
  -1   4   6 37.6490  2.9627   5
  -1   4   6 43.2352  2.6960   4
   1   4  -6 38.5404  3.2027   4
   1   4  -6 36.9762  3.3221   1
   0  -4  -6 5.41584 1.03060   1
   0  -4  -6 4.53013 1.25129   5
   0   4   6 4.80668 1.24135   4
   0   4   6 4.48863 1.31661   5
   0   4  -6 2.16238 1.29693   4
   0   4  -6 5.39364 1.54481   1
  -1  -4  -6 49.2376  2.9308   5
  -1  -4  -6 46.1202  2.6853   1
   1  -4   6 43.3227  2.0440   2
  -1   4  -6 44.0435  3.3820   1
  -1   4  -6 40.2882  3.3948   5
   1   4   6 37.1080  2.4386   4
  -1   4  -6 40.7130  3.2385   4
  -2  -4  -6 446.519  10.365   5
   2  -4   6 456.243   9.512   2
  -2  -4  -6 454.267  10.595   1
   2   4   6 443.596   9.204   4
  -2   4  -6 433.917  11.591   4
   2   4   6 459.124  10.660   1
  -2   4  -6 455.755  12.379   5
  -2   4  -6 437.029  11.581   1
  -3  -4  -6 135.535   5.079   5
   3  -4   6 132.311   4.820   2
  -3  -4  -6 132.542   5.501   1
   3   4   6 137.863   5.603   1
  -3   4  -6 138.010   6.170   4
   3   4   6 146.791   4.617   4
  -3   4  -6 138.099   6.467   5
  -3   4  -6 134.983   5.826   1
  -4  -4  -6 228.210   7.736   1
   4  -4   6 219.758   6.850   2
  -4   4  -6 221.540   7.665   1
  -4   4  -6 223.347   8.574   5
   4   4   6 223.500   7.716   1
   5  -4   6 705.858  15.470   3
  -5  -4  -6 682.083  16.102   1
   5  -4   6 682.153  15.134   2
  -5   4  -6 675.800  15.558   1
   5   4   6 685.176  16.176   1
   6  -4   6 187.751   7.023   3
  -6  -4  -6 185.868   7.668   1
   6  -4   6 170.849   6.816   2
  -6   4  -6 181.055   7.036   1
  -7  -4  -6 317.385  10.879   1
   7  -4   6 324.519  10.121   3
   7  -4   6 324.158  10.094   2
  -7   4  -6 337.163  10.170   1
   8  -4   6 10.7923  2.6747   2
   8  -4   6 10.9200  2.7644   3
  -8  -4  -6 9.16344 2.43990   1
   9  -4   6 28.3634  4.0018   3
   9  -4   6 27.3575  3.7435   2
  -9  -4  -6 30.3583  4.2145   1
 -10  -4  -6 18.7776  3.5966   1
  10  -4   6 16.8207  3.3407   2
  10  -4   6 12.7305  3.2013   3
 -10   4  -6 15.0920  2.1219   3
  11  -4   6 10.1407  3.5569   3
 -11  -4  -6 9.60076 3.01198   1
  11  -4   6 7.06168 2.90360   2
 -11   4  -6 9.89975 2.02402   3
 -12  -4  -6 220.736  10.660   1
  12  -4   6 223.012   9.772   3
  13  -4   6 110.975   6.835   3
 -12  -5   6 18.1363  2.9302   2
  12  -5  -6 17.7120  4.9360   3
  11  -5  -6 293.369  11.698   3
 -11  -5   6 266.312   8.479   2
 -10  -5   6 34.4361  5.1535   1
  -9  -5   6 196.573  10.300   1
   9   5  -6 196.551  10.102   1
   8  -5  -6 120.076   6.190   2
  -8  -5   6 132.890   8.135   1
   8   5  -6 131.887   8.086   1
   7  -5  -6 43.2925  3.6742   2
   7   5  -6 54.5382  5.0907   1
   6  -5  -6 177.485   6.759   2
   6   5  -6 162.258   7.154   4
   6   5  -6 181.630   8.895   1
   5  -5  -6 338.505   9.159   2
   5   5  -6 331.033  10.436   4
   5   5  -6 327.882  11.952   1
   4  -5  -6 406.970   9.568   2
   4   5  -6 410.657  13.252   1
  -4   5   6 407.198  10.916   4
   4   5  -6 400.103  11.552   4
   3  -5  -6 170.100   4.786   2
  -3   5   6 173.149   7.504   5
   3   5  -6 159.323   7.675   1
   3   5  -6 184.660   7.491   4
  -3   5   6 164.586   6.398   4
   2   5  -6 284.342   9.544   4
   2   5  -6 286.607  10.248   1
  -2   5   6 279.787   8.288   4
  -2   5   6 292.833   9.764   5
  -1   5   6 49.9422  3.8581   5
  -1   5   6 51.8621  3.4343   4
   1   5  -6 59.1950  4.4547   1
   1   5  -6 47.2316  3.8838   4
   0   5  -6 2114.07   36.03   4
   0   5   6 2141.70   33.13   4
   0   5   6 2089.80   36.11   5
   0   5  -6 2102.76   38.27   1
   1  -5   6 50.1100  2.4063   2
  -1   5  -6 61.5471  4.2569   1
  -1   5  -6 53.7970  4.2921   4
   1   5   6 51.3130  3.4054   4
   2  -5   6 279.891   7.144   2
  -2  -5  -6 277.313   8.278   1
   2   5   6 295.061   8.567   1
  -2   5  -6 277.656   9.673   4
   2   5   6 288.171   7.778   4
  -2   5  -6 281.918   9.456   1
   3  -5   6 168.986   5.790   2
  -3  -5  -6 170.563   6.640   1
  -3   5  -6 169.548   7.629   4
   3   5   6 163.495   6.564   1
   3   5   6 175.161   5.865   4
  -3   5  -6 159.807   6.881   1
   4  -5   6 406.643  10.506   2
  -4  -5  -6 401.172  11.541   1
   4   5   6 410.329  11.706   1
  -4   5  -6 422.807  11.741   1
  -4   5  -6 405.120  12.510   4
   5  -5   6 321.622   9.578   2
  -5  -5  -6 328.331  10.623   1
  -5   5  -6 309.900  11.045   4
   5   5   6 326.685  10.691   1
  -6  -5  -6 173.831   7.834   1
   6  -5   6 181.293   7.139   2
   6   5   6 164.653   7.645   1
  -7  -5  -6 38.2518  4.0236   1
   7  -5   6 44.4299  3.9655   2
   8  -5   6 119.975   6.462   2
  -8  -5  -6 120.857   7.058   1
   9  -5   6 203.662   8.842   3
   9  -5   6 191.026   8.482   2
  -9  -5  -6 200.810   9.570   1
  10  -5   6 34.5058  4.9470   3
  10  -5   6 32.3352  4.5798   2
 -10  -5  -6 30.2751  4.6906   1
  11  -5   6 272.339  11.308   3
  11  -5   6 281.898  11.006   2
  12  -5   6 8.29966 3.43736   3
   9  -6  -6 28.5247  4.2462   2
   8  -6  -6 6.47617 2.41941   2
  -8  -6   6 9.21045 3.06156   1
   8   6  -6 12.8408  2.9237   1
   7  -6  -6 25.0201  3.6442   2
   7   6  -6 23.4123  4.2782   1
   6  -6  -6 74.7887  4.8629   2
   6   6  -6 85.3988  6.6095   1
   6   6  -6 100.355   6.019   4
   5  -6  -6 43.4178  3.5740   2
   5   6  -6 44.0153  4.3445   4
   5   6  -6 47.1572  4.8834   1
   4  -6  -6 41.3920  3.0729   2
   4   6  -6 37.4403  4.4193   4
   4   6  -6 37.3283  4.8967   1
   3   6  -6 15.9143  3.1774   4
   3   6  -6 14.8642  2.8785   1
   2   6  -6 25.9117  3.8740   1
   2   6  -6 26.1452  3.9032   4
   1   6  -6 6.42125 2.13468   1
   1   6  -6 2.64157 2.00639   4
   0   6  -6 16.3593  2.8263   1
   0   6  -6 13.1919  2.9661   4
  -1   6  -6 -0.0856  1.6039   4
  -1   6  -6 1.93981 1.65105   1
   2  -6   6 24.1688  2.3457   2
  -2   6  -6 32.0817  4.2484   4
   3  -6   6 13.1541  2.2601   2
  -3   6  -6 13.4608  3.1333   4
   4  -6   6 40.2484  3.5038   2
  -4   6  -6 45.3838  4.6708   4
  -5  -6  -6 45.3783  4.1004   1
   5  -6   6 36.7319  3.8301   2
   5   6   6 38.6452  3.8838   1
  -5   6  -6 43.4876  5.3840   4
  -6  -6  -6 89.4248  5.8694   1
   6  -6   6 81.0203  5.3553   2
  -6   6  -6 78.4077  6.1783   4
   7  -6   6 27.2787  3.6754   2
  -7  -6  -6 24.1640  3.8969   1
  -7   6  -6 19.9873  4.0705   4
  -8  -6  -6 6.61374 2.63873   1
   8  -6   6 8.17117 2.95605   2
  -9  -6  -6 30.1429  4.4693   1
   9  -6   6 25.7522  4.1478   2
  10  -6   6 3.84749 2.85491   2
  11  -6   6 24.5206  4.4390   2
  11  -6   6 29.2687  4.8596   3
   8  -7  -6 103.083   6.593   2
   7  -7  -6 -0.3130  2.6255   2
   6  -7  -6 1.46808 2.10803   2
   6   7  -6 3.64413 2.34903   1
   6   7  -6 2.80749 2.32739   4
   5  -7  -6 13.6910  2.8559   2
   5   7  -6 15.2672  3.6164   4
   5   7  -6 17.2234  3.9153   1
   4  -7  -6 352.641   9.807   2
   4   7  -6 359.592  13.729   1
   4   7  -6 354.732  12.490   4
   3   7  -6 44.7770  5.2597   4
   3   7  -6 45.7647  5.0140   1
   2   7  -6 141.551   8.050   1
   2   7  -6 149.861   8.135   4
   1   7  -6 377.902  13.209   4
   0   7  -6 27.7091  4.4619   4
  -1   7  -6 395.792  13.669   4
   2  -7   6 145.591   5.722   2
  -2   7  -6 146.029   8.118   4
   3  -7   6 50.1385  3.9598   2
  -3   7  -6 48.5695  5.0387   4
   4  -7   6 345.010  10.724   2
  -4   7  -6 341.449  13.103   4
   5  -7   6 13.4562  3.3041   2
  -5   7  -6 15.7402  3.8572   4
   6  -7   6 0.91706 2.20287   2
  -6   7  -6 1.68373 2.70120   4
   7  -7   6 2.59639 2.02872   2
  -7   7  -6 5.68632 2.74012   4
   8  -7   6 102.330   6.637   2
  -8   7  -6 95.0960  7.3923   4
   5  -8  -6 185.340   7.804   2
   4   8  -6 53.6191  5.2201   4
   3   8  -6 10.8352  3.2186   4
   2   8  -6 39.3972  5.1872   4
   1   8  -6 7.07528 2.99260   4
   0   8  -6 39.2728  5.3157   4
  -1   8  -6 11.9324  3.3836   4
  -2   8  -6 50.1940  5.9835   4
   3  -8   6 6.91571 2.34423   2
  -3   8  -6 6.26814 2.69628   4
   4  -8   6 30.9756  4.4999   2
  -4   8  -6 33.6477  5.0271   4
   5  -8   6 190.627   8.817   2
 -15   0   7 21.0217  4.0874   3
 -15   0   7 18.0421  3.5840   2
 -14   0   7 67.5018  5.5680   3
 -14   0   7 69.4082  5.2362   2
 -13   0   7 22.8511  3.5334   2
 -13   0   7 27.2694  4.1479   3
 -12   0   7 57.2506  4.7601   3
 -12   0   7 58.3685  4.4575   2
  11   0  -7 12.9744  2.5913   1
 -11   0   7 17.8652  2.9573   1
 -11   0   7 15.6581  3.0382   3
  11   0  -7 16.9576  2.6713   3
 -11   0   7 13.8441  2.6194   2
 -10   0   7 315.591  10.318   3
 -10   0   7 309.830   9.693   1
  10   0  -7 324.198   9.892   1
 -10   0   7 302.442   9.470   2
  -9   0   7 153.139   6.114   2
  -9   0   7 154.943   6.253   1
  -9   0   7 148.330   6.531   3
   9   0  -7 148.296   6.143   1
   8   0  -7 21.1750  2.6970   1
  -8   0   7 24.8579  2.7534   3
  -8   0   7 22.2637  2.3837   1
  -8   0   7 24.0834  2.4850   2
  -7   0   7 1277.35   24.64   3
   7   0  -7 1292.74   23.45   1
  -7   0   7 1293.23   23.58   2
  -6   0   7 209.130   6.630   3
  -6   0   7 213.981   6.249   2
   6   0  -7 208.389   6.471   1
  -5   0   7 171.799   5.271   2
  -5   0   7 183.256   5.811   3
   5   0  -7 188.902   5.752   1
  -4   0   7 145.604   4.810   3
   4   0  -7 142.746   4.727   1
  -4   0   7 142.621   4.463   2
  -3   0   7 464.741   9.909   3
   3   0  -7 452.015   9.598   1
  -3   0   7 461.626   9.333   2
   2   0  -7 3.92276 0.93507   1
  -2   0   7 3.36754 0.81677   2
  -2   0   7 3.70752 0.95034   3
  -1   0   7 6251.12   96.99   3
   1   0  -7 6141.33   92.13   1
   1   0  -7 6090.27  101.01   3
   1   0  -7 6075.22   83.51   4
   0   0  -7 1.14418 0.64163   1
   0   0  -7 0.14908 0.88058   3
   0   0   7 1.91776 0.68956   3
   1   0   7 5972.55   95.35   3
   1   0   7 6146.12   84.17   5
  -1   0  -7 5960.71   97.40   3
  -1   0  -7 6077.58   93.92   1
  -2   0  -7 4.26179 0.63657   5
   2   0   7 4.95382 0.67149   5
  -2   0  -7 4.03675 1.25990   3
  -2   0  -7 6.68761 1.20498   1
   3   0   7 448.836   7.904   5
  -3   0  -7 459.278   9.827   3
   3   0   7 446.198   8.843   3
  -3   0  -7 445.326   7.974   5
  -3   0  -7 454.508   9.983   1
  -4   0  -7 142.833   5.014   1
  -4   0  -7 139.108   3.922   5
   4   0   7 141.630   3.990   3
  -4   0  -7 138.717   4.882   3
  -5   0  -7 181.445   6.069   1
  -5   0  -7 180.623   5.058   5
  -5   0  -7 176.733   5.873   3
   5   0   7 177.482   4.742   3
  -6   0  -7 207.863   6.007   5
  -6   0  -7 210.428   6.847   3
   6   0   7 209.974   5.419   3
  -6   0  -7 210.567   6.939   1
   7   0   7 1265.66   21.48   3
  -7   0  -7 1235.81   23.61   1
  -7   0  -7 1221.00   21.76   5
  -7   0  -7 1232.90   23.87   3
  -8   0  -7 26.2421  3.4575   3
  -8   0  -7 28.5110  2.5259   5
  -8   0  -7 27.5753  2.7939   1
  -9   0  -7 146.599   6.497   3
  -9   0  -7 140.156   5.962   5
  -9   0  -7 144.813   6.477   1
 -10   0  -7 304.854  10.149   3
 -10   0  -7 325.689   9.955   5
 -10   0  -7 300.757  10.251   1
 -11   0  -7 15.5509  2.7642   1
 -11   0  -7 11.6939  2.9040   3
 -12   0  -7 62.3877  4.8385   1
 -12   0  -7 49.6272  4.6127   3
 -12   0  -7 52.5137  4.1333   2
 -13   0  -7 22.8354  3.5090   2
 -13   0  -7 24.2810  3.6938   1
 -13   0  -7 25.9097  4.2025   3
 -14   0  -7 71.9784  5.6805   1
 -14   0  -7 70.7348  5.6373   3
 -14   0  -7 69.8517  5.1608   2
 -15   0  -7 19.7278  3.6755   3
 -15   0  -7 19.1145  3.5215   2
 -15  -1   7 81.9569  6.0515   2
 -15  -1   7 86.8405  6.4268   3
 -15   1   7 91.5482  6.1453   3
 -14  -1   7 148.008   7.935   3
 -14  -1   7 133.322   7.226   2
 -14   1   7 141.683   7.806   3
 -13  -1   7 113.036   6.358   2
 -13  -1   7 116.302   6.705   3
  13   1  -7 107.186   6.897   1
 -13   1   7 115.422   6.864   3
 -12  -1   7 23.4317  3.5941   3
 -12  -1   7 20.3389  3.2928   1
 -12  -1   7 19.1798  3.1041   2
  12   1  -7 16.4081  3.3030   1
 -12   1   7 15.8597  3.0947   3
 -12   1   7 17.3712  3.0348   2
 -11  -1   7 70.8093  4.8411   3
 -11  -1   7 71.6484  5.1111   1
 -11  -1   7 81.8784  4.8092   2
  11   1  -7 74.3257  5.2571   1
 -11   1   7 80.7690  5.1665   3
 -11   1   7 81.9170  4.8251   2
 -10  -1   7 155.664   7.121   1
 -10  -1   7 145.398   6.610   3
 -10   1   7 146.782   6.168   2
 -10   1   7 145.602   6.627   3
  10   1  -7 139.454   6.869   1
  -9  -1   7 82.0047  4.6560   3
  -9  -1   7 80.9309  4.3198   2
  -9  -1   7 78.8277  4.8956   1
  -9   1   7 81.3249  4.3350   2
   9   1  -7 76.6642  4.8822   1
  -9   1   7 76.2711  4.6146   3
  -8  -1   7 615.913  13.371   2
   8  -1  -7 622.258  12.675   1
  -8  -1   7 604.605  14.059   3
  -8   1   7 600.538  13.407   2
  -8   1   7 582.277  14.807   5
  -8   1   7 593.768  12.590   1
   8   1  -7 587.567  14.598   1
  -8   1   7 590.104  14.273   3
  -7  -1   7 64.1417  3.7216   3
   7  -1  -7 65.8467  3.1198   1
  -7  -1   7 60.2160  3.3130   2
  -7   1   7 66.8557  3.1882   1
   7   1  -7 62.3374  4.0414   1
   7   1  -7 66.6777  2.5138   3
  -7   1   7 62.1505  4.0076   5
  -7   1   7 64.7868  3.4528   2
  -7   1   7 66.3398  3.8477   3
   6  -1  -7 482.809   9.886   1
  -6  -1   7 480.285  10.512   2
  -6  -1   7 479.242  11.182   3
   6   1  -7 492.907  12.023   1
  -6   1   7 489.154  10.638   2
  -6   1   7 492.264  11.869   5
  -6   1   7 481.974   9.999   1
   6   1  -7 477.617   9.263   3
  -6   1   7 480.498  11.370   3
  -5  -1   7 183.915   5.333   2
   5  -1  -7 193.486   5.018   1
  -5  -1   7 188.367   5.791   3
  -5   1   7 190.253   6.279   5
   5   1  -7 190.969   6.501   1
   5   1  -7 185.383   4.741   3
  -5   1   7 190.797   5.891   3
  -5   1   7 190.556   5.388   2
   4  -1  -7 85.9898  2.9510   1
  -4  -1   7 89.9517  3.3173   2
  -4  -1   7 83.9345  3.4877   3
  -4   1   7 80.6635  3.4344   3
  -4   1   7 80.9090  3.6574   5
   4   1  -7 84.1485  3.0657   3
  -4   1   7 84.2634  3.0953   2
   4   1  -7 84.4661  3.9991   1
  -3  -1   7 123.272   4.059   3
   3  -1  -7 114.215   3.331   1
  -3  -1   7 115.748   3.665   2
   3   1  -7 116.017   4.564   1
  -3   1   7 114.810   4.024   5
   3   1  -7 116.056   3.664   4
   3   1  -7 120.311   3.690   3
  -2  -1   7 57.2561  2.6183   3
  -2  -1   7 56.1513  2.3844   2
   2  -1  -7 54.9631  2.1974   1
   2   1  -7 50.9827  2.4586   3
  -2   1   7 54.4413  2.4081   5
   2   1  -7 56.3663  3.0519   1
  -2   1   7 56.5554  2.2978   3
   2   1  -7 54.1101  2.4166   4
   1  -1  -7 126.740   3.604   1
  -1  -1   7 132.367   3.746   2
  -1  -1   7 130.088   4.003   3
   1   1  -7 120.432   4.445   1
   1   1  -7 127.605   3.673   4
   1   1  -7 123.954   3.860   3
  -1   1   7 122.894   3.344   5
  -1   1   7 124.615   3.195   3
   0  -1   7 72.9584  2.8344   5
   0  -1  -7 70.0028  2.6842   1
   0  -1   7 70.7717  2.8451   3
   0   1  -7 73.4640  3.3258   1
   0   1  -7 67.5725  2.6290   4
   0   1   7 68.7779  1.9234   5
   0   1   7 68.7624  1.6625   3
   1  -1   7 125.315   3.885   5
  -1  -1  -7 124.090   3.930   1
   1  -1   7 123.648   3.961   3
   1  -1   7 129.863   3.802   2
  -1   1  -7 129.245   4.185   3
  -1   1  -7 130.725   4.593   1
  -1   1  -7 131.782   3.847   4
   2  -1   7 53.0612  2.5706   3
   2  -1   7 55.6942  2.4906   2
   2  -1   7 60.5373  2.6358   5
  -2  -1  -7 57.7197  2.7337   1
  -2   1  -7 54.6334  2.9808   1
  -2   1  -7 53.1211  2.8608   3
  -2   1  -7 55.8829  2.5030   5
   3  -1   7 116.839   3.902   5
   3  -1   7 119.180   3.939   2
   3  -1   7 111.707   3.893   3
  -3  -1  -7 117.660   4.206   1
  -3   1  -7 109.914   4.245   3
  -3   1  -7 110.951   4.445   1
  -3   1  -7 117.908   3.932   5
   4  -1   7 84.3979  3.4221   5
  -4  -1  -7 78.5533  3.1335   3
  -4  -1  -7 81.1455  2.4304   5
   4  -1   7 75.7901  3.3208   3
  -4  -1  -7 82.1447  3.6749   1
   4  -1   7 81.7917  3.3542   2
  -4   1  -7 84.4498  3.8768   3
  -4   1  -7 80.0645  3.8478   1
  -4   1  -7 83.7440  3.4551   5
  -5  -1  -7 191.446   5.665   3
  -5  -1  -7 190.310   4.761   5
   5  -1   7 187.709   5.647   3
   5  -1   7 193.088   5.580   2
  -5  -1  -7 191.142   6.293   1
   5  -1   7 183.306   5.656   5
  -5   1  -7 185.419   6.259   1
  -5   1  -7 193.109   5.942   5
  -5   1  -7 188.826   6.239   3
   6  -1   7 491.809  10.412   2
  -6  -1  -7 481.659  11.717   1
  -6  -1  -7 479.399  10.910   3
   6  -1   7 476.235  10.676   5
   6  -1   7 461.486  10.730   3
  -6  -1  -7 474.298   9.676   5
  -6   1  -7 475.191  11.574   3
  -6   1  -7 469.767  11.005   5
  -6   1  -7 468.959  11.620   1
  -7  -1  -7 62.7640  3.9694   1
   7  -1   7 66.9593  3.2683   2
  -7  -1  -7 64.9111  4.0441   3
  -7  -1  -7 60.8287  3.1038   5
   7  -1   7 59.1362  3.4862   3
  -7   1  -7 61.2816  4.1311   3
  -7   1  -7 63.1405  3.9339   1
  -7   1  -7 61.2267  3.6777   5
  -8  -1  -7 591.310  12.598   5
  -8  -1  -7 551.773  14.161   1
   8  -1   7 557.867  12.889   3
  -8   1  -7 583.873  14.173   3
  -8   1  -7 591.453  13.879   5
  -8   1  -7 596.389  14.307   1
  -9  -1  -7 76.7897  4.8355   1
  -9  -1  -7 77.4550  4.1477   5
   9  -1   7 74.9392  4.2375   3
  -9   1  -7 82.4115  5.0306   3
  -9   1  -7 78.5315  4.7436   1
  -9   1  -7 81.6625  4.3410   2
  -9   1  -7 79.4332  4.7139   5
 -10  -1  -7 131.723   6.700   1
  10  -1   7 138.593   5.736   3
 -10   1  -7 155.220   7.016   3
 -10   1  -7 147.711   6.807   1
 -10   1  -7 147.282   6.138   2
 -11  -1  -7 78.7597  5.3966   1
 -11   1  -7 74.4891  4.6243   2
 -11   1  -7 72.1563  4.7934   1
 -11   1  -7 78.7590  5.5062   3
 -12  -1  -7 14.0638  2.8589   1
 -12   1  -7 18.4592  3.5635   3
 -12   1  -7 20.9623  3.3752   1
 -12   1  -7 20.1256  3.1075   2
 -13  -1  -7 98.2764  6.5943   1
 -13   1  -7 102.891   5.964   2
 -13   1  -7 114.023   6.829   3
 -13   1  -7 106.217   6.634   1
 -14  -1  -7 127.495   6.730   2
 -14  -1  -7 156.274   8.404   1
 -14   1  -7 133.380   7.799   3
 -14   1  -7 129.789   7.650   1
 -14   1  -7 131.667   7.009   2
 -15  -1  -7 87.1335  5.8523   2
 -15   1  -7 91.2912  6.7727   3
 -15  -2   7 64.0276  5.3797   2
 -15   2   7 45.8897  4.0991   3
 -14  -2   7 57.9048  5.1875   1
 -14  -2   7 56.6436  4.7414   2
  14   2  -7 59.3336  5.5319   1
 -13  -2   7 14.0470  2.9307   2
 -13  -2   7 12.4449  3.1387   1
 -13   2   7 14.8034  2.9785   3
  13   2  -7 10.6927  3.0782   1
 -12  -2   7 91.8005  5.2038   2
 -12  -2   7 80.0830  5.9242   1
 -12   2   7 87.8166  5.4933   3
  12   2  -7 88.2540  6.3848   1
 -11  -2   7 83.6221  4.7044   2
 -11  -2   7 81.7165  5.7443   1
 -11   2   7 82.0852  5.0988   3
  11   2  -7 76.6544  5.7712   1
 -10  -2   7 77.4378  4.3834   2
 -10  -2   7 95.1624  5.9488   1
 -10   2   7 74.4983  4.6403   3
  10   2  -7 72.8776  5.3860   1
  -9  -2   7 187.903   6.486   2
  -9  -2   7 180.510   8.126   1
   9   2  -7 181.130   8.119   1
  -8  -2   7 5.76528 1.40308   2
  -8   2   7 3.72707 1.32935   3
   8   2  -7 3.47793 1.80056   1
   7  -2  -7 316.687   9.242   3
  -7  -2   7 305.967   7.669   2
  -7   2   7 298.305   9.708   5
   7   2  -7 283.670   9.741   1
  -7   2   7 279.646   8.092   3
  -6  -2   7 145.585   4.623   2
   6  -2  -7 147.779   5.879   3
   6   2  -7 157.565   6.679   1
  -6   2   7 153.333   5.161   3
  -6   2   7 157.749   6.416   5
  -5  -2   7 714.332  13.236   2
   5  -2  -7 714.867  15.062   3
  -5  -2   7 725.188  14.204   3
   5   2  -7 704.689  16.130   1
  -5   2   7 719.833  13.882   3
  -4  -2   7 185.275   5.208   3
   4  -2  -7 179.863   5.735   3
  -4  -2   7 180.251   4.634   2
   4   2  -7 177.359   6.650   1
  -4   2   7 183.147   4.607   3
  -4   2   7 177.632   6.088   5
   4   2  -7 186.790   5.572   4
   3  -2  -7 2302.98   37.62   3
  -3  -2   7 2267.46   37.14   3
  -3  -2   7 2261.54   35.34   2
  -3   2   7 2248.61   35.38   5
   3   2  -7 2233.88   33.64   4
   3   2  -7 2244.52   38.00   1
   2  -2  -7 862.215  13.372   1
   2  -2  -7 854.708  14.880   5
  -2  -2   7 862.480  14.620   2
  -2  -2   7 854.979  15.520   3
   2  -2  -7 848.201  15.438   3
   2  -2  -7 838.085  14.632   2
   2   2  -7 859.467  17.293   1
  -2   2   7 841.547  15.265   5
   2   2  -7 858.584  15.159   4
   1  -2  -7 787.744  13.120   1
   1  -2  -7 790.780  13.515   5
  -1  -2   7 799.996  14.689   3
   1  -2  -7 787.634  13.101   2
  -1  -2   7 801.496  15.265   5
  -1  -2   7 782.356  13.810   2
   1   2  -7 805.219  16.216   1
   1   2  -7 817.227  14.350   4
  -1   2   7 811.752  13.938   5
   0  -2   7 874.707  15.947   3
   0  -2   7 856.404  15.086   2
   0  -2  -7 854.456  14.543   1
   0  -2   7 858.894  16.159   5
   0  -2  -7 888.709  14.024   5
   0   2  -7 865.408  17.096   1
   0   2  -7 865.220  15.230   4
   0   2   7 870.841  14.242   5
  -1  -2  -7 811.703  14.150   1
   1  -2   7 808.635  15.021   3
  -1  -2  -7 810.930  12.558   5
   1  -2   7 822.393  15.321   5
   1  -2   7 811.000  14.425   2
  -1   2  -7 794.821  14.421   4
  -1   2  -7 780.571  15.902   1
  -1   2  -7 782.291  15.052   5
   1   2   7 764.932  12.534   5
  -1   2  -7 773.397  13.565   3
   2  -2   7 855.544  15.589   2
   2  -2   7 850.838  16.119   3
  -2  -2  -7 853.927  13.145   5
  -2  -2  -7 831.305  15.422   1
   2  -2   7 867.373  16.186   5
  -2   2  -7 847.544  15.144   3
  -2   2  -7 828.252  16.776   1
  -2   2  -7 863.857  16.082   5
   3  -2   7 2243.21   35.32   5
   3  -2   7 2236.12   37.45   3
  -3  -2  -7 2241.81   35.74   1
  -3  -2  -7 2229.87   31.84   5
  -3   2  -7 2226.68   36.78   1
  -3   2  -7 2214.27   36.62   3
  -3   2  -7 2114.49   35.09   5
   4  -2   7 181.238   5.723   3
  -4  -2  -7 180.466   6.015   1
   4  -2   7 183.262   5.737   2
   4  -2   7 183.665   6.119   5
  -4   2  -7 180.926   6.319   1
  -4   2  -7 181.009   6.199   5
   5  -2   7 724.540  15.080   5
  -5  -2  -7 739.799  15.456   1
   5  -2   7 721.824  14.657   2
   5  -2   7 715.706  15.013   3
  -5   2  -7 708.384  14.714   3
  -5   2  -7 690.754  15.096   5
  -5   2  -7 716.645  13.444   2
  -5   2  -7 700.677  15.334   1
   6  -2   7 153.210   5.526   2
   6  -2   7 139.897   5.436   3
  -6  -2  -7 147.980   6.083   1
  -6   2  -7 145.938   4.824   2
  -6   2  -7 142.176   5.537   3
  -6   2  -7 145.625   6.003   5
  -6   2  -7 152.214   6.086   1
   7  -2   7 304.829   8.894   3
  -7  -2  -7 290.679   9.458   1
   7  -2   7 302.288   8.580   2
  -7   2  -7 311.942   9.021   3
  -7   2  -7 306.530   7.989   2
  -7   2  -7 308.613   9.632   5
  -7   2  -7 307.387   9.419   1
   8  -2   7 3.20415 1.79160   3
   8  -2   7 3.55180 1.69203   2
  -8  -2  -7 6.47278 1.85716   1
  -8   2  -7 3.69964 1.38052   1
  -8   2  -7 3.89187 1.52721   5
  -8   2  -7 5.23492 1.79494   3
  -8   2  -7 4.77738 1.52318   2
   9  -2   7 196.675   7.285   3
  -9  -2  -7 188.331   8.013   1
  -9   2  -7 183.611   7.533   1
  -9   2  -7 187.306   6.514   2
  -9   2  -7 181.296   7.290   3
 -10  -2  -7 71.5258  5.0165   1
  10  -2   7 70.5875  4.6607   3
 -10   2  -7 83.6642  5.3479   1
 -10   2  -7 74.0674  4.7969   3
 -11  -2  -7 65.0045  5.2232   1
  11  -2   7 60.9220  4.4984   3
 -11   2  -7 79.1042  5.1056   3
 -11   2  -7 66.2594  5.1590   1
  12  -2   7 81.0996  5.3580   3
 -12  -2  -7 83.3444  6.0298   1
 -12   2  -7 73.7000  5.8612   1
 -12   2  -7 82.7388  5.3942   3
 -13  -2  -7 22.5115  3.7380   1
 -13   2  -7 13.3281  3.0061   3
 -14   2  -7 71.6300  5.3433   3
 -15  -2  -7 63.6820  5.1447   2
 -15   2  -7 64.7564  4.7442   3
 -14  -3   7 73.4991  5.1552   2
 -14   3   7 78.0273  5.0216   3
 -13  -3   7 39.7002  3.7743   2
 -13  -3   7 34.5393  4.7358   1
  13   3  -7 32.0594  4.7845   1
 -13   3   7 34.4496  3.4674   3
 -12  -3   7 499.621  13.516   2
 -12  -3   7 466.821  16.213   1
  12   3  -7 495.073  16.414   1
 -12   3   7 511.120  13.227   3
 -11  -3   7 29.9764  3.0140   2
 -11  -3   7 29.5310  4.6070   1
  11   3  -7 27.6597  4.3271   1
 -11   3   7 23.7996  2.8091   3
 -10  -3   7 341.018  12.701   1
 -10  -3   7 343.916   9.673   2
 -10   3   7 359.190   9.677   3
  10   3  -7 346.859  12.683   1
  -9  -3   7 302.365   8.495   2
   9  -3  -7 327.554  10.712   3
  -9  -3   7 297.122  11.490   1
   9   3  -7 312.477  11.658   1
  -9   3   7 315.514   8.414   3
   8  -3  -7 328.974  10.325   3
  -8  -3   7 324.368   8.178   2
   8   3  -7 301.272  11.101   1
  -8   3   7 315.958   7.848   3
   7  -3  -7 277.043   8.904   3
  -7  -3   7 263.834   6.764   2
   7   3  -7 272.781  10.167   1
  -7   3   7 268.242   6.219   3
   6  -3  -7 224.028   7.498   3
  -6  -3   7 215.973   5.447   2
  -6   3   7 200.741   7.867   5
   6   3  -7 215.506   8.640   1
  -5  -3   7 285.570   6.200   2
   5  -3  -7 286.361   7.812   2
   5  -3  -7 301.375   8.389   3
   5   3  -7 290.817   8.231   4
   5   3  -7 294.265   9.949   1
  -5   3   7 297.415   9.274   5
  -4  -3   7 288.148   5.748   2
   4  -3  -7 286.268   7.297   2
   4  -3  -7 290.927   7.668   3
  -4   3   7 282.223   8.655   5
   4   3  -7 284.307   9.519   1
   4   3  -7 293.261   8.072   4
   3  -3  -7 18.9218  1.9373   3
   3  -3  -7 19.2490  2.0165   5
  -3  -3   7 17.9459  1.1217   2
   3  -3  -7 19.2725  1.6681   2
   3   3  -7 19.7391  2.0770   4
   3   3  -7 16.7648  2.6005   1
  -3   3   7 16.2101  2.2147   5
   2  -3  -7 8.69761 1.01653   2
   2  -3  -7 9.42128 1.59517   5
  -2  -3   7 7.34895 0.84567   2
   2   3  -7 10.4059  1.7132   4
  -2   3   7 9.76215 1.64163   5
   2   3  -7 7.23243 1.79404   1
   1  -3  -7 284.182   7.141   5
  -1  -3   7 283.082   5.710   2
   1  -3  -7 277.655   5.586   1
  -1   3   7 271.655   7.314   5
   1   3  -7 275.261   7.752   4
  -1   3   7 279.538   6.069   4
   1   3  -7 275.930   8.665   1
   0  -3  -7 1068.77   17.94   5
   0  -3  -7 1051.53   17.43   1
   0  -3   7 1060.61   17.67   2
   0   3  -7 1041.79   18.96   4
   0   3   7 1059.45   16.08   4
   0   3  -7 1030.02   20.69   1
   0   3   7 1047.16   18.15   5
  -1  -3  -7 266.556   6.461   5
  -1  -3  -7 280.783   6.727   1
   1  -3   7 280.261   6.958   3
   1  -3   7 276.409   6.451   2
   1   3   7 276.618   6.622   5
  -1   3  -7 281.481   7.935   4
  -1   3  -7 278.499   8.344   5
  -1   3  -7 267.417   8.297   1
   2  -3   7 9.92205 1.56875   3
   2  -3   7 7.56726 1.39590   2
  -2  -3  -7 9.39316 1.56432   1
  -2  -3  -7 12.0157  1.2966   5
  -2   3  -7 13.0648  2.1329   5
  -2   3  -7 11.5233  1.9049   4
   2   3   7 9.54435 1.11407   4
  -2   3  -7 7.74277 1.69340   1
  -3  -3  -7 16.4858  1.4380   5
   3  -3   7 15.1689  2.0171   3
  -3  -3  -7 17.3558  1.9940   1
   3  -3   7 14.1871  1.9073   2
  -3   3  -7 18.5232  2.6080   5
  -3   3  -7 18.2150  2.4756   1
   4  -3   7 284.068   7.856   2
  -4  -3  -7 284.650   8.345   1
   4  -3   7 278.550   7.908   3
  -4  -3  -7 283.987   6.751   5
  -4   3  -7 292.629   9.096   5
  -4   3  -7 293.347   8.799   1
  -4   3  -7 277.724   5.947   3
   5  -3   7 296.392   8.473   3
  -5  -3  -7 306.040   7.200   5
  -5  -3  -7 289.014   8.900   1
  -5   3  -7 281.648   9.285   5
  -5   3  -7 285.629   8.898   1
  -5   3  -7 286.127   6.926   3
   6  -3   7 209.396   7.214   2
   6  -3   7 214.805   7.364   3
  -6  -3  -7 217.377   7.931   1
  -6   3  -7 216.813   8.268   5
  -6   3  -7 218.898   7.685   1
  -6   3  -7 217.315   6.359   3
   7  -3   7 273.434   8.689   3
  -7  -3  -7 261.841   9.273   1
   7  -3   7 273.442   8.610   2
  -7   3  -7 273.917   9.722   5
  -7   3  -7 258.276   8.880   1
  -7   3  -7 263.798   7.693   3
  -8  -3  -7 313.630  10.772   1
   8  -3   7 318.419  10.023   3
   8  -3   7 311.799   9.703   2
  -8   3  -7 324.216  10.261   1
  -8   3  -7 330.593   9.264   3
  -9  -3  -7 293.685  10.852   1
   9  -3   7 320.446   9.889   2
   9  -3   7 311.050  10.197   3
  -9   3  -7 304.668  10.280   1
  -9   3  -7 313.480   9.423   3
  10  -3   7 364.965  10.830   2
  10  -3   7 331.994  10.995   3
 -10  -3  -7 343.274  12.256   1
 -10   3  -7 349.649  10.468   3
  11  -3   7 25.5867  3.7091   3
 -11  -3  -7 27.5639  4.2256   1
 -11   3  -7 27.5816  3.6262   3
  12  -3   7 466.739  13.970   3
 -12  -3  -7 491.037  15.898   1
 -12   3  -7 472.828  13.594   3
 -13   3  -7 37.6938  3.8441   3
  14  -3   7 59.0079  5.3135   3
 -14   3  -7 74.0044  5.1355   3
 -13  -4   7 1.65073 2.14471   2
 -12  -4   7 18.2348  3.0437   2
 -12  -4   7 29.2945  3.0932   1
  12   4  -7 15.6022  3.7095   1
 -11  -4   7 104.448   5.233   2
  11  -4  -7 103.500   7.098   3
 -11  -4   7 112.577   7.714   1
  11   4  -7 109.277   7.713   1
 -10  -4   7 26.0603  4.2554   1
  10  -4  -7 25.1898  4.5158   3
 -10  -4   7 22.5682  2.8965   2
  10   4  -7 17.2745  3.6691   1
  -9  -4   7 81.6664  6.2402   1
  -9  -4   7 97.1369  4.3071   2
   9  -4  -7 97.0707  6.0260   3
   9   4  -7 89.9021  6.5523   1
   8  -4  -7 183.508   7.781   3
  -8  -4   7 189.153   5.659   2
   8   4  -7 170.260   8.709   1
  -7  -4   7 278.226   6.554   2
   7  -4  -7 279.059   8.821   2
   7   4  -7 276.665  10.918   1
   6  -4  -7 177.810   6.552   2
   6   4  -7 168.963   6.807   4
   6   4  -7 172.419   8.236   1
   5  -4  -7 344.432   8.999   2
   5   4  -7 332.221  11.444   1
  -5   4   7 338.621  10.906   5
   5   4  -7 342.924   9.952   4
   4  -4  -7 205.182   6.141   2
   4   4  -7 219.096   7.617   4
   4   4  -7 221.404   8.817   1
  -4   4   7 219.532   8.145   5
   3  -4  -7 132.212   4.158   2
  -3   4   7 147.840   6.270   5
   3   4  -7 128.101   5.756   4
   3   4  -7 138.589   6.684   1
  -2   4   7 179.706   6.766   5
   2   4  -7 197.831   7.117   4
  -2   4   7 182.277   5.702   4
   2   4  -7 195.986   7.833   1
   1  -4  -7 69.0498  3.6764   5
   1   4  -7 78.1795  4.3950   4
   1   4  -7 76.9951  4.7120   1
  -1   4   7 73.0444  4.0075   5
  -1   4   7 79.7861  3.4693   4
   0  -4  -7 38.3425  2.1133   1
   0  -4  -7 36.8631  2.5189   5
   0  -4   7 35.2860  1.8481   2
   0   4   7 38.8890  2.8321   5
   0   4   7 36.2612  2.3532   4
   0   4  -7 33.4860  2.9818   4
   0   4  -7 39.7106  3.4007   1
   1  -4   7 70.8003  2.9615   2
  -1  -4  -7 73.7474  3.5615   5
  -1  -4  -7 74.8336  3.3420   1
  -1   4  -7 78.2709  4.4379   4
  -1   4  -7 65.6102  4.2498   1
   1   4   7 71.1656  3.1199   4
  -2  -4  -7 186.931   5.925   5
  -2  -4  -7 191.507   6.171   1
   2  -4   7 187.331   5.573   2
  -2   4  -7 192.284   7.582   5
   2   4   7 192.987   5.212   4
  -2   4  -7 191.090   7.308   4
  -2   4  -7 186.890   7.201   1
   3  -4   7 141.069   5.119   2
  -3  -4  -7 133.233   5.457   1
  -3   4  -7 134.922   6.413   5
  -3   4  -7 146.100   6.161   1
  -3   4  -7 120.239   5.958   4
   3   4   7 138.690   4.336   4
   4  -4   7 207.474   6.755   2
  -4  -4  -7 205.205   7.284   1
  -4   4  -7 203.142   8.231   5
  -4   4  -7 196.335   7.365   1
   5  -4   7 332.371   9.546   3
   5  -4   7 336.215   9.577   2
  -5  -4  -7 332.931  10.201   1
  -5   4  -7 331.743  10.164   1
   6  -4   7 165.865   6.767   2
   6  -4   7 180.030   6.996   3
  -6  -4  -7 190.068   7.754   1
  -6   4  -7 183.447   7.266   1
  -7  -4  -7 279.435  10.141   1
   7  -4   7 285.406   9.466   2
   7  -4   7 279.758   9.394   3
  -7   4  -7 292.244   9.711   1
  -8  -4  -7 188.387   8.485   1
   8  -4   7 176.614   7.561   3
   8  -4   7 169.260   7.325   2
   9  -4   7 88.3337  5.7937   3
  -9  -4  -7 89.9588  6.1423   1
   9  -4   7 86.6365  5.4641   2
 -10  -4  -7 19.0781  3.6814   1
  10  -4   7 25.6428  4.0888   3
  10  -4   7 22.1871  3.6408   2
 -10   4  -7 18.3330  2.2011   3
 -11  -4  -7 109.039   7.294   1
  11  -4   7 101.657   6.349   2
  11  -4   7 103.129   6.924   3
 -11   4  -7 105.134   4.674   3
  12  -4   7 17.6747  3.9894   3
  13  -4   7 -0.1970  1.7282   3
  12  -5  -7 97.3889  7.6456   3
 -12  -5   7 114.723   5.808   2
  11  -5  -7 2.78471 3.60334   3
 -11  -5   7 6.87168 1.88192   2
 -10  -5   7 216.454   7.076   2
 -10  -5   7 193.307  10.564   1
  10   5  -7 205.283  10.685   1
  -9  -5   7 1.82367 2.13317   1
   9   5  -7 2.63320 2.12940   1
   8  -5  -7 276.801   9.561   2
   8   5  -7 271.015  11.657   1
   7  -5  -7 88.1601  5.0168   2
   7   5  -7 85.2877  6.4647   1
   6  -5  -7 216.362   7.576   2
   6   5  -7 217.355   8.364   4
   6   5  -7 219.418   9.962   1
   5  -5  -7 206.667   6.928   2
   5   5  -7 213.657   8.248   4
   5   5  -7 201.850   9.326   1
   4  -5  -7 1.73694 1.29323   2
   4   5  -7 2.99858 1.44397   1
   4   5  -7 1.35593 1.40986   4
  -4   5   7 1.96545 1.52952   4
   3  -5  -7 34.9579  2.3252   2
   3   5  -7 34.1580  3.7641   1
  -3   5   7 43.8706  3.6988   5
   3   5  -7 41.0838  3.7448   4
  -3   5   7 41.7463  3.3203   4
  -2   5   7 85.9412  4.9936   5
   2   5  -7 75.1230  4.9501   4
  -2   5   7 73.5236  4.0612   4
   2   5  -7 82.8448  5.4525   1
   1   5  -7 443.233  12.362   4
   1   5  -7 436.404  13.170   1
  -1   5   7 433.772  12.016   5
   0   5  -7 135.434   6.727   1
   0   5  -7 131.725   6.519   4
   0   5   7 137.995   6.062   5
   1  -5   7 442.892   9.396   2
  -1   5  -7 444.410  12.620   4
  -1   5  -7 430.094  12.641   1
   2  -5   7 79.5754  3.6783   2
  -2  -5  -7 75.2627  4.0299   1
  -2   5  -7 73.7462  5.0399   4
  -2   5  -7 79.3707  4.9337   1
  -3  -5  -7 42.6990  3.3098   1
   3  -5   7 41.6761  3.1314   2
  -3   5  -7 40.3515  3.9533   4
  -3   5  -7 34.9988  3.4356   1
  -4  -5  -7 2.60704 1.48248   1
   4  -5   7 1.24166 1.50541   2
  -4   5  -7 2.77726 1.82378   4
  -4   5  -7 1.67156 1.44545   1
   5  -5   7 202.642   7.490   2
  -5  -5  -7 211.647   8.244   1
  -5   5  -7 208.045   8.943   4
   6  -5   7 215.222   8.073   2
  -6  -5  -7 211.935   8.690   1
   7  -5   7 88.6250  5.4668   2
  -7  -5  -7 92.3050  5.9384   1
   8  -5   7 284.297  10.090   3
  -8  -5  -7 272.540  10.890   1
   8  -5   7 274.316  10.110   2
  -9  -5  -7 1.99289 1.99077   1
   9  -5   7 2.55620 2.36322   2
   9  -5   7 2.72332 2.11080   3
 -10  -5  -7 213.190  10.312   1
  10  -5   7 208.790   9.233   2
  10  -5   7 216.068   9.592   3
  11  -5   7 4.66484 3.00799   2
  11  -5   7 1.71404 3.07840   3
  12  -5   7 94.1973  6.8201   3
   8  -6  -7 36.0908  3.7439   2
  -8  -6   7 35.3354  5.2872   1
   8   6  -7 47.8862  5.1416   1
   7  -6  -7 202.906   8.285   2
   7   6  -7 219.726  10.913   1
   6  -6  -7 3.45395 2.31217   2
   6   6  -7 3.36026 2.26387   1
   6   6  -7 2.47744 1.98755   4
   5  -6  -7 103.855   5.174   2
   5   6  -7 106.062   7.170   1
   5   6  -7 107.989   6.398   4
   4  -6  -7 21.1386  2.5944   2
   4   6  -7 23.3843  4.0098   1
   4   6  -7 19.4414  3.3560   4
   3   6  -7 189.536   9.054   1
   3   6  -7 181.215   8.209   4
   2   6  -7 27.7385  3.9781   4
   2   6  -7 21.9708  3.6526   1
   1   6  -7 190.596   8.491   4
   1   6  -7 184.103   8.578   1
   0   6  -7 14.1432  2.7745   1
   0   6  -7 15.4498  3.1774   4
   1  -6   7 195.807   5.910   2
  -1   6  -7 178.174   8.256   1
  -1   6  -7 189.909   8.603   4
   2  -6   7 22.4649  2.4811   2
  -2   6  -7 25.9273  4.1012   4
  -2   6  -7 19.1526  3.3246   1
   3  -6   7 182.414   6.815   2
  -3   6  -7 195.410   8.949   4
   4  -6   7 14.3535  2.8020   2
  -4   6  -7 16.5562  3.5023   4
  -5  -6  -7 91.1805  5.6436   1
   5  -6   7 100.073   5.570   2
  -5   6  -7 87.8269  6.4812   4
   6  -6   7 5.52543 2.24703   2
  -6  -6  -7 2.03081 1.62698   1
  -6   6  -7 4.78978 2.45993   4
   7  -6   7 209.058   8.721   2
  -7  -6  -7 202.239   9.313   1
  -7   6  -7 204.383  10.023   4
  -8  -6  -7 39.4447  5.0683   1
  -8   6  -7 40.7602  5.5670   4
  -9  -6  -7 11.7427  3.1263   1
   9  -6   7 10.1991  3.1788   2
  10  -6   7 40.2341  4.7297   2
   8  -7  -7 59.2743  5.1077   2
   7  -7  -7 47.3268  4.8173   2
   6  -7  -7 39.9094  4.1840   2
   6   7  -7 56.3735  5.3699   1
   6   7  -7 43.6244  5.2320   4
   5  -7  -7 13.2095  2.9187   2
   5   7  -7 16.3688  3.5900   1
   5   7  -7 14.4804  3.2685   4
   4  -7  -7 54.9598  3.8280   2
   4   7  -7 61.2131  5.3829   4
   4   7  -7 59.9422  5.8524   1
   3   7  -7 48.9404  5.1338   1
   3   7  -7 46.1206  5.5448   4
   2   7  -7 25.4233  4.3147   4
   2   7  -7 22.0544  3.9461   1
   1   7  -7 62.9614  5.5599   4
   0   7  -7 2.87411 2.30912   4
  -1   7  -7 77.2997  6.1136   4
   2  -7   7 24.8386  2.7101   2
  -2   7  -7 24.7227  4.1808   4
   3  -7   7 48.4107  4.0741   2
  -3   7  -7 52.8034  5.3832   4
   4  -7   7 58.0883  4.4950   2
  -4   7  -7 60.2041  5.9782   4
   5  -7   7 12.2570  3.3989   2
  -5   7  -7 15.3198  3.6111   4
   6  -7   7 43.2926  4.4434   2
  -6   7  -7 39.5923  5.7525   4
   7  -7   7 53.9031  4.7394   2
  -7   7  -7 61.9008  6.0739   4
   8  -7   7 60.5228  5.4585   2
   3   8  -7 171.430   9.141   4
   2   8  -7 5.54325 2.48583   4
   1   8  -7 91.6018  6.7909   4
   0   8  -7 18.3183  3.8446   4
  -1   8  -7 119.896   7.796   4
   2  -8   7 8.19700 2.30872   2
  -2   8  -7 9.04696 2.72229   4
   3  -8   7 182.313   7.940   2
  -3   8  -7 177.306   9.704   4
   4  -8   7 39.8473  4.9387   2
 -15   0   8 73.4591  6.1102   3
 -14   0   8 6.11525 2.65241   3
 -14   0   8 4.09945 2.11272   2
 -13   0   8 245.793   9.484   2
 -13   0   8 238.099  10.097   3
 -12   0   8 32.6940  3.5189   2
 -12   0   8 31.2364  4.2351   3
  11   0  -8 656.945  13.771   3
 -11   0   8 640.362  16.837   3
 -11   0   8 650.836  15.959   2
 -10   0   8 2.58148 1.56310   3
  10   0  -8 0.60589 1.25557   1
  10   0  -8 1.86689 1.91034   3
 -10   0   8 0.16248 1.23633   2
 -10   0   8 0.75202 1.12778   1
  -9   0   8 1.40761 1.44669   3
  -9   0   8 -0.1585  1.2033   1
   9   0  -8 2.46769 1.37606   1
  -9   0   8 2.71199 1.50595   2
  -8   0   8 21.5969  2.6328   3
  -8   0   8 24.1230  2.5876   1
   8   0  -8 23.4983  2.8552   1
  -8   0   8 26.7663  2.5566   2
  -7   0   8 571.716  13.538   3
   7   0  -8 578.925  12.993   1
  -7   0   8 572.893  12.788   2
   6   0  -8 18.5864  2.1182   1
  -6   0   8 17.8270  1.9551   2
  -6   0   8 18.2108  2.2581   3
  -5   0   8 29.4386  2.4302   3
   5   0  -8 31.2208  2.3965   1
  -5   0   8 29.4635  2.2426   2
  -4   0   8 22.4272  2.0387   3
   4   0  -8 26.2109  2.1087   1
  -4   0   8 24.3684  1.8595   2
  -3   0   8 331.219   7.540   2
  -3   0   8 322.092   7.993   3
   3   0  -8 334.105   7.954   1
  -2   0   8 87.8489  3.4563   3
  -2   0   8 92.0243  3.2199   2
   2   0  -8 92.9691  3.6104   1
  -1   0   8 974.346  17.469   3
   1   0  -8 948.682  14.064   4
  -1   0   8 956.684  16.604   2
   1   0  -8 963.380  17.444   3
   1   0  -8 977.654  17.246   1
   0   0  -8 10.0186  0.8897   4
   0   0   8 9.64559 1.25308   3
   0   0  -8 11.2255  1.5540   1
   0   0  -8 10.3403  1.6496   3
   1   0   8 962.324  14.464   5
  -1   0  -8 942.119  13.939   4
  -1   0  -8 944.270  17.198   3
   1   0   8 921.986  16.675   3
  -1   0  -8 951.813  17.137   1
   2   0   8 88.7304  2.3959   5
  -2   0  -8 84.3671  3.6032   1
  -2   0  -8 87.5155  3.6297   3
   3   0   8 328.346   6.199   5
  -3   0  -8 323.275   6.218   5
   3   0   8 333.253   7.149   3
  -3   0  -8 327.744   8.320   1
  -3   0  -8 320.954   8.025   3
   4   0   8 26.9304  1.5604   5
  -4   0  -8 18.2682  1.9653   1
  -4   0  -8 24.3811  1.5228   5
   4   0   8 27.4365  1.7781   3
  -4   0  -8 23.5978  2.5334   3
  -5   0  -8 28.9923  1.8923   5
   5   0   8 28.0258  1.9134   3
  -5   0  -8 30.7364  2.9748   3
  -5   0  -8 23.6611  2.3359   1
   6   0   8 17.4483  1.8506   3
  -6   0  -8 16.4109  2.2806   1
  -6   0  -8 21.1185  1.8253   5
  -6   0  -8 20.5099  2.8832   3
   7   0   8 562.991  11.023   3
  -7   0  -8 569.343  12.123   5
  -7   0  -8 547.563  13.263   3
  -7   0  -8 560.551  13.603   1
  -8   0  -8 25.0136  2.4143   5
  -8   0  -8 27.1469  2.7711   1
  -8   0  -8 27.9417  3.5221   3
  -9   0  -8 4.28777 1.44908   5
  -9   0  -8 7.36015 1.78380   1
  -9   0  -8 4.41743 2.09516   3
 -10   0  -8 2.23290 2.09590   3
 -10   0  -8 2.92789 1.43305   1
 -11   0  -8 629.609  17.075   1
 -11   0  -8 682.772  17.249   3
 -12   0  -8 35.4747  4.5934   3
 -12   0  -8 18.3412  3.5490   1
 -13   0  -8 249.277  10.297   3
 -13   0  -8 245.003   9.183   2
 -13   0  -8 239.146  10.154   1
 -14   0  -8 3.56857 1.90215   1
 -14   0  -8 4.58213 2.28825   2
 -14   0  -8 -0.1816  2.2380   3
 -15   0  -8 75.4378  5.9697   3
 -15   0  -8 75.0200  5.7471   2
 -15  -1   8 21.4673  3.8725   3
 -15  -1   8 16.6822  3.4684   2
 -15   1   8 17.2633  3.3047   3
 -14  -1   8 87.8642  6.0546   2
 -14  -1   8 93.8164  6.4037   3
 -14   1   8 89.3153  6.1691   3
 -13  -1   8 93.6516  6.2085   3
 -13  -1   8 89.8450  5.8546   2
 -13   1   8 95.3311  6.1686   3
 -12  -1   8 140.275   7.250   3
 -12  -1   8 126.304   7.025   1
 -12  -1   8 130.206   6.579   2
  12   1  -8 144.372   7.509   1
 -12   1   8 140.139   7.168   3
 -11  -1   8 1.61033 1.22233   1
 -11  -1   8 2.07279 1.34030   3
 -11  -1   8 1.64300 1.46385   2
 -11   1   8 3.54619 1.85620   3
  11   1  -8 0.93355 1.58034   1
 -11   1   8 2.51782 1.64233   2
 -10  -1   8 132.715   6.328   3
 -10  -1   8 120.685   5.725   2
 -10  -1   8 142.160   6.914   1
 -10   1   8 123.158   6.255   3
 -10   1   8 120.133   5.733   2
  10   1  -8 124.273   6.523   1
  -9  -1   8 338.261  10.148   3
  -9  -1   8 318.044  10.432   1
  -9   1   8 327.269   9.372   2
   9   1  -8 312.774  10.363   1
  -9   1   8 317.934  10.031   3
  -8  -1   8 378.150  10.117   2
   8  -1  -8 405.624   9.602   1
  -8  -1   8 419.724  11.129   3
  -8   1   8 405.614   9.713   1
  -8   1   8 401.860  11.726   5
   8   1  -8 400.914  11.487   1
  -8   1   8 410.586  10.318   2
  -8   1   8 410.097  11.145   3
   7  -1  -8 320.090   7.804   1
  -7  -1   8 311.598   8.401   2
  -7  -1   8 309.020   8.982   3
  -7   1   8 317.423   9.679   5
  -7   1   8 315.187   9.038   3
  -7   1   8 318.112   7.904   1
  -7   1   8 304.326   8.270   2
   7   1  -8 317.828   6.851   3
   7   1  -8 312.899   9.587   1
  -6  -1   8 541.119  12.378   3
  -6  -1   8 526.944  11.618   2
   6  -1  -8 566.171  10.977   1
  -6   1   8 534.660  12.741   5
  -6   1   8 533.114  12.391   3
   6   1  -8 513.471  10.434   3
  -6   1   8 539.192  11.574   2
   6   1  -8 540.225  13.045   1
  -5  -1   8 189.120   5.685   2
   5  -1  -8 199.419   5.285   1
  -5  -1   8 199.170   6.157   3
   5   1  -8 187.423   5.144   3
   5   1  -8 199.375   6.795   1
  -5   1   8 195.119   6.097   3
  -5   1   8 200.403   5.618   2
  -5   1   8 198.269   6.493   5
  -4  -1   8 1578.38   26.68   2
   4  -1  -8 1564.58   25.29   1
  -4  -1   8 1606.62   28.02   3
   4   1  -8 1575.81   26.73   3
   4   1  -8 1603.67   27.95   1
  -4   1   8 1610.51   26.31   2
  -4   1   8 1584.44   26.30   5
  -4   1   8 1584.72   27.78   3
  -3  -1   8 620.630  12.064   2
  -3  -1   8 629.496  12.760   3
   3  -1  -8 617.022  11.328   1
   3   1  -8 618.278  11.133   4
   3   1  -8 630.350  12.028   3
  -3   1   8 630.320  12.095   5
   3   1  -8 617.954  13.345   1
   2  -1  -8 1699.16   26.81   1
  -2  -1   8 1677.33   27.92   2
  -2  -1   8 1714.79   29.26   3
  -2   1   8 1719.50   28.39   3
   2   1  -8 1738.13   25.26   4
  -2   1   8 1703.73   26.26   5
   2   1  -8 1685.69   28.65   3
   2   1  -8 1722.35   28.99   1
  -1  -1   8 54.2409  2.6863   3
   1  -1  -8 56.9757  2.5259   1
   1   1  -8 54.9391  3.0508   1
  -1   1   8 52.9597  2.0992   5
  -1   1   8 57.1381  2.1210   3
   1   1  -8 54.2599  2.4233   4
   0  -1  -8 1926.11   30.49   1
   0  -1   8 1961.64   32.60   3
   0  -1   8 1944.45   29.61   5
   0  -1   8 1940.55   31.31   2
   0   1  -8 1932.75   32.04   1
   0   1   8 1951.41   27.62   5
   0   1  -8 1912.47   32.33   3
   0   1  -8 1905.66   27.97   4
   0   1   8 1950.31   30.53   3
   1  -1   8 50.9304  2.5971   3
  -1  -1  -8 53.5519  2.6287   1
   1  -1   8 53.5781  2.5095   5
   1  -1   8 50.6230  2.4617   2
  -1   1  -8 51.0573  2.4962   4
  -1   1  -8 53.0106  3.0358   1
  -1   1  -8 52.3016  2.9351   3
   2  -1   8 1694.78   29.00   3
   2  -1   8 1690.03   26.42   5
  -2  -1  -8 1722.92   27.89   1
   2  -1   8 1722.18   28.09   2
  -2   1  -8 1672.45   29.22   3
  -2   1  -8 1695.99   28.89   1
  -2   1  -8 1683.36   26.21   5
   3  -1   8 623.334  12.158   2
   3  -1   8 596.918  12.341   3
   3  -1   8 603.412  11.602   5
  -3  -1  -8 607.159  11.735   3
  -3  -1  -8 609.385  12.565   1
  -3   1  -8 605.834  12.779   3
  -3   1  -8 636.374  13.378   1
  -3   1  -8 617.068  11.664   5
  -4  -1  -8 1570.96   26.85   3
  -4  -1  -8 1567.34   27.02   1
  -4  -1  -8 1577.45   22.91   5
   4  -1   8 1609.05   27.55   3
   4  -1   8 1607.25   26.63   2
   4  -1   8 1589.49   25.36   5
  -4   1  -8 1482.89   27.77   3
  -4   1  -8 1545.16   25.36   5
  -4   1  -8 1560.35   27.62   1
  -5  -1  -8 198.384   6.544   1
   5  -1   8 194.272   5.789   5
   5  -1   8 204.196   5.747   2
  -5  -1  -8 189.789   5.886   3
  -5  -1  -8 193.494   4.684   5
   5  -1   8 186.511   5.746   3
  -5   1  -8 187.817   6.618   1
  -5   1  -8 191.792   6.504   3
  -5   1  -8 183.002   5.808   5
  -6  -1  -8 517.002  12.649   1
   6  -1   8 519.577  11.729   3
  -6  -1  -8 528.382  10.299   5
   6  -1   8 537.473  11.514   5
   6  -1   8 536.536  11.227   2
  -6  -1  -8 538.318  11.988   3
  -6   1  -8 522.791  11.834   5
  -6   1  -8 528.396  12.707   3
  -6   1  -8 526.431  12.764   1
  -7  -1  -8 303.620   9.355   1
  -7  -1  -8 308.535   7.629   5
  -7  -1  -8 307.268   8.863   3
  -7   1  -8 297.268   8.684   5
  -7   1  -8 306.015   9.266   3
  -7   1  -8 306.228   9.433   1
  -8  -1  -8 393.526  11.439   1
   8  -1   8 408.832  10.173   3
  -8  -1  -8 403.239   9.694   5
  -8   1  -8 400.036  11.429   1
  -8   1  -8 395.758  10.821   5
  -8   1  -8 374.489  11.018   3
  -9  -1  -8 304.896  10.320   1
   9  -1   8 321.818   8.910   3
  -9   1  -8 313.831   9.893   5
  -9   1  -8 313.709  10.276   1
  -9   1  -8 321.419  10.150   3
  10  -1   8 112.853   5.147   3
 -10  -1  -8 112.771   6.226   1
 -10   1  -8 115.892   6.328   3
 -10   1  -8 131.525   6.576   1
 -10   1  -8 109.407   5.410   2
 -11  -1  -8 1.44449 1.50830   1
 -11   1  -8 1.03446 1.38686   2
 -11   1  -8 4.55186 1.82350   1
 -11   1  -8 2.48772 2.24284   3
 -12  -1  -8 130.453   7.348   1
 -12   1  -8 127.491   7.043   3
 -12   1  -8 137.484   6.413   2
 -12   1  -8 121.400   6.913   1
 -13  -1  -8 94.8636  6.4603   1
 -13   1  -8 81.1782  6.0308   3
 -13   1  -8 88.0850  5.7284   2
 -13   1  -8 90.3667  6.1741   1
 -14  -1  -8 92.0449  5.8732   2
 -14  -1  -8 100.614   6.903   1
 -14   1  -8 98.1937  6.4711   1
 -14   1  -8 89.5305  5.8772   2
 -14   1  -8 82.9871  6.2876   3
 -15  -1  -8 16.2231  3.2913   2
 -15   1  -8 18.9682  3.7606   3
 -15  -2   8 49.2841  4.7776   2
 -14  -2   8 16.6175  3.2717   2
 -14  -2   8 19.4727  3.8405   1
  14   2  -8 17.2563  3.4511   1
 -14   2   8 12.5614  2.5940   3
 -13  -2   8 59.3635  4.5273   2
 -13   2   8 34.8608  3.6529   3
 -12  -2   8 60.6765  5.3116   1
 -12  -2   8 63.9696  4.5603   2
  12   2  -8 61.6076  5.4852   1
 -11  -2   8 303.616   9.700   2
 -11  -2   8 296.690  11.436   1
  11   2  -8 304.176  11.544   1
 -10  -2   8 23.3940  3.5840   1
 -10  -2   8 23.3966  2.4860   2
  10   2  -8 22.2929  3.5555   1
  -9  -2   8 222.397   7.390   2
   9   2  -8 232.735   9.309   1
  -8  -2   8 324.500   8.689   2
   8   2  -8 308.887  10.612   1
  -8   2   8 314.853   9.077   3
  -7  -2   8 1012.50   19.18   2
  -7   2   8 1040.99   21.57   5
  -7   2   8 1033.85   20.15   3
   7   2  -8 1010.08   21.98   1
  -6  -2   8 256.690   7.439   3
  -6  -2   8 255.836   6.842   2
  -6   2   8 267.802   7.247   3
   6   2  -8 265.292   9.059   1
  -6   2   8 252.339   8.481   5
  -5  -2   8 125.336   4.618   3
   5  -2  -8 125.878   5.173   3
  -5  -2   8 117.703   4.113   2
  -5   2   8 126.525   5.386   5
  -5   2   8 123.901   4.175   3
   5   2  -8 117.889   5.691   1
   4  -2  -8 676.997  13.899   3
  -4  -2   8 643.927  12.419   2
  -4  -2   8 648.919  13.228   3
   4   2  -8 659.795  15.190   1
   4   2  -8 662.394  12.815   4
  -4   2   8 650.607  12.116   3
  -4   2   8 639.442  13.778   5
  -3  -2   8 538.332  11.165   3
   3  -2  -8 538.975  11.348   3
  -3  -2   8 537.878  10.449   2
   3   2  -8 530.409  12.838   1
   3   2  -8 520.812  10.870   4
  -3   2   8 531.308  11.406   5
  -2  -2   8 3611.48   55.52   2
  -2  -2   8 3617.36   57.89   3
   2  -2  -8 3615.49   52.54   1
   2  -2  -8 3640.76   57.58   3
   2   2  -8 3588.90   51.10   4
  -2   2   8 3551.75   52.65   5
   2   2  -8 3527.10   56.95   1
   1  -2  -8 616.772  11.538   3
  -1  -2   8 615.430  11.563   2
  -1  -2   8 607.392  12.247   3
   1  -2  -8 609.901  10.865   1
   1  -2  -8 614.469  10.894   5
  -1  -2   8 604.446  12.705   5
  -1   2   8 616.310  11.295   5
   1   2  -8 602.429  13.646   1
   1   2  -8 615.331  11.913   4
   0  -2  -8 102.039   3.403   1
   0  -2   8 113.198   3.974   3
   0  -2  -8 112.765   3.076   5
   0  -2   8 109.030   3.653   2
   0  -2   8 110.428   4.399   5
   0   2  -8 108.353   2.803   3
   0   2  -8 111.168   4.154   4
   0   2  -8 103.947   4.724   1
   0   2  -8 106.320   2.666   3
   0   2   8 105.805   3.196   5
   1  -2   8 620.105  12.622   5
   1  -2   8 596.516  12.347   3
   1  -2   8 615.463  11.890   2
  -1  -2  -8 603.338   9.638   5
  -1  -2  -8 611.708  11.593   1
  -1   2  -8 599.941  11.140   3
  -1   2  -8 574.320  13.258   1
  -1   2  -8 603.788  11.931   4
   1   2   8 592.709   9.714   5
   2  -2   8 3536.25   55.19   2
   2  -2   8 3466.52   52.68   5
   2  -2   8 3504.54   57.10   3
  -2  -2  -8 3502.63   53.50   1
  -2   2  -8 3448.21   52.48   5
  -2   2  -8 3558.36   56.09   3
  -2   2  -8 3545.48   55.61   1
  -2   2  -8 3506.09   50.34   4
  -3  -2  -8 523.260  11.382   1
   3  -2   8 525.150  11.226   2
   3  -2   8 531.747  11.701   5
   3  -2   8 531.998  11.605   3
  -3   2  -8 527.112  11.030   3
  -3   2  -8 510.118  11.524   5
  -3   2  -8 513.585  12.298   1
   4  -2   8 655.785  13.789   5
  -4  -2  -8 647.270  13.844   1
  -4  -2  -8 659.477  10.642   5
   4  -2   8 642.000  13.727   3
   4  -2   8 633.994  13.447   2
  -4   2  -8 653.210  12.154   2
  -4   2  -8 645.300  14.570   1
  -4   2  -8 643.658  13.802   5
   5  -2   8 122.547   4.875   2
   5  -2   8 123.936   4.980   3
   5  -2   8 127.752   5.232   5
  -5  -2  -8 126.854   5.379   1
  -5   2  -8 124.999   4.986   3
  -5   2  -8 125.975   4.280   2
  -5   2  -8 124.046   5.487   1
  -5   2  -8 122.722   5.257   5
   6  -2   8 273.626   8.010   3
   6  -2   8 269.771   7.848   2
  -6  -2  -8 259.535   8.443   1
  -6   2  -8 244.987   7.769   3
  -6   2  -8 271.982   7.019   2
  -6   2  -8 261.319   8.604   1
  -6   2  -8 259.699   8.369   5
   7  -2   8 1045.31   20.15   2
  -7  -2  -8 1006.62   21.22   1
   7  -2   8 1029.29   20.74   3
  -7   2  -8 1012.45   20.74   3
  -7   2  -8 990.400  20.643   5
  -7   2  -8 1032.66   21.42   1
  -7   2  -8 999.823  19.054   2
   8  -2   8 327.311   9.163   2
  -8  -2  -8 310.701  10.347   1
   8  -2   8 319.191   9.478   3
  -8   2  -8 319.503   9.652   3
  -8   2  -8 314.770  10.167   5
  -8   2  -8 323.870  10.332   1
  -8   2  -8 310.599   8.577   2
   9  -2   8 235.410   8.050   3
  -9  -2  -8 222.544   8.909   1
  -9   2  -8 206.588   7.872   3
  -9   2  -8 226.553   7.388   2
  -9   2  -8 223.705   8.630   1
 -10  -2  -8 24.8753  3.6753   1
  10  -2   8 23.9338  3.3303   3
 -10   2  -8 23.0288  3.4077   1
 -10   2  -8 25.5675  3.6191   3
 -11  -2  -8 302.088  11.408   1
  11  -2   8 302.516   9.911   3
 -11   2  -8 306.060  10.478   3
 -11   2  -8 308.015  11.021   1
 -12  -2  -8 59.4461  5.1670   1
  12  -2   8 57.8052  4.7003   3
 -12   2  -8 64.4839  4.8773   3
 -12   2  -8 74.7980  5.5101   1
 -13  -2  -8 174.157   9.136   1
 -13   2  -8 178.821   8.376   3
 -14   2  -8 17.8162  3.3334   3
 -14  -3   8 53.3089  4.6038   2
 -14   3   8 59.7014  4.3949   3
 -13  -3   8 6.44111 1.94107   2
 -13  -3   8 4.04336 1.86241   1
  13   3  -8 3.80544 2.54353   1
 -13   3   8 5.75715 2.06688   3
 -12  -3   8 36.1456  3.7526   2
 -12  -3   8 43.4418  4.7645   1
  12   3  -8 42.9077  5.7424   1
 -12   3   8 40.4885  3.5782   3
 -11  -3   8 86.4103  4.9887   2
 -11  -3   8 90.3604  6.6329   1
  11   3  -8 82.5819  6.3495   1
 -11   3   8 81.5130  4.5325   3
 -10  -3   8 56.6422  3.9284   2
 -10  -3   8 56.0490  5.0390   1
 -10   3   8 57.1725  3.5741   3
  10   3  -8 53.4341  5.1559   1
  -9  -3   8 2.28982 1.35597   2
  -9   3   8 3.63940 1.39424   3
   9   3  -8 0.79805 1.65640   1
  -8  -3   8 186.695   6.075   2
   8  -3  -8 184.465   7.732   3
   8   3  -8 185.161   8.624   1
  -8   3   8 195.383   5.584   3
   7  -3  -8 1.63168 1.90747   3
  -7  -3   8 2.68522 0.97862   2
  -7   3   8 0.51972 0.74279   3
   7   3  -8 -0.2038  1.2916   1
  -6  -3   8 50.5111  2.5995   2
   6  -3  -8 40.3871  3.7184   3
  -6   3   8 50.1678  3.8461   5
   6   3  -8 51.7771  4.3692   1
   5  -3  -8 29.9250  3.1166   3
  -5  -3   8 28.3119  1.9760   2
  -5   3   8 29.0540  2.8397   5
   5   3  -8 27.5542  2.7140   4
   5   3  -8 29.2491  3.3134   1
  -4  -3   8 1346.83   22.27   2
   4  -3  -8 1388.84   24.80   3
   4  -3  -8 1328.22   23.65   2
   4   3  -8 1322.13   23.23   4
  -4   3   8 1380.62   24.94   5
   4   3  -8 1331.61   26.82   1
   3  -3  -8 202.064   6.365   5
   3  -3  -8 204.374   5.529   2
  -3  -3   8 203.522   4.924   2
   3   3  -8 204.190   7.797   1
  -3   3   8 204.915   6.794   5
   3   3  -8 196.744   6.553   4
  -2  -3   8 543.086  10.058   2
   2  -3  -8 530.348   9.980   2
   2  -3  -8 535.318  11.311   5
  -2   3   8 523.150  11.692   5
   2   3  -8 539.639  13.610   1
   2   3  -8 530.339  11.913   4
   1  -3  -8 204.512   5.815   5
   1  -3  -8 211.155   4.769   1
  -1  -3   8 207.717   5.178   2
   1   3  -8 217.411   7.711   1
   1   3  -8 205.667   6.627   4
  -1   3   8 214.813   6.231   5
  -1   3   8 210.206   4.870   4
   0  -3   8 490.699   9.864   2
   0  -3  -8 495.373   9.888   5
   0  -3   8 493.068  10.574   3
   0  -3  -8 481.703   9.483   1
   0   3   8 499.195   8.395   4
   0   3   8 490.390  10.120   5
   0   3  -8 488.444  11.241   4
   0   3  -8 491.827  12.488   1
  -1  -3  -8 206.112   5.668   1
   1  -3   8 212.800   6.102   3
  -1  -3  -8 211.859   5.302   5
   1  -3   8 207.618   5.722   2
   1   3   8 209.840   4.380   4
  -1   3  -8 204.464   7.345   1
  -1   3  -8 207.810   6.778   4
   2  -3   8 513.209  11.054   2
  -2  -3  -8 529.305  11.177   1
   2  -3   8 533.636  11.626   3
  -2  -3  -8 525.162   9.787   5
  -2   3  -8 516.583  12.767   1
  -2   3  -8 519.238  12.032   4
  -2   3  -8 514.799  12.460   5
   3  -3   8 205.284   6.247   2
  -3  -3  -8 203.952   5.099   5
   3  -3   8 203.150   6.384   3
  -3  -3  -8 196.204   6.354   1
  -3   3  -8 201.107   7.274   1
  -3   3  -8 204.556   7.249   5
  -4  -3  -8 1346.19   21.41   5
  -4  -3  -8 1343.65   24.72   1
   4  -3   8 1349.55   24.65   2
   4  -3   8 1366.07   25.26   3
  -4   3  -8 1319.96   25.26   5
  -4   3  -8 1350.02   25.78   1
  -4   3  -8 1360.38   22.78   3
   5  -3   8 28.1060  2.6870   2
   5  -3   8 22.6568  2.6280   3
  -5  -3  -8 30.1821  2.8584   1
  -5   3  -8 29.2649  2.9002   1
  -5   3  -8 24.7580  2.3157   3
  -5   3  -8 27.3493  2.8348   5
  -6  -3  -8 51.1345  3.8174   1
   6  -3   8 49.7989  3.6865   3
   6  -3   8 50.6656  3.6971   2
  -6   3  -8 47.3759  3.6625   1
  -6   3  -8 44.6870  3.6993   5
  -6   3  -8 44.5617  3.0797   3
  -7  -3  -8 1.05484 1.34561   1
   7  -3   8 0.24643 1.54900   3
   7  -3   8 -2.2335  1.3440   2
  -7   3  -8 1.54852 1.09529   5
  -7   3  -8 0.41391 1.35908   3
  -7   3  -8 7.87790 1.84524   1
   8  -3   8 195.611   7.677   3
   8  -3   8 203.691   7.573   2
  -8  -3  -8 195.237   8.237   1
  -8   3  -8 171.730   7.599   1
  -8   3  -8 182.192   6.724   3
   9  -3   8 3.43773 2.29870   3
   9  -3   8 5.61525 2.16447   2
  -9  -3  -8 4.65309 1.96023   1
  -9   3  -8 6.02548 1.94169   1
  -9   3  -8 0.30001 1.61422   3
  10  -3   8 61.0620  4.9335   3
 -10  -3  -8 56.6954  4.9235   1
 -10   3  -8 53.6356  4.1729   3
 -10   3  -8 60.5914  4.8948   1
  11  -3   8 76.2251  5.2142   3
 -11  -3  -8 76.9658  5.9781   1
 -11   3  -8 76.4519  4.9942   3
  12  -3   8 37.4600  4.3784   3
 -12  -3  -8 41.9694  4.5518   1
 -12   3  -8 37.8803  3.8794   3
  13  -3   8 1.81770 2.44893   3
 -13   3  -8 5.30092 2.22096   3
  14  -3   8 42.5715  5.0671   3
 -14   3  -8 55.9353  4.7120   3
 -13  -4   8 32.1043  4.1811   2
 -12  -4   8 27.8683  3.7201   2
 -11  -4   8 268.766  12.149   1
 -11  -4   8 273.500   9.121   2
  11   4  -8 289.631  12.586   1
  10  -4  -8 125.973   7.439   3
 -10  -4   8 120.180   5.348   2
 -10  -4   8 121.394   7.693   1
  10   4  -8 109.734   7.660   1
  -9  -4   8 225.326   7.128   2
   9  -4  -8 240.858   9.519   3
   9   4  -8 219.943  10.393   1
  -8  -4   8 13.5991  1.9788   2
   8  -4  -8 12.4690  2.9098   3
   8   4  -8 5.03989 2.33148   1
  -7  -4   8 100.966   3.938   2
   7   4  -8 93.0751  6.3706   1
   6  -4  -8 504.147  12.318   2
  -6  -4   8 508.460  10.088   2
   6   4  -8 483.436  14.965   1
   6   4  -8 505.080  12.768   4
   5  -4  -8 114.791   4.927   2
  -5  -4   8 111.710   3.467   2
   5   4  -8 105.418   6.375   1
   5   4  -8 114.799   5.625   4
  -5   4   8 116.034   6.029   5
   4  -4  -8 92.1641  4.0245   2
   4   4  -8 89.9834  5.7515   1
  -4   4   8 92.6933  5.1988   5
   4   4  -8 103.382   5.245   4
  -3  -4   8 380.022   7.173   2
   3  -4  -8 366.684   8.278   2
  -3   4   8 374.697  10.695   5
   3   4  -8 369.730  11.808   1
   3   4  -8 364.230  10.339   4
   2  -4  -8 481.929   8.997   2
  -2  -4   8 493.326   9.064   2
  -2   4   8 509.859  10.327   4
   2   4  -8 482.414  13.708   1
  -2   4   8 469.610  11.957   5
   2   4  -8 482.830  12.256   4
  -1  -4   8 31.0908  1.8889   2
   1  -4  -8 34.5563  2.4733   5
   1   4  -8 35.4500  3.4197   1
  -1   4   8 28.3624  2.5931   5
  -1   4   8 31.6043  2.2717   4
   1   4  -8 33.5213  3.1685   4
   0  -4  -8 630.726  13.093   5
   0  -4   8 638.038  12.143   2
   0  -4  -8 631.812  11.941   1
   0   4   8 642.015  13.513   5
   0   4  -8 654.991  15.857   1
   0   4   8 648.500  11.599   4
   0   4  -8 620.269  14.457   4
   1  -4   8 29.1320  2.2208   2
  -1  -4  -8 30.9122  2.2671   5
  -1  -4  -8 38.2531  2.3821   1
  -1   4  -8 29.2248  3.0467   1
  -1   4  -8 32.1873  3.1745   4
   2  -4   8 481.551  10.727   2
  -2  -4  -8 477.788  10.946   1
  -2   4  -8 478.815  12.876   1
  -2   4  -8 481.658  13.058   5
  -2   4  -8 485.125  12.586   4
  -3  -4  -8 380.773   9.963   1
   3  -4   8 377.679   9.608   2
  -3   4  -8 367.192  10.984   1
  -3   4  -8 359.623  11.197   5
  -3   4  -8 385.480  11.129   4
  -4  -4  -8 89.7203  4.7178   1
   4  -4   8 90.2959  4.5022   2
  -4   4  -8 93.4555  5.4080   4
  -4   4  -8 98.5015  5.2288   1
   5  -4   8 115.866   5.413   2
  -5  -4  -8 116.858   5.751   1
   5  -4   8 120.341   5.505   3
  -5   4  -8 103.239   5.534   1
   6  -4   8 504.069  13.027   3
  -6  -4  -8 487.959  13.512   1
  -6   4  -8 495.979  13.528   1
   7  -4   8 96.3662  5.4241   3
   7  -4   8 97.0783  5.5112   2
  -7  -4  -8 98.5732  5.8414   1
  -7   4  -8 91.5386  5.4555   1
   8  -4   8 10.9012  2.7446   2
   8  -4   8 12.3911  2.9150   3
  -8  -4  -8 11.8640  2.7752   1
  -9  -4  -8 236.327   9.957   1
   9  -4   8 239.129   9.113   2
   9  -4   8 229.591   9.252   3
  10  -4   8 107.230   6.264   2
 -10  -4  -8 108.456   6.947   1
  10  -4   8 108.337   6.664   3
 -10   4  -8 113.325   4.577   3
  11  -4   8 273.666  10.879   3
 -11  -4  -8 264.990  11.564   1
 -11   4  -8 271.289   7.987   3
  12  -4   8 25.2799  4.4231   3
  13  -4   8 31.9684  3.7788   3
 -12  -5   8 18.6879  3.2465   2
  11  -5  -8 48.6425  5.6094   3
 -11  -5   8 57.2555  4.1684   2
 -10  -5   8 32.1597  2.6837   2
 -10  -5   8 22.6418  3.9792   1
  10   5  -8 17.0771  3.8589   1
  -9  -5   8 4.03128 1.35508   2
  -9  -5   8 1.03485 2.08470   1
   9   5  -8 2.14336 2.35408   1
   8   5  -8 118.040   7.659   1
   7  -5  -8 15.9805  2.6976   2
   7   5  -8 13.5826  3.1563   1
   6  -5  -8 70.8789  4.4393   2
   6   5  -8 61.7035  5.5210   1
   6   5  -8 66.2605  4.7780   4
   5  -5  -8 171.566   6.384   2
   5   5  -8 175.533   8.822   1
   5   5  -8 172.188   7.508   4
   4  -5  -8 181.202   5.988   2
   4   5  -8 168.963   8.421   1
   4   5  -8 183.979   7.654   4
   3  -5  -8 45.8770  2.6775   2
   3   5  -8 48.4476  4.3828   1
   3   5  -8 45.9307  3.9868   4
  -3   5   8 44.1589  3.7941   5
   2   5  -8 220.485   9.337   1
  -2   5   8 241.112   8.645   5
   2   5  -8 230.792   8.742   4
   1   5  -8 33.5618  4.0222   4
   1   5  -8 23.6218  3.4571   1
  -1   5   8 31.9102  3.1988   5
   0  -5   8 189.562   5.300   2
   0   5  -8 175.108   7.659   4
   0   5  -8 190.032   8.128   1
   1  -5   8 27.6951  2.3495   2
  -1   5  -8 28.1031  3.1837   1
  -1   5  -8 33.2305  4.1188   4
   2  -5   8 225.098   6.865   2
  -2   5  -8 240.493   9.039   1
  -2   5  -8 223.820   8.842   4
  -3  -5  -8 40.4247  3.2464   1
   3  -5   8 39.9856  3.1781   2
  -3   5  -8 42.2662  3.9931   4
  -3   5  -8 51.8823  4.1208   1
  -4  -5  -8 183.289   7.246   1
   4  -5   8 187.472   6.909   2
  -4   5  -8 167.663   7.642   1
  -4   5  -8 187.900   8.404   4
   5  -5   8 177.399   7.022   2
  -5  -5  -8 172.207   7.406   1
  -5   5  -8 170.918   7.588   1
  -5   5  -8 189.619   8.610   4
   6  -5   8 69.0333  4.6700   2
  -6  -5  -8 69.7650  4.9920   1
  -7  -5  -8 12.2655  2.7943   1
   7  -5   8 1.42759 1.42248   2
   8  -5   8 119.442   6.379   3
   8  -5   8 102.543   6.215   2
  -8  -5  -8 95.9302  6.4890   1
   9  -5   8 1.47667 2.32368   2
  -9  -5  -8 -1.3664  1.6982   1
   9  -5   8 3.31572 2.19969   3
 -10  -5  -8 17.3167  3.5382   1
  10  -5   8 19.3133  3.8423   2
  10  -5   8 22.7644  4.3555   3
  11  -5   8 41.5924  4.7526   2
  11  -5   8 48.9928  5.4489   3
  12  -5   8 5.29281 3.09938   3
   8  -6  -8 21.1893  3.4444   2
   8   6  -8 17.7212  3.9842   1
   7  -6  -8 324.704  10.652   2
   7   6  -8 344.431  13.899   1
   6  -6  -8 2.20975 2.10409   2
   6   6  -8 3.21037 2.16322   4
   6   6  -8 4.74751 2.03775   1
   5  -6  -8 4.05910 1.97580   2
   5   6  -8 -0.0380  2.2640   1
   5   6  -8 8.59133 2.52667   4
   4  -6  -8 12.3308  2.3053   2
   4   6  -8 12.9312  3.2662   1
   4   6  -8 12.6844  2.9143   4
   3   6  -8 224.877   9.261   4
   3   6  -8 215.160   9.938   1
   2   6  -8 9.44838 2.71492   4
   2   6  -8 13.6374  2.9869   1
   1   6  -8 9.20861 2.44429   1
   1   6  -8 4.94094 2.31766   4
   0   6  -8 104.892   6.369   4
   0   6  -8 91.4944  6.1537   1
   1  -6   8 9.62543 1.96044   2
  -1   6  -8 9.05732 2.66576   4
  -1   6  -8 14.5368  2.8650   1
   2  -6   8 11.5607  2.2434   2
  -2   6  -8 9.51845 2.82533   4
  -2   6  -8 18.8435  3.3010   1
   3  -6   8 210.163   7.538   2
  -3   6  -8 210.564   9.477   4
   4  -6   8 13.0757  2.7490   2
  -4   6  -8 13.2947  3.4975   4
   5  -6   8 7.89307 2.45667   2
  -5   6  -8 13.2259  3.3714   4
   6  -6   8 5.87384 1.96174   2
  -6  -6  -8 0.37056 1.47687   1
  -6   6  -8 5.24820 2.77233   4
   7  -6   8 316.987  11.183   2
  -7  -6  -8 328.211  11.993   1
  -7   6  -8 307.474  12.674   4
  -8  -6  -8 23.2577  4.0155   1
   8  -6   8 20.9861  3.6745   2
  -8   6  -8 22.9593  4.4799   4
   9  -6   8 120.371   7.446   2
  -9  -6  -8 124.087   7.725   1
  10  -6   8 0.85216 2.39806   2
   8  -7  -8 9.11554 3.26235   2
   7  -7  -8 110.743   6.712   2
   6  -7  -8 185.177   7.887   2
   6   7  -8 180.935   8.881   4
   5  -7  -8 24.6738  3.6750   2
   5   7  -8 29.5554  4.5267   4
   5   7  -8 33.3126  5.0905   1
   4  -7  -8 17.8680  2.7318   2
   4   7  -8 7.90813 2.92012   4
   4   7  -8 11.0132  3.3710   1
   3   7  -8 9.91950 3.17547   4
   3   7  -8 5.70990 2.55829   1
   2   7  -8 87.5142  6.6840   1
   2   7  -8 80.8710  6.2568   4
   1   7  -8 82.9973  6.2956   1
   1   7  -8 77.2953  6.2321   4
   0   7  -8 599.519  17.497   4
   1  -7   8 87.5530  4.4865   2
  -1   7  -8 74.2390  6.0892   4
   2  -7   8 87.5696  4.9363   2
  -2   7  -8 102.295   7.037   4
   3  -7   8 9.58216 2.65850   2
  -3   7  -8 7.93227 3.05281   4
   4  -7   8 10.2652  2.8421   2
  -4   7  -8 10.8528  3.2179   4
   5  -7   8 29.3139  4.2782   2
  -5   7  -8 33.2318  5.1085   4
   6  -7   8 187.304   8.672   2
  -6   7  -8 171.278   9.710   4
   7  -7   8 111.655   6.692   2
  -7   7  -8 114.002   7.934   4
   8  -7   8 14.7114  3.5735   2
   2   8  -8 9.78059 3.02661   4
   1   8  -8 6.52273 2.96725   4
   0   8  -8 24.0374  4.4207   4
  -1   8  -8 2.82241 2.55350   4
   2  -8   8 11.2733  2.6177   2
  -2   8  -8 8.07901 2.83489   4
   3  -8   8 28.7538  4.1952   2
   4  -8   8 8.10034 3.10855   2
 -15   0   9 92.1395  6.6201   3
 -14   0   9 7.52299 2.49544   2
 -14   0   9 0.01481 2.09607   3
 -13   0   9 43.1459  4.6399   3
 -13   0   9 40.2721  4.0385   2
 -12   0   9 27.3642  4.0484   3
 -12   0   9 21.7271  3.3113   2
  11   0  -9 7.85144 2.33502   3
 -11   0   9 5.77418 1.96067   2
 -11   0   9 4.47166 2.01664   3
  10   0  -9 26.2709  3.1881   3
 -10   0   9 20.9700  2.9324   2
 -10   0   9 27.3881  3.6123   3
 -10   0   9 28.5342  2.9588   1
  10   0  -9 21.8318  3.1432   1
  -9   0   9 36.4840  3.0800   1
  -9   0   9 36.9334  3.1998   2
   9   0  -9 35.3228  3.2358   1
  -9   0   9 39.3762  3.5764   3
   8   0  -9 91.9241  4.7453   1
  -8   0   9 83.2662  4.7731   3
  -8   0   9 86.2211  4.3979   2
  -7   0   9 107.736   5.168   3
   7   0  -9 116.910   5.168   1
  -7   0   9 116.176   4.910   2
  -6   0   9 29.3351  2.6972   3
   6   0  -9 25.0224  2.4954   1
  -6   0   9 32.7927  2.5111   2
  -5   0   9 663.544  14.288   3
  -5   0   9 645.072  13.365   2
   5   0  -9 655.351  13.713   1
  -4   0   9 290.900   7.332   2
  -4   0   9 299.795   7.948   3
   4   0  -9 287.441   7.689   1
  -3   0   9 1556.62   27.76   3
   3   0  -9 1561.65   26.56   1
  -3   0   9 1611.61   26.58   2
  -2   0   9 1.70802 0.90691   3
   2   0  -9 5.34856 1.46249   3
  -2   0   9 2.23284 0.91888   2
   2   0  -9 0.70423 0.82607   1
   1   0  -9 47.7482  2.8894   3
   1   0  -9 47.5081  2.7338   1
  -1   0   9 46.2106  2.4740   3
   1   0  -9 46.8456  1.7728   4
  -1   0   9 45.9874  2.2280   2
   0   0  -9 1.74929 0.61850   4
   0   0  -9 -2.4858  0.9512   3
   0   0   9 0.96049 0.72511   2
   1   0   9 43.4024  2.2153   3
  -1   0  -9 42.5467  1.7767   4
  -1   0  -9 43.9791  2.7301   1
   1   0   9 47.7466  1.8053   5
  -1   0  -9 45.3883  2.8982   3
   2   0   9 0.10564 0.48637   3
  -2   0  -9 0.05012 1.16530   3
  -2   0  -9 2.30173 0.92844   1
   2   0   9 1.00933 0.47071   5
  -3   0  -9 1543.45   22.90   5
  -3   0  -9 1525.53   27.35   3
   3   0   9 1558.97   22.89   5
  -3   0  -9 1540.80   26.87   1
   3   0   9 1568.06   26.15   3
  -4   0  -9 282.198   7.819   3
  -4   0  -9 275.305   8.065   1
  -4   0  -9 285.356   6.073   5
   4   0   9 283.142   6.584   3
   4   0   9 279.913   5.834   5
  -5   0  -9 661.704  12.105   5
  -5   0  -9 650.530  14.580   1
  -5   0  -9 648.774  14.331   3
   5   0   9 673.300  12.670   3
  -6   0  -9 29.5981  2.1118   5
  -6   0  -9 26.4630  3.2038   3
   6   0   9 28.2750  2.1706   3
  -6   0  -9 30.7711  2.7678   1
  -7   0  -9 100.233   5.342   3
   7   0   9 106.159   3.752   3
  -7   0  -9 110.201   5.398   1
  -7   0  -9 109.637   4.424   5
  -8   0  -9 81.7046  5.1412   3
  -8   0  -9 87.0502  4.2444   5
  -8   0  -9 93.7994  5.1270   1
  -9   0  -9 36.6652  3.4586   1
  -9   0  -9 33.6943  3.6964   3
 -10   0  -9 23.0693  3.4647   1
 -10   0  -9 27.6281  3.9782   3
 -11   0  -9 7.81089 2.19250   1
 -11   0  -9 2.69618 2.39069   3
 -12   0  -9 26.3026  3.9706   1
 -12   0  -9 30.9970  4.3257   3
 -13   0  -9 43.9455  4.3470   1
 -13   0  -9 39.3220  4.5190   3
 -13   0  -9 42.5879  4.0978   2
 -14   0  -9 6.81274 2.73129   3
 -14   0  -9 1.93228 1.51928   1
 -14   0  -9 4.78383 2.39527   2
 -15   0  -9 95.3845  6.3663   2
 -15   0  -9 91.3849  6.6131   3
 -15  -1   9 46.0323  4.7368   3
 -15  -1   9 41.6968  4.4988   2
 -15   1   9 42.5012  4.1035   3
 -14  -1   9 466.692  15.445   3
 -14  -1   9 479.556  14.721   2
 -14   1   9 492.399  15.463   3
 -13  -1   9 39.7597  4.1554   3
 -13  -1   9 36.1707  3.9341   2
 -13   1   9 35.6702  4.1599   3
 -12  -1   9 107.723   6.199   3
 -12  -1   9 111.994   6.595   1
 -12  -1   9 100.173   5.908   2
 -12   1   9 99.2435  6.1821   3
  12   1  -9 103.288   6.493   1
 -11  -1   9 16.5331  2.8970   2
 -11  -1   9 16.7988  2.9326   3
 -11  -1   9 19.3008  3.2566   1
  11   1  -9 14.7836  3.0670   1
 -11   1   9 20.0833  3.4337   3
 -10  -1   9 1250.72   26.48   1
 -10  -1   9 1274.53   26.62   3
 -10  -1   9 1280.09   25.45   2
  10   1  -9 1274.58   26.36   1
 -10   1   9 1267.48   25.01   2
 -10   1   9 1272.48   26.64   3
  -9  -1   9 37.8905  3.5048   1
  -9  -1   9 29.3806  3.1942   3
  -9  -1   9 29.5172  2.9491   2
  -9   1   9 34.2949  3.1221   2
   9   1  -9 29.2201  3.7137   1
  -9   1   9 33.3640  3.2843   3
  -8  -1   9 293.194   9.153   3
  -8   1   9 300.892   8.596   2
  -8   1   9 284.134   9.065   3
   8   1  -9 293.500   9.656   1
   8   1  -9 291.572   6.313   3
   7  -1  -9 149.389   5.055   1
  -7  -1   9 144.217   5.864   3
   7   1  -9 143.449   4.537   3
  -7   1   9 151.107   5.444   2
  -7   1   9 146.427   5.982   3
  -7   1   9 147.077   6.340   5
   7   1  -9 156.305   6.518   1
  -7   1   9 147.742   5.073   1
  -6  -1   9 152.502   5.737   3
  -6  -1   9 139.808   5.139   2
   6  -1  -9 154.335   4.861   1
   6   1  -9 151.087   4.713   3
  -6   1   9 153.612   6.121   5
   6   1  -9 142.560   6.082   1
  -6   1   9 151.014   5.679   3
  -6   1   9 149.314   5.114   2
  -5  -1   9 254.321   6.978   2
  -5  -1   9 259.994   7.570   3
   5  -1  -9 247.068   6.395   1
  -5   1   9 263.954   6.806   2
  -5   1   9 269.396   7.848   5
  -5   1   9 256.655   7.388   3
   5   1  -9 253.548   6.558   3
   5   1  -9 263.089   8.216   1
  -4  -1   9 108.686   4.424   3
  -4  -1   9 116.453   4.245   2
   4  -1  -9 120.673   3.936   1
   4   1  -9 115.754   5.053   1
  -4   1   9 112.678   4.495   5
  -4   1   9 116.154   3.843   2
  -4   1   9 105.159   4.167   3
   4   1  -9 111.313   4.053   3
   3  -1  -9 9.67063 1.31467   1
  -3  -1   9 11.9562  1.7291   3
  -3  -1   9 8.24506 1.35984   2
   3   1  -9 13.5143  1.5899   4
   3   1  -9 11.2763  1.8756   1
   3   1  -9 15.8563  1.9127   3
  -3   1   9 11.3194  1.5617   5
  -2  -1   9 750.421  14.968   3
   2  -1  -9 758.528  13.701   1
   2   1  -9 746.808  12.898   4
  -2   1   9 748.221  13.327   5
  -2   1   9 767.159  14.115   3
   2   1  -9 762.791  15.548   1
   2   1  -9 761.685  14.510   3
  -1  -1   9 489.968  10.646   3
  -1  -1   9 487.256  10.065   2
   1  -1  -9 495.940  10.002   1
  -1   1   9 478.918   8.835   5
  -1   1   9 495.542   9.439   3
   1   1  -9 493.888   9.307   4
   1   1  -9 495.847  11.336   1
   0  -1   9 906.484  15.870   5
   0  -1   9 937.152  16.657   2
   0  -1   9 917.310  17.286   3
   0  -1  -9 916.899  16.431   1
   0   1  -9 907.405  17.764   1
   0   1  -9 925.105  17.216   3
   0   1   9 930.652  13.963   5
   0   1  -9 915.212  14.968   4
   0   1   9 918.436  15.376   3
  -1  -1  -9 489.283  10.413   1
   1  -1   9 499.008  10.626   3
   1  -1   9 493.585  10.191   2
   1  -1   9 495.636   9.844   5
  -1   1  -9 493.938   9.414   4
  -1   1  -9 485.071  11.335   1
  -1   1  -9 478.446  10.660   3
   2  -1   9 749.210  13.570   5
   2  -1   9 750.635  14.265   2
  -2  -1  -9 751.846  14.646   1
   2  -1   9 746.195  14.723   3
  -2   1  -9 737.990  15.022   3
  -2   1  -9 766.480  13.438   5
  -2   1  -9 761.646  15.604   1
  -3  -1  -9 9.21255 1.59468   1
   3  -1   9 12.5582  1.3699   5
   3  -1   9 11.5260  1.6751   3
  -3  -1  -9 13.6921  1.7941   3
   3  -1   9 9.26120 1.52123   2
  -3   1  -9 12.6919  1.3585   5
  -3   1  -9 13.3728  2.0644   1
  -3   1  -9 11.4364  2.0887   3
  -4  -1  -9 114.086   4.719   1
  -4  -1  -9 113.090   4.377   3
   4  -1   9 112.309   4.183   2
   4  -1   9 115.187   4.170   5
   4  -1   9 111.104   4.313   3
  -4   1  -9 112.275   4.090   5
  -4   1  -9 108.753   4.788   3
  -4   1  -9 114.671   5.079   1
   5  -1   9 255.642   6.870   5
   5  -1   9 266.324   6.931   2
  -5  -1  -9 247.083   7.760   1
  -5  -1  -9 255.386   7.289   3
   5  -1   9 251.758   7.047   3
  -5  -1  -9 261.255   5.501   5
  -5   1  -9 257.818   7.890   3
  -5   1  -9 245.950   8.025   1
  -5   1  -9 253.718   7.039   5
  -6  -1  -9 150.864   4.383   5
   6  -1   9 148.727   5.363   3
  -6  -1  -9 147.415   5.650   3
   6  -1   9 152.677   5.275   5
  -6  -1  -9 143.724   5.972   1
   6  -1   9 158.281   5.116   2
  -6   1  -9 142.794   6.137   1
  -6   1  -9 145.229   5.395   5
  -6   1  -9 147.335   6.129   3
  -7  -1  -9 143.892   4.774   5
  -7  -1  -9 146.451   6.293   1
  -7   1  -9 138.711   5.599   5
  -7   1  -9 147.979   6.471   3
  -7   1  -9 147.229   6.366   1
  -8  -1  -9 281.961   9.512   1
   8  -1   9 281.101   8.217   3
  -8   1  -9 284.517   9.371   3
  -8   1  -9 290.568   9.667   1
  -8   1  -9 294.026   8.988   5
  -9  -1  -9 31.2156  3.1434   1
   9  -1   9 28.7243  3.0323   3
  -9   1  -9 30.8873  4.0192   3
  -9   1  -9 31.7029  3.3809   1
  -9   1  -9 31.5461  3.0866   5
 -10  -1  -9 1176.85   25.80   1
  10  -1   9 1243.09   23.29   3
 -10   1  -9 1234.45   26.04   1
 -10   1  -9 1190.67   25.61   3
  11  -1   9 12.6801  2.6103   3
 -11  -1  -9 14.9051  3.1556   1
 -11   1  -9 13.8365  2.5729   2
 -11   1  -9 19.6114  3.4089   1
 -11   1  -9 16.0085  3.3044   3
 -12  -1  -9 114.272   6.927   1
 -12   1  -9 92.7190  6.2489   1
 -12   1  -9 104.128   5.697   2
 -12   1  -9 106.193   6.656   3
 -13  -1  -9 44.9761  4.4587   1
 -13   1  -9 41.8228  4.3646   1
 -13   1  -9 41.9601  4.0860   2
 -13   1  -9 39.9370  5.2038   3
 -14   1  -9 473.306  15.325   3
 -14   1  -9 469.496  13.961   2
 -14   1  -9 460.209  15.446   1
 -15  -1  -9 35.7784  4.1147   2
 -15   1  -9 45.0965  4.7558   3
 -14  -2   9 194.536   8.945   2
 -14   2   9 202.112   8.821   3
  14   2  -9 201.929  10.110   1
 -13  -2   9 96.1198  5.8816   2
 -13  -2   9 104.487   6.987   1
 -13   2   9 80.6214  5.4441   3
  13   2  -9 103.901   7.212   1
 -12  -2   9 22.4085  3.3960   2
 -12  -2   9 24.8520  4.0436   1
  12   2  -9 24.5373  4.2513   1
 -11  -2   9 174.397   7.272   2
 -11  -2   9 177.167   8.772   1
  11   2  -9 164.572   8.400   1
 -10  -2   9 21.3781  3.6004   1
 -10  -2   9 27.2117  2.8042   2
  10   2  -9 21.4189  3.5764   1
 -10   2   9 23.1156  2.6879   3
  -9  -2   9 194.747   7.083   2
   9   2  -9 194.558   8.546   1
  -9   2   9 200.247   7.292   3
  -8  -2   9 421.313  10.700   2
  -8   2   9 417.709  10.966   3
   8   2  -9 417.936  12.823   1
  -7  -2   9 171.005   5.877   2
  -7   2   9 166.841   5.949   3
   7   2  -9 154.656   7.180   1
  -7   2   9 165.995   7.098   5
  -6  -2   9 65.1602  3.7362   3
  -6  -2   9 61.5135  3.3250   2
   6   2  -9 62.3167  4.4037   1
  -6   2   9 62.3741  4.1053   5
  -6   2   9 67.8575  3.4271   3
  -5  -2   9 250.690   7.270   3
  -5  -2   9 244.708   6.730   2
   5   2  -9 261.310   8.853   1
  -5   2   9 250.314   7.998   5
  -5   2   9 255.837   6.601   3
  -4  -2   9 571.221  11.562   2
  -4  -2   9 576.209  12.363   3
  -4   2   9 550.408  12.493   5
  -4   2   9 569.531  10.844   3
   4   2  -9 559.577  11.617   4
   4   2  -9 560.439  13.960   1
   3  -2  -9 1330.13   20.45   1
   3  -2  -9 1340.41   23.84   3
  -3  -2   9 1318.14   22.66   2
  -3  -2   9 1363.16   23.90   3
   3   2  -9 1287.76   21.66   4
  -3   2   9 1307.58   22.63   5
  -3   2   9 1298.26   21.05   3
   3   2  -9 1302.40   25.08   1
   2  -2  -9 477.588   8.898   1
   2  -2  -9 477.465  10.240   3
  -2  -2   9 484.783   9.982   2
  -2  -2   9 483.100  10.576   3
  -2   2   9 472.220   9.940   5
   2   2  -9 459.107  10.123   4
   2   2  -9 474.907  12.037   1
  -1  -2   9 329.787   8.091   3
  -1  -2   9 321.423   8.532   5
  -1  -2   9 320.697   7.576   2
   1  -2  -9 327.981   7.489   3
   1  -2  -9 328.963   7.072   1
  -1   2   9 343.332   7.293   5
   1   2  -9 326.377   7.920   4
   1   2  -9 344.796   6.167   3
   1   2  -9 331.179   9.413   1
   0  -2   9 419.884   9.222   2
   0  -2  -9 425.483   8.848   1
   0  -2   9 420.561   9.999   5
   0  -2   9 431.194   9.784   3
   0   2  -9 406.506  10.784   1
   0   2   9 424.002   7.943   5
   0   2  -9 441.217   9.502   4
   0   2  -9 426.825   8.338   3
   1  -2   9 336.633   8.309   3
   1  -2   9 339.613   7.972   2
   1  -2   9 336.005   8.605   5
  -1  -2  -9 341.469   7.842   1
  -1   2  -9 335.898   9.445   1
  -1   2  -9 326.109   8.125   4
  -1   2  -9 320.804   7.321   3
   2  -2   9 475.615  10.827   5
  -2  -2  -9 464.834  10.263   1
   2  -2   9 461.506  10.596   3
  -2   2  -9 468.708  10.362   4
  -2   2  -9 458.405  11.689   1
  -2   2  -9 460.539   9.909   3
  -2   2  -9 472.540  10.641   5
   3  -2   9 1288.00   22.73   5
   3  -2   9 1267.03   22.97   2
   3  -2   9 1274.97   23.72   3
  -3  -2  -9 1279.47   22.83   1
  -3   2  -9 1285.36   23.12   3
  -3   2  -9 1321.94   22.72   5
  -3   2  -9 1272.42   24.21   1
  -4  -2  -9 560.080  12.632   1
   4  -2   9 575.252  12.412   2
   4  -2   9 541.958  12.410   3
   4  -2   9 564.863  12.485   5
  -4   2  -9 537.304  12.357   5
  -4   2  -9 550.341  13.368   1
  -5  -2  -9 252.844   8.003   1
  -5  -2  -9 254.423   5.232   5
   5  -2   9 264.029   7.545   2
   5  -2   9 253.335   7.562   3
  -5   2  -9 239.527   7.690   5
  -5   2  -9 241.874   8.225   1
  -5   2  -9 254.046   6.563   2
  -5   2  -9 245.946   7.552   3
   6  -2   9 68.2569  3.9195   3
  -6  -2  -9 64.3025  4.1644   1
   6  -2   9 63.1295  3.7688   2
  -6   2  -9 65.2315  4.0708   3
  -6   2  -9 71.2020  4.4404   1
  -6   2  -9 65.4948  3.3922   2
  -6   2  -9 64.6052  3.9902   5
   7  -2   9 163.668   6.457   3
   7  -2   9 172.816   6.326   2
  -7  -2  -9 165.676   7.036   1
  -7   2  -9 169.186   5.749   2
  -7   2  -9 173.928   7.265   1
  -7   2  -9 166.042   6.551   3
  -7   2  -9 181.598   7.095   5
   8  -2   9 413.202  11.322   3
  -8  -2  -9 432.288  12.620   1
   8  -2   9 455.787  11.231   2
  -8   2  -9 432.482  12.620   1
  -8   2  -9 414.422  12.000   5
  -8   2  -9 416.058  11.623   3
  -8   2  -9 429.024  10.553   2
   9  -2   9 204.243   7.590   3
  -9  -2  -9 190.458   8.345   1
  -9   2  -9 198.944   6.900   2
  -9   2  -9 200.530   7.812   3
  -9   2  -9 202.319   8.368   1
 -10  -2  -9 32.3136  3.6940   1
 -10   2  -9 36.0828  3.7070   1
 -10   2  -9 29.7221  3.3398   3
  11  -2   9 182.525   7.517   3
 -11  -2  -9 166.232   8.338   1
 -11   2  -9 172.433   7.844   3
 -11   2  -9 175.555   8.369   1
  12  -2   9 13.1268  3.2585   3
 -12  -2  -9 14.1155  3.2904   1
 -12   2  -9 20.5318  3.6893   1
 -12   2  -9 26.1178  3.8433   3
 -13  -2  -9 99.6773  6.5476   1
 -13   2  -9 100.785   6.217   3
 -14   2  -9 186.953   8.663   3
 -14  -3   9 362.309  12.597   2
 -14   3   9 377.951  11.288   3
 -13  -3   9 27.7892  3.7556   2
 -13  -3   9 29.7021  4.8108   1
 -13   3   9 31.1505  3.2087   3
 -12  -3   9 96.6406  6.8949   1
 -12  -3   9 97.7495  5.5455   2
  12   3  -9 84.9714  6.8279   1
 -12   3   9 92.8491  4.9549   3
 -11  -3   9 32.8647  3.3364   2
 -11  -3   9 55.0285  5.1743   1
  11   3  -9 33.0276  4.8053   1
 -11   3   9 36.7326  3.1123   3
 -10  -3   9 158.282   6.517   2
 -10  -3   9 152.972   8.345   1
  10   3  -9 154.297   8.478   1
 -10   3   9 155.664   5.842   3
  -9  -3   9 1.21352 1.44983   2
   9   3  -9 0.45348 1.52788   1
  -9   3   9 0.39378 1.04773   3
  -8  -3   9 21.2298  2.4052   2
  -8   3   9 19.6273  1.9289   3
   8   3  -9 16.5179  3.2775   1
  -7  -3   9 77.5905  3.7959   2
   7  -3  -9 80.1203  5.1222   3
  -7   3   9 75.5192  2.6056   3
   7   3  -9 70.8931  5.2656   1
  -6  -3   9 1293.09   22.88   2
   6  -3  -9 1313.84   25.54   3
  -6   3   9 1298.00   25.59   5
   6   3  -9 1270.38   27.06   1
  -5  -3   9 266.986   6.814   2
   5  -3  -9 276.928   8.356   3
  -5   3   9 272.987   8.904   5
   5   3  -9 263.808   9.726   1
   5   3  -9 265.716   8.080   4
  -4  -3   9 240.062   6.154   2
   4  -3  -9 239.034   7.223   3
   4   3  -9 230.036   8.817   1
   4   3  -9 236.936   7.416   4
  -4   3   9 236.438   7.820   5
   3  -3  -9 99.3135  3.8016   2
   3  -3  -9 101.017   4.408   5
  -3  -3   9 103.196   3.638   2
   3   3  -9 107.223   4.824   4
  -3   3   9 103.918   4.691   5
   3   3  -9 106.229   5.638   1
   2  -3  -9 87.5080  3.1922   2
   2  -3  -9 95.6932  3.9327   5
  -2  -3   9 83.1205  3.2876   2
   2   3  -9 86.7166  4.9771   1
  -2   3   9 85.3827  3.9958   5
   2   3  -9 87.1377  4.3269   4
   1  -3  -9 104.562   2.950   2
  -1  -3   9 111.607   3.808   2
   1  -3  -9 107.974   3.912   5
   1  -3  -9 107.627   3.265   1
  -1  -3   9 100.534   4.025   3
   1   3  -9 104.074   4.669   4
  -1   3   9 105.852   3.034   4
   1   3  -9 107.386   5.467   1
  -1   3   9 105.666   4.145   5
   0  -3   9 54.5940  3.0051   3
   0  -3  -9 54.1613  2.5507   1
   0  -3  -9 59.0952  2.6054   5
   0  -3   9 52.5627  2.7467   2
   0   3   9 53.7417  1.9005   4
   0   3  -9 58.0616  3.5022   4
   0   3  -9 53.9927  3.8166   1
   0   3   9 56.0644  2.7504   5
   1  -3   9 102.090   4.021   2
   1  -3   9 106.138   4.269   3
  -1  -3  -9 102.223   3.321   5
  -1  -3  -9 102.578   3.862   1
  -1   3  -9 103.165   5.212   1
  -1   3  -9 108.203   4.837   4
  -2  -3  -9 86.7548  2.8628   5
   2  -3   9 81.6468  3.8781   3
  -2  -3  -9 79.3246  3.7178   1
   2  -3   9 87.4031  3.8245   2
  -2   3  -9 84.4152  4.4293   4
  -2   3  -9 84.1861  4.4580   5
  -2   3  -9 84.6410  4.6598   1
  -3  -3  -9 103.466   4.519   1
   3  -3   9 101.981   4.506   3
   3  -3   9 101.243   4.406   2
  -3   3  -9 101.265   5.190   1
  -3   3  -9 103.451   4.999   4
  -3   3  -9 97.6512  2.7564   3
  -3   3  -9 101.698   5.019   5
   4  -3   9 228.397   7.349   3
  -4  -3  -9 222.596   7.384   1
  -4   3  -9 227.902   5.774   3
  -4   3  -9 233.350   8.119   5
  -4   3  -9 246.677   8.496   1
  -5  -3  -9 268.621   8.577   1
   5  -3   9 266.276   8.220   2
   5  -3   9 265.222   8.342   3
  -5   3  -9 265.242   9.069   1
  -5   3  -9 263.365   7.003   3
  -5   3  -9 264.744   9.015   5
   6  -3   9 1299.67   25.36   3
  -6  -3  -9 1260.04   25.14   1
   6  -3   9 1280.08   24.66   2
  -6   3  -9 1268.98   25.69   1
  -6   3  -9 1268.32   25.29   5
  -6   3  -9 1271.06   23.53   3
  -7  -3  -9 79.2278  4.9869   1
   7  -3   9 73.6571  4.6016   3
   7  -3   9 80.8391  4.7147   2
  -7   3  -9 77.0925  4.1561   3
  -7   3  -9 85.6223  5.0344   1
   8  -3   9 13.3065  3.0385   3
  -8  -3  -9 17.3767  2.9631   1
   8  -3   9 8.65620 2.41572   2
  -8   3  -9 19.4638  2.7669   3
  -8   3  -9 14.6010  2.9053   1
   9  -3   9 1.81069 2.18644   3
  -9  -3  -9 4.82183 2.08231   1
   9  -3   9 3.67209 2.07111   2
  -9   3  -9 -0.4298  1.5353   3
  10  -3   9 153.814   7.369   3
 -10  -3  -9 150.984   8.015   1
 -10   3  -9 158.477   7.867   1
 -10   3  -9 152.082   6.765   3
  11  -3   9 40.1109  3.9355   3
 -11  -3  -9 33.2602  4.6570   1
 -11   3  -9 33.6595  3.6587   3
 -12  -3  -9 87.2016  6.6422   1
  12  -3   9 87.0034  5.7417   3
 -12   3  -9 93.8171  5.6440   3
  13  -3   9 22.8380  4.1314   3
 -13   3  -9 29.5730  3.5750   3
  14  -3   9 358.970  12.057   3
 -14   3  -9 342.665  11.759   3
 -13  -4   9 1.34167 1.82108   2
 -12  -4   9 12.7068  2.9811   2
 -11  -4   9 72.3380  4.8306   2
 -11  -4   9 70.5650  6.3355   1
  11   4  -9 72.6135  6.3260   1
 -10  -4   9 56.7984  4.0452   2
 -10  -4   9 59.9638  5.6900   1
  10   4  -9 63.3710  5.9487   1
   9  -4  -9 26.0415  4.1441   3
  -9  -4   9 23.4151  2.7167   2
   9   4  -9 20.6165  3.9976   1
  -8  -4   9 4.31158 1.38706   2
   8  -4  -9 5.63015 2.42219   3
   8   4  -9 1.69266 1.82992   1
  -7  -4   9 408.305   9.609   2
   7   4  -9 398.016  13.765   1
  -6  -4   9 183.684   5.424   2
   6   4  -9 166.372   8.390   1
   6   4  -9 179.279   7.164   4
   5  -4  -9 423.502  10.637   2
  -5  -4   9 415.005   9.070   2
   5   4  -9 424.305  11.612   4
  -5   4   9 450.018  12.733   5
   5   4  -9 430.187  13.753   1
  -4  -4   9 41.4662  2.3274   2
   4  -4  -9 42.5248  2.9203   2
   4   4  -9 46.8132  4.1195   1
   4   4  -9 44.5014  3.6261   4
  -4   4   9 37.6799  3.4283   5
   3  -4  -9 377.537   8.625   2
  -3  -4   9 370.765   8.031   2
  -3   4   9 367.827  10.611   5
   3   4  -9 371.286  10.558   4
   3   4  -9 384.088  12.262   1
   2  -4  -9 159.991   4.394   2
  -2  -4   9 165.408   4.699   2
   2   4  -9 167.443   6.808   4
   2   4  -9 163.974   7.488   1
  -2   4   9 158.808   6.247   5
  -1  -4   9 2177.31   34.55   2
   1  -4  -9 2164.09   34.24   5
   1   4  -9 2115.72   35.20   4
   1   4  -9 2111.39   38.79   1
  -1   4   9 2066.04   34.75   5
   0  -4   9 4.65587 1.27827   2
   0   4  -9 6.55213 1.99020   4
   0   4   9 6.18178 1.48283   5
  -1  -4  -9 2083.45   33.72   1
   1  -4   9 2076.52   34.88   2
  -1   4  -9 2098.04   37.88   1
  -1   4  -9 2125.14   35.21   4
  -2  -4  -9 158.543   5.572   1
   2  -4   9 158.646   5.611   2
  -2   4  -9 158.333   7.038   1
  -2   4  -9 163.132   6.967   4
   3  -4   9 367.506   9.680   2
  -3  -4  -9 374.800   9.855   1
  -3   4  -9 363.890  11.184   1
  -3   4  -9 366.358  10.969   4
  -3   4  -9 360.164  11.201   5
   4  -4   9 39.1570  3.3390   3
  -4  -4  -9 45.6502  3.3751   1
   4  -4   9 39.1895  3.2329   2
  -4   4  -9 41.6743  3.8185   4
  -4   4  -9 41.6708  3.6241   1
   5  -4   9 423.195  11.384   2
  -5  -4  -9 415.822  11.691   1
   5  -4   9 421.445  11.495   3
  -5   4  -9 407.907  12.224   1
   6  -4   9 185.441   7.392   2
   6  -4   9 184.986   7.340   3
  -6  -4  -9 175.826   7.538   1
  -6   4  -9 188.212   7.938   1
   7  -4   9 409.033  11.982   2
   7  -4   9 411.420  12.094   3
  -7  -4  -9 404.431  12.580   1
  -7   4  -9 423.262  12.835   1
   8  -4   9 4.65930 2.36061   3
  -8  -4  -9 5.49269 1.94395   1
   8  -4   9 5.10974 2.31169   2
  -8   4  -9 3.83132 1.67166   1
   9  -4   9 23.1202  3.7565   2
  -9  -4  -9 21.1965  3.5672   1
   9  -4   9 21.7471  3.6848   3
  -9   4  -9 26.7596  2.3008   3
 -10  -4  -9 62.1364  5.3851   1
  10  -4   9 56.7327  5.1383   3
  10  -4   9 51.8514  4.6603   2
 -10   4  -9 62.9233  3.5536   3
  11  -4   9 70.8744  5.8917   3
 -11  -4  -9 70.4507  6.0420   1
 -11   4  -9 83.3422  4.2626   3
  12  -4   9 2.84940 2.62940   3
  13  -4   9 3.92218 1.77249   3
 -12  -5   9 43.3959  4.2317   2
 -11  -5   9 3.80960 2.23957   2
 -10  -5   9 86.0138  4.8238   2
 -10  -5   9 96.5170  7.2656   1
  10   5  -9 76.9347  6.7915   1
  -9  -5   9 11.2292  2.0235   2
   9   5  -9 6.81955 2.27812   1
  -8  -5   9 78.0051  3.9552   2
   8   5  -9 73.0901  6.2240   1
   7   5  -9 112.003   7.355   1
   6  -5  -9 162.810   6.722   2
   6   5  -9 177.989   7.713   4
   6   5  -9 176.949   9.153   1
   5  -5  -9 138.810   5.849   2
   5   5  -9 144.342   8.051   1
   5   5  -9 142.862   6.874   4
   4  -5  -9 50.0581  3.3136   2
   4   5  -9 55.8806  4.4227   4
   4   5  -9 52.3122  4.8692   1
   3  -5  -9 18.1406  2.1267   2
   3   5  -9 17.4327  3.4841   1
   3   5  -9 21.6140  3.3199   4
  -2  -5   9 42.8353  2.4106   2
   2   5  -9 42.8975  3.9690   4
   2   5  -9 32.3887  4.4201   1
  -1  -5   9 187.880   5.424   2
   1   5  -9 189.630   7.919   4
   1   5  -9 179.490   8.334   1
   0  -5   9 7.09723 1.56736   2
   0   5  -9 6.34735 2.13311   4
   0   5  -9 3.42248 1.95731   1
   1  -5   9 191.060   6.144   2
  -1   5  -9 185.190   8.168   1
  -1   5  -9 190.952   8.077   4
   2  -5   9 44.0786  3.1502   2
  -2   5  -9 40.9529  4.6356   1
  -2   5  -9 48.7242  4.2664   4
   3  -5   9 16.2173  2.6372   2
  -3  -5  -9 22.5517  2.4606   1
  -3   5  -9 19.2522  3.4498   4
  -3   5  -9 16.6481  2.9278   1
   4  -5   9 48.8350  3.8766   2
  -4  -5  -9 53.6502  3.9329   1
  -4   5  -9 52.5164  4.3536   1
  -4   5  -9 46.8959  4.5551   4
   5  -5   9 151.172   6.459   2
  -5  -5  -9 133.730   6.479   1
  -5   5  -9 131.615   6.839   1
  -5   5  -9 139.694   7.549   4
   6  -5   9 176.290   7.571   2
  -6  -5  -9 181.425   7.937   1
  -6   5  -9 183.955   8.833   4
   7  -5   9 107.661   6.084   2
  -7  -5  -9 109.292   6.413   1
   8  -5   9 78.3320  5.4204   3
   8  -5   9 66.4383  5.1542   2
  -8  -5  -9 67.2845  5.3441   1
   9  -5   9 11.0418  3.0405   3
   9  -5   9 4.58345 2.81637   2
  -9  -5  -9 10.0549  2.6438   1
  10  -5   9 84.0462  6.4691   3
 -10  -5  -9 87.6637  6.4499   1
  10  -5   9 82.1334  5.9830   2
  11  -5   9 7.18744 3.40772   2
  11  -5   9 8.40265 3.44351   3
  12  -5   9 43.9323  5.7281   3
   8   6  -9 38.4928  4.2257   1
   7  -6  -9 184.101   8.022   2
   7   6  -9 215.924  10.878   1
   6  -6  -9 71.9348  4.9157   2
   6   6  -9 76.0163  6.6160   1
   6   6  -9 78.5716  5.5692   4
   5  -6  -9 223.390   7.763   2
   5   6  -9 202.338   8.988   4
   5   6  -9 219.555  10.622   1
   4  -6  -9 135.068   5.494   2
   4   6  -9 118.944   6.843   4
   4   6  -9 127.954   7.898   1
   3   6  -9 160.862   8.735   1
   3   6  -9 172.613   8.210   4
   2   6  -9 12.8931  2.8078   1
   2   6  -9 16.7483  3.5222   4
   1   6  -9 423.314  14.186   1
   1   6  -9 419.866  13.339   4
   0  -6   9 5.13315 1.60419   2
   0   6  -9 1.45859 1.80989   4
   0   6  -9 -3.3142  1.5883   1
   1  -6   9 418.598  10.522   2
  -1   6  -9 408.710  13.553   1
  -1   6  -9 405.959  13.317   4
   2  -6   9 12.5352  2.5024   2
  -2   6  -9 11.1148  3.2130   4
  -2   6  -9 5.52759 2.42634   1
   3  -6   9 168.008   6.919   2
  -3   6  -9 170.730   8.587   4
   4  -6   9 128.190   6.322   2
  -4   6  -9 124.810   7.583   4
   5  -6   9 203.713   8.182   2
  -5   6  -9 184.633   9.383   4
   6  -6   9 63.7627  4.7196   2
  -6   6  -9 77.1314  6.3968   4
   7  -6   9 188.438   8.657   2
  -7  -6  -9 185.287   8.791   1
  -7   6  -9 191.905   9.968   4
  -8  -6  -9 31.8898  4.4719   1
   8  -6   9 33.8143  4.6636   2
  -8   6  -9 32.1149  5.1980   4
   9  -6   9 167.937   8.570   2
  -9   6  -9 156.805   9.397   4
  10  -6   9 14.6075  3.8968   2
   7  -7  -9 10.9250  3.2285   2
   6  -7  -9 7.51341 2.77441   2
   6   7  -9 12.0149  2.9523   4
   5  -7  -9 20.3806  3.3451   2
   5   7  -9 12.1354  3.1888   4
   5   7  -9 23.6421  4.0841   1
   4  -7  -9 18.4753  2.6929   2
   4   7  -9 24.4782  4.2892   1
   4   7  -9 15.8012  3.6750   4
   3   7  -9 44.8724  5.3523   4
   3   7  -9 55.7052  5.5926   1
   2   7  -9 26.0931  4.2977   4
   2   7  -9 25.1861  4.3016   1
   1   7  -9 15.5467  3.3884   1
   1   7  -9 16.5699  3.6827   4
   0   7  -9 20.2669  4.0422   4
   1  -7   9 18.4430  2.7811   2
  -1   7  -9 21.2549  4.0816   4
   2  -7   9 24.2961  3.3717   2
  -2   7  -9 12.3312  3.5794   4
   3  -7   9 51.6780  4.3942   2
  -3   7  -9 51.4038  5.3631   4
   4  -7   9 11.6306  3.1399   2
  -4   7  -9 12.7489  3.6919   4
   5  -7   9 14.1980  3.3432   2
  -5   7  -9 11.2790  3.5543   4
   6  -7   9 12.9476  3.0570   2
  -6   7  -9 2.96013 2.17041   4
   7  -7   9 15.1340  3.1919   2
  -7   7  -9 15.2591  3.7438   4
   8  -7   9 4.40037 2.19712   2
   1   8  -9 99.7643  7.2596   4
   0   8  -9 7.07591 3.02213   4
   1  -8   9 91.8394  5.3377   2
  -1   8  -9 87.9985  6.9288   4
   2  -8   9 35.1712  4.3819   2
   3  -8   9 238.173   9.576   2
 -15   0  10 256.707  11.250   3
 -14   0  10 44.3115  4.4472   2
 -14   0  10 42.9324  4.5914   3
 -13   0  10 76.3204  5.4195   2
 -13   0  10 81.4912  5.9865   3
 -12   0  10 8.03912 2.36062   2
 -12   0  10 4.76285 2.27694   3
 -11   0  10 7.06886 2.35795   3
 -11   0  10 6.49276 2.17867   2
  11   0 -10 8.71451 2.52711   3
 -10   0  10 329.719  10.939   3
  10   0 -10 329.293   9.187   3
 -10   0  10 333.647  10.336   2
  -9   0  10 8.74437 1.86080   1
   9   0 -10 5.83992 1.77684   1
   9   0 -10 6.18424 2.24143   3
  -9   0  10 7.82825 2.15247   3
  -9   0  10 4.75458 1.71000   2
   8   0 -10 21.2128  2.8141   1
  -8   0  10 25.8455  2.8887   3
  -8   0  10 23.8717  2.6522   2
   7   0 -10 1289.57   24.09   1
  -7   0  10 1295.99   24.20   2
  -7   0  10 1289.05   25.47   3
  -6   0  10 487.351  11.359   2
  -6   0  10 478.976  12.053   3
   6   0 -10 496.675  11.737   1
   5   0 -10 115.086   4.849   1
  -5   0  10 112.654   4.446   2
  -5   0  10 117.582   4.935   3
   4   0 -10 157.415   5.527   1
  -4   0  10 161.540   5.203   2
  -4   0  10 160.864   5.618   3
   3   0 -10 0.13736 1.30984   3
  -3   0  10 0.34453 0.86848   3
  -3   0  10 -0.7753  0.5985   2
   3   0 -10 -0.8988  0.7039   1
   2   0 -10 37.8249  2.8240   3
   2   0 -10 41.9517  2.7691   1
  -2   0  10 39.9578  2.3403   2
  -2   0  10 39.1547  2.5130   3
  -1   0  10 -0.7911  0.6488   3
  -1   0  10 -0.6409  0.6408   2
   1   0 -10 0.25042 1.16894   3
   1   0 -10 0.29763 0.51612   4
   1   0 -10 0.03353 0.63680   1
   0   0  10 279.274   6.921   3
   0   0  10 278.046   6.528   2
   0   0 -10 283.728   5.341   4
   0   0 -10 285.909   7.715   1
   0   0 -10 277.277   7.324   3
   1   0  10 0.31100 0.72143   3
  -1   0 -10 1.61973 1.30111   3
  -1   0 -10 -0.2326  0.4805   4
  -1   0 -10 -0.5280  0.5262   1
   1   0  10 -0.3318  0.4256   5
   2   0  10 26.2602  1.8091   3
  -2   0 -10 34.6319  2.8474   3
  -2   0 -10 38.6157  2.6844   1
   2   0  10 36.9670  1.5560   5
  -3   0 -10 -0.0147  0.3989   5
  -3   0 -10 -0.2623  1.3638   3
   3   0  10 0.80471 0.55385   5
  -3   0 -10 -0.3511  0.5898   1
   3   0  10 -0.7488  0.7162   3
   4   0  10 148.303   3.851   5
   4   0  10 158.823   4.625   3
  -4   0 -10 160.578   5.958   1
  -4   0 -10 156.907   5.794   3
  -4   0 -10 158.923   4.065   5
  -5   0 -10 110.078   5.311   3
   5   0  10 119.901   3.970   3
  -5   0 -10 120.804   5.381   1
  -5   0 -10 115.800   3.794   5
  -6   0 -10 473.096  12.082   3
  -6   0 -10 473.264  12.444   1
  -6   0 -10 485.150  10.111   5
   6   0  10 485.695   9.905   3
  -7   0 -10 1251.98   25.13   1
  -7   0 -10 1263.41   22.07   5
  -7   0 -10 1279.50   25.28   3
   7   0  10 1309.30   22.07   3
  -8   0 -10 18.2183  2.8543   1
  -8   0 -10 26.2710  3.4512   3
  -9   0 -10 8.06614 2.63015   3
  -9   0 -10 9.21053 2.14615   1
 -10   0 -10 320.457  10.818   3
 -10   0 -10 310.447  11.036   1
 -11   0 -10 9.62324 2.86169   3
 -11   0 -10 5.55697 1.99469   1
 -12   0 -10 6.92611 2.13902   1
 -12   0 -10 6.62167 2.70047   3
 -13   0 -10 70.6588  5.0659   2
 -13   0 -10 78.7663  6.1119   3
 -13   0 -10 77.1006  5.8636   1
 -14   0 -10 41.7119  4.2146   2
 -14   0 -10 42.8532  4.7369   3
 -15   0 -10 239.742  10.009   2
 -15   0 -10 249.787  10.874   3
 -14  -1  10 14.3690  3.1449   2
 -14  -1  10 12.9831  3.2228   3
 -14   1  10 12.7985  2.8355   3
 -13  -1  10 37.1837  4.0838   3
 -13  -1  10 33.6418  3.8213   2
 -13   1  10 39.2758  4.2230   3
 -12  -1  10 1.89309 1.70397   3
 -12  -1  10 1.44751 1.65583   2
  12   1 -10 1.95572 2.02104   1
 -12   1  10 -0.8687  1.5312   3
 -11  -1  10 31.4894  3.5614   3
 -11  -1  10 33.6582  3.4875   2
 -11  -1  10 33.1413  3.6940   1
 -11   1  10 30.6225  3.5818   3
  11   1 -10 30.7247  4.1426   1
 -10  -1  10 31.5688  3.5092   1
 -10  -1  10 32.5471  3.5342   3
 -10  -1  10 34.4183  3.3768   2
 -10   1  10 27.7488  3.3904   3
  10   1 -10 28.1837  3.8676   1
  -9  -1  10 20.2698  3.0770   3
  -9  -1  10 18.2996  2.7557   2
  -9   1  10 20.6388  2.8221   2
  -9   1  10 19.0182  2.8917   3
   9   1 -10 19.2152  3.0238   1
  -8  -1  10 658.892  15.725   3
  -8  -1  10 641.740  14.813   2
   8   1 -10 645.115  15.994   1
  -8   1  10 653.831  15.599   3
   8   1 -10 663.778  12.324   3
  -8   1  10 651.179  14.454   2
  -7  -1  10 50.1891  3.3359   2
   7  -1 -10 54.8896  3.0289   1
  -7  -1  10 51.8357  3.7372   3
  -7   1  10 62.2545  3.7511   3
   7   1 -10 55.3261  3.2276   3
  -7   1  10 54.2680  3.3773   2
   7   1 -10 48.8847  3.8518   1
  -7   1  10 53.5067  3.8344   5
   6  -1 -10 789.946  14.825   1
  -6  -1  10 778.223  16.768   3
   6   1 -10 779.256  17.162   1
   6   1 -10 755.798  14.805   3
  -6   1  10 759.593  16.445   3
  -6   1  10 772.174  15.391   2
  -6   1  10 755.023  16.481   5
  -5  -1  10 0.65219 0.61501   2
   5  -1 -10 1.63051 0.83412   1
  -5  -1  10 -0.7534  0.9679   3
  -5   1  10 -0.1883  0.7108   2
   5   1 -10 0.44986 1.03776   1
  -5   1  10 -0.2519  0.8323   3
   5   1 -10 1.19731 1.56382   3
  -5   1  10 0.81545 0.86561   5
  -4  -1  10 81.3231  3.9389   3
   4  -1 -10 77.6455  3.2684   1
   4   1 -10 79.2091  4.2749   1
  -4   1  10 79.2655  3.2033   2
   4   1 -10 75.8498  3.6619   3
  -4   1  10 75.1733  3.5174   3
  -4   1  10 77.4476  3.7537   5
   3  -1 -10 640.274  12.094   1
  -3  -1  10 644.032  13.429   3
  -3  -1  10 514.392  12.077   2
  -3   1  10 545.065  12.256   3
   3   1 -10 658.455  11.503   4
   3   1 -10 642.368  14.052   1
  -3   1  10 640.925  12.301   5
   3   1 -10 637.129  12.700   3
  -2  -1  10 1266.83   23.19   3
  -2  -1  10 1282.62   22.14   2
   2  -1 -10 1290.39   21.46   1
  -2   1  10 1233.33   20.36   5
   2   1 -10 1232.72   22.53   3
   2   1 -10 1262.03   23.34   1
   2   1 -10 1262.74   19.72   4
  -2   1  10 1252.11   22.00   3
   1  -1 -10 22.8253  1.9416   1
  -1  -1  10 21.8211  2.0810   3
  -1  -1  10 25.1025  2.0410   2
   1   1 -10 23.5483  1.8728   4
   1   1 -10 20.4657  2.1239   1
   1   1 -10 17.8577  2.2967   3
  -1   1  10 21.7744  1.4466   5
  -1   1  10 23.5725  1.6450   3
   0  -1  10 8212.18  120.85   2
   0  -1 -10 8088.38  122.37   1
   0  -1  10 8054.37  111.94   5
   0  -1  10 8048.07  125.37   3
   0   1  10 7908.32  123.95   3
   0   1  10 7725.80  109.80   5
   0   1 -10 7987.80  123.24   1
   0   1 -10 7908.83  112.60   4
   0   1 -10 7938.99  125.09   3
  -1  -1 -10 21.3995  2.1326   1
   1  -1  10 19.9230  1.9154   2
   1  -1  10 23.6940  1.8642   5
   1  -1  10 20.3159  2.0185   3
  -1   1 -10 22.6869  2.5324   3
   1   1  10 23.5057  1.1040   3
  -1   1 -10 24.5921  2.3250   1
  -1   1 -10 21.1626  1.8463   4
   2  -1  10 1244.06   20.67   5
  -2  -1 -10 1240.02   22.28   1
   2  -1  10 1242.60   22.80   3
  -2  -1 -10 1251.49   22.24   3
   2  -1  10 1262.82   22.09   2
  -2   1 -10 1306.20   23.39   3
  -2   1 -10 1279.92   20.09   4
  -2   1 -10 1222.31   23.21   1
  -3  -1 -10 627.332  12.747   3
   3  -1  10 626.849  12.071   5
  -3  -1 -10 629.861  13.556   1
   3  -1  10 630.274  13.113   3
   3  -1  10 642.897  12.830   2
  -3   1 -10 627.685  14.207   1
  -3   1 -10 634.829  11.928   5
  -3   1 -10 600.567  13.501   3
   4  -1  10 79.8124  3.6867   3
  -4  -1 -10 78.8063  3.9771   3
   4  -1  10 76.4463  3.4825   2
  -4  -1 -10 78.7528  4.0866   1
   4  -1  10 82.9376  3.4634   5
  -4   1 -10 76.5708  4.2719   3
  -4   1 -10 73.3692  3.3121   5
  -4   1 -10 80.2590  4.3575   1
   5  -1  10 0.51777 1.08099   3
   5  -1  10 0.73478 1.00015   2
   5  -1  10 0.33448 0.66499   5
  -5  -1 -10 0.16139 0.73241   1
  -5  -1 -10 0.43796 0.45440   5
  -5  -1 -10 4.38623 1.82198   3
  -5   1 -10 2.34688 1.80158   3
  -5   1 -10 -0.3693  0.5785   5
  -5   1 -10 1.84448 1.13899   1
  -6  -1 -10 755.739  16.178   3
  -6  -1 -10 744.586  16.803   1
   6  -1  10 725.097  15.548   3
  -6  -1 -10 779.689  13.226   5
   6  -1  10 796.357  15.104   2
   6  -1  10 754.425  14.807   5
  -6   1 -10 760.636  17.248   1
  -6   1 -10 759.146  16.927   3
  -6   1 -10 770.486  15.323   5
  -7  -1 -10 59.7364  4.2098   1
  -7   1 -10 59.4978  3.6220   5
  -7   1 -10 46.2090  4.1877   3
  -7   1 -10 69.7846  4.5074   1
  -8  -1 -10 620.274  15.903   1
   8  -1  10 633.381  14.092   3
  -8   1 -10 637.849  14.695   5
  -8   1 -10 666.372  16.274   1
  -8   1 -10 640.612  15.738   3
  -9  -1 -10 18.1821  3.0138   1
   9  -1  10 20.4786  2.7618   3
  -9   1 -10 21.2829  3.2769   1
  -9   1 -10 30.8558  4.0727   3
  10  -1  10 25.3902  3.1298   3
 -10  -1 -10 32.8447  3.6073   1
 -10   1 -10 23.1920  3.4471   1
 -10   1 -10 22.4877  3.8118   3
  11  -1  10 30.3917  3.1751   3
 -11  -1 -10 30.8828  4.1089   1
 -11   1 -10 30.5411  3.3471   2
 -11   1 -10 33.6995  3.7127   1
 -11   1 -10 33.3939  4.5011   3
 -12  -1 -10 4.59763 1.71922   1
 -12   1 -10 3.77965 1.83832   1
 -12   1 -10 1.37248 2.50514   3
 -12   1 -10 -1.0951  1.6318   2
 -13  -1 -10 37.6715  3.9359   1
 -13   1 -10 38.5861  5.0107   1
 -13   1 -10 33.5829  3.7952   2
 -13   1 -10 31.0560  4.6880   3
 -14   1 -10 13.5999  3.7020   3
 -14   1 -10 -5.3281  2.4929   1
 -14  -2  10 51.7002  4.7555   2
 -14   2  10 58.7855  4.6392   3
 -13  -2  10 65.6449  5.6498   1
 -13  -2  10 63.4930  5.0387   2
 -13   2  10 70.7151  5.0382   3
  13   2 -10 67.7586  6.0333   1
 -12  -2  10 163.260   8.628   1
  12   2 -10 173.783   9.062   1
 -12   2  10 170.063   7.653   3
 -11  -2  10 468.006  15.146   1
 -11  -2  10 477.140  13.387   2
 -11   2  10 488.379  13.589   3
  11   2 -10 455.325  14.790   1
 -10  -2  10 74.1964  5.4835   1
 -10  -2  10 63.2226  4.2920   2
  10   2 -10 65.4978  5.3866   1
 -10   2  10 67.1100  4.4264   3
  -9  -2  10 192.087   7.147   2
   9   2 -10 183.277   8.423   1
  -9   2  10 186.167   7.135   3
  -8  -2  10 14.8224  2.4031   2
   8   2 -10 13.2990  2.7439   1
  -8   2  10 12.7060  2.2969   3
  -7  -2  10 189.952   6.512   2
  -7   2  10 178.714   7.476   5
  -7   2  10 180.825   6.265   3
   7   2 -10 174.886   7.816   1
  -6  -2  10 110.160   4.646   2
  -6  -2  10 118.767   5.146   3
   6   2 -10 124.029   6.226   1
  -6   2  10 114.878   4.509   3
  -6   2  10 114.763   5.591   5
  -5  -2  10 52.3760  3.0703   2
  -5  -2  10 49.4794  3.3348   3
  -5   2  10 51.4604  3.4929   5
   5   2 -10 51.5645  4.0241   1
  -5   2  10 52.6703  2.7380   3
  -4  -2  10 12.2950  1.7505   2
  -4  -2  10 12.2707  1.9504   3
  -4   2  10 10.9513  1.8163   5
  -4   2  10 13.8263  1.4940   3
   4   2 -10 12.5212  2.3932   1
   4   2 -10 13.3596  1.9515   4
  -3  -2  10 1300.71   23.03   2
   3  -2 -10 1316.38   20.88   1
  -3  -2  10 1327.41   24.26   3
   3   2 -10 1311.67   25.46   1
  -3   2  10 1310.69   22.65   5
  -3   2  10 1307.80   21.10   3
   3   2 -10 1319.01   21.87   4
  -2  -2  10 871.560  17.382   3
   2  -2 -10 887.904  15.221   1
  -2  -2  10 879.579  16.561   2
  -2   2  10 896.919  15.893   5
   2   2 -10 881.917  18.775   1
   2   2 -10 885.092  16.053   4
  -1  -2  10 49.8443  2.7394   2
   1  -2 -10 49.7922  2.5178   1
  -1  -2  10 50.8649  3.1486   5
  -1  -2  10 51.1743  2.9944   3
  -1   2  10 55.2066  2.5178   5
   1   2 -10 53.1073  2.3323   3
   1   2 -10 48.1211  2.9165   4
   1   2 -10 54.4882  3.6684   1
   0  -2  10 4.81766 1.28085   3
   0  -2  10 2.74955 0.93649   5
   0  -2  10 4.05037 1.16885   2
   0  -2 -10 2.55830 0.89593   1
   0   2 -10 2.29592 1.17675   4
   0   2 -10 7.69209 1.38684   3
   0   2 -10 2.52989 1.14909   1
   0   2  10 1.93855 0.58023   5
  -1  -2 -10 47.9532  2.7458   1
   1  -2  10 46.8561  2.9794   5
   1  -2  10 41.4063  2.5548   2
   1  -2  10 54.9264  3.1268   3
  -1   2 -10 54.8651  2.9250   3
  -1   2 -10 51.5691  3.1691   4
  -1   2 -10 50.0633  3.5608   1
   2  -2  10 870.712  16.815   2
   2  -2  10 852.559  17.260   3
  -2  -2 -10 862.313  16.568   1
   2  -2  10 872.520  16.905   5
  -2   2 -10 884.888  18.559   1
  -2   2 -10 860.341  16.153   4
  -2   2 -10 877.400  16.681   3
   3  -2  10 1304.70   23.08   5
   3  -2  10 1289.17   23.49   2
  -3  -2 -10 1283.50   23.33   1
   3  -2  10 1316.21   24.33   3
  -3   2 -10 1289.96   22.81   5
  -3   2 -10 1309.53   23.75   3
  -3   2 -10 1297.34   25.00   1
   4  -2  10 11.9743  2.0403   3
   4  -2  10 11.1694  1.8071   5
  -4  -2 -10 13.4368  2.0601   1
   4  -2  10 10.3336  1.9415   2
  -4   2 -10 12.9681  2.3277   1
  -4   2 -10 12.2292  1.9716   5
  -4   2 -10 8.75128 1.94291   3
  -5  -2 -10 49.6679  3.5050   1
   5  -2  10 50.5530  3.3360   2
   5  -2  10 51.4662  3.3860   3
  -5   2 -10 54.0109  3.7865   3
  -5   2 -10 51.9334  3.4071   5
  -5   2 -10 56.6628  3.9910   1
  -6  -2 -10 116.497   5.626   1
   6  -2  10 114.885   5.190   3
   6  -2  10 121.967   5.174   2
  -6   2 -10 119.890   5.435   5
  -6   2 -10 124.286   6.006   1
  -6   2 -10 105.924   5.160   3
  -6   2 -10 110.363   4.422   2
  -7  -2 -10 178.893   7.457   1
   7  -2  10 186.474   6.648   2
   7  -2  10 186.895   6.890   3
  -7   2 -10 179.989   6.866   3
  -7   2 -10 185.259   7.772   1
  -7   2 -10 195.837   6.268   2
  -7   2 -10 181.404   7.157   5
   8  -2  10 15.9554  2.5668   2
   8  -2  10 16.1669  2.5242   3
  -8  -2 -10 15.9519  2.7974   1
  -8   2 -10 12.6113  2.5919   3
  -8   2 -10 12.5205  2.5810   1
  -8   2 -10 15.0898  2.5344   5
  -8   2 -10 12.7126  2.1693   2
  -9  -2 -10 190.771   8.415   1
   9  -2  10 197.605   7.577   3
  -9   2 -10 207.256   8.053   3
  -9   2 -10 198.667   8.583   1
 -10  -2 -10 63.7013  5.0635   1
 -10   2 -10 75.0980  5.3644   1
 -10   2 -10 65.4414  4.7057   3
  11  -2  10 449.236  12.597   3
 -11  -2 -10 450.539  14.665   1
 -11   2 -10 465.867  14.629   1
 -11   2 -10 463.643  13.788   3
  12  -2  10 170.565   7.300   3
 -12  -2 -10 176.508   8.592   1
 -12   2 -10 157.718   7.772   3
 -12   2 -10 168.562   8.735   1
 -13  -2 -10 70.4451  5.4728   1
 -13   2 -10 66.0732  5.1710   3
 -14   2 -10 60.9792  4.6821   3
 -14  -3  10 55.6837  5.0007   2
 -14   3  10 59.0566  4.3550   3
 -13  -3  10 13.3634  2.7555   2
 -13   3  10 11.6280  2.4164   3
 -12  -3  10 37.7280  5.1833   1
 -12  -3  10 46.5311  3.9923   2
  12   3 -10 42.0169  5.7097   1
 -12   3  10 41.3576  3.4966   3
 -11  -3  10 64.0639  4.5532   2
 -11  -3  10 76.4801  6.2000   1
 -11   3  10 70.0430  4.0278   3
  11   3 -10 71.2795  6.0178   1
 -10  -3  10 93.4107  5.1751   2
  10   3 -10 88.5864  6.5560   1
 -10   3  10 85.3966  4.1997   3
  -9  -3  10 55.6062  3.8699   2
  -9   3  10 56.9524  3.1777   3
   9   3 -10 51.9939  4.9400   1
  -8  -3  10 92.5019  4.6213   2
  -8   3  10 98.4385  3.6148   3
   8   3 -10 92.7083  6.2964   1
  -7  -3  10 270.907   7.873   2
   7   3 -10 271.445  10.546   1
  -7   3  10 259.570   5.524   3
   6  -3 -10 14.2827  2.8657   3
  -6  -3  10 12.0132  1.9981   2
   6   3 -10 9.29725 2.47257   1
  -6   3  10 11.5003  2.2704   5
   5  -3 -10 560.255  13.413   3
  -5  -3  10 550.823  11.877   2
   5   3 -10 550.701  12.727   4
   5   3 -10 540.365  15.197   1
  -5   3  10 556.314  13.808   5
   4  -3 -10 2543.89   42.94   3
  -4  -3  10 2476.24   40.47   2
  -4   3  10 2513.52   40.75   5
   4   3 -10 2436.86   38.68   4
   4   3 -10 2487.08   44.36   1
  -3  -3  10 729.099  14.029   2
  -3   3  10 711.430  14.952   5
   3   3 -10 697.694  17.155   1
   3   3 -10 705.905  14.883   4
  -2  -3  10 114.701   4.230   2
   2   3 -10 121.238   5.185   4
  -2   3  10 114.794   4.656   5
   2   3 -10 115.218   5.887   1
   1  -3 -10 23.6114  1.6546   2
  -1  -3  10 23.5409  2.0446   2
   1  -3 -10 25.1402  1.6443   1
   1  -3 -10 25.4290  1.8699   5
  -1  -3  10 22.9973  2.1704   3
   1   3 -10 24.0448  2.4598   4
  -1   3  10 23.1300  1.9791   5
   1   3 -10 18.2840  2.8036   1
   0  -3  10 24.4762  2.3347   3
   0  -3  10 29.9877  2.3069   2
   0  -3 -10 32.5272  1.9040   5
   0  -3 -10 28.3143  1.9184   1
   0  -3 -10 28.0350  1.4108   2
   0   3  10 26.9289  1.9002   5
   0   3 -10 22.2388  3.0740   1
   0   3 -10 29.8030  2.6385   4
   1  -3  10 26.1945  2.4447   3
  -1  -3 -10 26.9601  1.5494   5
   1  -3  10 24.3978  2.1859   2
  -1  -3 -10 24.4639  2.0307   1
  -1   3 -10 26.6604  2.5780   4
  -1   3 -10 24.8520  2.7886   1
   2  -3  10 111.842   4.601   2
   2  -3  10 118.783   4.906   3
  -2  -3 -10 110.435   4.461   1
  -2   3 -10 118.821   5.324   4
  -2   3 -10 117.962   5.720   1
  -3  -3 -10 709.384  14.844   1
   3  -3  10 715.628  15.415   3
   3  -3  10 692.561  14.883   2
  -3   3 -10 684.110  16.494   1
  -3   3 -10 699.685  15.276   4
  -3   3 -10 687.575  12.543   3
  -3   3 -10 716.822  15.775   5
   4  -3  10 2466.94   42.72   3
  -4  -3 -10 2448.17   40.80   1
   4  -3  10 2436.50   41.55   2
  -4   3 -10 2442.59   42.81   1
  -4   3 -10 2459.57   40.84   5
  -4   3 -10 2414.84   40.13   3
  -5  -3 -10 535.388  13.317   1
   5  -3  10 532.005  13.185   3
   5  -3  10 536.371  13.014   2
  -5   3 -10 529.309  11.537   3
  -5   3 -10 527.422  14.179   1
  -5   3 -10 536.596  13.745   5
  -6  -3 -10 14.2468  2.6000   1
   6  -3  10 9.89321 2.46185   2
   6  -3  10 11.2088  2.4954   3
  -6   3 -10 10.2767  2.4285   1
  -6   3 -10 10.9971  2.0343   3
  -6   3 -10 13.8920  2.4799   5
   7  -3  10 259.463   8.755   2
  -7  -3 -10 245.864   9.188   1
   7  -3  10 272.156   8.973   3
  -7   3 -10 264.562   9.648   1
  -7   3 -10 253.644   7.923   3
  -8  -3 -10 96.0583  5.8931   1
   8  -3  10 104.406   5.832   3
   8  -3  10 96.2559  5.3494   2
  -8   3 -10 98.4919  5.0320   3
  -8   3 -10 112.209   6.296   1
   9  -3  10 62.6111  4.6821   3
  -9  -3 -10 62.0868  5.0656   1
   9  -3  10 60.9509  4.4734   2
  -9   3 -10 52.7308  4.6045   1
  -9   3 -10 55.3588  4.0645   3
 -10  -3 -10 89.5138  6.2455   1
  10  -3  10 84.5277  5.5673   3
 -10   3 -10 87.5031  5.2670   3
 -10   3 -10 113.046   6.658   1
 -11  -3 -10 62.2448  5.5786   1
  11  -3  10 65.0604  4.9181   3
 -11   3 -10 66.4250  4.8402   3
 -12  -3 -10 36.1545  4.9944   1
 -12   3 -10 44.7539  4.1558   3
  13  -3  10 8.15965 3.23683   3
 -13   3 -10 8.75611 2.41783   3
  14  -3  10 50.8290  5.2550   3
 -14   3 -10 52.6809  4.5325   3
 -13  -4  10 96.8661  6.1929   2
 -12  -4  10 62.0052  4.8352   2
 -11  -4  10 311.549  10.466   2
 -11  -4  10 327.559  13.612   1
  11   4 -10 317.449  13.392   1
 -10  -4  10 43.8088  3.8519   2
  10   4 -10 41.8149  5.7061   1
  -9  -4  10 310.561   9.342   2
   9   4 -10 324.382  12.957   1
   8  -4 -10 10.4786  2.9616   3
  -8  -4  10 7.75893 1.93580   2
   8   4 -10 6.69230 2.70616   1
  -7  -4  10 217.982   6.807   2
   7   4 -10 206.391   9.746   1
  -6  -4  10 3.01911 1.32579   2
   6   4 -10 2.75463 1.63674   4
   6   4 -10 2.20397 1.86196   1
  -5  -4  10 35.7829  2.5808   2
  -5   4  10 31.4712  3.2587   5
   5   4 -10 35.0125  3.4310   4
   5   4 -10 41.3883  4.2202   1
   4  -4 -10 27.4601  2.6002   2
  -4  -4  10 25.8281  2.2114   2
   4   4 -10 31.5135  3.2279   4
  -4   4  10 27.5276  3.4190   5
   4   4 -10 23.6337  3.6695   1
  -3  -4  10 193.492   5.601   2
   3  -4 -10 185.577   5.744   2
  -3   4  10 187.159   7.179   5
   3   4 -10 193.266   7.392   4
   3   4 -10 187.701   8.445   1
   2  -4 -10 25.1714  1.9594   2
  -2  -4  10 25.6235  2.1928   2
   2   4 -10 24.7237  3.5653   1
  -2   4  10 20.5792  2.6423   5
   2   4 -10 25.4168  3.2982   4
  -1  -4  10 61.6877  3.1630   2
  -1   4  10 56.1226  3.5027   5
   1   4 -10 58.4208  4.5240   1
   1   4 -10 61.0796  4.2361   4
   0  -4  10 87.3206  3.9204   2
   0   4 -10 86.1474  5.4721   1
   0   4 -10 86.2317  4.9881   4
  -1  -4 -10 58.6678  3.0692   1
   1  -4  10 61.5019  3.4777   2
  -1   4 -10 68.0369  4.4876   4
  -1   4 -10 64.8371  4.6345   1
  -2  -4 -10 24.5887  2.3152   1
   2  -4  10 21.4415  2.4420   2
  -2   4 -10 21.5295  3.2999   1
  -2   4 -10 27.8815  3.5163   4
  -3  -4 -10 176.132   6.413   1
   3  -4  10 183.150   6.582   2
  -3   4 -10 191.341   7.929   1
  -3   4 -10 183.294   7.617   4
   4  -4  10 26.2938  3.0619   3
  -4  -4 -10 26.9304  2.8101   1
   4  -4  10 33.1726  3.1477   2
  -4   4 -10 28.4495  3.7917   4
  -4   4 -10 29.4538  3.1808   1
   5  -4  10 31.5816  3.2401   3
   5  -4  10 19.3640  2.8800   2
  -5  -4 -10 31.0436  3.1404   1
  -5   4 -10 30.7890  3.9892   1
   6  -4  10 3.89463 2.01313   3
  -6  -4 -10 4.64800 1.77135   1
   6  -4  10 2.00285 1.80971   2
  -6   4 -10 4.05872 1.58646   1
   7  -4  10 212.621   8.385   2
   7  -4  10 224.943   8.695   3
  -7  -4 -10 214.377   8.795   1
  -7   4 -10 227.416   9.261   1
  -8  -4 -10 13.3337  2.9508   1
   8  -4  10 11.5466  2.7859   2
   8  -4  10 14.9942  3.1713   3
  -8   4 -10 11.7335  2.5864   1
   9  -4  10 312.172  10.954   3
   9  -4  10 293.352  10.506   2
  -9  -4 -10 320.460  11.875   1
  -9   4 -10 306.463   7.960   3
 -10  -4 -10 45.0075  4.8659   1
  10  -4  10 42.5253  4.4648   2
  10  -4  10 46.2920  4.9374   3
 -10   4 -10 43.5353  3.1945   3
 -11  -4 -10 311.795  12.650   1
  11  -4  10 313.984  11.649   3
 -11   4 -10 307.093   8.891   3
  12  -4  10 50.9631  4.8654   3
  13  -4  10 84.7049  5.7627   3
 -11  -5  10 14.3491  3.0074   2
 -10  -5  10 90.0274  5.2860   2
  -9  -5  10 117.191   5.488   2
   9   5 -10 103.231   7.717   1
  -8  -5  10 48.8201  3.4269   2
   8   5 -10 50.5503  5.4230   1
  -7  -5  10 1.22827 1.20532   2
   7   5 -10 4.11000 2.20994   1
  -6  -5  10 141.266   5.169   2
   6   5 -10 136.003   6.862   4
   6   5 -10 144.743   8.382   1
   5  -5 -10 29.2398  3.1142   2
  -5  -5  10 32.0471  2.5179   2
   5   5 -10 31.2780  4.0462   4
   5   5 -10 33.9039  4.7542   1
  -4  -5  10 183.312   5.573   2
   4  -5 -10 183.390   6.329   2
   4   5 -10 182.093   9.039   1
   4   5 -10 157.711   7.359   4
  -3  -5  10 18.1184  2.0239   2
   3  -5 -10 22.7713  2.2620   2
   3   5 -10 18.2086  3.1284   4
   3   5 -10 18.8320  3.4379   1
  -2  -5  10 58.3844  3.1203   2
   2   5 -10 48.4101  4.5720   1
   2   5 -10 53.5410  4.4157   4
  -1  -5  10 34.1076  2.5974   2
   1   5 -10 30.0308  4.1800   1
   1   5 -10 32.6478  4.0723   4
   0  -5  10 112.467   4.591   2
   0   5 -10 112.132   6.236   4
   0   5 -10 108.804   6.445   1
   1  -5  10 26.5743  2.6409   2
  -1   5 -10 34.5972  4.1783   4
  -1   5 -10 33.6183  3.6929   1
   2  -5  10 52.4441  3.6122   2
  -2   5 -10 54.3943  4.5563   4
  -2   5 -10 55.9180  4.5862   1
   3  -5  10 18.9536  2.8174   2
  -3   5 -10 23.3192  3.5089   1
  -3   5 -10 18.4486  3.4174   4
  -4  -5 -10 173.569   6.949   1
   4  -5  10 173.097   6.959   2
  -4   5 -10 165.106   8.135   4
  -4   5 -10 180.876   8.136   1
  -5  -5 -10 34.8593  3.4659   1
   5  -5  10 34.0413  3.2362   2
  -5   5 -10 34.6825  4.6304   4
  -5   5 -10 34.2764  3.7694   1
  -6  -5 -10 134.895   6.798   1
   6  -5  10 122.059   6.430   2
  -6   5 -10 147.786   7.450   1
  -6   5 -10 137.079   7.693   4
   7  -5  10 5.74143 2.50881   2
  -7  -5 -10 2.86704 1.75288   1
  -8  -5 -10 41.1404  4.3423   1
   8  -5  10 51.4297  4.6712   2
   8  -5  10 55.6853  4.6884   3
  -9  -5 -10 121.290   7.438   1
   9  -5  10 106.729   6.861   2
   9  -5  10 120.147   7.241   3
 -10  -5 -10 78.5362  6.2174   1
  10  -5  10 77.1903  6.1459   3
  10  -5  10 82.0152  6.0759   2
  11  -5  10 15.9024  4.1266   3
 -10  -6  10 0.73131 1.79165   2
   7   6 -10 129.511   8.517   1
   6  -6 -10 136.921   6.645   2
   6   6 -10 133.770   7.325   4
   6   6 -10 144.457   8.977   1
   5  -6 -10 11.4687  2.6480   2
   5   6 -10 11.3406  3.0482   4
   5   6 -10 13.3577  3.1616   1
   4  -6 -10 126.614   5.533   2
   4   6 -10 117.920   6.878   4
   4   6 -10 121.542   7.836   1
   3  -6 -10 40.3982  3.0519   2
   3   6 -10 32.3012  4.7464   1
   3   6 -10 34.1418  4.4651   4
   2   6 -10 211.789   9.349   4
   2   6 -10 227.753  10.374   1
  -1  -6  10 21.4950  2.4382   2
   1   6 -10 23.3325  3.8880   4
   1   6 -10 26.4225  4.0317   1
   0  -6  10 -0.5255  1.4102   2
   0   6 -10 1.09571 1.63543   1
   0   6 -10 1.29762 1.96973   4
   1  -6  10 19.8408  2.8093   2
  -1   6 -10 24.4633  3.7590   1
  -1   6 -10 18.3732  3.7324   4
   2  -6  10 216.606   7.760   2
  -2   6 -10 222.842   9.766   4
  -2   6 -10 221.101   9.662   1
   3  -6  10 40.5649  3.8054   2
  -3   6 -10 37.7886  4.2139   1
  -3   6 -10 37.0244  4.9598   4
   4  -6  10 117.549   6.198   2
  -4   6 -10 121.786   7.530   4
   5  -6  10 12.8120  2.5852   2
  -5   6 -10 7.73602 3.20652   4
   6  -6  10 140.247   7.135   2
  -6   6 -10 131.572   8.248   4
  -7  -6 -10 116.149   6.928   1
  -7   6 -10 120.886   8.061   4
   8  -6  10 91.9082  6.3842   2
  -8  -6 -10 90.3355  6.3994   1
  -8   6 -10 101.336   7.664   4
   9  -6  10 88.6105  6.5043   2
  -9   6 -10 74.3576  6.5667   4
  10  -6  10 -1.3961  2.1765   3
  10  -6  10 3.26355 2.75189   2
   6  -7 -10 24.7684  3.9706   2
   6   7 -10 27.4995  4.0594   4
   5  -7 -10 34.2309  3.9245   2
   5   7 -10 26.8949  4.2798   4
   4  -7 -10 172.184   6.805   2
   4   7 -10 176.410   9.803   1
   4   7 -10 179.017   9.068   4
   3   7 -10 53.7802  5.2658   4
   3   7 -10 58.9452  5.6266   1
   2   7 -10 107.079   7.535   1
   2   7 -10 111.765   7.281   4
   1   7 -10 5.88806 2.48532   1
   1   7 -10 0.92151 2.18247   4
   0  -7  10 149.029   6.179   2
   0   7 -10 142.692   8.351   4
   1  -7  10 -0.0097  1.8245   2
  -1   7 -10 3.21487 2.50205   4
   2  -7  10 107.142   5.908   2
  -2   7 -10 111.967   7.630   4
   3  -7  10 55.9122  4.6189   2
  -3   7 -10 59.5143  5.7593   4
   4  -7  10 166.927   8.040   2
  -4   7 -10 174.807   9.677   4
   5  -7  10 28.3735  4.2863   2
  -5   7 -10 33.0744  5.0718   4
   6  -7  10 29.9182  4.1693   2
  -6   7 -10 26.7940  4.9920   4
   7  -7  10 162.343   8.390   2
   1  -8  10 153.356   7.102   2
   2  -8  10 48.1946  4.6755   2
 -14   0  11 3.77767 2.50443   3
 -13   0  11 21.7696  3.5439   2
 -13   0  11 19.0702  3.8171   3
 -12   0  11 51.7575  4.7834   3
 -12   0  11 53.4752  4.4432   2
 -11   0  11 358.961  11.254   2
  11   0 -11 356.251   9.589   3
 -11   0  11 359.481  12.101   3
 -10   0  11 88.4801  5.1492   2
 -10   0  11 95.6314  5.7913   3
  10   0 -11 89.3744  4.9839   3
  -9   0  11 45.5566  3.9884   3
   9   0 -11 39.1845  3.5435   1
  -9   0  11 50.2552  3.7557   2
   9   0 -11 40.3162  3.6952   3
  -9   0  11 44.8303  3.5734   1
   8   0 -11 1.58034 2.05137   3
   8   0 -11 -0.4338  1.0158   1
  -8   0  11 1.54465 1.28567   2
  -8   0  11 1.40706 1.50066   3
   7   0 -11 722.007  15.809   1
  -7   0  11 713.787  15.635   2
  -7   0  11 715.996  16.627   3
   6   0 -11 90.9207  4.6099   1
  -6   0  11 99.4618  4.8800   3
  -6   0  11 91.8440  4.3442   2
  -5   0  11 978.668  18.870   2
  -5   0  11 985.132  19.979   3
   5   0 -11 983.703  19.204   1
  -4   0  11 3.04633 1.35087   3
  -4   0  11 2.42885 0.99223   2
   4   0 -11 1.23428 0.90401   1
   4   0 -11 2.62008 1.80956   3
   3   0 -11 538.857  12.095   3
  -3   0  11 542.855  12.233   3
   3   0 -11 544.618  12.194   1
  -3   0  11 550.053  11.513   2
   2   0 -11 10.7836  1.8036   1
  -2   0  11 12.4155  1.6776   2
  -2   0  11 11.8150  1.7303   3
   2   0 -11 12.4578  2.0369   3
   1   0 -11 257.169   7.501   1
  -1   0  11 264.732   6.539   2
   1   0 -11 252.057   5.101   4
   1   0 -11 255.044   7.208   3
  -1   0  11 251.789   6.891   3
   0   0 -11 0.20808 0.70100   1
   0   0  11 1.33066 0.86894   3
   0   0 -11 2.09626 1.36402   3
   0   0 -11 1.86117 0.61791   4
   0   0  11 2.33804 0.72657   2
  -1   0 -11 252.268   7.343   3
  -1   0 -11 263.326   7.792   1
  -1   0 -11 259.916   5.245   4
   1   0  11 257.718   5.474   5
   1   0  11 265.701   6.262   2
  -2   0 -11 10.4687  1.8749   1
   2   0  11 11.6124  0.9895   5
  -2   0 -11 14.1079  2.2399   3
   2   0  11 11.9272  1.5468   3
  -2   0 -11 12.4261  1.3240   4
  -3   0 -11 546.920  12.498   3
  -3   0 -11 556.115  12.930   1
   3   0  11 534.300   9.211   5
   3   0  11 538.679  11.050   3
  -4   0 -11 3.32325 1.85876   3
  -4   0 -11 3.39914 0.76487   5
   4   0  11 2.12369 0.64107   5
  -4   0 -11 3.15860 1.35287   1
  -5   0 -11 980.619  16.129   5
  -5   0 -11 974.485  19.937   3
   5   0  11 955.602  17.559   3
  -5   0 -11 959.882  19.970   1
  -6   0 -11 97.9307  3.7111   5
  -6   0 -11 91.1029  5.0451   1
  -6   0 -11 94.9214  5.3604   3
   6   0  11 93.3047  3.5902   3
  -7   0 -11 713.370  16.563   3
   7   0  11 715.791  13.299   3
  -7   0 -11 692.351  16.849   1
  -8   0 -11 1.55757 1.22942   1
  -8   0 -11 1.90932 1.98509   3
   8   0  11 1.51849 1.09393   3
  -9   0 -11 43.4492  3.9943   1
  -9   0 -11 39.3516  4.2243   3
 -10   0 -11 98.4466  6.0683   3
 -10   0 -11 86.4492  5.7734   1
 -11   0 -11 363.504  12.823   1
 -11   0 -11 373.589  12.379   3
 -12   0 -11 43.9825  4.7015   3
 -12   0 -11 54.6047  4.9907   1
 -13   0 -11 21.0078  3.8812   3
 -13   0 -11 17.4182  3.3926   1
 -14   0 -11 1.35748 1.95162   2
 -14   0 -11 7.87729 2.72044   3
 -14  -1  11 52.3042  4.8560   2
 -14  -1  11 69.4389  5.5315   3
 -14   1  11 56.3159  4.6701   3
 -13  -1  11 44.1440  4.6354   3
 -13  -1  11 46.1531  4.4567   2
  13  -1 -11 50.3073  4.7266   3
 -13   1  11 50.8203  4.5145   3
 -12  -1  11 198.701   9.025   3
 -12  -1  11 196.214   8.431   2
 -12   1  11 195.986   8.690   3
 -11  -1  11 4.67645 2.05710   1
 -11  -1  11 8.86413 2.55267   3
 -11  -1  11 9.26706 2.38652   2
  11   1 -11 8.96638 2.59966   1
 -11   1  11 8.88859 2.41473   3
 -10  -1  11 276.522  10.102   3
 -10  -1  11 283.339   9.494   2
 -10  -1  11 284.556  10.385   1
  10   1 -11 293.333  10.505   1
 -10   1  11 284.153   9.916   3
  -9  -1  11 27.3904  3.0180   2
  -9  -1  11 27.2015  3.6299   3
  -9   1  11 26.3204  2.9864   3
   9   1 -11 25.9317  3.6252   1
  -8  -1  11 706.564  16.081   2
  -8  -1  11 711.065  16.996   3
  -8   1  11 720.131  15.619   2
   8   1 -11 707.156  13.579   3
   8   1 -11 730.677  17.345   1
  -8   1  11 711.058  16.667   3
  -7  -1  11 214.988   7.291   2
  -7  -1  11 216.986   7.756   3
   7   1 -11 218.798   6.248   3
   7   1 -11 223.186   8.273   1
  -7   1  11 218.603   7.532   3
  -7   1  11 213.424   8.006   5
  -7   1  11 215.050   6.874   2
  -6  -1  11 268.524   8.497   3
  -6  -1  11 261.847   7.916   2
   6  -1 -11 267.812   7.311   1
   6   1 -11 276.924   7.376   3
  -6   1  11 276.439   7.573   2
  -6   1  11 282.296   8.813   5
   6   1 -11 270.093   8.977   1
  -6   1  11 286.247   8.452   3
  -5  -1  11 51.6824  3.4531   3
   5  -1 -11 52.1026  2.8397   1
  -5  -1  11 52.2523  3.1738   2
  -5   1  11 48.0832  3.1681   3
  -5   1  11 51.7032  2.9159   2
   5   1 -11 53.3347  3.4878   3
   5   1 -11 52.7908  3.7776   1
  -5   1  11 47.3904  3.2953   5
  -4  -1  11 353.715   8.826   2
   4  -1 -11 354.535   8.344   1
  -4  -1  11 354.226   9.389   3
  -4   1  11 336.707   8.785   5
   4   1 -11 351.310  10.023   1
   4   1 -11 340.781   8.594   3
  -4   1  11 337.645   7.981   2
  -3  -1  11 156.136   5.248   2
   3  -1 -11 154.784   5.028   1
  -3  -1  11 159.101   5.663   3
   3   1 -11 152.619   4.640   4
   3   1 -11 152.260   5.344   3
   3   1 -11 163.470   6.296   1
  -3   1  11 151.748   5.038   5
  -3   1  11 156.066   5.049   3
   2  -1 -11 992.647  17.894   1
  -2  -1  11 999.027  19.298   3
  -2  -1  11 984.606  18.362   2
   2   1 -11 970.842  16.169   4
   2   1 -11 989.475  19.724   1
  -2   1  11 962.460  16.693   5
  -2   1  11 990.372  18.009   3
  -1  -1  11 100.642   4.243   3
  -1  -1  11 100.085   3.959   2
   1  -1 -11 101.575   4.080   1
  -1   1  11 95.6544  3.1093   5
  -1   1  11 94.9722  3.2761   3
   1   1 -11 90.1333  4.4963   1
   1   1 -11 93.7041  4.2783   3
   1   1 -11 100.417   3.576   4
   0  -1 -11 17.2959  1.9426   1
   0  -1  11 15.6701  1.7357   2
   0   1 -11 9.57890 1.85705   1
   0   1  11 12.3938  1.1886   3
   0   1  11 9.12516 0.86324   5
   0   1 -11 11.0026  2.0576   3
   1  -1  11 96.7646  4.0637   3
   1  -1  11 93.9373  3.8409   2
  -1  -1 -11 90.4469  4.1367   1
   1  -1  11 91.1295  3.6479   5
   1   1  11 94.9315  2.5446   3
  -1   1 -11 97.6329  4.7003   1
  -1   1 -11 92.4706  4.3613   3
   1   1  11 94.5020  2.5591   3
  -1   1 -11 98.4199  3.6039   4
  -2  -1 -11 984.349  18.492   3
   2  -1  11 1001.96   19.02   3
   2  -1  11 1017.75   18.43   2
   2  -1  11 982.713  17.129   5
  -2  -1 -11 982.530  18.939   1
  -2   1 -11 975.665  19.418   3
  -2   1 -11 972.251  19.826   1
  -2   1 -11 989.669  16.670   4
  -3  -1 -11 163.677   5.919   1
  -3  -1 -11 154.442   5.342   3
   3  -1  11 153.353   5.160   2
   3  -1  11 151.616   4.817   5
   3  -1  11 156.895   5.354   3
  -3   1 -11 147.278   6.090   1
  -3   1 -11 149.783   5.911   3
  -3   1 -11 151.779   4.687   5
  -4  -1 -11 342.892   8.953   3
   4  -1  11 342.468   8.095   5
   4  -1  11 335.045   8.660   3
  -4  -1 -11 333.727   9.539   1
   4  -1  11 349.463   8.464   2
  -4   1 -11 338.446   9.509   3
  -4   1 -11 341.197  10.084   1
  -4   1 -11 337.301   7.998   5
   5  -1  11 53.9464  3.0694   2
  -5  -1 -11 52.9136  3.9196   3
  -5  -1 -11 45.3131  3.4170   1
   5  -1  11 53.1470  2.9027   5
   5  -1  11 48.0835  3.1156   3
  -5   1 -11 50.1828  3.7414   1
  -5   1 -11 55.0897  4.0442   3
  -5   1 -11 50.4434  2.8868   5
  -6  -1 -11 268.801   8.410   3
  -6  -1 -11 266.905   8.878   1
   6  -1  11 279.915   7.458   5
  -6   1 -11 265.617   9.198   1
  -6   1 -11 253.824   8.671   3
  -6   1 -11 268.528   7.614   5
  -7  -1 -11 209.606   8.108   1
   7  -1  11 219.930   6.978   3
  -7   1 -11 224.748   8.547   1
  -7   1 -11 211.698   7.021   5
  -7   1 -11 212.783   8.038   3
  -8  -1 -11 681.933  17.203   1
   8  -1  11 726.598  15.329   3
  -8   1 -11 699.584  17.536   1
  -8   1 -11 688.935  16.902   3
   9  -1  11 23.4397  2.9037   3
  -9   1 -11 16.8214  3.5166   1
  -9   1 -11 31.0461  4.1223   3
  10  -1  11 300.815   8.422   3
 -10  -1 -11 287.613  10.736   1
 -10   1 -11 276.648  10.194   3
 -10   1 -11 266.678  10.544   1
  11  -1  11 8.39552 2.34547   3
 -11  -1 -11 4.82533 2.14149   1
 -11   1 -11 0.00358 2.07217   1
 -11   1 -11 5.13944 2.69022   3
 -11   1 -11 6.86812 2.14769   2
 -12  -1 -11 186.602   9.296   1
 -12   1 -11 188.473   7.764   2
 -12   1 -11 184.971   8.764   3
 -12   1 -11 169.816   8.982   1
 -13  -1 -11 62.2799  5.0720   1
 -13   1 -11 42.7967  4.2261   2
 -13   1 -11 51.2022  5.2564   3
 -14   1 -11 48.4502  5.3553   3
 -14  -2  11 2.55118 2.09171   2
 -14   2  11 2.58957 1.92899   3
 -13  -2  11 90.2351  6.5345   1
 -13  -2  11 79.8168  5.6333   2
 -13   2  11 76.0461  5.3585   3
  13   2 -11 86.3486  6.6704   1
 -12  -2  11 123.483   6.606   2
 -12  -2  11 114.505   7.427   1
 -12   2  11 126.847   6.609   3
  12   2 -11 118.073   7.577   1
 -11  -2  11 94.9467  6.5325   1
 -11   2  11 87.4038  5.3452   3
  11   2 -11 89.6644  6.3321   1
 -10  -2  11 11.3977  2.3215   2
  10   2 -11 11.5768  2.9983   1
 -10   2  11 11.0250  2.3840   3
  -9  -2  11 106.121   5.329   2
   9   2 -11 118.490   6.806   1
  -9   2  11 110.180   5.435   3
  -8  -2  11 115.090   5.345   2
   8   2 -11 113.919   6.491   1
  -8   2  11 112.480   5.161   3
  -7  -2  11 451.011  12.086   3
  -7  -2  11 443.864  11.304   2
  -7   2  11 451.127  11.081   3
   7   2 -11 443.520  13.289   1
  -7   2  11 458.257  12.858   5
  -6  -2  11 196.456   6.981   3
  -6  -2  11 190.194   6.479   2
  -6   2  11 183.517   7.289   5
   6   2 -11 202.146   8.201   1
  -6   2  11 190.351   6.075   3
  -5  -2  11 262.054   8.094   3
  -5  -2  11 257.677   7.575   2
  -5   2  11 269.304   8.438   5
  -5   2  11 271.898   6.909   3
   5   2 -11 262.049   9.352   1
  -4  -2  11 235.294   6.876   2
  -4  -2  11 230.820   7.334   3
  -4   2  11 228.986   5.664   3
   4   2 -11 231.630   6.842   4
  -4   2  11 238.308   7.394   5
   4   2 -11 252.510   8.798   1
  -3  -2  11 983.133  19.547   3
   3  -2 -11 985.086  16.666   1
  -3  -2  11 988.918  18.569   2
  -3   2  11 969.680  18.032   5
   3   2 -11 993.640  17.634   4
  -3   2  11 984.960  16.184   3
   3   2 -11 973.877  20.802   1
   2  -2 -11 187.229   5.181   1
  -2  -2  11 189.217   6.259   3
  -2  -2  11 191.536   5.914   2
   2   2 -11 192.220   4.652   3
   2   2 -11 190.178   5.980   4
   2   2 -11 190.861   7.380   1
  -2   2  11 196.364   5.611   5
   1  -2 -11 1241.06   21.46   1
  -1  -2  11 1239.44   22.61   2
  -1  -2  11 1298.46   22.93   5
  -1  -2  11 1236.41   23.69   3
   1   2 -11 1296.75   21.85   3
   1   2 -11 1290.06   21.45   4
  -1   2  11 1293.20   20.44   5
   1   2 -11 1273.01   24.88   1
   0  -2  11 77.7761  3.8336   3
   0  -2  11 70.4134  3.4547   2
   0  -2  11 74.3492  3.8842   5
   0  -2 -11 76.3319  3.4513   1
   0   2 -11 77.0855  4.4266   1
   0   2 -11 77.9179  3.4044   3
   0   2  11 82.6949  2.5923   5
   0   2 -11 74.1299  3.6551   4
  -1  -2 -11 1260.12   22.03   1
   1  -2  11 1325.62   22.61   5
   1  -2  11 1252.01   23.43   3
   1  -2  11 1105.90   22.15   2
  -1   2 -11 1236.95   24.40   1
  -1   2 -11 1253.59   21.19   4
  -1   2 -11 1281.18   22.50   3
   2  -2  11 189.793   6.377   5
   2  -2  11 184.898   6.229   3
   2  -2  11 194.213   6.135   2
  -2  -2 -11 188.764   6.198   1
  -2   2 -11 187.531   6.155   4
  -2   2 -11 186.439   6.024   3
  -2   2 -11 190.429   7.347   1
   3  -2  11 1001.29   18.85   5
  -3  -2 -11 983.849  19.097   1
   3  -2  11 994.978  19.665   3
   3  -2  11 971.342  19.003   2
  -3   2 -11 953.059  20.592   1
  -3   2 -11 983.566  18.476   5
   4  -2  11 241.975   7.357   2
  -4  -2 -11 246.508   7.793   1
   4  -2  11 240.515   7.432   3
   4  -2  11 233.701   7.317   5
  -4   2 -11 227.666   7.205   5
  -4   2 -11 240.794   7.467   3
  -4   2 -11 220.601   8.232   1
   5  -2  11 264.833   8.057   3
  -5  -2 -11 262.202   8.515   1
   5  -2  11 275.875   8.057   2
  -5   2 -11 261.929   8.060   5
  -5   2 -11 257.677   8.173   3
  -5   2 -11 238.535   8.889   1
   6  -2  11 196.472   6.779   2
  -6  -2 -11 178.853   7.207   1
   6  -2  11 180.830   6.722   3
  -6   2 -11 190.113   6.967   5
  -6   2 -11 189.187   7.824   1
  -6   2 -11 196.159   7.123   3
   7  -2  11 436.522  11.584   3
  -7  -2 -11 437.363  12.569   1
   7  -2  11 453.217  11.376   2
  -7   2 -11 444.340  10.650   2
  -7   2 -11 460.829  13.307   1
  -7   2 -11 444.643  11.984   5
  -7   2 -11 425.566  11.738   3
   8  -2  11 101.863   5.125   3
  -8  -2 -11 109.271   6.061   1
  -8   2 -11 101.511   5.474   3
  -8   2 -11 105.894   5.605   5
  -8   2 -11 101.203   6.015   1
   9  -2  11 111.319   5.665   3
  -9  -2 -11 112.289   6.433   1
  -9   2 -11 99.2007  6.2189   1
  -9   2 -11 105.329   5.854   3
 -10  -2 -11 8.92523 2.44714   1
  10  -2  11 8.13970 2.50332   3
 -10   2 -11 14.3793  2.9592   3
 -10   2 -11 8.36843 2.18865   1
 -11  -2 -11 104.161   6.585   1
  11  -2  11 86.0806  5.3308   3
 -11   2 -11 95.2007  5.8833   3
 -11   2 -11 86.9770  6.1783   1
 -12  -2 -11 130.193   7.663   1
  12  -2  11 122.865   6.325   3
 -12   2 -11 120.712   6.821   3
 -12   2 -11 111.178   7.231   1
 -13   2 -11 78.7235  5.6006   3
 -13   2 -11 71.8085  5.9089   1
 -13  -3  11 105.255   6.495   2
 -13   3  11 112.158   5.463   3
 -12  -3  11 208.732  10.447   1
 -12  -3  11 209.368   8.748   2
  12   3 -11 202.502  10.339   1
 -12   3  11 206.719   7.310   3
 -11  -3  11 21.9663  3.2429   2
 -11  -3  11 25.1524  4.2647   1
  11   3 -11 23.8912  4.2691   1
 -11   3  11 27.7335  2.8009   3
 -10  -3  11 126.509   6.214   2
  10   3 -11 125.539   7.740   1
 -10   3  11 135.438   5.204   3
  -9  -3  11 66.0537  4.3550   2
  -9   3  11 65.1203  3.2858   3
   9   3 -11 62.9214  5.4214   1
  -8  -3  11 151.217   6.186   2
  -8   3  11 145.439   4.372   3
   8   3 -11 143.310   7.882   1
  -7  -3  11 31.2776  2.8632   2
   7   3 -11 23.0540  3.7898   1
  -6  -3  11 402.610  10.140   2
  -6   3  11 406.917  11.878   5
   6   3 -11 386.342  12.865   1
  -5  -3  11 84.7535  4.0978   2
  -5   3  11 94.9713  5.1042   5
   5   3 -11 88.5627  4.6588   4
   5   3 -11 84.7229  5.6598   1
  -4  -3  11 583.501  12.664   2
   4  -3 -11 604.645  13.773   3
  -4   3  11 577.272  13.655   5
   4   3 -11 585.166  13.242   4
   4   3 -11 582.640  15.842   1
  -3  -3  11 229.152   6.689   2
   3   3 -11 233.995   7.567   4
   3   3 -11 230.284   8.986   1
  -3   3  11 232.018   7.337   5
  -2  -3  11 319.185   8.225   2
   2   3 -11 334.588  10.790   1
   2   3 -11 316.272   9.020   4
  -2   3  11 320.025   8.409   5
  -1  -3  11 232.368   6.688   2
   1  -3 -11 234.518   5.883   1
  -1  -3  11 236.284   7.179   3
   1   3 -11 219.730   8.477   1
  -1   3  11 233.631   6.453   5
   1   3 -11 232.601   7.465   4
   0  -3  11 20.5581  2.3695   3
   0  -3  11 21.2289  2.1949   2
   0  -3 -11 19.0417  1.7312   1
   0   3  11 19.7969  1.6528   5
   0   3 -11 21.9070  3.1806   1
   0   3 -11 21.7166  2.7557   4
   1  -3  11 221.315   7.074   3
  -1  -3 -11 222.511   6.443   1
   1  -3  11 220.993   6.768   2
  -1   3 -11 223.488   7.441   4
  -1   3 -11 224.934   8.424   1
   2  -3  11 326.656   9.060   3
  -2  -3 -11 316.582   8.452   1
   2  -3  11 315.105   8.702   2
  -2   3 -11 311.087   9.176   4
  -2   3 -11 310.351  10.136   1
   3  -3  11 226.778   7.464   3
  -3  -3 -11 220.426   7.184   1
  -3   3 -11 239.900   8.068   5
  -3   3 -11 221.316   7.801   4
  -3   3 -11 233.060   5.660   3
  -3   3 -11 216.766   8.449   1
  -4  -3 -11 581.720  13.705   1
   4  -3  11 580.001  13.851   3
   4  -3  11 599.632  13.802   2
  -4   3 -11 558.818  15.112   1
  -4   3 -11 580.958  12.015   3
  -4   3 -11 586.845  14.202   5
  -5  -3 -11 87.2333  4.8818   1
   5  -3  11 85.8203  4.7924   2
   5  -3  11 84.6998  4.7636   3
  -5   3 -11 87.6323  5.0190   5
  -5   3 -11 86.9427  5.3419   1
  -5   3 -11 81.1037  3.9923   3
   6  -3  11 404.124  11.242   2
  -6  -3 -11 403.588  11.772   1
   6  -3  11 406.726  11.473   3
  -6   3 -11 400.168  10.210   3
  -6   3 -11 398.735  12.453   1
  -6   3 -11 401.128  11.857   5
  -7  -3 -11 31.6586  3.5098   1
   7  -3  11 29.4157  3.2816   2
   7  -3  11 27.8185  3.3091   3
  -7   3 -11 32.7609  3.5947   1
  -7   3 -11 30.0530  3.0108   3
   8  -3  11 148.855   6.625   2
  -8  -3 -11 137.543   7.153   1
   8  -3  11 146.457   6.753   3
  -8   3 -11 158.529   7.626   1
  -8   3 -11 139.178   6.092   3
  -9  -3 -11 62.7746  5.1356   1
   9  -3  11 68.3522  4.7829   2
   9  -3  11 62.0449  4.7046   3
  -9   3 -11 68.0512  4.5505   3
  -9   3 -11 65.7371  5.3327   1
  10  -3  11 128.837   6.688   3
 -10  -3 -11 129.026   7.516   1
 -10   3 -11 123.407   6.214   3
 -10   3 -11 140.168   7.745   1
 -11  -3 -11 23.7047  3.9742   1
  11  -3  11 27.6483  3.9806   3
 -11   3 -11 25.0002  4.1302   1
 -11   3 -11 25.9450  3.7214   3
 -12  -3 -11 199.591  10.037   1
 -12   3 -11 190.705   8.357   3
  13  -3  11 106.666   6.554   3
 -13   3 -11 102.666   6.031   3
 -12  -4  11 52.0592  4.5830   2
 -11  -4  11 26.3506  3.6526   2
 -11  -4  11 32.6181  4.8830   1
  11   4 -11 20.0935  4.2840   1
 -10  -4  11 60.6654  4.5370   2
  10   4 -11 46.0231  5.8749   1
  -9  -4  11 64.3899  4.4195   2
   9   4 -11 71.7331  6.2114   1
  -8  -4  11 155.972   6.331   2
   8   4 -11 145.633   8.516   1
  -7  -4  11 282.556   8.514   2
   7   4 -11 294.878  11.953   1
  -6  -4  11 209.649   6.875   2
   6   4 -11 209.048   9.734   1
   6   4 -11 221.086   8.169   4
  -5  -4  11 15.1006  2.1640   2
   5   4 -11 12.1839  2.9200   1
  -5   4  11 12.1206  2.4195   5
   5   4 -11 15.3928  2.7808   4
  -4  -4  11 70.7246  3.6425   2
  -4   4  11 68.9460  4.4921   5
   4   4 -11 73.9899  5.4760   1
   4   4 -11 69.3272  4.5380   4
  -3  -4  11 296.441   7.784   2
   3  -4 -11 291.206   7.727   2
   3   4 -11 284.978  10.760   1
   3   4 -11 277.231   9.196   4
  -2  -4  11 25.5981  2.3594   2
   2  -4 -11 26.1989  2.1493   2
   2   4 -11 26.0747  3.4406   4
   2   4 -11 27.2716  3.8034   1
   1  -4 -11 453.245   9.093   2
  -1  -4  11 458.993  10.641   2
   1   4 -11 451.630  12.157   4
   1   4 -11 464.331  13.820   1
   0  -4  11 311.768   8.408   2
   0   4 -11 301.651  10.752   1
   0   4 -11 316.471   9.887   4
   1  -4  11 464.356  11.148   2
  -1   4 -11 445.410  12.265   4
  -1   4 -11 455.717  13.485   1
   2  -4  11 25.9299  2.7479   2
  -2  -4 -11 27.7485  2.4209   1
  -2   4 -11 17.1514  2.9694   4
  -2   4 -11 26.5013  3.5757   1
  -3  -4 -11 277.267   8.435   1
   3  -4  11 282.444   8.707   2
  -3   4 -11 301.259   9.980   4
  -3   4 -11 292.077  10.381   1
   4  -4  11 63.7644  4.2345   2
  -4  -4 -11 71.2561  4.3085   1
   4  -4  11 65.0022  4.3407   3
  -4   4 -11 69.4908  4.9453   4
  -4   4 -11 73.6499  5.0427   1
   5  -4  11 9.40140 2.40022   2
   5  -4  11 15.7638  2.8719   3
  -5  -4 -11 13.4404  2.5205   1
  -5   4 -11 15.7708  3.0532   4
  -5   4 -11 7.19528 2.40235   1
  -6  -4 -11 224.799   8.656   1
   6  -4  11 205.292   8.125   2
   6  -4  11 220.383   8.380   3
  -6   4 -11 215.217   9.064   1
  -7  -4 -11 275.246  10.249   1
   7  -4  11 300.613  10.281   3
   7  -4  11 291.364  10.036   2
  -7   4 -11 274.294  10.629   1
  -8  -4 -11 143.999   7.585   1
   8  -4  11 153.345   7.233   2
   8  -4  11 161.674   7.526   3
  -8   4 -11 147.908   7.899   1
   9  -4  11 73.5262  5.6078   3
   9  -4  11 71.8039  5.2867   2
  -9  -4 -11 77.5738  5.8974   1
  -9   4 -11 68.7498  3.5626   3
 -10  -4 -11 55.7892  5.3405   1
  10  -4  11 63.2154  5.6154   3
 -10   4 -11 57.7433  3.5565   3
  11  -4  11 23.6272  4.2296   3
 -11  -4 -11 21.8773  4.1632   1
  12  -4  11 45.3163  4.3092   3
 -11  -5  11 17.9765  3.3308   2
 -10  -5  11 21.6910  3.3472   2
  -9  -5  11 65.0965  4.5208   2
   9   5 -11 57.1166  5.8816   1
  -8  -5  11 158.473   6.557   2
   8   5 -11 162.581   9.499   1
  -7  -5  11 2.72628 1.62254   2
   7   5 -11 2.65467 2.33220   1
  -6  -5  11 127.158   5.326   2
   6   5 -11 136.098   8.159   1
   6   5 -11 127.670   6.757   4
  -5  -5  11 81.2445  4.0850   2
   5   5 -11 94.2838  6.7734   1
   5   5 -11 80.7865  5.4001   4
  -4  -5  11 196.021   6.309   2
   4  -5 -11 201.393   6.835   2
   4   5 -11 192.178   8.200   4
   4   5 -11 178.445   9.251   1
   3  -5 -11 61.5206  3.5262   2
  -3  -5  11 68.4252  3.6148   2
   3   5 -11 69.9441  5.6035   1
   3   5 -11 63.2039  4.7929   4
   2  -5 -11 57.3147  3.0311   2
  -2  -5  11 65.5312  3.5810   2
   2   5 -11 60.1324  5.1585   1
   2   5 -11 56.7873  4.6554   4
  -1  -5  11 33.2007  2.7393   2
   1   5 -11 33.5218  4.1503   4
   1   5 -11 33.9254  4.4205   1
   0  -5  11 31.1131  2.8580   2
   0   5 -11 37.7842  4.0239   1
   0   5 -11 40.1553  3.9596   4
   1  -5  11 35.1067  3.0607   2
  -1   5 -11 31.0241  4.2328   1
  -1   5 -11 35.6613  4.3032   4
   2  -5  11 54.8583  3.8533   2
  -2   5 -11 61.6286  4.9789   1
  -2   5 -11 54.9924  4.6948   4
   3  -5  11 58.6687  4.1056   2
  -3   5 -11 60.1518  4.9637   1
  -3   5 -11 65.4716  5.1322   4
  -4  -5 -11 209.417   7.784   1
   4  -5  11 193.040   7.555   2
  -4   5 -11 199.923   8.997   4
  -4   5 -11 198.009   8.908   1
   5  -5  11 74.4427  4.9313   2
  -5  -5 -11 78.1852  5.0572   1
  -5   5 -11 83.4353  5.7388   1
  -5   5 -11 82.4641  6.0429   4
  -6  -5 -11 125.070   6.728   1
  -6   5 -11 132.187   7.261   1
  -6   5 -11 127.187   7.622   4
   7  -5  11 4.21468 2.36693   2
   7  -5  11 7.61499 2.37245   3
  -7  -5 -11 2.81067 1.90668   1
  -7   5 -11 2.51971 2.33986   4
   8  -5  11 160.147   7.925   2
  -8  -5 -11 167.831   8.492   1
   8  -5  11 157.105   7.697   3
   9  -5  11 56.6874  5.2147   2
   9  -5  11 57.9286  5.4780   3
  -9  -5 -11 57.7011  5.4048   1
  10  -5  11 19.5976  3.9539   2
  10  -5  11 17.6406  4.2783   3
  11  -5  11 19.6520  4.3767   3
  -9  -6  11 15.7180  2.7449   2
  -8  -6  11 24.0019  3.1659   2
  -7  -6  11 63.3963  3.9827   2
   7   6 -11 67.6373  5.9747   1
   6   6 -11 7.28823 2.67835   4
   6   6 -11 3.84717 2.13002   1
   5  -6 -11 46.1629  3.9345   2
   5   6 -11 55.6461  4.9794   4
   5   6 -11 41.1139  5.7652   1
   4  -6 -11 90.3849  4.8669   2
   4   6 -11 79.2097  6.5143   1
   4   6 -11 96.5122  6.3311   4
   3  -6 -11 130.342   5.183   2
  -3  -6  11 130.163   5.253   2
   3   6 -11 133.663   7.430   4
   3   6 -11 135.851   8.234   1
  -2  -6  11 69.6927  3.8954   2
   2   6 -11 60.8112  5.2712   4
   2   6 -11 70.3892  5.8449   1
  -1  -6  11 267.517   8.116   2
   1   6 -11 257.925  11.153   1
   1   6 -11 263.211  10.536   4
   0  -6  11 0.24707 1.62865   2
   0   6 -11 -1.1033  1.7675   4
   0   6 -11 15.9507  3.6385   1
   1  -6  11 264.774   8.627   2
  -1   6 -11 254.143  10.565   4
  -1   6 -11 279.766  11.230   1
   2  -6  11 66.8433  4.5269   2
  -2   6 -11 76.3743  5.9813   4
  -2   6 -11 57.6335  5.1566   1
   3  -6  11 114.926   6.062   2
  -3   6 -11 127.398   7.574   4
  -3   6 -11 124.177   7.265   1
   4  -6  11 86.6405  5.4706   2
  -4   6 -11 92.1077  6.7597   4
   5  -6  11 49.3347  4.1572   2
  -5   6 -11 43.6069  5.7383   4
   6  -6  11 6.60222 2.71901   2
  -6   6 -11 3.62419 2.86073   4
   7  -6  11 54.5708  5.0333   2
  -7   6 -11 64.0223  6.1627   4
  -8  -6 -11 20.7444  3.7445   1
   8  -6  11 15.3475  3.7516   2
  -8   6 -11 17.9992  4.4862   4
   9  -6  11 8.78679 3.36980   2
  -9   6 -11 8.90251 3.18007   4
   6   7 -11 55.8249  5.2957   4
   5  -7 -11 91.6373  5.5647   2
   5   7 -11 81.7803  6.2536   4
   4  -7 -11 69.0108  4.5415   2
   4   7 -11 64.2516  5.6476   4
   4   7 -11 74.5106  6.2459   1
   3   7 -11 44.3530  5.6459   4
   3   7 -11 45.9940  5.0789   1
   2   7 -11 36.2524  4.9628   1
   2   7 -11 37.2581  5.1611   4
  -1  -7  11 9.90798 2.24640   2
   1   7 -11 16.9458  3.5530   1
   1   7 -11 12.4998  3.4143   4
   0  -7  11 13.9992  2.8021   2
   0   7 -11 12.3524  3.6179   4
   0   7 -11 27.0519  4.3499   1
   1  -7  11 10.3274  2.9269   2
  -1   7 -11 9.48180 3.17731   4
   2  -7  11 31.4413  4.0759   2
  -2   7 -11 32.0703  5.1620   4
   3  -7  11 41.2104  4.4954   2
  -3   7 -11 49.1690  6.0399   4
   4  -7  11 57.9680  5.0155   2
  -4   7 -11 63.6839  6.1933   4
   5  -7  11 91.2482  6.2440   2
  -5   7 -11 92.7263  7.1975   4
   6  -7  11 57.9573  4.8367   2
  -6   7 -11 55.8424  6.7313   4
   7  -7  11 1.57862 2.61933   2
 -14   0  12 91.1503  6.6923   3
 -13   0  12 57.0849  5.2458   3
 -12   0  12 100.888   6.621   3
 -12   0  12 108.723   6.333   2
 -11   0  12 612.474  16.991   3
 -11   0  12 601.190  15.755   2
  11   0 -12 609.447  13.918   3
 -10   0  12 30.1687  3.2696   2
 -10   0  12 35.0698  3.8653   3
  10   0 -12 28.1190  3.4639   3
  -9   0  12 680.124  16.101   2
   9   0 -12 675.228  15.318   3
  -9   0  12 679.326  17.125   3
   8   0 -12 16.1716  2.9306   3
   8   0 -12 17.6640  2.8086   1
  -8   0  12 17.5086  2.8837   3
  -8   0  12 14.7259  2.5093   2
  -7   0  12 54.9114  4.0862   3
   7   0 -12 58.2401  3.9769   1
  -7   0  12 60.2836  3.8496   2
  -6   0  12 67.4376  3.8409   2
   6   0 -12 67.5768  4.0595   1
  -6   0  12 66.0368  4.1499   3
   6   0 -12 64.7455  4.3469   3
   5   0 -12 1086.21   21.02   1
  -5   0  12 1104.00   20.69   2
   5   0 -12 1071.31   21.23   3
  -5   0  12 1060.26   21.70   3
  -4   0  12 63.3722  3.3933   2
   4   0 -12 59.9836  3.6349   1
  -4   0  12 65.0564  3.7734   3
   4   0 -12 61.4241  4.1633   3
   3   0 -12 387.621   9.878   3
  -3   0  12 389.479   9.980   3
  -3   0  12 397.356   9.397   2
   3   0 -12 392.223  10.091   1
   2   0 -12 203.676   6.730   1
   2   0 -12 199.744   6.560   3
  -2   0  12 194.294   5.788   2
  -2   0  12 192.469   6.189   3
   1   0 -12 7.79897 1.02230   4
   1   0 -12 10.0711  2.0944   3
  -1   0  12 15.2656  1.7536   2
  -1   0  12 12.6438  1.8392   3
   1   0 -12 8.18383 1.74646   1
   0   0 -12 836.608  12.908   4
   0   0  12 849.481  15.545   2
   0   0  12 843.434  16.348   3
   0   0 -12 830.129  16.953   3
   0   0 -12 837.287  17.184   1
  -1   0 -12 10.2655  2.1457   3
   1   0  12 9.83996 1.40097   2
  -1   0 -12 10.6059  1.1061   4
   1   0  12 7.50750 1.02519   5
   1   0  12 4.78230 1.14424   3
  -1   0 -12 9.44903 1.80589   1
  -2   0 -12 199.835   6.985   1
   2   0  12 202.005   4.501   5
   2   0  12 202.538   5.683   3
  -2   0 -12 196.995   4.725   4
  -2   0 -12 194.973   6.737   3
   3   0  12 379.595   8.744   3
  -3   0 -12 389.859  10.688   1
  -3   0 -12 388.799  10.295   3
   3   0  12 389.897   7.103   5
  -4   0 -12 70.9616  4.4464   3
  -4   0 -12 59.7405  3.9976   1
   4   0  12 60.6241  2.2055   5
   4   0  12 59.0044  2.8338   3
  -5   0 -12 1077.30   21.97   3
  -5   0 -12 1065.01   22.16   1
   5   0  12 1089.68   19.46   3
  -5   0 -12 1087.06   17.49   5
  -6   0 -12 61.5847  4.8517   3
   6   0  12 69.8649  3.1025   3
  -6   0 -12 66.4031  4.4155   1
   7   0  12 54.2744  2.7393   3
  -7   0 -12 56.9796  4.2774   1
  -7   0 -12 57.5792  4.6440   3
   8   0  12 13.4258  1.4716   3
  -8   0 -12 13.9137  2.6337   1
  -8   0 -12 14.0936  3.0085   3
  -9   0 -12 665.657  16.956   3
  -9   0 -12 639.661  17.282   1
 -10   0 -12 27.3707  4.1422   3
 -10   0 -12 29.3243  4.1025   1
 -11   0 -12 582.028  17.247   1
 -11   0 -12 590.683  16.575   3
 -12   0 -12 104.916   6.935   3
 -12   0 -12 94.9719  6.6559   1
 -13   0 -12 60.9321  5.3872   3
 -13   0 -12 51.0070  5.1236   1
 -14   0 -12 87.3921  6.5015   3
 -14   0 -12 92.4254  6.0609   2
 -14  -1  12 16.6829  3.4109   2
 -14  -1  12 24.5067  4.5318   3
 -14   1  12 18.7322  3.0283   3
  13  -1 -12 125.705   6.550   3
 -13  -1  12 130.474   7.185   2
 -13  -1  12 127.485   7.657   3
 -13   1  12 132.980   7.164   3
 -12  -1  12 28.3758  4.0622   2
 -12  -1  12 29.0455  4.2390   3
 -12   1  12 28.7375  3.3584   3
 -11  -1  12 2.75448 1.82643   2
 -11  -1  12 4.06176 1.91929   3
  11   1 -12 4.37826 2.24019   1
 -11   1  12 4.38461 1.65858   3
 -10  -1  12 4.31832 1.90741   1
 -10  -1  12 12.6997  2.7829   3
 -10  -1  12 11.1674  2.5224   2
  10   1 -12 10.5880  2.7029   1
 -10   1  12 8.73715 2.06445   3
  -9  -1  12 236.874   9.007   3
  -9  -1  12 245.830   8.630   2
   9   1 -12 228.769   9.062   1
  -9   1  12 227.534   8.538   3
  -8  -1  12 86.7727  4.7675   2
  -8  -1  12 86.3776  5.2412   3
   8   1 -12 84.8032  3.7989   3
   8   1 -12 74.2436  5.0059   1
  -8   1  12 83.9440  4.7592   3
  -7  -1  12 86.9690  4.6118   2
  -7  -1  12 84.0340  4.8494   3
   7   1 -12 86.4299  4.0814   3
  -7   1  12 91.7304  5.1350   5
   7   1 -12 80.8252  4.9776   1
  -7   1  12 88.5549  4.6832   3
   6  -1 -12 83.1724  3.8408   1
  -6  -1  12 75.3210  4.5063   3
  -6  -1  12 77.1898  4.2253   2
  -6   1  12 83.6950  4.6989   5
   6   1 -12 81.9517  4.9265   1
   6   1 -12 86.3960  4.2610   3
  -6   1  12 89.2167  4.4487   3
  -6   1  12 91.1668  4.0716   2
  -5  -1  12 128.821   5.176   2
   5  -1 -12 128.122   4.741   1
  -5  -1  12 121.147   5.443   3
  -5   1  12 128.668   4.732   2
   5   1 -12 135.404   6.097   1
  -5   1  12 129.764   5.491   5
  -5   1  12 125.599   5.146   3
   5   1 -12 129.027   5.217   3
   4  -1 -12 380.160   9.063   1
  -4  -1  12 374.963   9.473   2
  -4  -1  12 367.205  10.054   3
  -4   1  12 374.139   8.568   2
   4   1 -12 367.386  10.641   1
   4   1 -12 362.674   9.325   3
  -4   1  12 374.069   9.421   5
   3  -1 -12 57.1222  3.1226   1
  -3  -1  12 67.4504  3.4729   2
  -3  -1  12 61.0490  3.5952   3
  -3   1  12 58.8396  3.0923   3
   3   1 -12 55.2377  3.8051   1
  -3   1  12 61.6302  3.1653   5
   3   1 -12 57.5961  3.7077   3
   3   1 -12 63.1360  2.9479   4
  -2  -1  12 84.6449  4.1015   3
  -2  -1  12 86.2251  3.8717   2
   2  -1 -12 75.1579  3.6273   1
   2   1 -12 74.0130  3.1161   4
  -2   1  12 72.4978  3.2271   3
  -2   1  12 72.8497  3.1145   5
   2   1 -12 80.2547  4.4753   1
  -1  -1  12 434.971  10.083   2
   1  -1 -12 434.952  10.282   1
  -1  -1  12 432.154  10.586   3
   1   1 -12 432.667   8.873   4
   1   1 -12 446.740  10.558   3
   1   1 -12 435.003  11.384   1
  -1   1  12 421.095   8.350   5
  -1   1  12 434.283   9.092   3
   0  -1 -12 118.855   4.743   1
   0  -1  12 110.600   4.564   3
   0  -1  12 113.978   4.222   5
   0  -1  12 110.436   4.307   2
   0   1  12 106.608   2.873   5
   0   1  12 110.768   3.348   3
   0   1 -12 109.157   4.795   3
   0   1 -12 107.900   5.142   1
   0   1 -12 112.491   3.875   4
   1  -1  12 439.305  10.427   3
  -1  -1 -12 432.334  10.160   3
   1  -1  12 434.769   9.483   5
   1  -1  12 432.430   9.988   2
  -1  -1 -12 415.882  10.480   1
  -1   1 -12 431.577  11.534   1
   1   1  12 443.028   8.084   3
  -1   1 -12 433.752   8.976   4
  -1   1 -12 441.665  10.825   3
  -2  -1 -12 72.3019  3.9333   3
   2  -1  12 79.2417  3.8064   3
   2  -1  12 76.4533  3.6332   2
   2  -1  12 71.0995  3.2274   5
  -2  -1 -12 70.0132  3.9639   1
  -2   1 -12 84.0816  3.5173   4
  -2   1 -12 80.2968  4.5222   1
  -2   1 -12 80.5889  4.5495   3
   3  -1  12 59.8414  2.9703   5
   3  -1  12 58.8520  3.2897   3
  -3  -1 -12 65.8052  3.9848   3
   3  -1  12 60.2648  3.2411   2
  -3  -1 -12 61.0192  3.7287   1
  -3   1 -12 59.5877  4.0526   1
  -3   1 -12 56.3426  4.0712   3
   4  -1  12 360.809   8.505   5
   4  -1  12 383.351   9.127   2
  -4  -1 -12 369.151   9.778   3
  -4  -1 -12 368.017  10.347   1
   4  -1  12 368.764   9.371   3
  -4   1 -12 363.728  10.830   1
  -4   1 -12 366.513   8.419   5
  -4   1 -12 367.616  10.259   3
  -5  -1 -12 118.442   5.720   1
   5  -1  12 128.984   4.640   5
   5  -1  12 130.962   5.131   3
   5  -1  12 127.252   4.765   2
  -5  -1 -12 119.838   5.597   3
  -5   1 -12 125.708   6.058   3
  -5   1 -12 124.686   4.606   5
  -5   1 -12 131.829   6.272   1
  -6  -1 -12 78.7575  4.8016   1
  -6  -1 -12 83.2630  5.0043   3
  -6   1 -12 74.3841  4.8891   1
  -6   1 -12 77.8980  3.8185   5
  -6   1 -12 77.4878  4.9740   3
   7  -1  12 85.2366  4.2707   3
  -7  -1 -12 92.2946  5.4330   1
  -7   1 -12 85.6915  5.4794   3
  -7   1 -12 85.6703  5.3519   1
  -8  -1 -12 80.6241  5.3612   1
   8  -1  12 80.5494  4.3362   3
  -8   1 -12 89.1736  5.6881   1
  -8   1 -12 78.6961  5.3391   3
   9  -1  12 236.418   7.408   3
  -9  -1 -12 229.690   9.368   1
  -9   1 -12 236.703   9.699   1
  -9   1 -12 223.458   8.976   3
  10  -1  12 10.3202  2.4294   3
 -10  -1 -12 8.81841 2.36805   1
 -10   1 -12 21.2275  3.6999   1
 -10   1 -12 13.1539  3.0685   3
 -11  -1 -12 3.61698 1.88636   1
 -11   1 -12 2.50476 2.55342   3
 -11   1 -12 3.82818 1.88840   1
 -12  -1 -12 30.6594  4.2937   1
 -12   1 -12 31.7781  4.6352   3
 -12   1 -12 23.3596  3.5632   2
 -12   1 -12 31.6270  4.5672   1
 -13   1 -12 130.463   7.989   1
 -13   1 -12 121.245   6.688   2
 -13   1 -12 120.519   7.595   3
 -14   1 -12 21.0860  4.1504   3
 -14  -2  12 17.3221  3.4453   2
 -14   2  12 17.9044  3.0431   3
 -13  -2  12 321.064  11.768   2
 -13   2  12 341.871  11.640   3
 -12  -2  12 11.4075  3.1392   1
 -12  -2  12 11.2300  2.7009   2
  12   2 -12 13.7674  3.3922   1
 -12   2  12 15.5439  3.0162   3
 -11  -2  12 110.536   6.080   2
 -11  -2  12 107.955   6.992   1
  11   2 -12 108.433   7.112   1
 -11   2  12 102.196   5.784   3
 -10   2  12 73.8891  4.6631   3
  10   2 -12 66.4995  5.4650   1
  -9  -2  12 165.694   6.872   2
  -9   2  12 164.650   6.666   3
   9   2 -12 146.827   7.805   1
  -8  -2  12 125.774   5.793   2
   8   2 -12 122.097   6.840   1
  -8   2  12 129.222   5.535   3
  -7  -2  12 250.719   8.658   3
  -7  -2  12 249.930   8.152   2
  -7   2  12 255.178   7.760   3
   7   2 -12 253.816   9.776   1
  -6  -2  12 57.3471  3.7313   2
  -6  -2  12 54.6548  3.9045   3
   6   2 -12 58.2361  4.6063   1
  -6   2  12 56.8296  3.2358   3
  -6   2  12 60.4989  4.0887   5
  -5  -2  12 390.313  10.644   3
  -5  -2  12 373.037   9.846   2
  -5   2  12 379.954   8.852   3
  -5   2  12 384.305  10.554   5
   5   2 -12 379.799  11.868   1
  -4  -2  12 7.80286 1.80496   3
  -4  -2  12 4.90973 1.43277   2
  -4   2  12 5.81468 1.50567   5
   4   2 -12 8.65084 1.74848   4
   4   2 -12 8.02798 2.20334   1
  -4   2  12 9.28007 1.26411   3
  -3  -2  12 134.571   5.150   2
   3  -2 -12 141.361   4.353   1
  -3  -2  12 136.306   5.514   3
   3   2 -12 134.834   5.045   4
  -3   2  12 139.845   3.300   3
  -3   2  12 138.375   5.105   5
   3   2 -12 150.487   3.753   3
   3   2 -12 137.449   6.465   1
  -2  -2  12 145.059   5.266   2
  -2  -2  12 151.901   5.759   3
   2  -2 -12 144.516   4.697   1
   2   2 -12 148.251   4.414   3
  -2   2  12 155.431   4.926   5
   2   2 -12 156.095   6.811   1
   2   2 -12 155.218   5.378   4
  -1  -2  12 169.035   6.023   3
  -1  -2  12 134.311   5.186   2
   1  -2 -12 168.274   5.319   1
   1   2 -12 165.935   6.958   1
   1   2 -12 168.921   5.002   3
   1   2 -12 167.389   5.643   4
  -1   2  12 168.304   4.636   5
   0  -2 -12 61.7279  3.3236   1
   0  -2  12 67.5134  3.7045   3
   0  -2  12 64.6989  3.6504   5
   0   2  12 62.9301  2.2416   5
   0   2 -12 64.4737  3.3690   3
   0   2 -12 67.1341  3.5566   4
   0   2 -12 68.4328  4.3871   1
  -1  -2 -12 166.718   5.735   1
   1  -2  12 168.405   5.768   2
   1  -2  12 169.693   6.045   5
   1  -2  12 170.156   6.058   3
  -1   2 -12 165.361   6.940   1
  -1   2 -12 170.955   5.679   3
  -1   2 -12 164.119   5.701   4
   2  -2  12 157.786   5.887   3
   2  -2  12 144.626   5.426   2
  -2  -2 -12 148.926   5.582   1
   2  -2  12 147.412   5.637   5
  -2   2 -12 144.695   5.459   3
  -2   2 -12 148.698   5.515   4
  -2   2 -12 142.353   6.498   1
   3  -2  12 142.244   5.484   2
  -3  -2 -12 135.127   5.641   1
   3  -2  12 143.066   5.572   5
   3  -2  12 142.396   5.635   3
  -3   2 -12 134.064   5.348   4
  -3   2 -12 144.524   6.552   1
   4  -2  12 5.16462 1.70172   2
  -4  -2 -12 6.82953 1.78530   1
   4  -2  12 7.90744 1.99343   3
  -4   2 -12 5.66223 1.72371   1
  -4   2 -12 10.4440  2.4234   3
  -4   2 -12 4.47616 1.30644   5
   5  -2  12 378.141  10.281   3
  -5  -2 -12 366.307  10.695   1
   5  -2  12 377.585  10.036   2
  -5   2 -12 380.907  10.400   3
  -5   2 -12 360.043  11.460   1
  -5   2 -12 370.739   9.973   5
   6  -2  12 52.1841  3.6888   3
   6  -2  12 57.2407  3.7814   2
  -6  -2 -12 52.7907  4.0230   1
  -6   2 -12 53.8196  4.0347   3
  -6   2 -12 53.1440  3.6538   5
  -6   2 -12 52.4491  4.2422   1
   7  -2  12 253.798   8.073   2
  -7  -2 -12 229.012   8.881   1
   7  -2  12 248.923   8.179   3
  -7   2 -12 241.738   8.461   3
  -7   2 -12 252.662   8.497   5
  -7   2 -12 236.349   9.403   1
   8  -2  12 123.422   5.741   3
  -8  -2 -12 120.460   6.581   1
  -8   2 -12 130.298   6.975   1
  -8   2 -12 118.231   5.935   3
  -9  -2 -12 153.765   7.762   1
   9  -2  12 133.163   6.280   3
  -9   2 -12 144.646   6.806   3
  -9   2 -12 148.215   7.772   1
 -10  -2 -12 76.0389  5.7676   1
  10  -2  12 77.2638  4.9866   3
 -10   2 -12 68.7671  5.4459   1
 -10   2 -12 82.4072  5.4679   3
  11  -2  12 104.672   5.806   3
 -11  -2 -12 94.0197  6.5942   1
 -11   2 -12 110.539   6.453   3
 -11   2 -12 105.809   7.006   1
  12  -2  12 14.4241  3.3928   3
 -12   2 -12 8.30393 2.46383   3
 -12   2 -12 16.3618  3.3507   1
 -13   2 -12 319.279  11.731   3
 -13   2 -12 321.228  12.997   1
 -14   2 -12 26.2827  2.7379   3
 -13  -3  12 120.223   6.993   2
 -12  -3  12 42.2438  4.1222   2
 -12  -3  12 42.5908  5.8721   1
  12   3 -12 46.7749  5.1381   1
 -11  -3  12 17.3710  3.5586   1
 -11  -3  12 11.0215  2.3273   2
 -11   3  12 17.1687  2.4805   3
  11   3 -12 11.6951  3.3972   1
 -10  -3  12 65.5757  4.4870   2
  10   3 -12 78.6873  6.3531   1
 -10   3  12 77.1858  3.7813   3
  -9  -3  12 161.675   6.795   2
   9   3 -12 146.497   8.354   1
  -9   3  12 158.974   5.018   3
  -8  -3  12 63.5139  4.1692   2
   8   3 -12 66.3209  5.4987   1
  -7  -3  12 170.039   6.557   2
   7   3 -12 174.799   8.586   1
  -6  -3  12 399.120  10.498   2
  -6   3  12 409.871  11.950   5
   6   3 -12 390.193  13.119   1
  -5  -3  12 603.517  13.631   2
   5   3 -12 612.053  16.805   1
   5   3 -12 591.460  13.669   4
  -5   3  12 605.194  14.717   5
  -4  -3  12 573.737  12.843   2
   4   3 -12 559.831  15.786   1
  -4   3  12 572.116  13.502   5
   4   3 -12 565.151  13.120   4
  -3  -3  12 505.996  11.555   2
   3   3 -12 491.751  14.281   1
  -3   3  12 485.141  11.664   5
   3   3 -12 501.567  12.036   4
  -2  -3  12 144.954   5.359   2
   2   3 -12 144.569   5.953   4
   2   3 -12 145.062   7.095   1
  -2   3  12 144.145   5.237   5
  -1  -3  12 406.152  10.098   2
  -1  -3  12 426.538  10.841   3
   1   3 -12 411.328  12.443   1
   1   3 -12 413.795  10.737   4
   0  -3  12 1166.61   22.82   3
   0  -3  12 1167.23   21.85   2
   0  -3 -12 1167.34   20.57   1
   0   3 -12 1117.85   24.29   1
   0   3 -12 1166.79   21.53   4
   1  -3  12 412.910  10.803   3
  -1  -3 -12 419.518   9.893   1
   1  -3  12 404.817  10.355   2
  -1   3 -12 413.539  10.806   4
  -1   3 -12 413.163  12.377   1
   2  -3  12 133.194   5.529   2
   2  -3  12 145.762   5.883   3
  -2  -3 -12 143.577   5.489   1
  -2   3 -12 151.194   6.262   4
  -2   3 -12 145.890   3.809   3
  -2   3 -12 149.352   6.913   1
   3  -3  12 493.151  12.148   2
   3  -3  12 499.564  12.544   3
  -3  -3 -12 499.983  12.103   1
  -3   3 -12 499.426  10.235   3
  -3   3 -12 496.172  14.025   1
  -3   3 -12 494.581  12.539   4
   4  -3  12 562.520  13.832   3
   4  -3  12 563.077  13.642   2
  -4  -3 -12 546.940  13.540   1
  -4   3 -12 565.374  11.995   3
  -4   3 -12 586.456  14.136   5
  -4   3 -12 565.431  13.891   4
  -4   3 -12 572.549  15.470   1
   5  -3  12 596.385  14.658   3
  -5  -3 -12 588.085  14.583   1
   5  -3  12 612.696  14.574   2
  -5   3 -12 587.603  12.998   3
  -5   3 -12 590.070  16.050   1
  -5   3 -12 593.090  14.730   5
   6  -3  12 403.852  11.415   2
   6  -3  12 411.789  11.635   3
  -6  -3 -12 394.805  11.786   1
  -6   3 -12 382.615  12.599   1
  -6   3 -12 397.484  11.810   5
  -6   3 -12 411.485  10.445   3
   7  -3  12 175.514   7.417   3
   7  -3  12 175.130   7.205   2
  -7  -3 -12 173.541   7.741   1
  -7   3 -12 183.890   6.853   3
  -7   3 -12 175.435   8.302   1
  -8  -3 -12 54.8480  4.6496   1
   8  -3  12 56.4427  4.4092   2
   8  -3  12 56.4946  4.3867   3
  -8   3 -12 60.9703  4.2256   3
  -8   3 -12 56.0069  4.7129   1
  -9  -3 -12 146.751   7.766   1
   9  -3  12 150.235   7.121   3
  -9   3 -12 170.743   8.442   1
  -9   3 -12 152.819   6.733   3
 -10  -3 -12 72.8325  5.7458   1
  10  -3  12 73.9679  5.1004   3
 -10   3 -12 73.1388  4.9137   3
 -10   3 -12 65.3859  5.7817   1
  11  -3  12 21.3848  3.7279   3
 -11  -3 -12 17.0917  3.4786   1
 -11   3 -12 19.0225  3.3620   3
 -11   3 -12 32.0059  4.5637   1
  12  -3  12 42.6047  4.5085   3
 -12   3 -12 50.8810  4.4961   3
  13  -3  12 109.162   6.538   3
 -13   3 -12 110.195   6.443   3
 -12  -4  12 31.7411  4.2421   2
 -11  -4  12 101.291   5.974   2
 -10  -4  12 16.9330  3.0011   2
  10   4 -12 11.6394  3.3620   1
  -9  -4  12 132.864   6.388   2
   9   4 -12 120.848   8.077   1
  -8  -4  12 23.5433  3.1667   2
   8   4 -12 21.6540  3.9862   1
  -7  -4  12 59.0737  4.0518   2
   7   4 -12 54.3100  5.4704   1
  -6  -4  12 162.647   6.225   2
   6   4 -12 164.068   7.087   4
   6   4 -12 162.249   8.733   1
  -5  -4  12 81.9285  4.2978   2
   5   4 -12 79.5131  4.9806   4
   5   4 -12 77.6204  5.9449   1
  -4  -4  12 305.413   8.504   2
   4   4 -12 303.415  11.623   1
   4   4 -12 304.903   9.779   4
  -3  -4  12 78.3451  4.0700   2
   3   4 -12 71.0571  4.6626   4
   3   4 -12 80.8601  5.6639   1
  -2  -4  12 49.9459  3.3451   2
   2   4 -12 49.4875  3.9801   4
   2   4 -12 57.3075  4.7251   1
   1  -4 -12 221.514   5.816   2
  -1  -4  12 216.612   6.924   2
   1   4 -12 202.206   7.844   4
   1   4 -12 204.570   8.965   1
   0  -4  12 35.5259  2.9761   2
   0  -4 -12 40.1782  2.1219   2
   0   4 -12 37.2620  3.5499   4
   0   4 -12 38.9270  3.9155   1
   1  -4  12 216.015   7.180   2
  -1   4 -12 211.476   8.057   4
  -1   4 -12 205.466   8.814   1
  -2  -4 -12 50.2311  3.2473   1
   2  -4  12 52.3437  3.7152   2
  -2   4 -12 55.4817  4.2747   4
  -2   4 -12 54.4094  4.5501   1
   3  -4  12 72.5286  4.4165   2
  -3  -4 -12 70.5836  4.1298   1
   3  -4  12 72.7057  4.4843   3
  -3   4 -12 76.1284  5.4054   1
  -3   4 -12 78.3572  5.1702   4
  -4  -4 -12 305.445   9.433   1
   4  -4  12 307.746   9.808   3
  -4   4 -12 309.744  10.503   4
  -4   4 -12 304.446  10.968   1
   5  -4  12 80.9912  4.9092   3
   5  -4  12 75.8377  4.7643   2
  -5  -4 -12 82.0619  4.9282   1
  -5   4 -12 79.9136  5.4430   4
  -5   4 -12 73.5210  5.3461   1
  -6  -4 -12 159.661   7.273   1
   6  -4  12 144.074   6.930   3
   6  -4  12 159.596   7.206   2
  -6   4 -12 153.676   7.806   1
   7  -4  12 55.1586  4.6248   3
   7  -4  12 46.0434  4.2969   2
  -7  -4 -12 54.5598  4.5832   1
  -7   4 -12 63.9339  5.1496   1
   8  -4  12 23.9568  3.7609   3
   8  -4  12 13.4101  3.0699   2
  -8  -4 -12 23.6224  3.7420   1
  -8   4 -12 18.1131  3.4813   1
   9  -4  12 120.449   7.030   3
  -9  -4 -12 129.742   7.528   1
   9  -4  12 119.589   6.699   2
  -9   4 -12 131.408   7.736   1
 -10  -4 -12 20.0707  3.7739   1
  10  -4  12 15.7011  3.8010   3
  11  -4  12 114.180   7.070   3
  12  -4  12 36.4783  3.7918   3
 -11  -5  12 58.2368  4.9742   2
 -10  -5  12 22.7626  3.4598   2
  -9  -5  12 62.7846  4.6006   2
  -8  -5  12 233.241   8.336   2
   8   5 -12 231.165  11.593   1
  -7  -5  12 31.1109  3.2418   2
   7   5 -12 31.5903  5.0082   1
  -6  -5  12 163.759   6.453   2
   6   5 -12 173.080   7.916   4
   6   5 -12 166.064   9.277   1
  -5  -5  12 105.272   5.051   2
   5   5 -12 106.907   6.261   4
   5   5 -12 107.149   7.322   1
  -4  -5  12 562.161  12.974   2
   4   5 -12 575.812  15.270   4
   4   5 -12 541.617  17.329   1
  -3  -5  12 14.1475  2.2771   2
   3  -5 -12 17.9816  2.4612   2
   3   5 -12 19.3369  3.3868   4
   3   5 -12 10.6828  2.9851   1
  -2  -5  12 314.554   8.808   2
   2  -5 -12 307.806   7.974   2
   2   5 -12 311.107  10.804   4
   2   5 -12 299.562  11.925   1
  -1  -5  12 73.5598  4.1754   2
   1   5 -12 78.9165  5.4565   4
   1   5 -12 81.4509  5.9323   1
   0  -5  12 653.482  14.951   2
   0   5 -12 677.861  18.596   1
   0   5 -12 665.461  16.883   4
   1  -5  12 81.2301  4.5277   2
  -1   5 -12 51.7382  5.0743   1
  -1   5 -12 65.5801  5.0652   4
   2  -5  12 308.379   9.519   2
  -2   5 -12 306.169  10.934   4
  -2   5 -12 290.603  11.250   1
   3  -5  12 12.6057  2.5215   2
  -3   5 -12 24.6281  3.7193   1
  -3   5 -12 17.2029  3.5456   4
   4  -5  12 550.253  14.455   2
  -4   5 -12 557.812  16.404   1
  -4   5 -12 559.472  16.009   4
  -5  -5 -12 105.744   5.839   1
   5  -5  12 96.4469  5.7590   2
  -5   5 -12 93.6794  6.4015   1
  -5   5 -12 96.6659  6.5638   4
   6  -5  12 161.932   7.666   2
  -6  -5 -12 158.561   7.515   1
  -6   5 -12 156.856   8.259   1
  -6   5 -12 150.923   8.309   4
  -7  -5 -12 26.7610  3.9977   1
   7  -5  12 28.1033  4.0510   2
   7  -5  12 36.8795  4.0930   3
  -7   5 -12 25.0481  4.3452   4
   8  -5  12 223.568   9.485   3
  -8  -5 -12 233.488  10.145   1
   8  -5  12 228.317   9.675   2
   9  -5  12 58.5133  5.6623   3
  -9  -5 -12 66.7625  5.7079   1
   9  -5  12 65.6690  5.6053   2
  10  -5  12 16.9807  4.1113   3
  10  -5  12 9.16107 3.43888   2
  11  -5  12 57.4594  5.6270   3
  -9  -6  12 106.062   5.964   2
  -8  -6  12 22.9070  3.1905   2
  -7  -6  12 3.94727 1.71462   2
  -6  -6  12 51.3400  3.6680   2
   6   6 -12 60.8869  5.9383   1
   6   6 -12 51.3310  4.9002   4
  -5  -6  12 9.61260 2.02812   2
   5   6 -12 17.6309  3.6982   1
   5   6 -12 12.0836  3.2151   4
  -4  -6  12 72.7526  4.1166   2
   4  -6 -12 71.3002  4.5387   2
   4   6 -12 68.6994  5.5185   4
   4   6 -12 69.8688  6.3577   1
  -3  -6  12 3.19499 1.65460   2
   3  -6 -12 0.38537 1.43270   2
   3   6 -12 9.96000 2.71705   1
   3   6 -12 -0.2623  1.8534   4
  -2  -6  12 73.7242  4.3694   2
   2   6 -12 73.9987  5.7157   4
   2   6 -12 73.4683  6.2397   1
  -1  -6  12 10.7905  2.5183   2
   1   6 -12 5.37531 2.67867   1
   1   6 -12 13.7280  3.2670   4
   0  -6  12 -0.4585  1.6466   2
   0   6 -12 3.27941 1.97270   1
   0   6 -12 3.29633 2.31012   4
   1  -6  12 14.8149  2.8391   2
  -1   6 -12 12.1275  3.1431   1
  -1   6 -12 12.6673  3.2770   4
   2  -6  12 85.3230  5.3533   2
  -2   6 -12 71.7581  5.8978   1
  -2   6 -12 78.8818  6.1403   4
   3  -6  12 -0.7858  1.8306   2
  -3   6 -12 0.55395 2.09915   4
  -3   6 -12 3.26517 1.95661   1
   4  -6  12 62.6944  4.7021   2
  -4   6 -12 69.7025  6.0096   4
   5  -6  12 11.7018  2.5688   2
  -5   6 -12 12.0978  3.6090   4
   6  -6  12 42.2466  4.5181   2
  -6   6 -12 47.3081  6.1900   4
   7  -6  12 5.51813 2.64986   2
  -7   6 -12 1.13772 2.84008   4
   8  -6  12 16.4642  3.7449   2
  -8   6 -12 24.8468  4.7950   4
   9  -6  12 104.050   7.191   2
   5   7 -12 33.1026  4.9345   4
   4  -7 -12 46.4521  4.0282   2
   4   7 -12 51.5538  5.0209   4
  -3  -7  12 8.62255 2.13463   2
   3   7 -12 4.53713 2.46359   4
   3   7 -12 6.02170 2.38143   1
  -2  -7  12 98.6651  5.2001   2
   2   7 -12 100.206   7.430   1
   2   7 -12 95.4218  7.0479   4
  -1  -7  12 58.0492  4.3896   2
   1   7 -12 70.1673  5.9575   1
   1   7 -12 64.9278  6.1411   4
   0  -7  12 189.842   7.853   2
   0   7 -12 190.469  10.001   1
   0   7 -12 189.134   9.854   4
   1  -7  12 59.5281  4.7420   2
  -1   7 -12 49.7991  5.9689   4
   2  -7  12 96.6479  6.0646   2
  -2   7 -12 97.5266  7.2989   4
   3  -7  12 12.8351  3.3302   2
  -3   7 -12 9.93050 3.44296   4
   4  -7  12 29.2597  4.2097   2
  -4   7 -12 36.3204  5.4648   4
   5  -7  12 32.1523  3.8279   2
  -5   7 -12 33.2138  5.0766   4
   6  -7  12 62.1719  5.3487   2
 -14   0  13 45.6904  4.8349   3
 -13   0  13 53.3065  5.1058   3
 -12   0  13 458.237  14.853   3
 -12   0  13 475.524  14.009   2
  11   0 -13 34.6400  3.7130   3
 -11   0  13 34.1117  4.0249   3
 -11   0  13 34.2382  3.8389   2
 -10   0  13 3.93062 1.87087   2
  10   0 -13 5.50937 2.48413   3
 -10   0  13 4.77964 2.19040   3
  -9   0  13 47.1848  4.2373   3
  -9   0  13 55.6623  4.0712   2
   9   0 -13 46.5827  4.1895   3
  -8   0  13 184.373   7.069   2
   8   0 -13 177.868   7.141   1
   8   0 -13 171.751   6.842   3
  -8   0  13 178.802   7.526   3
   7   0 -13 453.804  12.033   1
  -7   0  13 455.615  12.571   3
  -7   0  13 457.197  11.759   2
  -6   0  13 12.5893  2.3164   3
   6   0 -13 12.5382  2.6743   3
  -6   0  13 11.5050  2.1169   2
   6   0 -13 12.6692  2.3254   1
   5   0 -13 111.346   5.264   1
   5   0 -13 115.577   5.482   3
  -5   0  13 111.539   5.267   3
  -5   0  13 112.319   4.825   2
   4   0 -13 25.6635  2.6430   1
  -4   0  13 28.2654  2.6646   3
   4   0 -13 29.9126  3.5301   3
  -4   0  13 28.9373  2.5114   2
  -3   0  13 416.610   9.912   2
   3   0 -13 412.151  10.739   1
   3   0 -13 410.323  10.613   3
  -3   0  13 417.652  10.627   3
  -2   0  13 75.8785  3.7848   3
  -2   0  13 81.3641  3.6738   2
   2   0 -13 78.5978  4.4383   3
   2   0 -13 81.5184  4.3515   1
   1   0 -13 2613.53   45.17   3
   1   0 -13 2655.94   43.89   1
   1   0 -13 2628.84   36.51   4
  -1   0  13 2647.71   44.80   3
  -1   0  13 2725.55   43.02   2
   0   0 -13 5.11262 2.00802   3
   0   0  13 3.73701 1.09510   2
   0   0 -13 3.03955 1.25862   1
   0   0  13 3.57076 1.24241   3
  -1   0 -13 2655.68   45.22   3
   1   0  13 2657.45   42.11   2
   1   0  13 2664.00   38.43   5
  -1   0 -13 2647.11   36.44   4
  -1   0 -13 2564.70   43.79   1
  -2   0 -13 76.6857  4.3829   1
  -2   0 -13 77.3653  4.6332   3
   2   0  13 79.6469  2.6209   5
   2   0  13 83.5155  3.5581   3
  -2   0 -13 82.7292  2.8618   4
   3   0  13 418.810   7.450   5
  -3   0 -13 403.328  10.900   3
  -3   0 -13 411.217  11.399   1
   3   0  13 410.144   9.304   3
  -4   0 -13 32.0853  3.1873   1
  -4   0 -13 28.6185  3.5517   3
   4   0  13 27.5394  2.1751   3
  -5   0 -13 117.242   5.911   3
   5   0  13 113.315   4.070   3
  -5   0 -13 107.147   5.682   1
  -6   0 -13 11.3309  2.8222   3
   6   0  13 11.5351  1.7024   3
  -6   0 -13 9.72410 2.24992   1
  -7   0 -13 438.709  13.075   1
  -7   0 -13 440.484  12.592   3
   7   0  13 463.275   9.217   3
  -8   0 -13 167.084   7.804   1
  -8   0 -13 170.928   7.609   3
  -9   0 -13 45.4061  4.3038   1
  -9   0 -13 46.9586  4.7169   3
 -10   0 -13 7.81605 2.21811   1
 -10   0 -13 1.31051 2.29560   3
 -11   0 -13 37.1325  4.4980   3
 -11   0 -13 36.5232  4.8904   1
 -12   0 -13 438.624  15.143   1
 -12   0 -13 462.768  14.823   3
 -13   0 -13 59.7457  5.4621   3
 -14   0 -13 53.7220  5.2753   3
 -14   0 -13 39.8615  4.4044   2
 -14  -1  13 36.8215  5.1809   3
 -14  -1  13 32.8041  4.6511   2
 -14   1  13 40.9294  3.8202   3
 -13  -1  13 39.4522  4.6734   3
 -13  -1  13 53.0881  4.8800   2
  13  -1 -13 48.9422  4.5119   3
 -13   1  13 44.2164  4.1983   3
 -12  -1  13 147.228   7.447   2
 -12  -1  13 142.885   7.932   3
  12  -1 -13 156.237   7.339   3
 -12   1  13 151.685   7.557   3
 -11  -1  13 90.1936  5.7132   2
 -11  -1  13 101.079   6.437   3
 -11   1  13 104.303   5.997   3
 -10  -1  13 0.41097 1.74068   3
 -10  -1  13 2.98849 1.76191   2
  10   1 -13 1.71227 1.69615   1
 -10   1  13 2.33752 1.54058   3
  -9  -1  13 7.14805 2.04357   2
  -9  -1  13 7.37118 2.37073   3
  -9   1  13 15.3171  2.6794   3
   9   1 -13 10.0241  2.5514   1
  -8  -1  13 152.004   6.499   2
  -8  -1  13 146.523   6.875   3
   8   1 -13 150.240   5.189   3
  -8   1  13 144.661   6.432   3
   8   1 -13 149.520   7.090   1
  -7  -1  13 306.044   9.974   3
  -7  -1  13 303.323   9.359   2
   7   1 -13 308.548   8.230   3
  -7   1  13 305.356   9.466   3
   7   1 -13 318.178  10.465   1
  -6  -1  13 302.582   9.501   3
  -6  -1  13 291.512   8.808   2
  -6   1  13 308.790   9.492   5
  -6   1  13 296.389   8.957   3
   6   1 -13 299.285   9.927   1
   6   1 -13 291.693   8.207   3
   5  -1 -13 250.593   7.268   1
  -5  -1  13 249.569   8.287   3
  -5  -1  13 248.596   7.770   2
   5   1 -13 241.804   7.524   3
   5   1 -13 257.764   8.911   1
  -5   1  13 252.260   8.013   5
  -5   1  13 223.762   7.453   3
  -4  -1  13 231.003   7.728   3
  -4  -1  13 233.082   7.264   2
   4  -1 -13 234.604   6.923   1
  -4   1  13 227.289   7.082   5
   4   1 -13 226.674   7.297   3
   4   1 -13 225.472   8.190   1
  -3  -1  13 29.8107  2.7444   3
  -3  -1  13 30.3503  2.5638   2
   3  -1 -13 29.4342  2.4685   1
   3   1 -13 28.9088  3.0016   1
   3   1 -13 27.1322  2.0912   4
  -3   1  13 29.9460  2.3527   3
  -3   1  13 27.2994  2.2354   5
   3   1 -13 30.4963  3.1864   3
  -2  -1  13 47.0977  3.0842   2
  -2  -1  13 48.2278  3.3545   3
   2  -1 -13 52.1696  3.1741   1
  -2   1  13 47.6722  2.5661   5
   2   1 -13 51.4758  2.7037   4
   2   1 -13 40.0266  3.3281   3
  -2   1  13 49.3203  2.7112   3
   2   1 -13 49.9022  3.7578   1
  -1  -1  13 209.449   6.835   3
  -1  -1  13 212.772   6.515   2
   1  -1 -13 211.847   6.824   1
   1   1 -13 223.772   7.218   3
   1   1 -13 214.061   5.684   4
  -1   1  13 203.147   5.159   5
   1   1 -13 219.694   7.773   1
  -1   1  13 222.397   5.732   3
   0  -1 -13 168.195   6.006   1
   0  -1  13 163.828   5.571   2
   0  -1  13 158.302   5.775   3
   0  -1  13 160.086   5.274   5
   0   1 -13 160.553   4.875   4
   0   1  13 154.108   3.727   5
   0   1 -13 170.530   6.211   3
   0   1 -13 162.102   6.685   1
   0   1  13 161.654   4.361   3
  -1  -1 -13 208.182   6.818   3
  -1  -1 -13 213.729   7.090   1
   1  -1  13 217.238   6.793   3
   1  -1  13 221.500   6.176   5
   1  -1  13 209.654   6.428   2
  -1   1 -13 201.827   5.633   4
  -1   1 -13 203.954   7.093   3
  -1   1 -13 192.914   7.536   1
   1   1  13 205.830   4.696   3
  -2  -1 -13 53.2256  3.6053   1
   2  -1  13 46.9224  2.6759   5
   2  -1  13 46.9015  2.9749   2
  -2  -1 -13 47.6883  3.7119   3
   2  -1  13 50.3841  3.2026   3
  -2   1 -13 47.4782  3.6936   1
  -2   1 -13 50.2376  4.0060   3
  -2   1 -13 49.0114  2.8099   4
  -3  -1 -13 29.5089  2.8266   1
   3  -1  13 26.3951  2.5155   3
  -3  -1 -13 31.4967  3.3057   3
   3  -1  13 27.9993  2.4530   2
   3  -1  13 27.9275  2.0985   5
  -3   1 -13 28.7100  3.5057   3
  -3   1 -13 31.2152  3.1508   1
  -3   1 -13 27.9490  2.3847   4
  -4  -1 -13 226.888   7.709   3
  -4  -1 -13 225.332   7.896   1
   4  -1  13 225.646   6.695   2
   4  -1  13 221.027   6.968   3
   4  -1  13 224.311   6.302   5
  -4   1 -13 225.095   8.400   1
  -4   1 -13 230.323   8.011   3
  -5  -1 -13 239.559   8.588   1
   5  -1  13 242.110   7.429   3
  -5  -1 -13 237.557   8.121   3
  -5   1 -13 258.890   6.913   5
  -5   1 -13 248.992   9.128   1
  -5   1 -13 245.514   8.546   3
  -6  -1 -13 293.974   9.260   3
  -6  -1 -13 299.137   9.998   1
  -6   1 -13 295.909  10.311   1
  -6   1 -13 285.256   9.488   3
  -7  -1 -13 294.197  10.403   1
   7  -1  13 311.552   8.731   3
  -7   1 -13 301.544  10.764   1
  -7   1 -13 315.501  10.306   3
  -8  -1 -13 142.635   7.219   1
   8  -1  13 147.420   5.735   3
  -8   1 -13 145.367   7.176   3
  -8   1 -13 147.776   7.562   1
   9  -1  13 10.9567  2.3746   3
  -9  -1 -13 10.2564  2.6647   1
  -9   1 -13 13.9978  3.0730   1
  -9   1 -13 15.7412  3.4577   3
 -10  -1 -13 -0.7372  1.2549   1
  10  -1  13 1.76408 1.95599   3
 -10   1 -13 0.99145 2.23226   3
 -10   1 -13 2.16600 1.65641   1
 -11  -1 -13 92.0069  6.3515   1
 -11   1 -13 98.2881  6.4880   3
 -11   1 -13 107.954   6.938   1
 -12  -1 -13 147.410   8.040   1
 -12   1 -13 136.955   8.151   1
 -12   1 -13 144.319   8.196   3
 -12   1 -13 146.847   7.039   2
 -13   1 -13 43.0378  5.2070   3
 -14   1 -13 44.1511  4.7731   3
 -13  -2  13 24.5621  4.0563   2
 -13   2  13 31.2178  3.4648   3
 -12  -2  13 161.577   7.983   2
 -12  -2  13 154.178   8.635   1
 -12   2  13 156.544   7.352   3
  12   2 -13 150.649   8.693   1
 -11  -2  13 48.2175  4.8936   1
 -11  -2  13 45.4131  4.2840   2
 -11   2  13 37.5336  3.6882   3
  11   2 -13 41.8107  5.2907   1
 -10  -2  13 7.02828 2.22785   2
  10   2 -13 8.63717 2.72070   1
 -10   2  13 9.81732 2.29275   3
  -9   2  13 141.846   6.152   3
   9   2 -13 136.642   7.659   1
  -8  -2  13 186.695   7.680   3
  -8   2  13 184.595   6.759   3
   8   2 -13 171.010   8.349   1
  -7  -2  13 139.210   6.425   3
  -7  -2  13 134.244   5.939   2
  -7   2  13 135.784   5.441   3
   7   2 -13 133.032   7.126   1
  -6  -2  13 204.422   7.168   2
  -6  -2  13 199.711   7.589   3
  -6   2  13 204.548   7.786   5
   6   2 -13 191.506   8.405   1
  -6   2  13 198.001   6.245   3
  -5  -2  13 640.202  14.604   2
  -5  -2  13 668.592  15.595   3
  -5   2  13 645.887  13.140   3
   5   2 -13 646.870  16.782   1
  -5   2  13 651.674  14.935   5
  -4  -2  13 330.426   9.183   2
  -4  -2  13 337.924   9.860   3
   4   2 -13 340.055  11.073   1
  -4   2  13 340.937   9.316   5
   4   2 -13 330.913   8.676   4
  -4   2  13 336.926   7.407   3
  -3  -2  13 829.441  17.539   3
  -3  -2  13 755.168  16.299   2
   3   2 -13 798.115  18.692   1
   3   2 -13 797.979  15.301   4
   3   2 -13 792.596  14.387   3
  -3   2  13 805.615  15.648   5
  -2  -2  13 262.142   8.143   3
   2  -2 -13 268.469   7.069   1
   2   2 -13 259.163   6.590   3
   2   2 -13 252.358   9.155   1
   2   2 -13 249.347   7.268   4
  -2   2  13 256.240   6.757   5
  -1  -2  13 122.217   5.243   3
  -1  -2  13 105.876   4.652   2
   1  -2 -13 125.959   4.677   1
   1   2 -13 111.884   5.890   1
   1   2 -13 114.457   4.721   4
   1   2 -13 116.153   4.441   3
  -1   2  13 118.820   3.810   5
   0  -2 -13 9.22921 1.71951   1
   0  -2  13 5.78854 1.56655   2
   0  -2  13 6.30861 1.73615   3
   0   2 -13 7.15172 1.55768   4
   0   2 -13 7.07260 1.85948   3
   0   2 -13 7.61033 1.95239   1
   1  -2  13 121.951   5.130   5
  -1  -2 -13 118.785   4.997   1
   1  -2  13 113.186   4.892   2
   1  -2  13 111.617   5.035   3
  -1   2 -13 128.385   6.223   1
  -1   2 -13 116.465   4.840   3
  -1   2 -13 118.149   4.837   4
   2  -2  13 255.859   7.875   5
   2  -2  13 269.893   7.976   2
   2  -2  13 269.672   8.211   3
  -2  -2 -13 249.831   7.889   1
  -2   2 -13 262.256   7.708   4
  -2   2 -13 259.255   7.811   3
  -2   2 -13 275.993   9.519   1
   3  -2  13 800.647  16.833   2
  -3  -2 -13 779.264  17.042   1
   3  -2  13 812.214  17.411   3
   3  -2  13 811.135  16.512   5
  -3   2 -13 798.080  18.815   1
  -3   2 -13 816.958  16.113   4
  -4  -2 -13 333.548   9.958   1
   4  -2  13 329.005   9.477   3
   4  -2  13 329.088   9.348   2
  -4   2 -13 328.211  10.887   1
  -4   2 -13 321.370   9.500   3
  -4   2 -13 326.723   8.978   5
  -5  -2 -13 633.949  15.505   1
   5  -2  13 666.303  14.765   2
   5  -2  13 654.965  15.068   3
  -5   2 -13 624.119  16.449   1
  -5   2 -13 641.834  15.158   3
  -5   2 -13 646.863  14.260   5
   6  -2  13 210.025   7.252   2
  -6  -2 -13 189.795   7.830   1
   6  -2  13 195.182   7.225   3
  -6   2 -13 197.681   8.588   1
  -6   2 -13 200.745   7.523   3
  -6   2 -13 205.289   7.258   5
  -7  -2 -13 126.579   6.581   1
   7  -2  13 128.937   5.708   3
  -7   2 -13 132.747   7.035   1
  -7   2 -13 124.639   6.050   3
  -8  -2 -13 166.900   7.968   1
   8  -2  13 186.907   7.177   3
  -8   2 -13 169.492   7.316   3
  -8   2 -13 176.503   8.472   1
  -9  -2 -13 130.422   7.332   1
  -9   2 -13 139.909   7.744   1
  -9   2 -13 137.121   6.795   3
  10  -2  13 9.16442 2.60242   3
 -10  -2 -13 7.97088 2.56301   1
 -10   2 -13 8.74717 2.53302   1
 -10   2 -13 8.18949 2.62243   3
  11  -2  13 38.6827  3.8873   3
 -11  -2 -13 39.2342  5.0880   1
 -11   2 -13 44.6513  4.3932   3
 -11   2 -13 41.5044  4.5864   1
  12  -2  13 163.806   7.104   3
 -12  -2 -13 172.628   9.167   1
 -12   2 -13 158.599   8.933   1
 -12   2 -13 157.640   7.913   3
 -13   2 -13 32.4718  3.4782   3
 -13  -3  13 25.8090  3.9440   2
 -12  -3  13 293.601  12.867   1
 -12  -3  13 279.940  10.731   2
 -11  -3  13 5.54150 1.91719   2
  11   3 -13 4.52977 2.66669   1
 -10  -3  13 144.938   6.847   2
  10   3 -13 155.381   8.850   1
  -9  -3  13 122.165   5.962   2
   9   3 -13 111.914   7.449   1
  -8  -3  13 142.170   6.308   2
   8   3 -13 138.508   7.984   1
  -7  -3  13 0.71803 1.25514   2
   7   3 -13 3.03133 2.10519   1
  -6  -3  13 -0.2026  1.1724   2
  -6   3  13 1.42332 1.19019   5
   6   3 -13 0.05249 1.52196   1
  -5  -3  13 167.099   6.347   2
   5   3 -13 162.966   6.479   4
   5   3 -13 158.984   7.989   1
  -5   3  13 160.898   6.826   5
  -4  -3  13 514.395  12.237   2
  -4   3  13 497.443  12.433   5
   4   3 -13 500.933  14.947   1
   4   3 -13 504.733  12.322   4
  -3  -3  13 1119.58   21.70   2
   3   3 -13 1133.13   21.13   4
   3   3 -13 1125.68   24.95   1
  -2  -3  13 243.553   7.938   3
  -2  -3  13 230.401   7.323   2
   2   3 -13 230.475   9.314   1
   2   3 -13 237.037   7.837   4
  -1  -3  13 149.916   5.776   2
  -1  -3  13 149.115   6.126   3
   1   3 -13 162.620   6.407   4
   1   3 -13 153.761   7.333   1
   0  -3  13 159.274   6.202   3
   0  -3  13 159.642   6.010   2
   0  -3 -13 159.542   5.392   1
   0   3 -13 148.839   7.267   1
   0   3 -13 147.283   6.154   4
  -1  -3 -13 153.436   5.627   1
   1  -3  13 162.788   6.159   2
   1  -3  13 166.086   6.420   3
  -1   3 -13 162.085   6.438   4
  -1   3 -13 164.987   7.523   1
   2  -3  13 236.844   7.939   3
  -2  -3 -13 241.488   7.584   1
  -2   3 -13 244.411   5.718   3
  -2   3 -13 225.498   7.937   4
  -2   3 -13 234.358   9.112   1
  -3  -3 -13 1112.03   21.89   1
   3  -3  13 1140.40   23.08   3
   3  -3  13 1125.71   22.38   2
  -3   3 -13 1103.04   24.50   1
  -3   3 -13 1128.59   20.28   3
  -3   3 -13 1132.38   21.86   4
   4  -3  13 498.641  13.008   3
  -4  -3 -13 491.750  12.763   1
   4  -3  13 501.902  12.804   2
  -4   3 -13 513.821  11.299   3
  -4   3 -13 486.403  12.897   4
  -4   3 -13 496.475  14.570   1
  -4   3 -13 510.460  13.078   5
   5  -3  13 160.771   6.785   2
   5  -3  13 157.429   6.737   3
  -5  -3 -13 152.423   6.745   1
  -5   3 -13 162.429   5.839   3
  -5   3 -13 167.789   6.940   5
  -5   3 -13 155.213   7.758   1
   6  -3  13 0.65620 1.61391   2
   6  -3  13 1.05058 1.83882   3
  -6  -3 -13 0.04818 1.26055   1
  -6   3 -13 -0.1535  1.4902   3
  -6   3 -13 0.16152 1.16641   1
  -7  -3 -13 1.42788 1.54289   1
   7  -3  13 2.18580 2.28480   3
   7  -3  13 2.87398 1.91771   2
  -7   3 -13 1.38385 1.72221   3
  -7   3 -13 -1.6049  1.4205   1
  -8  -3 -13 142.677   7.434   1
   8  -3  13 140.661   6.766   3
   8  -3  13 137.583   6.644   2
  -8   3 -13 138.279   6.301   3
  -8   3 -13 142.352   7.721   1
  -9  -3 -13 114.819   7.007   1
   9  -3  13 127.277   6.536   3
  -9   3 -13 124.465   7.469   1
  -9   3 -13 111.515   5.895   3
 -10  -3 -13 152.948   8.413   1
  10  -3  13 153.432   7.345   3
 -10   3 -13 141.002   6.852   3
 -10   3 -13 186.391   9.264   1
 -11  -3 -13 2.20838 2.05343   1
  11  -3  13 7.88452 2.82297   3
 -11   3 -13 3.03370 2.48981   1
 -11   3 -13 5.94750 2.25874   3
  12  -3  13 284.895  10.496   3
 -12   3 -13 293.167  10.657   3
  13  -3  13 35.5145  4.7894   3
 -13   3 -13 42.6868  4.1847   3
 -12  -4  13 17.5015  3.0740   2
 -11  -4  13 3.56986 2.05707   2
 -10  -4  13 12.4464  2.6542   2
  10   4 -13 13.7847  3.6301   1
  -9  -4  13 38.4196  3.6798   2
   9   4 -13 36.8945  5.4222   1
  -8  -4  13 91.6798  5.2685   2
   8   4 -13 85.4768  6.7503   1
  -7  -4  13 10.9878  2.5077   2
   7   4 -13 11.6366  3.3716   1
  -6  -4  13 27.2398  3.1364   2
   6   4 -13 25.5666  4.2399   1
   6   4 -13 20.1947  3.1796   4
  -5  -4  13 62.4235  3.9842   2
   5   4 -13 54.2501  5.1147   1
   5   4 -13 61.5029  4.4651   4
  -4  -4  13 64.1550  3.9314   2
   4   4 -13 42.6883  4.5615   1
   4   4 -13 68.0965  4.5813   4
  -3  -4  13 137.814   5.653   2
   3   4 -13 137.965   6.496   4
   3   4 -13 134.718   7.502   1
  -2  -4  13 1.72930 1.43079   2
   2   4 -13 3.62527 1.49702   1
   2   4 -13 -0.2840  1.3470   4
  -1  -4  13 77.6775  4.2241   2
   1   4 -13 74.6181  4.8348   4
   1   4 -13 76.4348  5.5135   1
   0  -4  13 63.1590  3.9615   2
   0   4 -13 51.9566  4.6646   1
   0   4 -13 59.7134  4.3883   4
   1  -4  13 75.1995  4.3804   2
  -1   4 -13 68.8417  5.2384   1
  -1   4 -13 73.5698  4.8268   4
   2  -4  13 -0.1341  1.5131   2
  -2   4 -13 1.27160 1.52562   1
  -2   4 -13 1.68951 1.62598   4
   3  -4  13 130.131   6.089   2
  -3  -4 -13 148.064   6.031   1
   3  -4  13 139.565   6.313   3
  -3   4 -13 132.049   7.256   1
  -3   4 -13 141.972   6.931   4
   4  -4  13 70.5862  4.5519   3
  -4  -4 -13 61.0820  4.2475   1
   4  -4  13 67.5715  4.4351   2
  -4   4 -13 59.4085  4.8952   1
  -4   4 -13 67.4133  5.1091   4
   5  -4  13 56.1579  4.3903   3
  -5  -4 -13 62.1259  4.3496   1
   5  -4  13 55.6491  4.3831   2
  -5   4 -13 59.4175  4.9554   4
  -5   4 -13 48.0694  4.7283   1
   6  -4  13 20.5064  3.5235   3
   6  -4  13 24.8840  3.6896   2
  -6  -4 -13 23.4418  3.4710   1
  -6   4 -13 26.1653  3.8658   1
  -6   4 -13 24.7339  3.9890   4
   7  -4  13 9.57686 2.71757   2
   7  -4  13 12.0143  3.0943   3
  -7  -4 -13 9.48933 2.30799   1
  -7   4 -13 15.6464  2.9818   1
   8  -4  13 96.2631  5.9773   3
  -8  -4 -13 94.3959  6.1831   1
   8  -4  13 86.9705  5.6663   2
  -8   4 -13 81.0656  6.1452   1
   9  -4  13 33.3879  4.5365   2
   9  -4  13 37.3305  4.4107   3
  -9  -4 -13 37.3812  4.2562   1
  -9   4 -13 39.9165  4.5587   1
 -10  -4 -13 15.0405  3.1278   1
  10  -4  13 12.3550  3.4876   3
  11  -4  13 -1.2791  1.9669   3
  12  -4  13 9.04018 2.42826   3
 -10  -5  13 214.798   8.863   2
  -9  -5  13 25.4827  3.5478   2
  -8  -5  13 211.224   8.232   2
   8   5 -13 216.195  11.229   1
  -7  -5  13 66.3510  4.5357   2
   7   5 -13 67.2514  6.3157   1
  -6  -5  13 84.3007  4.8389   2
   6   5 -13 83.3659  6.7218   1
   6   5 -13 74.2327  5.3764   4
  -5  -5  13 27.6849  3.0811   2
   5   5 -13 34.8759  4.4039   4
   5   5 -13 40.3210  4.4032   1
  -4  -5  13 55.9022  3.9044   2
   4   5 -13 54.4706  4.6190   4
   4   5 -13 66.1790  5.6770   1
  -3  -5  13 15.4465  2.5337   2
   3   5 -13 8.88575 2.68110   4
   3   5 -13 24.1765  3.9875   1
  -2  -5  13 93.2732  4.7982   2
   2   5 -13 96.4739  6.8237   1
   2   5 -13 94.5373  5.9987   4
   1  -5 -13 306.041   7.579   2
  -1  -5  13 282.913   8.872   2
   1   5 -13 276.210  10.290   4
   1   5 -13 282.051  11.548   1
   0  -5  13 36.5232  3.5230   2
   0   5 -13 35.7471  4.7420   1
   0   5 -13 36.6642  4.5525   4
   1  -5  13 286.451   9.177   2
  -1   5 -13 284.941  10.553   4
  -1   5 -13 267.169  11.132   1
   2  -5  13 97.2161  5.3833   2
  -2   5 -13 103.119   6.621   1
  -2   5 -13 91.5137  6.0457   4
   3  -5  13 13.7209  2.6117   2
  -3   5 -13 15.1716  3.3021   4
  -3   5 -13 16.6923  3.2341   1
   4  -5  13 61.4514  4.5288   2
  -4   5 -13 63.7215  5.3255   4
  -4   5 -13 57.8634  5.2115   1
  -5   5 -13 27.2795  4.2534   1
  -5   5 -13 32.1031  4.6446   4
   6  -5  13 76.3425  5.4707   2
  -6  -5 -13 79.9854  5.3732   1
  -6   5 -13 64.9353  5.7734   1
  -6   5 -13 76.3084  6.0663   4
  -7  -5 -13 68.1784  5.2802   1
   7  -5  13 62.2479  5.1605   2
   7  -5  13 66.4386  5.1515   3
  -7   5 -13 69.7427  5.9852   4
  -7   5 -13 72.9649  5.8423   1
  -8  -5 -13 211.450   9.626   1
   8  -5  13 217.450   9.489   2
   8  -5  13 195.618   9.081   3
  -8   5 -13 212.732  10.380   4
   9  -5  13 25.7966  4.3817   2
  -9  -5 -13 22.4011  3.8805   1
   9  -5  13 26.9738  4.5557   3
  10  -5  13 199.969   9.695   3
  10  -5  13 208.802   9.612   2
  -9  -6  13 2.69551 2.29341   2
  -8  -6  13 195.373   8.251   2
  -7  -6  13 114.653   6.058   2
  -6  -6  13 32.5873  3.4618   2
   6   6 -13 29.8553  4.3730   4
   6   6 -13 33.8664  4.7830   1
  -5  -6  13 106.006   5.506   2
   5   6 -13 99.4255  7.4666   1
   5   6 -13 95.9734  6.5397   4
  -4  -6  13 71.6558  4.5795   2
   4   6 -13 72.9349  5.6795   4
   4   6 -13 68.8539  6.2679   1
  -3  -6  13 8.10081 2.36792   2
   3  -6 -13 9.00802 2.29568   2
   3   6 -13 3.47717 2.41791   4
   3   6 -13 9.01374 2.96057   1
   2  -6 -13 82.1131  4.1042   2
  -2  -6  13 69.3351  4.5674   2
   2   6 -13 66.1485  6.1854   1
   2   6 -13 77.9444  6.0163   4
  -1  -6  13 61.5086  4.3641   2
   1   6 -13 60.2922  5.4139   4
   1   6 -13 66.1111  5.7987   1
   0  -6  13 1.10755 1.83869   2
   0   6 -13 -2.0419  1.6162   1
   0   6 -13 3.16276 2.34464   4
   1  -6  13 57.4582  4.5279   2
  -1   6 -13 51.5189  5.2757   1
  -1   6 -13 57.6474  5.3024   4
   2  -6  13 76.7329  5.1270   2
  -2   6 -13 81.6520  6.3536   1
  -2   6 -13 81.6058  6.2672   4
   3  -6  13 4.67622 2.43975   2
  -3   6 -13 7.98343 2.87698   1
  -3   6 -13 11.2996  3.2414   4
   4  -6  13 65.5316  4.7647   2
  -4   6 -13 71.4213  6.0319   4
  -4   6 -13 54.0085  5.5407   1
   5  -6  13 101.527   6.245   2
  -5   6 -13 97.0229  7.1287   4
   6  -6  13 12.5609  2.9534   2
  -6   6 -13 32.6617  5.2360   4
   7  -6  13 108.072   6.953   2
  -7   6 -13 122.789   8.348   4
   8  -6  13 176.512   9.118   2
  -8   6 -13 195.347  10.553   4
   9  -6  13 -0.4537  2.3114   2
   9  -6  13 2.21176 2.25064   3
  -6  -7  13 17.2574  3.0939   2
  -5  -7  13 9.87272 2.46841   2
  -4  -7  13 3.69109 1.81920   2
   4   7 -13 0.92133 2.07486   4
   3  -7 -13 5.73559 2.15280   2
  -3  -7  13 2.75899 1.74745   2
   3   7 -13 1.69000 2.24248   4
  -2  -7  13 42.6684  3.9733   2
   2   7 -13 32.7362  5.0412   1
   2   7 -13 43.1290  5.5456   4
  -1  -7  13 43.6020  4.3018   2
   1   7 -13 67.5139  5.9061   1
   1   7 -13 50.1848  6.1748   4
   0  -7  13 27.7002  3.8791   2
   0   7 -13 22.8435  4.5459   4
   0   7 -13 33.6124  4.7592   1
   1  -7  13 51.8224  4.6715   2
  -1   7 -13 49.1491  6.1930   4
  -1   7 -13 39.7018  5.4468   1
   2  -7  13 43.3032  4.6356   2
  -2   7 -13 53.5686  6.4169   4
   3  -7  13 8.34147 2.80055   2
  -3   7 -13 4.47347 2.53028   4
   4  -7  13 -1.6191  2.1928   2
  -4   7 -13 2.92897 2.47436   4
   5  -7  13 8.83052 2.58378   2
   6  -7  13 17.6864  3.6608   2
 -14   0  14 4.11093 2.06613   3
 -13   0  14 113.338   7.384   3
 -12   0  14 61.6031  5.4799   3
 -11   0  14 66.2405  4.9504   2
 -11   0  14 63.8125  5.3627   3
  11   0 -14 67.9788  4.6835   3
 -10   0  14 246.602   9.000   2
  10   0 -14 242.392   8.323   3
 -10   0  14 228.096   9.438   3
  -9   0  14 139.565   6.463   2
  -9   0  14 133.288   6.865   3
   9   0 -14 142.809   6.356   3
   8   0 -14 10.3259  2.7745   3
  -8   0  14 6.63927 1.99211   2
  -8   0  14 6.75920 2.21372   3
  -7   0  14 8.80298 2.05084   2
   7   0 -14 1.81590 1.30082   3
  -7   0  14 6.99542 2.03156   3
   7   0 -14 4.97241 1.81374   1
  -6   0  14 52.0090  3.8376   3
   6   0 -14 51.1903  3.9919   3
  -6   0  14 52.3275  3.5593   2
   6   0 -14 45.6666  3.5995   1
   5   0 -14 422.767  11.237   3
  -5   0  14 420.336  10.625   2
   5   0 -14 421.051  11.353   1
  -5   0  14 406.619  11.329   3
  -4   0  14 103.423   4.561   2
   4   0 -14 95.9401  4.9495   1
   4   0 -14 98.0271  5.4216   3
  -4   0  14 99.9629  4.9736   3
  -3   0  14 26.9868  2.4384   2
   3   0 -14 30.5176  3.5300   3
   3   0 -14 30.3341  2.8924   1
  -3   0  14 22.7627  2.4420   3
   2   0 -14 1748.77   31.22   1
  -2   0  14 1743.69   31.51   3
  -2   0  14 1763.14   30.03   2
   2   0 -14 1722.06   31.72   3
  -1   0  14 260.881   7.562   3
  -1   0  14 253.279   6.996   2
   1   0 -14 258.557   8.409   1
   1   0 -14 251.599   8.066   3
   0   0 -14 101.765   2.960   4
   0   0  14 103.693   3.602   5
   0   0 -14 100.574   5.138   3
   0   0  14 96.0765  4.1673   3
   0   0  14 108.934   4.111   2
   0   0 -14 95.0967  5.0552   1
  -1   0 -14 253.986   5.369   4
  -1   0 -14 262.081   8.322   3
   1   0  14 246.031   5.745   5
  -1   0 -14 249.902   8.460   1
  -2   0 -14 1736.09   31.85   1
  -2   0 -14 1721.07   31.85   3
   2   0  14 1735.96   30.16   3
  -3   0 -14 29.5454  1.9972   4
  -3   0 -14 27.1769  3.5268   3
   3   0  14 25.8831  2.2135   3
  -3   0 -14 25.3302  3.3105   1
   4   0  14 97.3250  3.7949   3
  -4   0 -14 101.542   5.509   1
  -4   0 -14 90.8835  5.4233   3
  -5   0 -14 423.099  11.820   3
  -5   0 -14 401.182  12.233   1
   5   0  14 429.265   9.353   3
   6   0  14 45.2140  2.5496   3
  -6   0 -14 56.1556  4.5997   3
  -6   0 -14 47.7611  4.1571   1
  -7   0 -14 10.8509  3.0617   3
  -7   0 -14 9.50768 2.40722   1
   7   0  14 7.93758 1.46947   3
  -8   0 -14 2.79184 2.34810   1
  -8   0 -14 7.39227 2.77990   3
  -9   0 -14 140.394   7.517   3
  -9   0 -14 180.286   8.332   1
 -10   0 -14 224.672   9.674   3
 -10   0 -14 245.670  10.319   1
 -11   0 -14 85.0473  6.3271   1
 -11   0 -14 60.7141  5.4752   3
 -12   0 -14 68.5476  5.6486   1
 -12   0 -14 67.3221  5.6783   3
 -13   0 -14 116.169   7.383   3
 -14   0 -14 -1.1602  2.0327   2
  13  -1 -14 -0.6487  2.7722   3
 -13  -1  14 2.08131 2.49748   3
 -13  -1  14 1.25545 1.94620   2
 -13   1  14 3.83086 1.46792   3
  12  -1 -14 143.262   7.159   3
 -12  -1  14 142.249   7.461   2
 -12  -1  14 149.593   8.271   3
 -12   1  14 149.928   7.567   3
 -11  -1  14 176.812   8.706   3
 -11  -1  14 171.368   7.976   2
  11  -1 -14 183.316   8.066   3
 -11   1  14 188.391   8.295   3
 -10  -1  14 212.354   9.198   3
 -10  -1  14 199.267   8.294   2
  10   1 -14 205.949   8.990   1
 -10   1  14 199.901   8.344   3
  -9  -1  14 112.851   6.393   3
  -9  -1  14 116.898   6.044   2
   9   1 -14 112.085   6.556   1
  -9   1  14 116.983   6.019   3
  -8  -1  14 2.57510 1.62836   2
  -8  -1  14 1.79635 1.91323   3
   8   1 -14 2.60830 1.89598   3
   8   1 -14 0.02395 1.41989   1
  -8   1  14 2.29423 1.37294   3
  -7  -1  14 11.5345  2.2501   2
  -7  -1  14 9.23518 2.16841   3
   7   1 -14 9.63373 2.45541   1
   7   1 -14 10.6772  2.3964   3
  -7   1  14 7.85994 2.05521   3
  -6  -1  14 588.595  14.886   3
  -6  -1  14 575.669  13.959   2
   6   1 -14 581.441  13.152   3
  -6   1  14 585.814  14.090   3
   6   1 -14 583.612  15.285   1
  -6   1  14 582.036  14.301   5
  -5  -1  14 40.3829  3.1847   2
  -5  -1  14 41.1904  3.4778   3
   5  -1 -14 39.7062  2.8229   1
   5   1 -14 39.2752  3.6784   1
  -5   1  14 44.6893  3.3639   5
   5   1 -14 43.2772  3.6400   3
  -4  -1  14 271.911   8.841   3
  -4  -1  14 278.451   8.339   2
   4  -1 -14 284.933   8.063   1
  -4   1  14 279.293   7.989   3
  -4   1  14 282.153   8.151   5
   4   1 -14 289.103   9.619   1
   4   1 -14 279.825   8.418   3
  -3  -1  14 75.4838  4.0569   2
   3  -1 -14 76.6071  3.9808   1
  -3  -1  14 79.6039  4.4514   3
  -3   1  14 72.4966  3.5853   5
   3   1 -14 81.5281  4.8861   1
   3   1 -14 74.1993  4.4467   3
  -3   1  14 85.8431  3.8665   3
  -2  -1  14 508.472  12.480   3
   2  -1 -14 492.544  11.736   1
  -2  -1  14 515.304  11.854   2
  -2   1  14 494.360  10.865   3
   2   1 -14 499.899  12.160   3
   2   1 -14 498.452  13.255   1
   2   1 -14 488.116   9.963   4
  -2   1  14 490.443  10.273   5
  -1  -1  14 128.658   5.343   3
   1  -1 -14 123.823   5.286   1
  -1  -1  14 120.908   5.000   2
  -1   1  14 117.721   3.737   5
  -1   1  14 125.789   4.170   3
   1   1 -14 117.312   5.543   3
   1   1 -14 121.312   4.185   4
   1   1 -14 122.748   5.910   1
   0  -1 -14 21.6845  2.7264   1
   0  -1  14 20.1037  2.2965   2
   0  -1  14 18.6730  2.5283   3
   0  -1 -14 19.0406  2.8534   3
   0  -1  14 20.5602  1.9882   5
   0   1  14 18.4372  1.1909   5
   0   1 -14 19.6158  2.9479   1
   0   1 -14 19.7336  1.8965   4
   0   1 -14 20.1514  2.9755   3
   0   1  14 21.8097  1.6648   3
   1  -1  14 120.517   4.551   5
   1  -1  14 126.246   4.935   2
   1  -1  14 118.696   5.054   3
  -1  -1 -14 121.197   5.417   1
  -1  -1 -14 119.074   5.328   3
  -1   1 -14 129.977   6.200   1
  -1   1 -14 115.077   4.195   4
   1   1  14 122.426   3.408   3
  -1   1 -14 126.957   5.787   3
  -2  -1 -14 503.334  12.705   1
  -2  -1 -14 491.168  12.041   3
   2  -1  14 514.414  10.754   5
   2  -1  14 509.619  12.046   3
   2  -1  14 506.266  11.531   2
  -2   1 -14 495.941  10.334   4
  -2   1 -14 493.320  12.645   3
  -2   1 -14 491.544  13.485   1
   3  -1  14 78.4528  3.9234   2
  -3  -1 -14 77.0045  4.8551   3
  -3  -1 -14 79.0470  4.6489   1
   3  -1  14 76.5862  3.9974   3
  -3   1 -14 73.7514  3.5570   4
  -3   1 -14 73.7982  4.8044   1
  -3   1 -14 78.2943  5.0464   3
  -4  -1 -14 272.461   9.240   1
   4  -1  14 285.806   7.849   2
   4  -1  14 283.829   8.113   3
  -4  -1 -14 290.381   8.933   3
  -4   1 -14 263.167   8.979   3
  -4   1 -14 272.898   9.811   1
  -5  -1 -14 43.3902  4.1483   3
  -5  -1 -14 44.0336  3.7429   1
  -5   1 -14 40.2721  3.8571   1
  -5   1 -14 42.1164  4.1664   3
  -6  -1 -14 570.036  15.197   1
   6  -1  14 586.188  13.330   3
  -6   1 -14 566.445  14.730   3
  -6   1 -14 565.690  15.727   1
   7  -1  14 9.65562 2.13585   3
  -7  -1 -14 10.3218  2.5226   1
  -7   1 -14 11.9190  2.5860   1
  -7   1 -14 11.7103  3.0623   3
   8  -1  14 1.23526 1.68336   3
  -8  -1 -14 3.66046 1.91214   1
  -8   1 -14 2.35909 2.42421   3
  -8   1 -14 2.96032 1.27033   1
  -9  -1 -14 99.2857  6.4528   1
   9  -1  14 98.6522  4.7208   3
  -9   1 -14 106.507   6.787   1
  -9   1 -14 100.161   6.312   3
 -10  -1 -14 203.748   9.579   1
  10  -1  14 194.600   6.412   3
 -10   1 -14 191.110   8.786   3
 -10   1 -14 183.048   9.309   1
 -11  -1 -14 170.454   8.990   1
 -11   1 -14 169.548   8.540   3
 -11   1 -14 186.204   9.473   1
 -12  -1 -14 147.592   8.498   1
 -12   1 -14 147.320   8.617   1
 -12   1 -14 136.892   8.003   3
 -12   1 -14 136.265   6.971   2
 -13   1 -14 3.85466 3.03261   3
 -13  -2  14 71.5370  5.6193   2
 -13   2  14 80.3066  5.3729   3
 -12  -2  14 42.6888  4.3668   2
 -12   2  14 43.5905  4.0142   3
 -11  -2  14 121.979   6.680   2
 -11  -2  14 113.496   7.414   1
  11   2 -14 117.117   7.600   1
 -11   2  14 122.536   6.194   3
 -10  -2  14 32.4908  3.5725   2
 -10   2  14 32.7313  3.3051   3
  10   2 -14 31.5313  4.6312   1
  -9  -2  14 195.414   7.955   2
  -9  -2  14 186.077   8.293   3
  -9   2  14 202.330   7.516   3
   9   2 -14 201.658   9.348   1
  -8  -2  14 18.6133  2.8984   2
  -8  -2  14 16.7848  2.9676   3
   8   2 -14 16.6227  3.3466   1
  -8   2  14 15.7257  2.4931   3
  -7  -2  14 456.373  13.081   3
   7   2 -14 445.751  14.022   1
  -7   2  14 462.943  11.326   3
  -6  -2  14 106.628   5.567   3
   6   2 -14 95.8430  6.0977   1
  -6   2  14 111.858   5.668   5
  -6   2  14 103.989   4.368   3
  -5  -2  14 420.583  11.837   3
  -5   2  14 415.462  11.265   5
  -5   2  14 415.336   9.423   3
   5   2 -14 404.286  12.840   1
  -4  -2  14 408.135  11.429   3
  -4   2  14 403.868  10.500   5
   4   2 -14 404.529   9.912   4
   4   2 -14 405.616  12.622   1
  -4   2  14 411.440   8.603   3
   4   2 -14 413.877   8.106   3
  -3  -2  14 5.21856 1.79784   3
  -3  -2  14 5.06915 1.55115   2
   3   2 -14 7.15882 2.07452   1
  -3   2  14 6.53036 0.81183   3
   3   2 -14 4.86563 1.52118   4
  -3   2  14 8.27488 1.57108   5
   3   2 -14 6.95139 1.62809   3
   2  -2 -14 418.752   9.774   1
  -2  -2  14 417.140  10.626   2
  -2  -2  14 403.023  11.114   3
   2   2 -14 381.884  12.015   1
   2   2 -14 396.961   9.675   4
   2   2 -14 392.658   9.227   3
  -1  -2  14 644.476  15.022   3
  -1  -2  14 629.742  14.284   2
   1  -2 -14 659.542  13.815   1
   1   2 -14 638.762  13.464   3
   1   2 -14 649.919  13.335   4
   1   2 -14 643.529  16.365   1
   0  -2 -14 64.4542  3.7162   1
   0  -2  14 65.1992  3.8572   2
   0  -2  14 64.7487  3.9652   3
   0   2 -14 66.4132  3.9960   3
   0   2 -14 64.2509  3.6455   4
   0   2 -14 63.3219  4.5122   1
   1  -2  14 653.408  14.445   2
   1  -2  14 639.280  14.816   3
  -1  -2 -14 626.999  14.221   1
  -1   2 -14 644.384  13.332   4
  -1   2 -14 633.432  13.971   3
  -1   2 -14 623.359  16.207   1
   2  -2  14 382.405  10.201   2
   2  -2  14 375.615  10.538   3
  -2  -2 -14 384.770  10.543   1
  -2   2 -14 395.654  10.296   3
  -2   2 -14 397.068  12.161   1
  -2   2 -14 403.912   9.952   4
  -3  -2 -14 6.42425 1.77305   1
   3  -2  14 4.35085 1.79390   3
   3  -2  14 8.04909 2.02666   2
  -3   2 -14 5.77355 1.76846   4
  -3   2 -14 5.76086 1.87045   1
   4  -2  14 401.765  10.993   3
   4  -2  14 417.244  10.916   2
  -4  -2 -14 397.684  11.458   1
  -4   2 -14 408.325  10.611   4
  -4   2 -14 400.168  12.619   1
  -4   2 -14 401.206  11.074   3
  -5  -2 -14 409.287  12.023   1
   5  -2  14 407.575  10.929   2
   5  -2  14 417.255  11.304   3
  -5   2 -14 405.562  12.941   1
  -5   2 -14 413.070  11.485   3
  -6  -2 -14 95.2873  5.6043   1
   6  -2  14 97.7015  5.0798   3
   6  -2  14 102.617   5.087   2
  -6   2 -14 80.0360  5.8002   1
  -6   2 -14 100.034   5.472   3
   7  -2  14 452.431  12.047   3
  -7  -2 -14 437.916  13.306   1
  -7   2 -14 421.435  13.860   1
  -7   2 -14 439.195  12.492   3
  -8  -2 -14 18.2264  3.2554   1
   8  -2  14 15.3660  2.8206   3
  -8   2 -14 19.0988  3.5269   1
  -8   2 -14 24.1922  3.4772   3
  -9  -2 -14 179.812   8.802   1
   9  -2  14 174.332   7.295   3
  -9   2 -14 194.036   8.114   3
  -9   2 -14 189.344   9.230   1
 -10  -2 -14 28.7031  4.4513   1
  10  -2  14 24.7309  3.5611   3
 -10   2 -14 35.8318  4.8739   1
 -10   2 -14 32.2886  3.7200   3
 -11  -2 -14 112.232   7.491   1
  11  -2  14 115.665   5.961   3
 -11   2 -14 135.401   7.162   3
 -11   2 -14 126.284   7.895   1
  12  -2  14 41.5717  4.1888   3
 -12   2 -14 45.8526  4.2283   3
 -12   2 -14 44.6498  4.9786   1
 -13   2 -14 75.7858  5.1515   3
 -12  -3  14 11.8972  2.8122   2
 -11  -3  14 63.8883  5.0633   2
  11   3 -14 67.2269  6.0064   1
 -10  -3  14 26.5086  3.6678   2
  10   3 -14 28.0506  4.6552   1
  -9  -3  14 68.0587  4.6710   2
   9   3 -14 63.1097  5.8069   1
  -8  -3  14 66.5080  4.4016   2
   8   3 -14 65.9193  5.8069   1
  -7  -3  14 154.135   6.513   2
   7   3 -14 143.576   8.118   1
  -6  -3  14 126.914   5.817   2
   6   3 -14 129.941   7.531   1
  -5  -3  14 216.521   7.669   2
   5   3 -14 229.708   9.895   1
   5   3 -14 226.643   7.816   4
  -4  -3  14 0.64289 1.46148   2
   4   3 -14 0.82695 1.54867   1
   4   3 -14 1.31180 1.36244   4
  -3  -3  14 144.007   5.955   2
   3   3 -14 160.185   6.361   4
   3   3 -14 144.352   7.594   1
  -2  -3  14 728.925  16.091   2
  -2  -3  14 751.281  17.032   3
   2   3 -14 733.701  15.829   4
   2   3 -14 749.511  19.061   1
  -1  -3  14 24.9190  2.8954   3
  -1  -3  14 23.0862  2.7129   2
   1   3 -14 29.2904  2.9197   4
   1   3 -14 32.0111  3.6278   1
   0  -3 -14 34.2205  2.6376   1
   0  -3  14 30.8105  3.0486   3
   0  -3  14 23.8294  2.7310   2
   0   3 -14 33.7704  3.6883   1
   0   3 -14 31.9814  3.0865   4
  -1  -3 -14 26.2373  2.4861   1
   1  -3  14 23.7452  2.7617   3
  -1   3 -14 28.5261  3.9105   1
  -1   3 -14 27.5345  3.3627   4
  -2  -3 -14 724.750  15.879   1
   2  -3  14 756.416  17.131   3
   2  -3  14 744.972  16.588   2
  -2   3 -14 759.448  14.036   3
  -2   3 -14 750.434  16.315   4
  -2   3 -14 723.178  18.586   1
   3  -3  14 146.646   6.472   3
  -3  -3 -14 156.178   6.409   1
   3  -3  14 157.241   6.528   2
  -3   3 -14 139.291   6.363   4
  -3   3 -14 151.939   5.070   3
  -3   3 -14 145.793   7.462   1
  -4  -3 -14 3.84194 1.57048   1
   4  -3  14 2.82595 1.91833   3
   4  -3  14 -0.4484  1.5249   2
  -4   3 -14 2.18365 1.61848   1
  -4   3 -14 3.27675 1.60029   3
  -4   3 -14 1.07625 1.61770   4
   5  -3  14 231.681   8.433   3
   5  -3  14 240.575   8.521   2
  -5  -3 -14 217.014   8.381   1
  -5   3 -14 218.963   8.473   4
  -5   3 -14 231.969   9.779   1
  -5   3 -14 229.824   8.363   5
  -5   3 -14 218.069   7.246   3
  -6  -3 -14 129.695   6.599   1
   6  -3  14 131.814   6.433   3
   6  -3  14 133.637   6.313   2
  -6   3 -14 118.964   7.021   1
  -6   3 -14 129.239   5.667   3
   7  -3  14 144.483   6.883   3
   7  -3  14 143.456   6.711   2
  -7  -3 -14 139.707   7.201   1
  -7   3 -14 136.815   6.096   3
  -7   3 -14 128.090   7.467   1
   8  -3  14 72.5484  5.0136   3
  -8  -3 -14 64.5741  5.1583   1
  -8   3 -14 67.7580  5.6631   1
  -8   3 -14 67.9452  4.6263   3
  -9  -3 -14 63.8055  5.3975   1
   9  -3  14 62.1382  4.6058   3
  -9   3 -14 63.4098  4.6449   3
  -9   3 -14 65.7925  5.3998   1
  10  -3  14 25.6290  3.7608   3
 -10  -3 -14 29.5656  4.4784   1
 -10   3 -14 27.0099  4.3744   1
 -10   3 -14 30.0548  3.5349   3
 -11  -3 -14 58.6182  5.5088   1
 -11   3 -14 83.8768  6.5612   1
 -11   3 -14 57.6862  4.7049   3
  12  -3  14 55.1456  4.7897   3
 -12   3 -14 60.1757  4.7825   3
 -11  -4  14 28.3541  3.9692   2
 -10  -4  14 40.7160  4.0860   2
  -9  -4  14 35.4000  3.7821   2
   9   4 -14 39.2331  5.6412   1
  -8  -4  14 177.723   7.540   2
   8   4 -14 169.931   9.654   1
  -7  -4  14 39.5468  3.6391   2
   7   4 -14 45.2604  5.0047   1
  -6  -4  14 121.130   5.859   2
   6   4 -14 119.268   7.772   1
  -5  -4  14 363.277  10.527   2
   5   4 -14 367.557  11.167   4
   5   4 -14 363.113  13.627   1
  -4  -4  14 52.7104  3.8570   2
   4   4 -14 46.0621  3.9220   4
   4   4 -14 46.4237  4.9035   1
  -3  -4  14 51.9842  3.7521   2
   3   4 -14 52.6772  4.8341   1
   3   4 -14 40.8853  3.7977   4
  -2  -4  14 14.7292  2.4740   2
   2   4 -14 14.7529  3.1241   1
   2   4 -14 15.2047  2.8987   4
  -1  -4  14 17.9289  2.6795   2
   1   4 -14 20.7243  3.4501   1
   1   4 -14 19.9795  3.1659   4
   0  -4  14 460.406  12.100   2
   0   4 -14 470.865  12.901   4
   0   4 -14 460.940  14.612   1
   1  -4  14 21.2528  2.9234   2
  -1   4 -14 24.2758  3.4621   4
  -1   4 -14 19.2809  3.3967   1
   2  -4  14 14.1783  2.7111   2
  -2   4 -14 14.9154  3.0945   1
  -2   4 -14 12.9792  2.7627   4
   3  -4  14 48.0319  3.9710   3
  -3  -4 -14 50.0105  3.6830   1
  -3   4 -14 47.2327  4.1789   4
  -3   4 -14 43.2816  4.4281   1
  -4  -4 -14 44.5655  3.7377   1
   4  -4  14 47.8087  4.0500   2
   4  -4  14 49.7016  4.1126   3
  -4   4 -14 56.0346  4.7283   4
  -4   4 -14 57.2284  4.9145   1
  -5  -4 -14 362.116  11.237   1
   5  -4  14 344.541  11.151   2
   5  -4  14 347.470  11.203   3
  -5   4 -14 334.673  12.540   1
  -5   4 -14 345.199  11.687   4
   6  -4  14 118.457   6.591   3
   6  -4  14 119.054   6.509   2
  -6  -4 -14 118.642   6.455   1
  -6   4 -14 102.545   6.511   4
  -6   4 -14 125.322   7.415   1
   7  -4  14 45.8871  4.4972   3
  -7  -4 -14 45.8991  4.4074   1
   7  -4  14 43.1849  4.2188   2
  -7   4 -14 48.7312  4.7977   1
   8  -4  14 189.196   8.375   2
   8  -4  14 177.238   8.207   3
  -8  -4 -14 170.329   8.541   1
  -8   4 -14 168.565   9.154   1
  -9  -4 -14 34.4189  4.7397   1
   9  -4  14 34.5660  4.9705   3
  -9   4 -14 42.4303  5.5081   1
 -10  -4 -14 28.6554  4.5184   1
  10  -4  14 33.0165  4.5997   3
  11  -4  14 17.1726  3.4024   3
 -10  -5  14 14.2290  3.4836   2
  -9  -5  14 109.908   6.494   2
  -8  -5  14 35.8689  3.9318   2
   8   5 -14 41.1002  5.8761   1
  -7  -5  14 76.1021  5.0016   2
   7   5 -14 79.7880  6.9468   1
  -6  -5  14 113.501   5.848   2
   6   5 -14 111.140   6.530   4
   6   5 -14 114.325   8.008   1
  -5  -5  14 62.8832  4.3569   2
   5   5 -14 73.7616  6.1739   1
   5   5 -14 68.0286  5.2119   4
  -4  -5  14 22.1339  3.1120   2
   4   5 -14 26.1563  3.7926   4
   4   5 -14 19.4896  4.1413   1
  -3  -5  14 77.9444  4.7337   2
   3   5 -14 82.5920  6.3716   1
   3   5 -14 70.8891  5.2608   4
  -2  -5  14 137.141   6.192   2
   2   5 -14 129.499   7.998   1
   2   5 -14 136.091   7.188   4
  -1  -5  14 6.47588 2.24344   2
   1   5 -14 2.37301 2.00838   1
   1   5 -14 7.62124 2.58432   4
   0  -5  14 148.689   6.487   2
   0   5 -14 148.066   7.448   4
   0   5 -14 146.576   8.292   1
   1  -5  14 7.66706 2.31765   2
  -1   5 -14 5.65685 2.24129   4
  -1   5 -14 -0.0270  2.0999   1
   2  -5  14 135.896   6.395   2
  -2   5 -14 141.370   7.439   4
  -2   5 -14 137.593   7.935   1
   3  -5  14 72.6759  4.8503   2
  -3   5 -14 88.4852  6.1797   4
  -3   5 -14 78.5517  6.0954   1
   4  -5  14 31.8406  4.1336   2
  -4   5 -14 25.3200  4.1974   4
  -4   5 -14 27.4107  4.5120   1
   5  -5  14 52.1805  4.5696   2
  -5   5 -14 53.6594  5.2945   1
  -5   5 -14 55.3520  5.3068   4
  -6  -5 -14 122.049   6.714   1
   6  -5  14 105.221   6.281   3
   6  -5  14 107.265   6.517   2
  -6   5 -14 102.270   7.058   1
  -6   5 -14 112.818   7.502   4
   7  -5  14 74.5767  5.7058   2
   7  -5  14 71.1416  5.4030   3
  -7  -5 -14 76.3255  5.5677   1
  -7   5 -14 76.3419  6.3002   4
  -7   5 -14 85.4011  6.4436   1
   8  -5  14 35.8504  5.0804   3
   8  -5  14 29.3437  4.4863   2
  -8  -5 -14 28.1275  4.1115   1
  -8   5 -14 36.0869  5.3218   4
   9  -5  14 95.4823  6.6720   2
   9  -5  14 107.415   7.056   3
  -9   5 -14 99.9384  7.6628   4
  10  -5  14 6.68366 3.00206   3
  -8  -6  14 12.4984  3.1079   2
  -7  -6  14 150.561   7.237   2
  -6  -6  14 202.230   8.196   2
   6   6 -14 192.590   9.242   4
  -5  -6  14 19.9853  3.3109   2
   5   6 -14 21.7427  3.9280   4
   5   6 -14 9.95276 3.06801   1
  -4  -6  14 24.8364  3.5306   2
   4   6 -14 28.9577  4.4248   4
   4   6 -14 29.0691  4.4791   1
  -3  -6  14 151.925   6.730   2
   3   6 -14 135.906   8.704   1
   3   6 -14 149.310   8.048   4
  -2  -6  14 285.253   9.495   2
   2   6 -14 277.933  11.200   4
   2   6 -14 294.995  12.810   1
  -1  -6  14 3.68720 2.28247   2
   1   6 -14 1.76007 2.46577   4
   1   6 -14 -3.3568  2.0227   1
   0  -6  14 10.2448  2.6512   2
   0   6 -14 12.0189  3.3663   4
   0   6 -14 11.6395  2.6491   1
   1  -6  14 3.97264 2.14689   2
  -1   6 -14 1.60906 1.98221   1
  -1   6 -14 1.62206 2.22522   4
   2  -6  14 287.879  10.337   2
  -2   6 -14 276.464  12.002   1
  -2   6 -14 290.726  11.751   4
   3  -6  14 144.583   7.100   2
  -3   6 -14 112.219   8.049   1
  -3   6 -14 159.954   8.723   4
   4  -6  14 26.8479  3.7675   2
  -4   6 -14 25.3756  4.4625   1
  -4   6 -14 25.7096  4.6452   4
   5  -6  14 17.8665  3.6227   2
  -5   6 -14 18.3260  4.2023   4
   6  -6  14 176.729   8.761   2
  -6   6 -14 204.482  10.447   4
   7  -6  14 135.540   7.861   2
  -7   6 -14 155.746   9.221   4
   8  -6  14 16.6324  4.0905   2
  -5  -7  14 34.6347  3.8520   2
  -4  -7  14 7.56093 2.69811   2
  -3  -7  14 83.5298  5.4825   2
   3   7 -14 82.5207  6.4004   4
  -2  -7  14 219.119   8.864   2
   2   7 -14 230.028  10.717   4
  -1  -7  14 8.93937 2.83682   2
   1   7 -14 11.4864  3.4430   4
   0  -7  14 10.3972  2.9670   2
   0   7 -14 12.6591  3.6550   4
   1  -7  14 9.61278 3.21373   2
  -1   7 -14 10.2229  3.4686   4
  -1   7 -14 7.82262 2.74107   1
   2  -7  14 230.445   9.539   2
  -2   7 -14 213.201  10.689   4
   3  -7  14 77.1822  5.8477   2
  -3   7 -14 91.4790  7.0838   4
   4  -7  14 11.2835  2.8517   2
   5  -7  14 30.0794  4.3743   2
 -13   0  15 19.9671  3.7932   3
 -12   0  15 43.4410  4.7000   3
  11   0 -15 252.394   8.344   3
 -11   0  15 245.094  10.259   3
  10   0 -15 89.6199  5.4298   3
 -10   0  15 94.4286  6.1367   3
 -10   0  15 105.949   5.858   2
  -9   0  15 21.3756  3.4015   3
   9   0 -15 31.6629  3.8141   3
  -9   0  15 21.9947  3.2780   2
  -8   0  15 106.117   5.467   2
   8   0 -15 107.146   5.763   3
  -8   0  15 109.777   6.023   3
  -7   0  15 22.3930  3.1863   3
   7   0 -15 20.2573  3.0881   1
  -7   0  15 21.2347  2.8855   2
  -6   0  15 458.283  11.787   2
   6   0 -15 460.372  12.522   1
  -6   0  15 459.318  12.744   3
   6   0 -15 469.920  12.387   3
   5   0 -15 82.6193  4.9354   3
  -5   0  15 83.4641  4.7461   3
  -5   0  15 84.4872  4.4733   2
   5   0 -15 83.0023  4.7347   1
  -4   0  15 217.788   7.032   2
  -4   0  15 215.830   7.520   3
   4   0 -15 210.708   7.538   3
   4   0 -15 205.981   7.638   1
   3   0 -15 2.34813 2.23232   3
   3   0 -15 -0.3422  0.9065   1
  -3   0  15 -0.5836  1.0676   2
  -3   0  15 0.47324 0.93527   3
  -2   0  15 21.1324  2.5350   3
   2   0 -15 23.3604  3.3147   3
  -2   0  15 25.1597  2.3973   2
   2   0 -15 18.2083  2.6684   1
  -1   0  15 26.3328  2.4921   3
  -1   0  15 32.9050  2.5804   2
   1   0 -15 29.4638  2.9598   1
   1   0 -15 26.8692  3.4162   3
   0   0  15 0.47076 0.84829   3
   0   0 -15 2.25032 2.10644   3
   0   0 -15 0.54877 0.91266   1
  -1   0 -15 30.9210  3.6482   3
   1   0  15 26.9490  2.3404   3
  -1   0 -15 28.6272  3.0241   1
   2   0  15 24.6862  2.3203   3
  -2   0 -15 25.3798  2.8924   1
  -2   0 -15 26.7299  3.6379   3
  -3   0 -15 0.98615 2.09088   3
  -3   0 -15 -0.3956  1.0498   1
   3   0  15 1.04243 1.11869   3
  -4   0 -15 207.672   8.369   1
   4   0  15 199.171   5.789   3
  -4   0 -15 202.816   7.864   3
  -5   0 -15 80.1673  5.2751   1
   5   0  15 75.9210  3.3944   3
  -5   0 -15 84.9717  5.2483   3
  -6   0 -15 447.492  12.907   3
  -6   0 -15 424.390  13.343   1
   6   0  15 457.860   9.486   3
  -7   0 -15 23.0924  3.8377   3
  -7   0 -15 17.2415  3.2369   1
   7   0  15 18.3246  1.7951   3
  -8   0 -15 99.0254  6.3217   1
  -8   0 -15 101.565   6.444   3
  -9   0 -15 13.9454  3.4757   3
  -9   0 -15 19.2698  3.6011   1
 -10   0 -15 112.202   7.270   1
 -10   0 -15 90.9944  6.5786   3
 -11   0 -15 235.860  11.012   1
 -11   0 -15 248.449  10.553   3
 -12   0 -15 43.6121  4.9599   3
 -13   0 -15 18.2161  3.8607   3
  13  -1 -15 43.0735  4.5200   3
 -13  -1  15 32.0949  4.5136   2
 -13  -1  15 41.6281  5.6531   3
 -13   1  15 40.4049  4.1577   3
 -12  -1  15 110.771   6.733   2
 -12  -1  15 115.839   7.333   3
  12  -1 -15 107.066   6.416   3
 -12   1  15 106.544   6.436   3
 -11  -1  15 86.9311  5.7285   2
 -11  -1  15 88.8420  6.4086   3
  11  -1 -15 88.4392  5.8627   3
 -11   1  15 84.1929  5.5549   3
 -10  -1  15 59.0645  5.0933   3
 -10  -1  15 62.3143  4.7471   2
 -10   1  15 62.9899  4.6223   3
  -9  -1  15 154.878   7.564   3
  -9  -1  15 143.724   6.894   2
  -9   1  15 163.681   7.240   3
   9   1 -15 148.170   7.600   1
  -8  -1  15 349.389  11.645   3
  -8  -1  15 366.012  11.060   2
   8   1 -15 355.560  11.929   1
  -8   1  15 347.701  10.946   3
   8   1 -15 374.122   9.287   3
  -7  -1  15 74.3296  4.5973   2
  -7  -1  15 71.6222  4.9166   3
  -7   1  15 72.0538  4.4806   3
   7   1 -15 72.0636  5.0916   1
   7   1 -15 76.9292  4.3752   3
  -6  -1  15 130.199   6.335   3
  -6  -1  15 128.773   5.869   2
  -6   1  15 141.413   6.330   5
   6   1 -15 134.783   6.784   1
   6   1 -15 132.890   5.630   3
  -5  -1  15 182.181   7.361   3
  -5  -1  15 181.409   6.786   2
   5   1 -15 180.492   6.667   3
   5   1 -15 179.465   7.710   1
  -5   1  15 192.670   7.071   5
  -4  -1  15 332.277   9.481   2
  -4  -1  15 326.499  10.095   3
   4  -1 -15 350.408   9.428   1
  -4   1  15 330.106   9.073   3
   4   1 -15 333.021  10.745   1
  -4   1  15 327.180   9.110   5
   4   1 -15 329.408   9.439   3
   3  -1 -15 227.498   7.455   1
  -3  -1  15 223.342   7.430   2
  -3  -1  15 232.262   8.028   3
   3   1 -15 237.117   8.758   1
  -3   1  15 236.552   6.962   3
  -3   1  15 241.263   6.982   5
   3   1 -15 227.742   7.606   3
  -2  -1  15 43.7658  3.3750   3
  -2  -1  15 40.0237  3.1158   2
   2  -1 -15 45.7961  3.3329   1
   2   1 -15 44.6011  2.5805   4
   2   1 -15 40.4446  3.7604   1
  -2   1  15 42.7670  2.7232   3
   2   1 -15 45.7734  4.0549   3
  -2   1  15 40.4600  2.4787   5
  -1  -1  15 763.214  15.195   5
   1  -1 -15 733.813  16.341   3
  -1  -1  15 751.326  15.781   2
   1  -1 -15 748.970  16.252   1
  -1  -1  15 716.237  16.345   3
   1   1 -15 754.589  17.604   1
  -1   1  15 746.416  14.439   3
   1   1 -15 730.997  13.353   4
   1   1 -15 736.507  16.501   3
   0  -1 -15 29.7360  2.8803   1
   0  -1 -15 32.1998  3.7053   3
   0  -1  15 31.9253  2.8330   2
   0  -1  15 31.1086  2.4331   5
   0  -1  15 31.0191  2.8663   3
   0   1 -15 33.7964  3.8128   3
   0   1  15 32.0530  2.0184   3
   0   1 -15 32.7266  3.3538   1
   0   1 -15 33.9228  2.3147   4
  -1  -1 -15 725.818  16.368   3
  -1  -1 -15 751.199  16.796   1
   1  -1  15 751.979  15.640   2
   1  -1  15 749.849  16.342   3
   1  -1  15 765.775  14.634   5
  -1   1 -15 748.881  17.962   1
  -1   1 -15 739.627  16.826   3
   1   1  15 750.929  13.302   3
  -1   1 -15 739.637  13.655   4
  -2  -1 -15 40.5228  3.4887   1
  -2  -1 -15 46.2370  4.2653   3
   2  -1  15 38.6191  3.0474   3
   2  -1  15 45.1997  3.1731   2
  -2   1 -15 38.9645  3.7030   1
  -2   1 -15 47.1498  2.7634   4
  -2   1 -15 41.2731  4.1926   3
  -3  -1 -15 237.078   8.080   3
   3  -1  15 247.800   7.316   2
  -3  -1 -15 230.420   8.427   1
   3  -1  15 237.944   7.442   3
  -3   1 -15 220.589   6.509   4
  -3   1 -15 221.030   8.812   1
  -3   1 -15 227.073   8.331   3
  -4  -1 -15 322.937  10.513   1
   4  -1  15 340.199   9.234   3
  -4  -1 -15 317.443   9.862   3
  -4   1 -15 334.799  10.379   3
  -4   1 -15 323.275   8.426   4
  -4   1 -15 329.937  11.214   1
  -5  -1 -15 171.979   7.624   1
  -5  -1 -15 172.442   7.224   3
  -5   1 -15 178.560   8.052   1
  -5   1 -15 171.620   7.427   3
   6  -1  15 138.679   5.609   3
  -6  -1 -15 124.304   6.595   1
  -6   1 -15 134.982   7.125   1
  -6   1 -15 124.000   6.695   3
  -7  -1 -15 74.4935  5.3800   1
   7  -1  15 74.4428  4.1538   3
  -7   1 -15 80.6148  5.6744   1
  -7   1 -15 80.8180  5.7192   3
  -8  -1 -15 342.494  12.268   1
   8  -1  15 374.219   9.875   3
  -8   1 -15 361.209  12.771   1
  -8   1 -15 356.964  11.983   3
   9  -1  15 150.775   5.712   3
  -9  -1 -15 141.802   7.923   1
  -9   1 -15 135.650   7.901   1
  -9   1 -15 151.041   7.812   3
 -10  -1 -15 60.3229  5.2721   1
  10  -1  15 63.0986  3.7944   3
 -10   1 -15 55.9181  5.4630   3
 -10   1 -15 58.4407  5.3797   1
 -11  -1 -15 89.8531  6.4550   1
 -11   1 -15 68.4614  5.9890   1
 -11   1 -15 91.1518  6.5373   3
 -12   1 -15 100.459   7.363   1
 -12   1 -15 93.6658  5.9414   2
 -12   1 -15 104.002   6.979   3
 -13   1 -15 42.8557  5.1822   3
 -13  -2  15 35.8468  4.8563   2
 -13   2  15 37.3414  3.8727   3
 -12  -2  15 37.8820  4.2609   2
 -12   2  15 35.1703  3.7145   3
 -11  -2  15 4.48637 2.09076   2
  11   2 -15 4.06535 2.42852   1
 -11   2  15 2.45545 1.83475   3
 -10  -2  15 155.223   7.517   2
 -10  -2  15 162.902   8.061   3
 -10   2  15 157.481   6.938   3
  10   2 -15 158.883   8.612   1
  -9  -2  15 21.0609  3.2725   2
  -9  -2  15 14.6805  2.9830   3
  -9   2  15 16.8009  2.6652   3
   9   2 -15 14.8111  3.1952   1
  -8  -2  15 68.5784  4.7302   2
  -8  -2  15 71.7332  5.1594   3
   8   2 -15 84.6524  6.1180   1
  -8   2  15 82.2583  4.3819   3
  -7  -2  15 87.0677  5.0476   2
  -7  -2  15 92.5524  5.3565   3
  -7   2  15 84.9944  4.2124   3
   7   2 -15 80.4905  5.8197   1
  -6  -2  15 258.062   8.783   2
  -6  -2  15 255.750   9.252   3
  -6   2  15 263.229   7.410   3
  -6   2  15 269.472   9.271   5
   6   2 -15 256.274  10.268   1
  -5  -2  15 396.739  11.112   2
  -5  -2  15 388.579  11.670   3
  -5   2  15 410.009   9.201   3
   5   2 -15 402.460  13.016   1
  -4  -2  15 70.8791  4.2930   2
  -4  -2  15 68.6133  4.5203   3
   4   2 -15 67.8667  5.0973   1
  -4   2  15 67.9906  2.7926   3
   4   2 -15 73.4651  3.8973   4
   4   2 -15 73.1825  3.0951   3
  -3  -2  15 356.937  10.527   3
  -3  -2  15 350.979   9.887   2
   3   2 -15 336.535  11.495   1
   3   2 -15 340.096   8.937   4
   3   2 -15 344.082   8.232   3
   2  -2 -15 83.0501  4.0177   1
  -2  -2  15 82.5649  4.8243   3
  -2  -2  15 85.8426  4.5436   2
   2   2 -15 82.1234  4.0903   4
   2   2 -15 75.8921  5.2643   1
   2   2 -15 79.5944  4.0081   3
  -1  -2  15 294.957   9.187   3
   1  -2 -15 301.020   8.520   1
  -1  -2  15 294.169   8.814   2
   1   2 -15 285.984   8.062   3
   1   2 -15 299.222  10.521   1
   1   2 -15 285.905   8.070   4
   0  -2  15 353.053   9.809   2
   0  -2  15 347.140  10.144   3
   0  -2 -15 348.043   9.556   1
   0   2 -15 336.598   9.224   3
   0   2 -15 350.206  11.504   1
   0   2 -15 363.480   9.192   4
   1  -2  15 277.471   8.909   3
  -1  -2 -15 299.270   8.966   1
   1  -2  15 297.862   8.876   2
  -1   2 -15 294.037   8.207   4
  -1   2 -15 287.524   8.503   3
  -1   2 -15 281.719  10.315   1
   2  -2  15 78.5886  4.5443   3
   2  -2  15 78.8533  4.4072   2
  -2  -2 -15 75.2663  4.5029   1
  -2   2 -15 77.8101  5.2575   1
  -2   2 -15 78.6905  4.5471   3
  -2   2 -15 82.2487  4.2505   4
   3  -2  15 355.465   9.973   2
  -3  -2 -15 337.638  10.350   1
   3  -2  15 344.798  10.139   3
  -3   2 -15 348.879  11.911   1
  -3   2 -15 356.676   9.622   4
  -4  -2 -15 72.5545  4.6343   1
   4  -2  15 62.0677  4.1804   3
   4  -2  15 68.5340  4.3564   2
  -4   2 -15 71.4599  4.3147   4
  -4   2 -15 75.5875  5.2454   1
  -4   2 -15 76.0657  4.7748   3
   5  -2  15 403.238  11.224   3
   5  -2  15 412.198  11.027   2
  -5  -2 -15 399.532  12.091   1
  -5   2 -15 409.860  11.700   3
  -5   2 -15 372.869  12.857   1
   6  -2  15 265.794   8.737   3
  -6  -2 -15 259.392   9.761   1
  -6   2 -15 261.550  10.497   1
  -6   2 -15 251.374   8.941   3
   7  -2  15 86.4560  4.8558   3
  -7  -2 -15 75.4053  5.4893   1
  -7   2 -15 91.0938  6.1882   1
  -7   2 -15 90.5225  5.3777   3
   8  -2  15 56.4032  4.1782   3
  -8  -2 -15 71.5101  5.4214   1
  -8   2 -15 66.5946  5.6910   1
  -8   2 -15 73.2642  5.0475   3
  -9  -2 -15 16.0892  3.2093   1
   9  -2  15 15.3740  2.9892   3
  -9   2 -15 14.1931  3.0230   3
  -9   2 -15 21.5733  3.9938   1
 -10  -2 -15 136.409   8.093   1
  10  -2  15 149.219   6.759   3
 -10   2 -15 157.480   8.757   1
 -10   2 -15 150.436   7.480   3
 -11  -2 -15 6.70776 2.33641   1
  11  -2  15 3.52294 2.64944   3
 -11   2 -15 6.54961 2.50924   3
 -11   2 -15 8.78086 2.39828   1
  12  -2  15 27.1227  3.8178   3
 -12   2 -15 38.1127  3.9442   3
 -13   2 -15 42.6484  3.8441   3
 -12  -3  15 87.1121  6.1304   2
  11   3 -15 124.757   8.223   1
 -10  -3  15 -0.8655  1.3241   2
  10   3 -15 1.23591 2.17279   1
  -9  -3  15 25.6969  3.6069   2
   9   3 -15 32.4270  4.9165   1
  -8  -3  15 260.379   9.386   2
   8   3 -15 254.508  11.300   1
  -7  -3  15 41.1107  3.5681   2
   7   3 -15 52.1021  5.1397   1
  -6  -3  15 14.7099  2.4780   2
   6   3 -15 10.0547  2.8684   1
  -5  -3  15 281.875   9.145   2
   5   3 -15 295.749   9.110   4
   5   3 -15 276.444  11.262   1
  -4  -3  15 28.7049  3.0660   2
   4   3 -15 27.6610  3.3487   4
   4   3 -15 28.2170  4.2748   1
  -3  -3  15 457.388  12.615   3
  -3  -3  15 460.375  12.042   2
   3   3 -15 450.950  14.445   1
   3   3 -15 452.109  11.683   4
  -2  -3  15 175.856   6.803   2
  -2  -3  15 169.787   7.061   3
   2   3 -15 172.654   6.710   4
   2   3 -15 167.441   8.241   1
  -1  -3  15 133.723   5.830   2
  -1  -3  15 147.818   6.451   3
   1   3 -15 127.619   7.144   1
   1   3 -15 135.124   5.970   4
   0  -3  15 -0.4360  1.2472   3
   0  -3  15 1.55498 1.18839   2
   0   3 -15 0.09156 1.22760   4
   0   3 -15 0.68602 1.27999   1
   1  -3  15 137.540   6.235   3
  -1  -3 -15 137.998   5.731   1
   1  -3  15 133.034   5.986   2
  -1   3 -15 143.360   7.454   1
  -1   3 -15 146.218   6.258   4
  -1   3 -15 143.091   3.962   3
  -2  -3 -15 165.631   6.611   1
   2  -3  15 167.162   7.016   3
   2  -3  15 172.036   6.909   2
  -2   3 -15 167.926   5.137   3
  -2   3 -15 171.083   8.180   1
  -2   3 -15 170.557   6.916   4
   3  -3  15 463.257  12.649   3
  -3  -3 -15 456.386  12.224   1
   3  -3  15 468.407  12.456   2
  -3   3 -15 444.595  10.428   3
  -3   3 -15 454.855  12.235   4
  -3   3 -15 442.983  14.193   1
   4  -3  15 22.6274  3.1908   2
   4  -3  15 29.3357  3.3134   3
  -4  -3 -15 26.5384  3.4149   1
  -4   3 -15 28.8406  3.5938   4
  -4   3 -15 24.9083  3.7851   1
  -4   3 -15 27.1788  2.8304   3
  -5  -3 -15 290.755  10.020   1
   5  -3  15 316.430  10.009   2
   5  -3  15 279.700   9.711   3
  -5   3 -15 296.217   9.984   4
  -5   3 -15 282.960   8.546   3
  -5   3 -15 268.056  11.040   1
   6  -3  15 8.99743 2.65480   2
   6  -3  15 11.4914  3.0468   3
  -6  -3 -15 11.1840  2.5995   1
  -6   3 -15 16.4395  2.8204   3
  -6   3 -15 14.5836  3.1694   1
   7  -3  15 39.0184  3.9878   2
   7  -3  15 43.6640  4.2126   3
  -7  -3 -15 50.8421  4.5308   1
  -7   3 -15 40.4668  4.5079   1
  -7   3 -15 40.2844  3.8208   3
  -8  -3 -15 244.663  10.301   1
   8  -3  15 261.948   9.603   3
  -8   3 -15 255.133   8.950   3
  -8   3 -15 264.683  11.328   1
  -9  -3 -15 28.1021  4.3853   1
   9  -3  15 33.3816  3.5513   3
  -9   3 -15 27.3795  3.7533   3
  -9   3 -15 26.6727  4.4391   1
 -10  -3 -15 2.33006 1.91769   1
  10  -3  15 3.00191 2.06711   3
 -10   3 -15 3.59024 2.18284   3
 -10   3 -15 5.97652 2.38033   1
  11  -3  15 107.298   6.297   3
 -11   3 -15 112.227   6.337   3
 -11   3 -15 121.313   7.855   1
  12  -3  15 87.4877  5.8152   3
 -12   3 -15 96.5798  6.0484   3
 -11  -4  15 90.1365  5.8485   2
 -10  -4  15 363.396  12.130   2
  -9  -4  15 37.6009  3.6484   2
   9   4 -15 33.9681  5.2015   1
  -8  -4  15 30.2631  3.5084   2
   8   4 -15 24.7553  4.7852   1
  -7  -4  15 35.2419  3.6177   2
   7   4 -15 35.5912  5.3485   1
  -6  -4  15 33.8337  3.4763   2
   6   4 -15 36.1283  5.3460   1
  -5  -4  15 672.406  15.981   2
   5   4 -15 640.495  15.794   4
   5   4 -15 631.577  19.228   1
  -4  -4  15 69.3259  4.4421   2
   4   4 -15 60.9887  5.5459   1
   4   4 -15 66.7076  4.6688   4
  -3  -4  15 420.704  11.493   2
   3   4 -15 401.025  14.134   1
   3   4 -15 405.043  11.852   4
  -2  -4  15 187.461   7.218   2
   2   4 -15 185.700   9.184   1
   2   4 -15 187.881   7.809   4
  -1  -4  15 56.6627  4.0937   2
   1   4 -15 79.1961  5.6983   1
   1   4 -15 56.5169  4.3694   4
   0  -4  15 1.57929 1.68490   2
   0   4 -15 1.51885 1.74599   1
   0   4 -15 6.37001 2.05087   4
   1  -4  15 49.3380  3.9242   2
  -1   4 -15 52.2516  4.2925   4
  -1   4 -15 50.5257  4.8708   1
   2  -4  15 177.441   7.407   3
  -2   4 -15 194.298   9.199   1
  -2   4 -15 176.240   7.726   4
   3  -4  15 410.733  12.221   3
   3  -4  15 408.603  11.949   2
  -3   4 -15 407.315  12.431   4
  -3   4 -15 408.098  13.972   1
   4  -4  15 70.7111  4.9359   2
   4  -4  15 74.5067  4.9592   3
  -4  -4 -15 73.9539  4.7407   1
  -4   4 -15 67.8070  5.6034   1
  -4   4 -15 66.4111  5.1808   4
  -5  -4 -15 652.177  16.577   1
   5  -4  15 642.632  16.832   3
   5  -4  15 653.026  16.795   2
  -5   4 -15 644.011  18.762   1
  -5   4 -15 660.930  17.212   4
   6  -4  15 34.8061  4.0945   2
   6  -4  15 26.1333  4.0541   3
  -6  -4 -15 29.3351  3.8687   1
  -6   4 -15 32.3739  4.6423   1
  -6   4 -15 29.9408  4.4322   4
   7  -4  15 22.5508  3.6786   2
  -7  -4 -15 37.9576  4.0139   1
   7  -4  15 33.3186  3.9675   3
  -7   4 -15 28.1029  4.3194   4
  -7   4 -15 40.0230  4.4287   1
  -8  -4 -15 21.9337  3.6503   1
   8  -4  15 28.0338  4.1029   2
   8  -4  15 21.2695  3.7956   3
  -8   4 -15 23.8465  4.0421   1
   9  -4  15 32.4526  4.6493   3
  -9  -4 -15 30.0947  4.4694   1
  -9   4 -15 23.8147  4.3731   1
  10  -4  15 339.088  12.250   3
  11  -4  15 83.2488  5.6424   3
 -10  -5  15 29.8842  4.2106   2
  -9  -5  15 140.315   7.420   2
  -8  -5  15 60.0046  5.1056   2
  -7  -5  15 4.11539 2.52734   2
   7   5 -15 5.06335 2.65188   1
  -6  -5  15 11.5815  2.7885   2
   6   5 -15 12.6729  3.0084   4
   6   5 -15 19.5413  3.5691   1
  -5  -5  15 201.658   7.982   2
   5   5 -15 187.687   8.531   4
   5   5 -15 187.468  10.336   1
  -4  -5  15 4.81090 2.33744   2
   4   5 -15 8.51714 2.61149   4
  -3  -5  15 133.258   6.393   2
   3   5 -15 140.339   7.356   4
   3   5 -15 132.934   8.296   1
  -2  -5  15 7.04286 2.27494   2
   2   5 -15 9.64461 2.79603   4
   2   5 -15 4.97963 2.43290   1
  -1  -5  15 110.880   5.743   2
   1   5 -15 110.164   7.432   1
   1   5 -15 90.0133  6.0346   4
   0  -5  15 1.21153 1.58980   2
   0   5 -15 5.80457 2.18238   1
   0   5 -15 2.55213 2.00426   4
   1  -5  15 91.6493  5.2909   2
  -1   5 -15 99.5345  6.4118   4
  -1   5 -15 88.3157  6.7198   1
   2  -5  15 10.9426  2.4072   2
  -2   5 -15 6.73720 2.55040   4
  -2   5 -15 6.16969 2.80267   1
   3  -5  15 129.483   6.693   2
  -3   5 -15 142.575   7.801   4
  -3   5 -15 142.040   8.278   1
   4  -5  15 4.54569 2.17697   2
  -4   5 -15 7.19101 2.67219   4
  -4   5 -15 9.62078 2.78628   1
   5  -5  15 177.731   8.286   2
  -5   5 -15 199.808   9.545   4
  -5   5 -15 181.227   9.609   1
   6  -5  15 10.0681  3.0208   2
   6  -5  15 18.9768  3.5047   3
  -6   5 -15 10.7370  3.2427   1
  -6   5 -15 10.8922  3.3429   4
   7  -5  15 8.42797 3.15025   3
  -7  -5 -15 13.3540  3.0846   1
   7  -5  15 7.55015 3.05343   2
  -7   5 -15 11.8534  3.1011   1
  -7   5 -15 6.11070 2.95878   4
   8  -5  15 50.3627  5.0125   2
  -8  -5 -15 56.3369  5.1572   1
   8  -5  15 55.3112  5.3615   3
  -8   5 -15 56.9576  5.9420   4
   9  -5  15 125.365   7.687   2
   9  -5  15 115.503   7.381   3
  -9   5 -15 132.473   8.504   4
  10  -5  15 17.0819  3.9868   3
  -7  -6  15 33.2932  4.3402   2
  -6  -6  15 93.1139  5.8368   2
   6   6 -15 92.9268  6.4608   4
  -5  -6  15 35.8019  3.8872   2
   5   6 -15 50.5651  5.0254   4
  -4  -6  15 1.95966 2.05275   2
   4   6 -15 0.76038 2.04032   4
  -3  -6  15 163.105   7.408   2
   3   6 -15 170.631   8.643   4
   3   6 -15 172.546   9.768   1
  -2  -6  15 1.97440 2.25419   2
   2   6 -15 3.70334 2.38732   1
   2   6 -15 2.45298 2.37434   4
  -1  -6  15 69.1895  5.0876   2
   1   6 -15 58.5829  5.9760   1
   1   6 -15 67.3247  5.7624   4
   0  -6  15 40.4726  4.0358   2
   0   6 -15 50.5306  5.0423   1
   0   6 -15 48.3298  5.0326   4
   1  -6  15 71.8381  5.1325   2
  -1   6 -15 68.6530  6.0490   1
  -1   6 -15 65.0436  5.7143   4
   2  -6  15 3.48017 1.91230   2
  -2   6 -15 4.59198 2.56504   1
  -2   6 -15 3.53181 2.47788   4
   3  -6  15 160.630   7.605   2
  -3   6 -15 116.833   8.348   1
  -3   6 -15 169.188   9.006   4
   4  -6  15 -0.6556  2.1244   2
  -4   6 -15 4.58080 2.25231   1
  -4   6 -15 2.84881 2.51452   4
   5  -6  15 22.6852  3.8584   2
  -5   6 -15 39.5723  5.6621   4
   6  -6  15 77.4682  6.0855   2
  -6   6 -15 87.0314  7.2034   4
   7  -6  15 24.2472  4.2259   2
  -7   6 -15 23.5090  4.6258   4
  -4  -7  15 25.1136  3.7689   2
  -3  -7  15 3.33261 2.52847   2
  -2  -7  15 45.5978  4.5462   2
   2   7 -15 42.9123  5.4851   4
  -1  -7  15 136.129   7.231   2
   1   7 -15 116.422   7.788   4
   0  -7  15 162.075   8.057   2
   0   7 -15 157.290   9.159   4
   1  -7  15 121.340   7.199   2
  -1   7 -15 121.976   8.063   4
   2  -7  15 45.4377  4.7171   2
  -2   7 -15 47.4707  5.9961   4
   3  -7  15 0.48236 1.91633   2
   4  -7  15 27.4738  4.1425   2
 -13   0  16 1.67012 1.60760   3
 -12   0  16 188.633   9.158   3
  11   0 -16 4.44225 2.83172   3
 -11   0  16 2.23375 2.04070   3
  10   0 -16 34.1325  4.0734   3
 -10   0  16 30.2852  4.1845   3
  -9   0  16 114.998   6.060   2
   9   0 -16 120.276   6.251   3
  -9   0  16 105.841   6.335   3
   8   0 -16 -0.2938  2.3398   3
  -8   0  16 1.20399 1.56169   2
  -8   0  16 2.91517 1.72020   3
  -7   0  16 14.9428  2.7644   3
  -7   0  16 14.1009  2.6740   2
  -6   0  16 1321.03   25.22   2
   6   0 -16 1283.98   25.66   1
   6   0 -16 1263.37   25.72   3
  -6   0  16 1271.36   26.44   3
   5   0 -16 161.176   6.900   1
  -5   0  16 166.693   6.335   2
   5   0 -16 160.558   6.760   3
  -5   0  16 162.973   6.796   3
  -4   0  16 5.51949 1.52683   2
   4   0 -16 5.58219 2.35271   3
   4   0 -16 4.40450 1.60341   1
  -4   0  16 2.31943 1.38484   3
  -3   0  16 156.077   6.214   3
   3   0 -16 153.326   6.691   1
  -3   0  16 164.891   5.867   2
   3   0 -16 156.064   6.682   3
  -2   0  16 178.122   6.458   3
   2   0 -16 171.643   7.133   1
  -2   0  16 184.390   6.129   2
   2   0 -16 171.804   7.091   3
   1   0 -16 400.307  11.209   3
  -1   0  16 401.005  10.310   3
   1   0 -16 396.083  11.572   1
   0   0 -16 22.2991  3.1518   1
   0   0 -16 23.6056  3.6284   3
  -1   0 -16 397.646  11.886   1
   1   0  16 408.242   9.952   3
  -1   0 -16 403.387  11.462   3
   2   0  16 187.394   5.963   3
  -2   0 -16 183.165   7.669   1
  -2   0 -16 175.965   7.396   3
  -3   0 -16 156.513   7.012   3
  -3   0 -16 161.743   7.374   1
   3   0  16 157.837   5.268   3
   4   0  16 3.91320 1.31754   3
  -4   0 -16 3.78583 2.37238   3
  -4   0 -16 5.09597 1.97049   1
  -5   0 -16 153.912   7.221   3
  -5   0 -16 159.300   7.684   1
   5   0  16 168.971   5.129   3
  -6   0 -16 1264.13   26.79   3
  -6   0 -16 1232.81   27.34   1
   6   0  16 1301.02   22.12   3
  -7   0 -16 13.4646  3.5322   3
  -7   0 -16 15.2866  3.2311   1
  -8   0 -16 3.25621 1.86611   1
  -8   0 -16 0.87373 2.30222   3
  -9   0 -16 111.107   6.885   3
  -9   0 -16 119.043   7.276   1
 -10   0 -16 29.5308  4.7320   3
 -10   0 -16 30.8501  4.7987   1
 -11   0 -16 8.69305 3.24847   3
 -12   0 -16 186.763   9.356   3
 -13   0 -16 4.01986 2.46746   3
  13  -1 -16 41.5306  4.5905   3
 -13  -1  16 37.9763  4.4012   2
 -13  -1  16 48.8103  4.8631   3
 -13   1  16 47.9458  4.4096   3
  12  -1 -16 4.40686 3.15882   3
 -12  -1  16 5.16950 2.30997   2
 -12  -1  16 5.33024 2.49125   3
 -12   1  16 6.23558 2.40208   3
  11  -1 -16 277.377  10.144   3
 -11  -1  16 279.793  10.540   2
 -11  -1  16 279.027  11.278   3
 -11   1  16 267.140  10.386   3
 -10  -1  16 112.631   6.951   3
 -10  -1  16 115.961   6.478   2
 -10   1  16 110.112   6.322   3
  -9  -1  16 180.484   8.452   3
   9  -1 -16 180.394   8.091   3
  -9  -1  16 180.375   7.801   2
  -9   1  16 177.586   7.753   3
   9   1 -16 183.532   8.507   1
  -8  -1  16 29.9330  3.3771   2
  -8  -1  16 27.5475  3.9898   3
   8   1 -16 30.5515  3.0968   3
  -8   1  16 25.8804  3.1214   3
   8   1 -16 26.1026  3.8537   1
  -7  -1  16 392.673  11.581   2
  -7  -1  16 388.353  12.257   3
   7   1 -16 407.193  12.766   1
   7   1 -16 396.067  10.435   3
  -6  -1  16 154.760   6.605   2
  -6  -1  16 158.469   7.156   3
   6   1 -16 155.973   7.498   1
   6   1 -16 172.300   6.499   3
  -6   1  16 154.032   6.775   5
  -5  -1  16 204.888   7.438   2
  -5  -1  16 207.370   8.027   3
  -5   1  16 202.424   7.414   5
   5   1 -16 202.047   8.413   1
  -5   1  16 197.498   6.984   3
   5   1 -16 200.543   7.285   3
  -4  -1  16 160.518   6.462   2
   4  -1 -16 154.325   6.083   1
  -4  -1  16 152.781   6.786   3
  -4   1  16 153.183   5.816   3
   4   1 -16 158.215   6.421   3
   4   1 -16 148.696   7.155   1
   3  -1 -16 481.031  12.070   1
  -3  -1  16 481.332  12.822   3
  -3  -1  16 491.861  12.162   2
   3   1 -16 490.888  13.719   1
   3   1 -16 417.647  11.674   3
  -3   1  16 491.448  11.323   3
  -2  -1  16 148.647   6.313   3
   2  -1 -16 147.486   6.537   3
   2  -1 -16 146.765   6.134   1
  -2  -1  16 160.609   6.128   2
  -2   1  16 153.917   5.222   3
   2   1 -16 152.229   4.854   4
   2   1 -16 159.098   6.618   3
   2   1 -16 154.990   7.194   1
  -1  -1  16 23.0843  2.7458   3
   1  -1 -16 23.1266  3.0058   1
   1  -1 -16 28.8438  3.5682   3
  -1  -1  16 26.5779  2.6947   2
  -1   1  16 28.4117  2.1786   3
   1   1 -16 25.2402  3.5174   3
   1   1 -16 29.2849  2.1907   4
   1   1 -16 29.4810  3.2768   1
   0  -1 -16 281.279   9.059   3
   0  -1  16 284.272   8.385   2
   0  -1 -16 293.804   9.310   1
   0  -1  16 288.668   8.841   3
   0   1 -16 290.783   7.176   4
   0   1  16 287.384   6.805   3
   0   1 -16 282.223  10.042   1
   0   1 -16 298.335   9.352   3
   1  -1  16 22.7806  2.5560   2
  -1  -1 -16 25.6379  3.2475   1
  -1  -1 -16 26.8513  3.4610   3
   1  -1  16 31.1847  2.8014   3
  -1   1 -16 25.1783  3.5462   1
  -1   1 -16 26.7619  3.5573   3
   1   1  16 25.1845  1.6642   3
  -1   1 -16 28.1419  2.1789   4
   2  -1  16 159.174   6.055   3
   2  -1  16 147.882   5.686   2
  -2  -1 -16 146.238   6.517   3
  -2  -1 -16 143.919   6.547   1
  -2   1 -16 153.474   7.358   1
  -2   1 -16 146.390   6.743   3
  -2   1 -16 147.031   4.949   4
  -3  -1 -16 486.181  12.860   3
   3  -1  16 488.799  12.019   3
  -3  -1 -16 479.942  13.371   1
  -3   1 -16 481.613  10.582   4
  -3   1 -16 480.475  14.129   1
  -3   1 -16 479.237  13.086   3
  -4  -1 -16 152.621   7.140   1
  -4  -1 -16 148.664   6.761   3
   4  -1  16 129.338   5.524   3
  -4   1 -16 156.971   7.553   1
  -4   1 -16 153.750   6.967   3
  -4   1 -16 144.838   5.371   4
   5  -1  16 189.102   6.772   3
  -5  -1 -16 201.545   8.048   3
  -5  -1 -16 197.186   8.419   1
  -5   1 -16 194.314   8.810   1
  -5   1 -16 205.137   8.192   3
  -6  -1 -16 147.388   7.494   1
   6  -1  16 159.928   6.103   3
  -6   1 -16 166.600   7.726   3
  -6   1 -16 159.851   8.015   1
  -7  -1 -16 381.259  12.865   1
   7  -1  16 387.862  10.240   3
  -7   1 -16 386.735  12.339   3
  -7   1 -16 364.973  12.937   1
   8  -1  16 26.4514  2.9572   3
  -8  -1 -16 27.3019  4.1049   1
  -8   1 -16 35.0552  4.7673   3
  -8   1 -16 25.8780  4.2837   1
   9  -1  16 177.027   6.190   3
  -9  -1 -16 175.380   8.958   1
  -9   1 -16 176.146   9.149   1
  -9   1 -16 176.237   8.516   3
 -10  -1 -16 98.4014  7.0234   1
 -10   1 -16 117.269   7.207   3
 -10   1 -16 105.986   7.341   1
 -11  -1 -16 260.925  11.787   1
 -11   1 -16 274.336  12.047   1
 -11   1 -16 278.047  11.339   3
 -12   1 -16 5.32408 3.28873   3
 -13   1 -16 43.9589  5.0051   3
 -12  -2  16 5.23342 2.43577   2
 -12   2  16 7.54082 2.34210   3
 -11  -2  16 9.20268 2.62518   3
 -11  -2  16 9.11979 2.78716   2
 -11   2  16 9.93322 2.50432   3
  11   2 -16 9.62991 3.19072   1
 -10  -2  16 39.2755  4.1106   2
 -10  -2  16 46.5196  4.4331   3
 -10   2  16 35.8930  3.5367   3
  10   2 -16 46.1723  5.7625   1
  -9  -2  16 93.0748  5.7102   2
  -9  -2  16 95.3487  6.0577   3
  -9   2  16 93.2841  4.9825   3
   9   2 -16 94.6513  6.5682   1
  -8  -2  16 230.292   9.380   3
  -8  -2  16 243.564   9.116   2
  -8   2  16 235.722   7.767   3
   8   2 -16 241.849  10.393   1
  -7  -2  16 61.1006  4.7623   3
  -7  -2  16 58.8035  4.3536   2
   7   2 -16 66.4651  5.4789   1
  -7   2  16 68.5947  3.7884   3
  -6  -2  16 75.8262  4.7213   2
  -6  -2  16 67.2581  4.8535   3
  -6   2  16 73.0369  3.6379   3
   6   2 -16 79.4823  5.7369   1
  -5  -2  16 106.122   5.518   2
  -5  -2  16 112.713   5.982   3
  -5   2  16 114.275   4.087   3
   5   2 -16 102.488   6.471   1
  -4  -2  16 380.715  10.866   2
  -4  -2  16 380.870  11.498   3
   4   2 -16 382.747   9.677   4
  -4   2  16 377.331   7.933   3
   4   2 -16 380.248   8.463   3
   4   2 -16 357.898  12.387   1
  -3  -2  16 199.887   7.834   3
  -3  -2  16 196.402   7.315   2
   3   2 -16 194.286   6.001   3
   3   2 -16 197.390   8.692   1
   3   2 -16 191.426   6.523   4
  -2  -2  16 280.709   8.816   2
  -2  -2  16 280.815   9.281   3
   2   2 -16 267.208   7.712   3
   2   2 -16 267.543   7.796   4
   2   2 -16 277.888  10.423   1
  -1  -2  16 265.633   8.903   3
   1  -2 -16 270.089   8.293   1
  -1  -2  16 254.466   8.378   2
   1   2 -16 256.836   9.977   1
   1   2 -16 248.901   7.553   4
   1   2 -16 262.984   7.815   3
   0  -2 -16 425.782  11.141   1
   0  -2  16 402.158  11.464   3
   0  -2  16 407.240  11.037   2
   0   2 -16 411.900  10.090   4
   0   2 -16 399.224  12.863   1
   0   2 -16 388.909  10.387   3
   1  -2  16 255.562   8.701   3
  -1  -2 -16 262.618   8.575   1
   1  -2  16 268.511   8.540   2
  -1   2 -16 263.832  10.224   1
  -1   2 -16 265.752   7.863   4
  -1   2 -16 264.154   8.313   3
   2  -2  16 279.707   9.089   3
   2  -2  16 280.216   8.837   2
  -2  -2 -16 275.798   9.189   1
  -2   2 -16 277.502   8.701   3
  -2   2 -16 262.019  10.311   1
  -2   2 -16 282.104   8.215   4
   3  -2  16 195.226   7.138   2
   3  -2  16 200.324   7.427   3
  -3  -2 -16 187.857   7.660   1
  -3   2 -16 197.902   6.887   4
  -3   2 -16 168.516   8.305   1
   4  -2  16 380.896  10.684   2
  -4  -2 -16 354.635  11.339   1
   4  -2  16 370.935  10.780   3
  -4   2 -16 377.969  10.327   4
  -4   2 -16 373.946  12.779   1
  -4   2 -16 373.953  11.047   3
   5  -2  16 109.970   5.505   3
  -5  -2 -16 107.935   6.037   1
   5  -2  16 107.715   5.450   2
  -5   2 -16 116.118   6.056   3
  -5   2 -16 111.756   5.521   4
  -5   2 -16 131.598   7.281   1
  -6  -2 -16 76.5217  5.3147   1
   6  -2  16 71.8151  4.4723   3
  -6   2 -16 79.0954  5.7709   1
  -6   2 -16 73.1989  5.0383   3
   7  -2  16 65.9277  4.3663   3
  -7  -2 -16 68.1372  5.2671   1
  -7   2 -16 48.4981  5.1539   1
  -7   2 -16 55.9904  4.5888   3
  -8  -2 -16 217.077   9.750   1
  -8   2 -16 225.463  10.327   1
  -8   2 -16 223.399   8.894   3
   9  -2  16 89.5503  5.2703   3
  -9  -2 -16 85.9970  6.4012   1
  -9   2 -16 94.5817  5.8624   3
  -9   2 -16 90.6862  6.7786   1
 -10  -2 -16 30.9046  4.7822   1
  10  -2  16 38.0566  3.9137   3
 -10   2 -16 44.2831  4.3092   3
 -10   2 -16 39.6374  5.5495   1
  11  -2  16 6.30416 2.69072   3
 -11   2 -16 15.6008  3.4658   1
 -11   2 -16 13.1997  2.9914   3
 -12   2 -16 12.2479  2.3731   3
 -12  -3  16 123.401   7.425   2
 -11  -3  16 57.5860  5.0551   2
 -10  -3  16 24.1821  3.7602   2
  10   3 -16 28.6333  4.6798   1
   9   3 -16 28.7738  4.6575   1
  -8  -3  16 36.6574  3.7541   2
   8   3 -16 46.3320  5.8562   1
  -7  -3  16 104.805   5.911   2
   7   3 -16 104.530   7.178   1
  -6  -3  16 45.4984  3.8687   2
   6   3 -16 51.4309  5.1121   1
  -5  -3  16 227.899   8.404   2
   5   3 -16 238.083   8.159   4
   5   3 -16 228.387  10.311   1
  -4  -3  16 85.2463  4.8839   2
   4   3 -16 85.3016  6.1853   1
   4   3 -16 83.5601  4.7817   4
  -3  -3  16 46.1405  3.8008   2
  -3  -3  16 58.0265  4.3065   3
   3   3 -16 56.5282  5.1233   1
   3   3 -16 60.1339  4.0744   4
  -2  -3  16 156.845   7.001   3
   2   3 -16 159.415   6.594   4
   2   3 -16 154.171   8.110   1
  -1  -3  16 223.911   8.194   2
  -1  -3  16 280.391   9.276   3
   1   3 -16 257.736   8.487   4
   1   3 -16 271.787  10.784   1
   0  -3  16 158.113   6.628   2
   0  -3  16 149.578   6.700   3
   0   3 -16 150.359   7.864   1
   0   3 -16 149.254   6.400   4
  -1  -3 -16 272.064   8.626   1
   1  -3  16 271.985   9.090   2
   1  -3  16 266.658   9.258   3
  -1   3 -16 275.867   6.466   3
  -1   3 -16 281.661  11.008   1
  -1   3 -16 272.632   8.899   4
   2  -3  16 155.590   6.968   3
  -2  -3 -16 161.115   6.671   1
   2  -3  16 155.326   6.720   2
  -2   3 -16 149.282   4.999   3
  -2   3 -16 149.387   7.746   1
  -2   3 -16 158.763   6.731   4
   3  -3  16 57.8659  4.3865   3
   3  -3  16 60.8621  4.3819   2
  -3  -3 -16 67.6231  4.5430   1
  -3   3 -16 56.0610  3.4818   3
  -3   3 -16 60.1874  4.3814   4
  -3   3 -16 85.1897  5.9484   1
   4  -3  16 75.6027  4.9642   3
   4  -3  16 82.9583  5.1737   2
  -4  -3 -16 78.7534  4.9960   1
  -4   3 -16 71.9366  4.9494   4
  -4   3 -16 76.6496  5.8284   1
  -4   3 -16 73.4560  4.1778   3
   5  -3  16 227.419   8.650   2
   5  -3  16 239.559   8.966   3
  -5  -3 -16 217.389   8.859   1
  -5   3 -16 225.376   8.772   4
  -5   3 -16 238.094   7.811   3
  -5   3 -16 239.506  10.566   1
  -6  -3 -16 46.3346  4.3625   1
   6  -3  16 43.1205  4.2747   3
   6  -3  16 46.8762  4.2552   2
  -6   3 -16 51.0312  4.4132   4
  -6   3 -16 47.9559  5.0107   1
  -6   3 -16 48.3187  3.9325   3
  -7  -3 -16 97.8366  6.2894   1
   7  -3  16 93.0120  5.6498   3
  -7   3 -16 99.2049  5.4385   3
  -7   3 -16 99.8911  6.8965   1
  -8  -3 -16 32.2870  4.4423   1
   8  -3  16 45.8173  4.0386   3
  -8   3 -16 48.9927  4.2267   3
  -8   3 -16 44.3678  4.8714   1
  -9  -3 -16 23.3113  4.1059   1
   9  -3  16 20.3935  3.2199   3
  -9   3 -16 20.7595  3.3121   3
  -9   3 -16 16.4104  3.7659   1
 -10  -3 -16 23.4254  4.0432   1
  10  -3  16 21.1932  3.5609   3
 -10   3 -16 27.1677  3.8382   3
 -10   3 -16 26.0239  4.4335   1
  11  -3  16 56.7775  4.6699   3
 -11   3 -16 58.8798  4.6918   3
  12  -3  16 104.814   6.426   3
 -12   3 -16 124.131   6.611   3
 -11  -4  16 5.94070 2.27697   2
 -10  -4  16 23.4307  3.5996   2
  -9  -4  16 93.2098  5.7869   2
  -8  -4  16 110.558   6.103   2
   8   4 -16 104.722   7.851   1
  -7  -4  16 40.6342  3.7003   2
   7   4 -16 40.4362  5.7266   1
  -6  -4  16 6.68187 1.95257   2
   6   4 -16 7.48784 2.91785   1
  -5  -4  16 475.717  13.151   2
   5   4 -16 466.863  16.259   1
   5   4 -16 481.368  13.305   4
  -4  -4  16 283.670   9.431   2
   4   4 -16 275.513   9.692   4
   4   4 -16 286.948  12.195   1
  -3  -4  16 18.3496  2.6859   2
   3   4 -16 13.9039  2.7912   4
   3   4 -16 18.1148  3.7421   1
  -2  -4  16 197.633   7.629   2
   2   4 -16 190.032   9.483   1
   2   4 -16 188.744   7.883   4
  -1  -4  16 71.8684  4.4943   2
   1   4 -16 73.3253  5.1261   4
   1   4 -16 79.6757  5.9913   1
   0  -4  16 402.946  11.667   2
   0   4 -16 390.631  11.852   4
   0   4 -16 384.585  13.826   1
   1  -4  16 46.7499  3.9576   2
  -1   4 -16 67.5510  5.5699   1
  -1   4 -16 79.1144  5.2982   4
   2  -4  16 196.966   7.918   2
   2  -4  16 197.468   8.152   3
  -2   4 -16 186.925   9.350   1
  -2   4 -16 198.139   8.290   4
   3  -4  16 16.3810  3.0147   2
   3  -4  16 15.9315  2.9339   3
  -3   4 -16 14.0389  3.2854   1
  -3   4 -16 15.9731  3.1936   4
   4  -4  16 281.332  10.075   3
  -4  -4 -16 287.875   9.850   1
   4  -4  16 277.734   9.975   2
  -4   4 -16 272.239  10.281   4
  -4   4 -16 270.196  11.490   1
   5  -4  16 463.488  13.706   2
   5  -4  16 458.298  13.742   3
  -5  -4 -16 455.040  13.591   1
  -5   4 -16 474.559  15.896   1
  -5   4 -16 458.957  14.024   4
   6  -4  16 8.66899 2.79243   2
   6  -4  16 5.68166 2.90539   3
  -6  -4 -16 7.43182 2.27038   1
  -6   4 -16 13.2460  3.2604   4
  -6   4 -16 11.5663  3.0045   1
   7  -4  16 44.5277  4.5778   3
   7  -4  16 36.5596  4.2527   2
  -7  -4 -16 36.8635  4.1503   1
  -7   4 -16 39.1349  5.0877   4
  -7   4 -16 58.9682  5.3448   1
   8  -4  16 102.238   6.721   3
  -8  -4 -16 104.561   6.928   1
  -8   4 -16 123.043   7.948   1
  -8   4 -16 116.720   7.373   4
   9  -4  16 97.9937  6.4573   3
  -9  -4 -16 103.180   6.958   1
  -9   4 -16 101.539   7.250   1
  10  -4  16 21.7431  3.7439   3
 -10   4 -16 9.86180 2.90021   1
  -9  -5  16 66.8612  5.2453   2
  -8  -5  16 -1.0636  1.7720   2
  -7  -5  16 127.782   6.791   2
  -6  -5  16 4.01006 2.20856   2
   6   5 -16 6.48238 2.44782   4
   6   5 -16 3.14805 2.29347   1
  -5  -5  16 11.8991  2.8204   2
   5   5 -16 23.1698  3.8194   4
   5   5 -16 5.43285 3.32748   1
  -4  -5  16 90.0373  5.4047   2
   4   5 -16 81.2794  5.6878   4
   4   5 -16 90.7918  6.9893   1
  -3  -5  16 55.8019  4.2964   2
   3   5 -16 49.5598  6.1608   1
   3   5 -16 61.7619  4.9265   4
  -2  -5  16 37.4699  3.8338   2
   2   5 -16 42.6046  4.3399   4
   2   5 -16 38.2989  5.2266   1
  -1  -5  16 14.8311  2.9054   2
   1   5 -16 13.8351  3.4307   1
   1   5 -16 14.9718  3.3632   4
   0  -5  16 6.85065 2.08140   2
   0   5 -16 8.42114 2.73471   4
   0   5 -16 9.31350 2.68827   1
   1  -5  16 17.4138  2.8797   2
  -1   5 -16 15.3917  3.3648   4
  -1   5 -16 9.07207 3.43026   1
   2  -5  16 41.1552  4.0168   2
  -2   5 -16 43.0511  5.1194   4
  -2   5 -16 33.5764  5.0444   1
  -3   5 -16 58.5382  5.2977   4
  -3   5 -16 53.8637  5.4505   1
   4  -5  16 75.2888  5.4730   2
  -4   5 -16 79.8632  6.0695   4
  -4   5 -16 87.3131  6.7798   1
   5  -5  16 19.7085  3.7110   2
   5  -5  16 19.9467  3.6083   3
  -5   5 -16 16.1878  3.5491   4
  -5   5 -16 15.4001  3.7864   1
   6  -5  16 9.06879 2.74060   3
   6  -5  16 5.11762 2.72208   2
  -6   5 -16 8.58639 2.82545   1
  -6   5 -16 5.76402 2.85547   4
   7  -5  16 117.645   7.238   2
   7  -5  16 120.437   7.382   3
  -7   5 -16 132.170   8.294   1
  -7   5 -16 117.786   7.920   4
   8  -5  16 -2.9376  2.3283   3
  -8  -5 -16 0.78135 1.46361   1
   8  -5  16 1.79515 2.77046   2
  -8   5 -16 -1.2246  2.3283   4
   9  -5  16 58.1683  5.6300   3
  -9   5 -16 73.0227  6.4091   4
  -7  -6  16 0.40150 2.22276   2
  -6  -6  16 100.039   6.253   2
   6   6 -16 100.055   6.628   4
  -5  -6  16 25.1700  3.9618   2
   5   6 -16 23.1855  4.0784   4
  -4  -6  16 4.92878 2.51532   2
   4   6 -16 4.79741 2.54033   4
  -3  -6  16 161.907   7.690   2
   3   6 -16 159.582   8.445   4
   3   6 -16 165.134   9.691   1
  -2  -6  16 180.612   8.184   2
   2   6 -16 178.201   9.040   4
   2   6 -16 168.314   9.922   1
  -1  -6  16 68.5493  5.1490   2
   1   6 -16 59.7581  5.5865   4
   1   6 -16 62.4246  6.1171   1
   0  -6  16 127.540   6.866   2
   0   6 -16 127.227   7.794   4
   0   6 -16 116.577   8.173   1
   1  -6  16 71.2797  5.2149   2
  -1   6 -16 68.8522  6.0058   1
  -1   6 -16 67.4126  5.9129   4
   2  -6  16 170.157   7.925   2
  -2   6 -16 173.013   9.651   1
  -2   6 -16 170.574   9.191   4
   3  -6  16 148.597   7.710   2
  -3   6 -16 144.133   9.074   1
  -3   6 -16 164.943   9.122   4
   4  -6  16 2.39977 2.16014   2
  -4   6 -16 12.5199  2.7772   1
  -4   6 -16 4.46677 2.79838   4
   5  -6  16 22.9137  4.0930   2
  -5   6 -16 25.8978  4.7789   4
   6  -6  16 93.3370  6.7157   2
  -6   6 -16 86.3423  6.9648   4
   7  -6  16 -1.1427  2.5005   2
  -2  -7  16 16.9579  3.5238   2
  -1  -7  16 39.1314  4.5623   2
   0  -7  16 1.49228 2.41714   2
   1  -7  16 41.6750  4.6020   2
   2  -7  16 12.1092  3.1545   2
 -12   0  17 41.3238  4.4443   3
 -11   0  17 48.6095  4.6142   3
  11   0 -17 43.0812  4.2269   3
  10   0 -17 96.5763  5.8551   3
 -10   0  17 97.9059  6.2639   3
  -9   0  17 18.6081  3.4115   3
   9   0 -17 19.5927  3.6154   3
  -8   0  17 170.447   7.866   3
   8   0 -17 179.991   7.568   3
  -7   0  17 27.7928  3.2918   3
   7   0 -17 25.5051  3.4189   3
   6   0 -17 77.4057  5.0410   1
   6   0 -17 81.4504  5.3784   3
  -6   0  17 83.4602  4.8028   2
  -6   0  17 80.2206  5.0042   3
   5   0 -17 154.778   6.961   3
  -5   0  17 170.556   6.544   2
  -5   0  17 164.708   6.965   3
   5   0 -17 163.602   7.140   1
  -4   0  17 3.93148 1.45967   3
   4   0 -17 3.49585 2.13335   3
   4   0 -17 2.71683 1.40408   1
  -3   0  17 56.7866  3.7013   3
   3   0 -17 59.2348  4.5478   3
   3   0 -17 54.5394  4.2077   1
  -2   0  17 21.2330  2.4923   3
   2   0 -17 23.0503  3.3115   1
   2   0 -17 22.7011  3.3822   3
   1   0 -17 10.2321  2.2787   1
  -1   0  17 9.93606 1.93578   3
   1   0 -17 13.6179  3.0716   3
   0   0  17 1.26820 1.20000   3
   0   0 -17 1.46823 2.31067   3
   0   0 -17 0.57807 1.24774   1
  -1   0 -17 11.3584  2.5267   1
   1   0  17 13.4417  2.1111   3
  -1   0 -17 15.1833  3.1717   3
   2   0  17 21.6978  2.2548   3
  -2   0 -17 24.4603  3.7499   3
  -2   0 -17 22.1471  3.5074   1
  -3   0 -17 58.6161  4.6973   1
  -3   0 -17 60.3368  4.8396   3
   3   0  17 60.0782  3.3023   3
  -4   0 -17 1.17482 2.19619   3
  -4   0 -17 3.96595 1.91021   1
   4   0  17 2.60401 1.25326   3
   5   0  17 163.258   5.057   3
  -5   0 -17 155.053   7.498   3
  -5   0 -17 160.118   7.949   1
  -6   0 -17 80.2230  5.8161   1
   6   0  17 80.5198  3.2437   3
  -6   0 -17 74.5670  5.7243   3
  -7   0 -17 29.1384  4.3610   3
  -7   0 -17 26.2854  4.1154   1
  -8   0 -17 177.409   8.600   3
  -8   0 -17 170.485   8.939   1
  -9   0 -17 16.8260  3.4637   1
  -9   0 -17 16.4930  4.0601   3
 -10   0 -17 96.9934  6.3913   1
 -10   0 -17 98.4554  7.0839   3
 -11   0 -17 52.2036  4.9376   1
 -11   0 -17 54.1032  5.7368   3
 -12   0 -17 46.3533  5.2273   3
 -12  -1  17 190.187   8.929   2
 -12  -1  17 178.311   9.331   3
  12  -1 -17 192.944   8.407   3
  11  -1 -17 0.33311 2.88363   3
 -11  -1  17 1.27657 2.13944   3
 -11  -1  17 3.35778 2.23429   2
 -11   1  17 3.14866 1.64712   3
 -10  -1  17 19.3079  3.3303   2
  10  -1 -17 18.6272  3.6751   3
 -10  -1  17 14.6091  3.3760   3
 -10   1  17 17.4848  3.1119   3
  -9  -1  17 16.8175  3.3494   3
  -9  -1  17 10.8284  2.6641   2
   9  -1 -17 9.48494 3.28019   3
  -9   1  17 8.89775 2.27016   3
  -8  -1  17 29.8883  3.4491   2
   8  -1 -17 33.0166  3.9147   3
  -8  -1  17 25.2506  3.8267   3
   8   1 -17 37.0300  4.6748   1
   8   1 -17 33.8754  3.3815   3
  -7  -1  17 164.279   7.103   2
  -7  -1  17 153.895   7.483   3
   7  -1 -17 172.151   7.736   3
   7   1 -17 169.371   8.136   1
   7   1 -17 172.323   6.594   3
  -6  -1  17 18.9159  2.8784   2
   6  -1 -17 18.0538  3.6829   3
  -6  -1  17 18.2603  3.2109   3
  -6   1  17 17.9806  2.7570   3
   6   1 -17 18.9179  3.2300   3
   6   1 -17 19.9647  3.3575   1
  -5  -1  17 61.1134  4.5657   3
  -5  -1  17 68.7998  4.4483   2
   5  -1 -17 65.8105  5.0856   3
   5   1 -17 64.1688  4.8901   1
   5   1 -17 63.6208  4.5779   3
  -5   1  17 60.5739  3.9069   3
   4  -1 -17 30.8503  4.1576   3
  -4  -1  17 27.7805  3.3525   3
  -4  -1  17 28.1902  3.0384   2
  -4   1  17 30.0255  2.7477   3
   4   1 -17 31.3383  3.8197   3
   4   1 -17 27.3726  3.8620   1
  -3  -1  17 267.300   9.086   3
   3  -1 -17 275.829   8.803   1
  -3  -1  17 265.667   8.544   2
   3  -1 -17 262.038   9.101   3
   3   1 -17 231.860   8.263   3
  -3   1  17 273.296   7.757   3
   3   1 -17 268.008   9.930   1
   2  -1 -17 309.283   9.861   3
  -2  -1  17 312.397   9.810   3
   2  -1 -17 323.437   9.793   1
  -2  -1  17 320.316   9.372   2
   2   1 -17 318.640   9.819   3
   2   1 -17 315.786  10.956   1
   2   1 -17 309.748   7.502   4
  -2   1  17 313.163   8.157   3
   1  -1 -17 678.056  16.007   3
   1  -1 -17 688.981  16.140   1
  -1  -1  17 704.759  15.460   2
  -1  -1  17 685.966  16.029   3
   1   1 -17 667.151  17.302   1
   1   1 -17 652.094  15.832   3
  -1   1  17 678.576  13.594   3
   0  -1 -17 128.994   6.213   3
   0  -1  17 134.502   5.867   3
   0  -1  17 135.025   5.617   2
   0  -1 -17 124.135   6.119   1
   0   1 -17 129.892   6.154   3
   0   1 -17 128.884   6.790   1
   0   1  17 126.262   4.096   3
  -1  -1 -17 670.374  16.448   1
   1  -1  17 681.257  15.674   3
  -1  -1 -17 670.947  16.054   3
   1  -1  17 680.388  15.040   2
   1   1  17 695.740  12.364   3
  -1   1 -17 684.388  17.631   1
  -1   1 -17 681.835  16.315   3
  -2  -1 -17 315.230   9.973   3
   2  -1  17 334.538   9.205   2
  -2  -1 -17 315.209  10.518   1
   2  -1  17 317.811   9.329   3
  -2   1 -17 325.723  10.463   3
  -2   1 -17 317.714  11.341   1
  -3  -1 -17 263.520   9.660   1
  -3  -1 -17 272.191   9.370   3
   3  -1  17 274.191   8.484   3
  -3   1 -17 279.379  10.555   1
  -3   1 -17 267.056   9.464   3
  -4  -1 -17 32.2549  4.1370   3
  -4  -1 -17 32.1189  4.0905   1
  -4   1 -17 30.5696  4.2798   1
  -4   1 -17 32.9567  3.9802   3
   5  -1  17 62.8610  3.9642   3
  -5  -1 -17 58.1729  4.8132   1
  -5  -1 -17 52.9218  4.7305   3
  -5   1 -17 63.8215  5.1965   3
  -5   1 -17 63.5869  5.2888   1
  -6  -1 -17 15.4320  3.0924   1
   6  -1  17 17.7111  2.7293   3
  -6   1 -17 18.1892  3.3785   1
  -6   1 -17 15.8561  3.5602   3
   7  -1  17 163.266   6.187   3
  -7  -1 -17 164.154   8.308   1
  -7   1 -17 159.820   8.007   3
  -7   1 -17 145.601   8.161   1
   8  -1  17 31.0665  3.0760   3
  -8  -1 -17 27.0139  4.1757   1
  -8   1 -17 27.1705  4.3777   1
  -8   1 -17 33.9995  4.8131   3
   9  -1  17 6.07226 2.12193   3
  -9  -1 -17 11.4295  3.1081   1
  -9   1 -17 14.5663  3.1357   1
  -9   1 -17 11.4332  3.5640   3
 -10  -1 -17 17.8069  3.6926   1
 -10   1 -17 18.3889  3.6797   1
 -10   1 -17 19.0629  4.1522   3
 -11   1 -17 5.35269 2.56280   1
 -11   1 -17 5.36459 3.35550   3
 -12   1 -17 166.402   9.097   3
 -12  -2  17 87.7541  6.2853   2
 -12  -2  17 91.4996  6.7090   3
 -12   2  17 104.935   5.797   3
 -11  -2  17 17.4377  3.7439   3
 -11  -2  17 15.6362  3.2924   2
 -11   2  17 17.9975  2.8915   3
 -10  -2  17 222.824   9.952   3
 -10  -2  17 219.504   9.320   2
 -10   2  17 235.325   8.350   3
  10   2 -17 227.233  10.663   1
  -9  -2  17 14.5664  3.0334   3
  -9  -2  17 13.9005  3.0372   2
   9   2 -17 8.33690 2.83701   1
  -9   2  17 11.1699  2.2546   3
  -8  -2  17 70.2973  5.2508   3
  -8  -2  17 61.5126  4.6867   2
  -8   2  17 69.1551  4.0430   3
   8   2 -17 72.3686  5.8940   1
  -7  -2  17 16.8008  3.2456   3
  -7  -2  17 19.4981  3.1371   2
   7   2 -17 20.5661  3.8317   1
  -7   2  17 22.3655  2.4300   3
  -6  -2  17 137.591   6.544   2
  -6  -2  17 146.255   7.180   3
   6   2 -17 141.761   7.801   1
  -6   2  17 144.957   5.108   3
  -5  -2  17 4.52254 2.03718   3
  -5  -2  17 5.73402 2.02257   2
  -5   2  17 2.40363 1.08522   3
   5   2 -17 5.18414 2.13785   1
  -4  -2  17 121.125   6.369   3
  -4  -2  17 127.933   6.127   2
   4   2 -17 122.248   4.492   3
   4   2 -17 109.030   6.745   1
  -4   2  17 123.891   3.652   3
  -3  -2  17 286.362   9.335   2
  -3  -2  17 289.822   9.896   3
   3   2 -17 282.905   7.832   3
   3   2 -17 285.204   8.162   4
   3   2 -17 291.853  11.023   1
  -2  -2  17 114.984   5.878   3
  -2  -2  17 114.105   5.605   2
   2   2 -17 119.672   5.114   3
   2   2 -17 112.734   6.715   1
   2   2 -17 107.925   4.761   4
   1  -2 -17 63.1539  4.0188   1
  -1  -2  17 63.4504  4.3713   3
  -1  -2  17 62.4590  4.2070   2
   1   2 -17 61.1240  3.9903   3
   1   2 -17 63.8807  3.6845   4
   1   2 -17 64.2026  5.1580   1
   0  -2 -17 21.4833  2.8987   1
   0  -2  17 25.1520  3.0743   3
   0  -2  17 17.0097  2.8073   2
   0   2 -17 21.1697  2.6638   4
   0   2 -17 21.7702  3.6700   1
   0   2 -17 21.7084  3.0085   3
   1  -2  17 65.3736  4.2868   2
   1  -2  17 58.3380  4.3721   3
  -1  -2 -17 63.8393  4.3464   1
  -1   2 -17 58.2556  3.5952   4
  -1   2 -17 62.0437  4.2600   3
  -1   2 -17 56.1732  4.8142   1
   2  -2  17 114.564   5.701   3
   2  -2  17 120.465   5.612   2
  -2  -2 -17 107.953   5.747   1
  -2   2 -17 102.922   4.819   4
  -2   2 -17 113.295   6.782   1
  -2   2 -17 107.325   5.517   3
   3  -2  17 283.997   9.352   3
   3  -2  17 302.145   9.328   2
  -3  -2 -17 289.803   9.964   1
  -3   2 -17 283.433   8.539   4
  -3   2 -17 278.423  11.073   1
   4  -2  17 125.796   5.917   2
  -4  -2 -17 125.550   6.600   1
   4  -2  17 122.769   5.913   3
  -4   2 -17 114.777   7.003   1
  -4   2 -17 114.231   5.519   4
  -4   2 -17 124.417   6.260   3
   5  -2  17 1.63650 1.62328   3
  -5  -2 -17 1.70838 1.49649   1
  -5   2 -17 4.14359 2.38373   3
  -5   2 -17 6.90232 1.76115   1
  -5   2 -17 2.46749 1.62344   4
  -6  -2 -17 140.405   7.402   1
   6  -2  17 138.556   6.326   3
  -6   2 -17 139.904   6.818   3
  -6   2 -17 135.205   7.954   1
  -6   2 -17 140.003   6.467   4
   7  -2  17 18.7653  3.0274   3
  -7  -2 -17 23.6793  3.8113   1
  -7   2 -17 24.4427  3.6752   3
  -7   2 -17 13.3433  3.3490   1
  -8  -2 -17 71.3410  5.6149   1
   8  -2  17 57.3491  4.2738   3
  -8   2 -17 60.2508  4.8451   3
  -8   2 -17 39.1573  5.5489   1
  -9  -2 -17 8.27350 2.60732   1
   9  -2  17 11.1572  2.7594   3
  -9   2 -17 9.33183 3.06765   1
  -9   2 -17 13.7577  3.1527   3
 -10  -2 -17 211.735  10.498   1
  10  -2  17 218.236   8.238   3
 -10   2 -17 229.439   9.474   3
 -10   2 -17 218.176  10.850   1
  11  -2  17 9.44307 2.82987   3
 -12   2 -17 105.140   6.201   3
 -11  -3  17 104.976   6.712   2
 -10  -3  17 49.8685  4.5989   2
  10   3 -17 54.4788  5.6831   1
  -9  -3  17 1.80475 1.85121   2
   9   3 -17 0.74506 2.19487   1
  -8  -3  17 25.2312  3.6177   2
   8   3 -17 27.5043  4.6904   1
   7   3 -17 65.1809  5.8382   1
   6   3 -17 32.5619  4.8551   1
   5   3 -17 279.033  11.715   1
  -4  -3  17 236.723   9.118   3
   4   3 -17 233.693   8.112   4
   4   3 -17 240.397  10.621   1
  -3  -3  17 180.948   7.521   2
  -3  -3  17 213.794   8.484   3
   3   3 -17 210.056   9.798   1
   3   3 -17 207.341   7.514   4
  -2  -3  17 93.7467  5.2550   2
  -2  -3  17 102.558   5.690   3
   2   3 -17 105.002   5.376   4
   2   3 -17 99.5483  6.6779   1
  -1  -3  17 84.4613  5.2397   3
  -1  -3  17 94.3219  5.2921   2
   1   3 -17 100.635   6.677   1
   1   3 -17 92.8584  5.1332   4
   0  -3  17 2.23832 1.91540   3
   0  -3  17 2.03590 1.82022   2
   0   3 -17 1.18450 1.67407   1
   0   3 -17 1.73128 1.65234   4
   1  -3  17 94.6748  5.5266   3
   1  -3  17 102.617   5.602   2
  -1   3 -17 77.8122  6.1096   1
  -1   3 -17 92.9898  3.5931   3
  -1   3 -17 83.4701  4.9622   4
  -2  -3 -17 93.2232  5.2172   1
   2  -3  17 87.7451  5.3376   3
   2  -3  17 104.412   5.621   2
  -2   3 -17 96.7843  6.4446   1
  -2   3 -17 96.1066  5.2354   4
  -2   3 -17 94.8844  4.1254   3
  -3  -3 -17 212.690   8.350   1
   3  -3  17 204.840   8.310   3
   3  -3  17 219.021   8.399   2
  -3   3 -17 215.453   6.860   3
  -3   3 -17 221.041   8.265   4
  -3   3 -17 241.442  10.479   1
   4  -3  17 230.861   8.870   3
  -4  -3 -17 230.498   8.940   1
   4  -3  17 242.418   8.953   2
  -4   3 -17 223.792   8.597   4
  -4   3 -17 227.229   7.419   3
  -4   3 -17 224.922  10.231   1
   5  -3  17 302.087  10.308   2
   5  -3  17 277.011  10.134   3
  -5  -3 -17 302.518  10.716   1
  -5   3 -17 315.956   9.380   3
  -5   3 -17 316.472  10.530   4
  -5   3 -17 297.558  12.138   1
   6  -3  17 42.9570  4.1607   3
  -6  -3 -17 49.0174  4.4599   1
   6  -3  17 39.1037  4.0743   2
  -6   3 -17 39.7816  4.4843   1
  -6   3 -17 42.6299  3.8419   3
  -6   3 -17 40.5915  4.7163   4
  -7  -3 -17 63.0094  5.3164   1
   7  -3  17 62.4131  4.7626   3
  -7   3 -17 67.6173  5.9063   1
  -7   3 -17 60.1547  4.4917   3
  -7   3 -17 50.8035  4.6350   4
   8  -3  17 28.9336  3.3212   3
  -8  -3 -17 24.5634  4.1068   1
  -8   3 -17 24.3094  4.4161   1
  -8   3 -17 29.3483  3.8758   3
  -9  -3 -17 2.77249 1.98576   1
   9  -3  17 7.04131 2.47115   3
  -9   3 -17 1.12321 1.40907   1
  -9   3 -17 1.43054 2.02040   3
 -10   3 -17 49.0856  4.4317   3
 -10   3 -17 42.8468  5.8026   1
  11  -3  17 90.0254  5.8581   3
 -11   3 -17 103.014   5.994   3
 -10  -4  17 61.9775  5.1944   2
  -9  -4  17 7.04098 2.33104   2
  -8  -4  17 61.6219  4.7485   2
   8   4 -17 57.0406  5.9323   1
  -7  -4  17 35.4158  3.5533   2
   7   4 -17 32.6713  5.3376   1
  -6  -4  17 186.788   7.954   2
   6   4 -17 183.247  10.141   1
  -5  -4  17 49.2622  4.0197   2
   5   4 -17 42.1811  5.6991   1
   5   4 -17 46.2584  4.2255   4
  -4  -4  17 57.7940  4.3531   2
   4   4 -17 57.0698  4.5164   4
   4   4 -17 63.6876  5.8672   1
  -3  -4  17 44.5162  3.7701   2
   3   4 -17 46.9272  5.0808   1
   3   4 -17 47.0497  4.1344   4
  -2  -4  17 1.61085 1.50240   2
   2   4 -17 2.60098 1.87699   1
   2   4 -17 0.35696 1.65558   4
  -1  -4  17 55.3482  4.2559   2
   1   4 -17 55.2345  4.4955   4
   1   4 -17 58.5650  5.4042   1
   0  -4  17 8.98134 2.28402   2
   0   4 -17 10.2417  2.8016   1
   0   4 -17 16.1698  3.0052   4
   1  -4  17 53.9600  4.2753   3
   1  -4  17 48.5906  4.2120   2
  -1   4 -17 44.9944  4.7918   1
  -1   4 -17 52.9040  4.4556   4
   2  -4  17 1.78799 1.86799   2
   2  -4  17 -1.8781  1.4278   3
  -2   4 -17 3.09489 2.11559   1
  -2   4 -17 0.50821 1.68990   4
   3  -4  17 40.9612  4.3160   3
   3  -4  17 41.7977  4.1184   2
  -3   4 -17 46.0223  4.3780   4
  -3   4 -17 52.6676  5.1194   1
   4  -4  17 55.3282  4.6039   2
   4  -4  17 58.7104  4.8396   3
  -4   4 -17 49.7898  4.7433   4
  -4   4 -17 40.7059  4.6467   1
   5  -4  17 48.8975  4.7389   3
  -5  -4 -17 45.0389  4.2950   1
   5  -4  17 48.8686  4.6562   2
  -5   4 -17 48.1848  5.1448   1
  -5   4 -17 44.5414  4.5507   4
   6  -4  17 170.515   8.209   3
  -6  -4 -17 180.769   8.508   1
   6  -4  17 177.130   8.328   2
  -6   4 -17 181.312   8.766   4
  -6   4 -17 183.417   9.875   1
   7  -4  17 24.3205  4.2388   3
   7  -4  17 22.8237  4.0384   2
  -7  -4 -17 29.6000  4.3740   1
  -7   4 -17 33.5129  5.0049   1
  -7   4 -17 30.6129  4.5394   4
  -8  -4 -17 61.1885  5.3942   1
   8  -4  17 52.3001  5.1137   3
  -8   4 -17 58.6051  5.5829   1
  -8   4 -17 57.7079  5.4438   4
   9  -4  17 9.75040 3.15974   3
  -9   4 -17 10.4714  3.3126   4
  -9   4 -17 5.21749 1.99880   1
  10  -4  17 67.9163  4.9677   3
  -9  -5  17 31.1226  4.3161   2
  -8  -5  17 126.706   7.122   2
  -7  -5  17 199.201   8.796   2
  -6  -5  17 5.62684 2.49126   2
  -5  -5  17 74.5548  5.3035   2
   5   5 -17 77.6094  5.6195   4
   5   5 -17 78.8709  7.2642   1
  -4  -5  17 47.1023  4.3522   2
   4   5 -17 46.3959  4.6412   4
   4   5 -17 61.5370  5.6630   1
  -3  -5  17 26.0013  3.7375   2
   3   5 -17 41.8304  4.9523   4
   3   5 -17 41.2647  4.2475   1
  -2  -5  17 19.5234  3.1703   2
   2   5 -17 22.6041  3.8465   4
   2   5 -17 18.8577  3.9966   1
  -1  -5  17 129.003   6.494   2
   1   5 -17 126.349   7.215   4
   1   5 -17 143.303   8.786   1
   0  -5  17 117.842   6.292   2
   0   5 -17 121.000   8.008   1
   0   5 -17 115.676   6.898   4
   1  -5  17 132.613   6.940   2
  -1   5 -17 126.374   8.222   1
  -1   5 -17 129.486   7.309   4
   2  -5  17 14.3204  2.9227   2
  -2   5 -17 24.9647  4.2889   1
  -2   5 -17 15.9270  3.4793   4
   3  -5  17 26.4737  3.9059   2
  -3   5 -17 34.2288  5.2195   1
  -3   5 -17 32.6405  4.6002   4
   4  -5  17 39.5307  4.3558   2
  -4   5 -17 47.4638  5.6070   4
  -4   5 -17 48.2401  5.5091   1
   5  -5  17 79.9780  5.9766   2
   5  -5  17 88.6454  5.9893   3
  -5   5 -17 83.6960  6.9360   1
  -5   5 -17 78.7611  6.3279   4
   6  -5  17 4.11432 2.72086   2
   6  -5  17 5.14738 2.80842   3
  -6   5 -17 14.3333  3.5680   1
  -6   5 -17 6.20400 3.01045   4
   7  -5  17 193.572   9.368   3
   7  -5  17 179.739   9.009   2
  -7   5 -17 192.195   9.957   4
  -7   5 -17 188.573  10.301   1
   8  -5  17 134.032   7.983   2
   8  -5  17 129.132   7.772   3
  -8   5 -17 133.816   8.658   4
   9  -5  17 42.9353  4.8387   3
  -6  -6  17 13.6433  3.5209   2
  -5  -6  17 14.8725  3.5824   2
   5   6 -17 20.6879  3.8033   4
  -4  -6  17 32.5450  4.3285   2
   4   6 -17 23.9104  4.1632   4
  -3  -6  17 48.8596  4.6703   2
   3   6 -17 57.4681  5.3634   4
  -2  -6  17 30.7976  4.1811   2
   2   6 -17 22.1763  4.0976   4
  -1  -6  17 58.5672  4.9595   2
   1   6 -17 66.3013  5.9075   4
   1   6 -17 59.9570  5.8301   1
   0  -6  17 1.90726 1.82256   2
   0   6 -17 0.73798 2.54312   4
   0   6 -17 -0.6237  2.1229   1
   1  -6  17 64.5848  4.9623   2
  -1   6 -17 66.3463  6.1722   1
  -1   6 -17 61.6498  5.7616   4
   2  -6  17 18.7995  3.4014   2
  -2   6 -17 21.8873  4.2247   4
  -2   6 -17 29.8695  4.8193   1
   3  -6  17 45.3708  4.7069   2
  -3   6 -17 27.9264  4.9239   1
  -3   6 -17 50.3050  6.1095   4
   4  -6  17 25.6234  4.1383   2
  -4   6 -17 31.0448  4.7642   1
  -4   6 -17 31.1769  4.9043   4
   5  -6  17 16.2064  3.7301   2
  -5   6 -17 22.0772  4.2816   4
   6  -6  17 8.17961 3.12489   2
 -12   0  18 5.28890 2.00193   3
  11   0 -18 87.0423  5.4066   3
 -11   0  18 88.8649  6.1868   3
 -10   0  18 1.27364 1.95936   3
  10   0 -18 -1.5365  2.7244   3
  -9   0  18 4.61605 2.12578   3
   9   0 -18 8.57964 3.21385   3
   8   0 -18 196.413   8.098   3
  -8   0  18 190.861   8.348   3
  -7   0  18 21.5815  3.2886   3
   7   0 -18 23.6989  3.6521   3
   6   0 -18 146.484   7.058   3
  -6   0  18 144.933   6.785   3
   5   0 -18 136.682   6.758   1
   5   0 -18 135.119   6.695   3
  -5   0  18 130.976   6.188   3
  -4   0  18 331.149  10.266   3
   4   0 -18 338.180  10.993   1
   4   0 -18 341.974  10.687   3
   3   0 -18 36.4132  3.6562   1
  -3   0  18 36.5126  3.2407   3
   3   0 -18 40.0066  4.3416   3
   2   0 -18 293.984  10.189   1
  -2   0  18 282.820   8.790   3
   2   0 -18 278.777   9.592   3
   1   0 -18 19.8669  3.5127   3
   1   0 -18 21.3126  3.3215   1
   0   0  18 1039.24   20.69   3
   0   0 -18 1027.56   22.30   3
   0   0 -18 1023.59   22.81   1
   1   0  18 17.5963  2.3673   3
  -1   0 -18 18.3233  3.2253   1
  -1   0 -18 21.0867  3.6297   3
   2   0  18 282.014   7.912   3
  -2   0 -18 281.029   9.891   3
  -2   0 -18 278.345  10.327   1
   3   0  18 34.1449  2.6788   3
  -3   0 -18 40.0908  4.0293   1
  -3   0 -18 36.3054  4.2883   3
  -4   0 -18 329.570  11.128   3
   4   0  18 340.110   8.401   3
  -4   0 -18 348.229  12.164   1
   5   0  18 138.145   4.578   3
  -5   0 -18 132.403   7.436   1
  -5   0 -18 138.148   7.341   3
  -6   0 -18 149.092   7.751   3
  -6   0 -18 140.086   7.890   1
  -7   0 -18 23.8572  4.2386   3
  -7   0 -18 21.1190  3.7738   1
  -8   0 -18 200.769   9.313   3
  -8   0 -18 183.685   9.531   1
  -9   0 -18 2.84848 3.22690   3
  -9   0 -18 3.14465 2.29391   1
 -10   0 -18 1.63397 1.84686   1
 -10   0 -18 4.08768 3.09121   3
 -11   0 -18 83.3659  6.7299   3
 -12   0 -18 8.87600 3.29836   3
 -12  -1  18 26.7757  4.3109   3
  12  -1 -18 24.8755  4.2328   3
 -12   1  18 29.4285  3.6253   3
  11  -1 -18 208.617   8.882   3
 -11  -1  18 214.307   9.295   2
 -11  -1  18 207.316   9.808   3
 -11   1  18 170.751   8.247   3
 -10  -1  18 8.87329 2.86373   3
  10  -1 -18 13.8644  3.6671   3
 -10  -1  18 8.57124 2.59242   2
 -10   1  18 7.90980 2.30954   3
  -9  -1  18 51.0761  4.8140   3
   9  -1 -18 50.0749  4.9866   3
  -9  -1  18 62.6779  4.8421   2
  -9   1  18 49.2561  4.2281   3
  -8  -1  18 118.015   6.903   3
   8  -1 -18 133.244   7.053   3
  -8  -1  18 129.880   6.673   2
   8   1 -18 131.561   7.372   1
   8   1 -18 127.840   5.481   3
  -8   1  18 130.364   6.441   3
  -7  -1  18 250.815   9.104   2
   7  -1 -18 242.517   9.489   3
  -7  -1  18 238.311   9.600   3
  -7   1  18 254.546   8.880   3
   7   1 -18 245.065   8.092   3
   7   1 -18 252.456  10.232   1
  -6  -1  18 248.786   9.545   3
   6  -1 -18 232.723   9.240   3
  -6  -1  18 246.989   8.968   2
   6   1 -18 239.744   9.857   1
  -6   1  18 244.029   8.437   3
   6   1 -18 259.399   8.530   3
  -5  -1  18 16.0201  2.7372   2
  -5  -1  18 26.0989  3.7707   3
   5  -1 -18 26.6197  3.9726   3
   5   1 -18 24.4412  3.5543   3
   5   1 -18 23.6916  3.6344   1
  -5   1  18 21.1756  2.8936   3
  -4  -1  18 183.877   7.162   2
   4  -1 -18 174.923   7.668   3
  -4  -1  18 164.684   7.311   3
   4   1 -18 168.966   7.147   3
   4   1 -18 166.578   7.994   1
  -4   1  18 168.427   6.282   3
   3  -1 -18 204.750   7.718   1
   3  -1 -18 190.075   7.864   3
  -3  -1  18 198.834   7.392   2
  -3  -1  18 196.438   7.786   3
   3   1 -18 184.444   7.376   3
   3   1 -18 204.974   8.779   1
  -3   1  18 200.716   6.563   3
   2  -1 -18 185.856   7.645   3
  -2  -1  18 186.219   7.008   2
  -2  -1  18 183.431   7.387   3
   2  -1 -18 183.387   7.383   1
   2   1 -18 170.389   7.316   3
  -2   1  18 180.378   5.855   3
   2   1 -18 176.871   8.235   1
  -1  -1  18 151.775   6.512   3
  -1  -1  18 159.237   6.358   2
   1  -1 -18 157.000   6.965   1
   1  -1 -18 147.873   6.948   3
   1   1 -18 142.724   7.405   1
  -1   1  18 153.879   4.991   3
   1   1 -18 158.519   6.938   3
   0  -1  18 101.798   4.975   2
   0  -1 -18 104.817   5.710   1
   0  -1 -18 97.9760  5.7198   3
   0  -1  18 103.103   5.172   3
   0   1  18 92.5844  3.4721   3
   0   1 -18 86.2035  5.8267   1
   0   1 -18 96.5269  5.6193   3
  -1  -1 -18 160.120   7.226   1
  -1  -1 -18 158.063   7.147   3
   1  -1  18 165.702   6.536   3
  -1   1 -18 154.644   6.953   3
  -1   1 -18 155.904   7.810   1
   1   1  18 156.798   4.037   3
  -2  -1 -18 174.167   7.586   3
   2  -1  18 183.938   6.855   3
  -2  -1 -18 179.396   7.794   1
  -2   1 -18 172.756   7.756   3
  -2   1 -18 175.035   8.378   1
   3  -1  18 182.097   6.915   3
  -3  -1 -18 198.127   8.126   3
  -3  -1 -18 200.757   8.468   1
  -3   1 -18 201.659   8.279   3
  -3   1 -18 174.671   8.575   1
   4  -1  18 130.828   5.822   3
  -4  -1 -18 177.104   7.909   3
  -4  -1 -18 156.802   7.724   1
  -4   1 -18 179.140   7.892   3
  -4   1 -18 167.845   8.477   1
  -5  -1 -18 19.6904  3.4762   1
  -5  -1 -18 20.1672  3.6798   3
   5  -1  18 19.4169  2.7358   3
  -5   1 -18 19.0811  3.7844   3
  -5   1 -18 20.6794  3.7744   1
  -6  -1 -18 234.333  10.103   1
   6  -1  18 245.387   7.915   3
  -6   1 -18 240.291   9.585   3
  -6   1 -18 237.913  10.594   1
   7  -1  18 241.524   7.727   3
  -7  -1 -18 232.410  10.367   1
  -7   1 -18 234.866  10.621   1
  -7   1 -18 248.313  10.073   3
   8  -1  18 132.548   5.404   3
  -8  -1 -18 128.195   7.821   1
  -8   1 -18 116.413   7.243   3
  -8   1 -18 124.877   7.714   1
   9  -1  18 54.4454  3.5729   3
  -9  -1 -18 50.8627  5.3052   1
  -9   1 -18 53.6477  5.3797   1
  -9   1 -18 51.2857  5.5176   3
 -10  -1 -18 13.3815  3.3736   1
 -10   1 -18 8.33826 3.36985   3
 -10   1 -18 12.1745  3.2466   1
 -11   1 -18 206.209   9.982   3
 -12   1 -18 24.2661  4.4795   3
 -11  -2  18 4.81037 2.27907   2
 -11  -2  18 4.44382 2.39927   3
 -11   2  18 4.44654 1.96225   3
 -10  -2  18 134.728   7.761   3
 -10  -2  18 119.796   7.002   2
  10   2 -18 121.105   8.040   1
 -10   2  18 136.961   6.151   3
  -9  -2  18 18.7642  3.7155   3
  -9  -2  18 12.9175  2.9869   2
   9   2 -18 11.4670  3.4134   1
  -9   2  18 11.7426  2.2957   3
  -8  -2  18 169.074   7.816   2
  -8  -2  18 156.250   8.148   3
   8   2 -18 177.130   9.147   1
  -8   2  18 175.399   6.402   3
  -7  -2  18 91.3660  5.6120   2
  -7  -2  18 92.0128  6.0359   3
   7   2 -18 92.6953  6.5797   1
  -7   2  18 95.5203  4.3839   3
  -6  -2  18 40.2637  3.8585   2
  -6  -2  18 49.9254  4.4846   3
   6   2 -18 45.1387  4.7189   1
  -6   2  18 48.8549  2.9506   3
  -5  -2  18 67.6606  4.6931   2
  -5  -2  18 68.7083  5.1259   3
   5   2 -18 57.7435  5.2299   1
  -5   2  18 64.3852  2.9917   3
  -4  -2  18 483.485  13.243   2
  -4  -2  18 464.894  13.821   3
   4   2 -18 493.446  10.745   3
   4   2 -18 469.129  15.055   1
  -3  -2  18 55.7986  4.2833   2
  -3  -2  18 60.4155  4.5691   3
   3   2 -18 55.0860  3.5934   4
   3   2 -18 65.5237  3.9041   3
   3   2 -18 61.8433  5.1441   1
  -2  -2  18 102.581   5.826   3
  -2  -2  18 110.432   5.667   2
   2   2 -18 117.187   6.984   1
   2   2 -18 108.323   5.094   3
   2   2 -18 109.475   4.844   4
  -1  -2  18 34.0228  3.4992   3
  -1  -2  18 27.5571  3.1729   2
   1   2 -18 32.5059  4.4580   1
   1   2 -18 35.4693  2.9536   4
   1   2 -18 34.4623  3.5715   3
   0  -2  18 322.764  10.092   2
   0  -2 -18 344.097  10.440   3
   0  -2 -18 328.680  10.219   1
   0  -2  18 318.280  10.339   3
   0   2 -18 306.574  11.720   1
   0   2 -18 313.160   9.503   3
   0   2 -18 323.496   8.877   4
   1  -2  18 38.1277  3.8354   3
   1  -2  18 26.3556  3.0944   2
  -1  -2 -18 40.4799  3.6177   1
  -1   2 -18 30.3841  2.7314   4
  -1   2 -18 32.8533  3.7200   3
  -1   2 -18 33.7242  4.5628   1
  -2  -2 -18 112.530   5.983   1
   2  -2  18 116.253   5.725   2
   2  -2  18 110.586   5.803   3
  -2   2 -18 104.866   5.678   3
  -2   2 -18 100.274   4.868   4
  -2   2 -18 93.1373  6.4489   1
   3  -2  18 62.2124  4.4393   3
   3  -2  18 60.7564  4.2917   2
  -3  -2 -18 63.4741  4.7653   1
  -3   2 -18 54.7446  3.8579   4
  -3   2 -18 50.0833  4.7879   1
  -4  -2 -18 464.031  13.986   1
   4  -2  18 469.142  12.959   3
  -4   2 -18 480.468  15.630   1
  -4   2 -18 472.311  13.252   3
   5  -2  18 61.0454  4.2638   3
  -5  -2 -18 60.2250  4.9348   1
  -5   2 -18 71.7957  5.0780   3
  -5   2 -18 59.4118  5.4154   1
  -6  -2 -18 48.7562  4.6998   1
   6  -2  18 44.4330  3.8220   3
  -6   2 -18 43.9494  4.3003   3
  -6   2 -18 58.4896  5.2780   1
  -7  -2 -18 96.1547  6.5438   1
  -7   2 -18 98.8998  6.0252   3
  -7   2 -18 98.1952  6.6921   1
  -8  -2 -18 157.948   8.654   1
   8  -2  18 158.028   7.038   3
  -8   2 -18 155.744   8.961   1
  -8   2 -18 169.679   7.921   3
   9  -2  18 11.6759  2.8127   3
  -9  -2 -18 15.6156  3.4772   1
  -9   2 -18 15.5921  3.2816   3
  10  -2  18 133.300   6.369   3
 -10   2 -18 141.400   7.360   3
 -10   2 -18 116.403   8.326   1
  11  -2  18 0.31519 2.44785   3
 -11   2 -18 7.09205 1.98173   3
 -11  -3  18 54.2553  5.1204   2
 -10  -3  18 1.31696 1.92778   2
  -9  -3  18 147.348   7.684   2
   9   3 -18 155.970   9.269   1
  -8  -3  18 53.8868  4.6569   2
   8   3 -18 62.5447  6.0380   1
  -7  -3  18 31.8089  3.7034   2
   7   3 -18 43.7304  5.6699   1
  -6  -3  18 24.6529  3.5785   2
   6   3 -18 22.5620  4.2106   1
  -5  -3  18 91.7078  5.8167   3
  -5  -3  18 91.6814  5.6076   2
   5   3 -18 97.2982  7.0079   1
  -4  -3  18 24.8061  3.7402   3
  -4  -3  18 25.4056  3.6164   2
   4   3 -18 27.9704  3.4391   4
   4   3 -18 27.5913  4.4971   1
  -3  -3  18 17.0814  2.9036   3
  -3  -3  18 11.7794  2.5738   2
   3   3 -18 15.6307  2.7009   4
   3   3 -18 16.8960  3.5688   1
  -2  -3  18 18.1210  3.0290   2
  -2  -3  18 19.3541  3.1789   3
   2   3 -18 25.4087  4.2954   1
   2   3 -18 22.7379  3.0983   4
  -1  -3  18 60.0094  4.5629   3
  -1  -3  18 64.6290  4.5309   2
   1   3 -18 64.1125  5.5496   1
   1   3 -18 64.6528  4.3856   4
   0  -3  18 115.952   6.078   2
   0  -3  18 131.032   6.720   3
   0   3 -18 109.677   7.221   1
   0   3 -18 128.162   6.045   4
   1  -3  18 57.4798  4.5691   3
   1  -3  18 63.4520  4.5743   2
  -1   3 -18 42.6990  5.6327   1
  -1   3 -18 66.3867  4.4966   4
  -1   3 -18 66.5739  3.2665   3
   2  -3  18 21.3607  3.2423   2
   2  -3  18 15.3034  3.0596   3
  -2   3 -18 22.1834  3.2443   4
  -2   3 -18 29.2530  4.2772   1
  -2   3 -18 24.2025  2.6149   3
  -3  -3 -18 16.1151  2.7975   1
   3  -3  18 13.3132  2.7126   2
   3  -3  18 19.0848  3.3122   3
  -3   3 -18 13.2471  2.3773   3
  -3   3 -18 16.3097  3.2583   1
  -3   3 -18 13.8031  2.8118   4
   4  -3  18 27.6228  3.8773   3
   4  -3  18 20.0225  3.2818   2
  -4  -3 -18 23.7266  3.5977   1
  -4   3 -18 30.0435  3.8711   4
  -4   3 -18 28.4391  3.1203   3
  -4   3 -18 35.5835  4.7384   1
  -5  -3 -18 96.9861  6.1126   1
   5  -3  18 88.2958  5.6287   2
   5  -3  18 93.5909  5.8971   3
  -5   3 -18 92.9119  6.7925   1
  -5   3 -18 87.0128  4.9426   3
  -5   3 -18 98.0221  5.9064   4
   6  -3  18 15.6608  3.1299   3
  -6  -3 -18 24.7065  3.8310   1
  -6   3 -18 17.3509  3.8462   1
  -6   3 -18 24.5665  3.3965   3
  -6   3 -18 18.6103  3.4304   4
   7  -3  18 42.8764  4.0652   3
  -7  -3 -18 33.9696  4.6659   1
  -7   3 -18 36.6452  3.8952   3
  -7   3 -18 39.5312  4.7624   4
  -7   3 -18 33.6200  4.9944   1
  -8  -3 -18 47.4668  5.0010   1
   8  -3  18 52.7284  4.3266   3
  -8   3 -18 51.9231  4.9277   4
  -8   3 -18 58.5282  5.5961   1
  -8   3 -18 49.2117  4.3342   3
  -9  -3 -18 154.339   8.783   1
   9  -3  18 145.843   7.326   3
  -9   3 -18 155.419   7.264   3
  -9   3 -18 155.777   9.353   1
  10  -3  18 1.84699 1.87899   3
 -10   3 -18 5.21739 2.27146   3
  11  -3  18 47.8887  4.6613   3
 -11   3 -18 58.4337  4.6808   3
 -10  -4  18 12.9600  3.0928   2
  -9  -4  18 5.80401 2.47837   2
  -8  -4  18 119.663   6.889   2
  -7  -4  18 22.4079  3.5592   2
   7   4 -18 25.7120  4.7335   1
  -6  -4  18 9.74031 2.50947   2
   6   4 -18 15.8042  4.0402   1
  -5  -4  18 138.419   7.025   2
   5   4 -18 134.718   6.836   4
   5   4 -18 141.652   8.903   1
  -4  -4  18 604.508  15.968   2
   4   4 -18 601.579  15.537   4
   4   4 -18 587.535  19.091   1
  -3  -4  18 54.7278  4.5754   2
   3   4 -18 60.1777  4.6337   4
   3   4 -18 53.7896  5.6475   1
  -2  -4  18 92.4302  5.6396   2
   2   4 -18 98.3262  5.8951   4
   2   4 -18 99.6745  7.2422   1
  -1  -4  18 2.19194 1.49385   2
   1   4 -18 0.45498 1.74723   1
   1   4 -18 5.16408 2.18055   4
   0  -4  18 281.082   9.973   2
   0   4 -18 264.914  11.663   1
   0   4 -18 277.903   9.953   4
   1  -4  18 5.49476 2.31112   2
   1  -4  18 8.35295 2.55233   3
  -1   4 -18 9.39471 2.57065   4
  -1   4 -18 2.40630 2.02872   1
   2  -4  18 89.4951  5.7552   2
   2  -4  18 114.474   6.363   3
  -2   4 -18 98.7372  7.1027   1
  -2   4 -18 95.3883  6.0157   4
   3  -4  18 50.3639  4.4868   2
   3  -4  18 46.0010  4.4896   3
  -3   4 -18 63.8194  5.8518   1
  -3   4 -18 52.5734  4.5982   4
   4  -4  18 591.917  16.362   2
   4  -4  18 612.086  16.856   3
  -4   4 -18 603.034  16.410   4
  -4   4 -18 620.732  19.119   1
   5  -4  18 143.235   7.661   3
   5  -4  18 140.697   7.440   2
  -5   4 -18 140.096   7.544   4
  -5   4 -18 146.850   8.736   1
  -6  -4 -18 9.62227 2.60203   1
   6  -4  18 6.49312 2.93660   3
   6  -4  18 13.9257  3.4169   2
  -6   4 -18 13.8183  3.3437   4
  -6   4 -18 9.14744 3.70053   1
   7  -4  18 22.8326  4.1814   3
  -7  -4 -18 24.8225  4.1086   1
  -7   4 -18 20.5175  3.8712   1
  -7   4 -18 21.2237  4.0716   4
   8  -4  18 115.922   6.876   3
  -8  -4 -18 116.305   7.372   1
  -8   4 -18 112.217   7.408   4
  -8   4 -18 110.664   8.014   1
   9  -4  18 3.08862 2.22355   3
  -9   4 -18 4.49232 2.67230   4
 -10   4 -18 22.3299  4.0467   4
  -8  -5  18 4.27002 1.95327   2
  -7  -5  18 59.8195  4.8233   2
  -6  -5  18 106.332   6.276   2
  -5  -5  18 63.4349  4.8562   2
   5   5 -18 54.7835  5.1192   4
  -4  -5  18 36.6228  3.6662   2
   4   5 -18 48.4711  5.4822   1
   4   5 -18 30.5587  4.2982   4
  -3  -5  18 150.306   7.203   2
   3   5 -18 129.052   7.318   4
   3   5 -18 125.934   8.295   1
  -2  -5  18 76.9328  5.1737   2
   2   5 -18 83.9419  6.8745   1
   2   5 -18 75.1613  5.8306   4
  -1  -5  18 38.1931  3.9117   2
   1   5 -18 41.8295  5.0984   4
   1   5 -18 52.1898  5.4884   1
   0  -5  18 1.58280 1.90724   2
   0   5 -18 0.35834 2.09948   4
   0   5 -18 2.45651 2.13761   1
   1  -5  18 20.5420  3.5700   2
  -1   5 -18 43.1798  5.1685   4
  -1   5 -18 32.7843  5.3748   1
   2  -5  18 68.6021  5.3244   2
  -2   5 -18 79.3308  6.0015   4
  -2   5 -18 68.3484  6.4586   1
   3  -5  18 132.069   7.304   2
  -3   5 -18 138.251   8.816   1
  -3   5 -18 137.891   7.807   4
   4  -5  18 22.1015  3.7313   2
  -4   5 -18 27.1805  4.4920   1
  -4   5 -18 36.6884  4.9914   4
   5  -5  18 58.0381  5.2537   2
   5  -5  18 57.5140  5.2054   3
  -5   5 -18 59.9937  5.7128   1
  -5   5 -18 60.0938  5.5939   4
   6  -5  18 94.1924  6.7003   2
   6  -5  18 103.411   7.075   3
  -6   5 -18 112.824   7.494   4
  -6   5 -18 96.4376  7.5158   1
   7  -5  18 54.9902  5.7585   3
   7  -5  18 60.5009  5.6079   2
  -7   5 -18 58.8861  5.9436   4
   8  -5  18 3.08725 2.68998   3
  -8   5 -18 5.28132 2.85232   4
  -5  -6  18 4.20068 2.25278   2
  -4  -6  18 50.9380  4.8149   2
   4   6 -18 47.9015  5.5966   4
  -3  -6  18 11.9534  3.1474   2
   3   6 -18 10.1888  3.0870   4
  -2  -6  18 0.50088 2.10552   2
   2   6 -18 3.21302 2.60842   4
  -1  -6  18 19.6983  3.2545   2
   1   6 -18 22.7291  4.2480   4
   0  -6  18 334.037  11.818   2
   0   6 -18 323.895  12.725   4
   1  -6  18 27.0362  3.9935   2
  -1   6 -18 21.3953  4.3510   4
   2  -6  18 2.59661 2.49097   2
  -2   6 -18 2.16077 2.49635   4
   3  -6  18 12.7131  3.1656   2
  -3   6 -18 12.9752  3.5369   4
   4  -6  18 47.7662  4.9110   2
  -4   6 -18 55.8332  5.4000   4
   5  -6  18 4.76635 2.80500   2
  -5   6 -18 0.65756 2.12548   4
 -11   0  19 3.08230 1.59337   3
  10   0 -19 738.035  17.509   3
 -10   0  19 722.864  19.574   3
   9   0 -19 36.6488  4.4719   3
  -9   0  19 42.3317  4.0858   3
   8   0 -19 40.7343  4.5281   3
  -8   0  19 38.3979  3.8325   3
   7   0 -19 9.18180 3.15541   3
  -7   0  19 5.73756 1.92857   3
  -6   0  19 65.7453  4.5566   3
   6   0 -19 65.8947  5.1455   3
   5   0 -19 41.8739  4.3674   3
  -5   0  19 52.3822  3.8936   3
   5   0 -19 45.3357  4.1586   1
  -4   0  19 1.55012 1.39020   3
   4   0 -19 -2.4597  1.9463   3
   4   0 -19 2.42544 1.46812   1
   3   0 -19 1.24815 2.54876   3
  -3   0  19 5.33811 1.85685   3
   3   0 -19 6.64226 2.19156   1
   2   0 -19 471.481  13.895   1
   2   0 -19 479.013  13.529   3
   1   0 -19 31.8951  3.6139   1
   1   0 -19 37.7950  4.2699   3
  -1   0  19 40.3852  3.2434   3
   0   0 -19 2.57893 2.61001   3
   0   0  19 9.58735 2.04064   3
   0   0 -19 4.33547 1.75909   1
  -1   0 -19 42.6841  4.1191   1
  -1   0 -19 40.8942  4.5288   3
   1   0  19 37.4138  3.0327   3
  -2   0 -19 476.653  14.507   1
  -2   0 -19 471.845  13.663   3
   2   0  19 465.739  11.132   3
   3   0  19 7.33861 1.79042   3
  -3   0 -19 9.18102 2.98961   3
  -3   0 -19 8.17787 2.60825   1
  -4   0 -19 0.50847 1.40443   1
   4   0  19 0.15777 1.17337   3
  -4   0 -19 2.63445 2.94780   3
  -5   0 -19 50.1810  5.3064   3
  -5   0 -19 52.9692  4.9573   1
   5   0  19 47.0967  2.7516   3
  -6   0 -19 70.0120  5.7954   3
  -6   0 -19 66.1431  5.7111   1
  -7   0 -19 7.89490 3.35129   3
  -7   0 -19 1.96374 2.01388   1
  -8   0 -19 39.7044  5.3768   1
  -8   0 -19 40.4686  4.9823   3
  -9   0 -19 32.6214  5.1986   3
  -9   0 -19 38.0197  5.4472   1
 -10   0 -19 711.159  20.225   3
 -11   0 -19 4.54606 3.29242   3
 -12   0 -19 19.8667  4.0018   3
  11  -1 -19 105.990   6.652   3
 -11  -1  19 91.9995  6.6965   3
 -11   1  19 96.7529  6.0033   3
  10  -1 -19 23.7409  4.2977   3
 -10  -1  19 24.1904  4.2437   3
 -10  -1  19 29.4969  4.2643   2
 -10   1  19 27.0248  3.8490   3
  -9  -1  19 76.1711  5.3574   2
  -9  -1  19 71.2556  5.7656   3
   9  -1 -19 76.2229  5.9216   3
  -9   1  19 67.3160  4.8327   3
  -8  -1  19 28.7464  4.1700   3
   8  -1 -19 33.6105  4.4851   3
  -8  -1  19 28.8594  3.8632   2
  -8   1  19 29.9480  3.3856   3
   8   1 -19 29.5577  3.4960   3
   7  -1 -19 41.4150  4.4021   3
  -7  -1  19 36.8717  4.2391   3
  -7  -1  19 39.2236  3.9231   2
  -7   1  19 44.2355  3.7191   3
   7   1 -19 40.4396  4.4266   1
   7   1 -19 41.7073  4.0707   3
  -6  -1  19 106.419   6.416   3
   6  -1 -19 96.5309  6.1234   3
  -6  -1  19 111.652   5.940   2
   6   1 -19 102.684   5.593   3
  -6   1  19 104.056   5.344   3
   6   1 -19 105.771   6.624   1
  -5  -1  19 295.641   9.826   2
   5  -1 -19 282.053  10.270   3
  -5  -1  19 297.555  10.549   3
   5   1 -19 288.328   9.494   3
  -5   1  19 288.217   8.981   3
   5   1 -19 285.473  10.950   1
  -4  -1  19 378.327  11.158   2
   4  -1 -19 388.065  12.010   3
  -4  -1  19 373.115  11.805   3
   4   1 -19 387.301  11.341   3
   4   1 -19 375.808  12.769   1
  -4   1  19 384.865  10.298   3
   3  -1 -19 422.910  12.755   3
  -3  -1  19 433.530  11.958   2
  -3  -1  19 442.407  12.742   3
   3   1 -19 439.371  13.849   1
   3   1 -19 417.397  12.136   3
  -3   1  19 446.226  10.849   3
   2  -1 -19 5.62759 2.69456   3
  -2  -1  19 5.73927 2.05813   2
  -2  -1  19 6.73279 2.18731   3
   2  -1 -19 7.99425 2.09825   1
  -2   1  19 6.32738 1.60257   3
   2   1 -19 7.20066 2.72452   3
   2   1 -19 4.96296 2.07658   1
  -1  -1  19 52.1932  3.8300   2
   1  -1 -19 51.3148  4.6693   3
   1  -1 -19 59.0219  4.4292   1
  -1  -1  19 51.6500  3.9135   3
  -1   1  19 48.5730  2.7968   3
   1   1 -19 43.6590  4.1797   3
   1   1 -19 53.2413  4.6872   1
   0  -1 -19 15.4586  2.9366   1
   0  -1  19 15.9687  2.5504   3
   0  -1 -19 14.8067  3.2932   3
   0   1 -19 13.5325  2.9590   3
   0   1  19 13.1078  1.6178   3
   0   1 -19 14.2896  3.0062   1
  -1  -1 -19 44.3135  4.5169   3
   1  -1  19 54.5647  3.8072   3
  -1  -1 -19 39.3830  3.8736   1
  -1   1 -19 55.8662  4.6585   3
  -1   1 -19 44.3529  4.4665   1
   2  -1  19 5.51417 1.89315   3
  -2  -1 -19 4.32429 1.97673   1
  -2  -1 -19 6.71135 2.87236   3
  -2   1 -19 8.45468 2.51727   1
  -2   1 -19 7.11788 2.70245   3
  -3  -1 -19 419.186  12.872   3
  -3  -1 -19 431.589  13.601   1
  -3   1 -19 440.855  14.459   1
  -3   1 -19 428.449  12.935   3
   4  -1  19 395.849  10.848   3
  -4  -1 -19 373.310  12.725   1
  -4  -1 -19 392.354  12.359   3
  -4   1 -19 367.186  13.352   1
  -4   1 -19 388.272  12.293   3
   5  -1  19 276.678   8.649   3
  -5  -1 -19 270.812  10.932   1
  -5  -1 -19 291.179  10.620   3
  -5   1 -19 282.075  11.658   1
  -5   1 -19 280.098  10.382   3
  -6  -1 -19 104.602   6.837   1
   6  -1  19 107.196   5.035   3
  -6   1 -19 98.9587  6.9110   1
  -6   1 -19 95.3691  6.3589   3
  -7  -1 -19 43.9366  4.6872   1
   7  -1  19 41.3672  3.4170   3
  -7   1 -19 43.5229  4.7170   1
  -7   1 -19 42.3316  5.1316   3
   8  -1  19 23.3410  2.9036   3
  -8  -1 -19 27.1418  4.4161   1
  -8   1 -19 21.6363  4.0772   1
  -8   1 -19 27.3422  4.8051   3
  -9  -1 -19 69.5760  6.2368   1
  -9   1 -19 82.1891  6.4638   3
  -9   1 -19 80.8989  6.5502   1
 -10   1 -19 24.7007  4.6615   3
 -11   1 -19 95.0688  7.1759   3
 -11  -2  19 10.9252  3.1167   2
 -11  -2  19 10.5191  3.3012   3
  11  -2 -19 8.67667 3.52990   3
 -11   2  19 13.3937  2.4800   3
 -10  -2  19 116.561   7.517   3
 -10  -2  19 117.520   7.050   2
 -10   2  19 130.460   5.878   3
  -9  -2  19 1.48417 1.92071   2
  -9  -2  19 1.01737 2.03508   3
  -9   2  19 0.06903 1.44514   3
   9   2 -19 1.39017 2.24526   1
  -8  -2  19 48.9193  4.7884   3
  -8  -2  19 44.7178  4.3200   2
  -8   2  19 49.6369  3.4171   3
   8   2 -19 44.4458  5.7707   1
  -7  -2  19 66.6603  5.0072   2
  -7  -2  19 67.3397  5.3851   3
  -7   2  19 65.5284  3.6361   3
   7   2 -19 67.9064  5.8902   1
  -6  -2  19 244.730  10.020   3
  -6  -2  19 249.661   9.404   2
  -6   2  19 253.983   6.868   3
   6   2 -19 248.076  10.942   1
  -5  -2  19 26.7792  3.9393   3
  -5  -2  19 26.6627  3.6853   2
   5   2 -19 27.2517  4.4088   1
  -4  -2  19 56.4831  4.4364   2
  -4  -2  19 57.8592  4.7096   3
   4   2 -19 54.4240  5.2175   1
   4   2 -19 60.5022  3.5942   3
  -3  -2  19 46.4616  4.1183   2
  -3  -2  19 39.3148  3.8932   3
   3   2 -19 43.9128  3.5444   3
   3   2 -19 42.6013  4.5156   1
  -2  -2  19 42.7956  3.9232   2
  -2  -2  19 37.9078  3.7210   3
   2   2 -19 39.2140  3.6464   3
   2   2 -19 38.6752  4.4154   1
   1  -2 -19 10.4765  3.0092   3
  -1  -2  19 5.12323 2.19536   2
  -1  -2  19 4.56910 2.22454   3
   1   2 -19 3.61251 2.20658   3
   1   2 -19 7.32902 2.49258   1
   0  -2 -19 8.41093 2.73839   3
   0  -2  19 7.64450 2.17426   2
   0  -2  19 8.14940 2.58392   3
   0  -2 -19 10.8731  2.5128   1
   0   2 -19 9.96984 2.63972   3
   0   2 -19 13.8727  3.2226   1
   1  -2  19 4.73330 1.99189   2
   1  -2  19 5.30411 2.16315   3
  -1  -2 -19 6.66051 2.11999   1
  -1   2 -19 6.48442 2.50364   3
  -1   2 -19 5.59450 2.35351   1
   2  -2  19 43.9191  3.7775   2
   2  -2  19 36.3847  3.6203   3
  -2  -2 -19 41.0799  4.0253   1
  -2   2 -19 42.4377  4.6067   1
  -2   2 -19 39.4423  4.1513   3
  -3  -2 -19 38.3707  4.0158   1
   3  -2  19 44.4763  4.0100   3
   3  -2  19 39.4662  3.8082   2
  -3   2 -19 41.4055  4.5895   1
   4  -2  19 60.7512  4.2699   3
  -4  -2 -19 58.0722  4.8383   1
  -4   2 -19 43.9156  4.7795   1
  -4   2 -19 50.9757  4.5266   3
  -5  -2 -19 26.0777  3.9417   1
   5  -2  19 28.9547  3.1603   3
  -5   2 -19 25.5830  3.8932   3
  -5   2 -19 25.1514  4.3414   1
   6  -2  19 232.210   8.714   3
  -6  -2 -19 255.954  10.727   1
  -6   2 -19 260.707  11.449   1
  -6   2 -19 253.530   9.675   3
  -7  -2 -19 69.4583  5.8194   1
   7  -2  19 66.7536  4.6553   3
  -7   2 -19 69.3021  5.9342   1
  -7   2 -19 68.7969  5.2328   3
  -8  -2 -19 47.9363  5.0908   1
   8  -2  19 41.6429  3.9108   3
  -8   2 -19 52.3902  5.4020   1
  -8   2 -19 53.3861  4.6779   3
   9  -2  19 0.02532 2.09770   3
  -9  -2 -19 1.15804 1.56998   1
  -9   2 -19 1.08261 1.99978   3
  -9   2 -19 7.15676 1.92173   1
  10  -2  19 120.049   5.994   3
 -10   2 -19 125.455   6.895   3
 -10  -3  19 28.9749  4.3251   2
  -9  -3  19 141.878   7.705   2
  -8  -3  19 16.9785  3.2918   2
   8   3 -19 24.6082  4.5330   1
  -7  -3  19 49.4937  4.4780   2
   7   3 -19 49.1822  5.4949   1
  -6  -3  19 1.12767 1.61703   2
   6   3 -19 1.26595 2.16672   1
  -5  -3  19 124.353   6.666   2
  -5  -3  19 127.020   7.029   3
   5   3 -19 131.611   8.240   1
  -4  -3  19 166.839   7.634   2
  -4  -3  19 166.903   8.008   3
   4   3 -19 160.241   9.045   1
   4   3 -19 174.965   7.113   4
  -3  -3  19 133.544   6.774   2
  -3  -3  19 145.027   7.260   3
   3   3 -19 141.331   6.352   4
   3   3 -19 145.159   8.557   1
  -2  -3  19 80.8146  5.2157   2
  -2  -3  19 80.8660  5.4156   3
   2   3 -19 76.7408  4.7747   4
   2   3 -19 85.7331  6.5710   1
  -1  -3  19 393.866  11.999   2
  -1  -3  19 382.295  12.371   3
   1   3 -19 398.371  14.386   1
   1   3 -19 384.349  10.992   4
   0  -3  19 57.6744  4.7549   3
   0  -3  19 50.5005  4.4136   2
   0   3 -19 54.3753  4.1772   4
   0   3 -19 50.1569  5.1818   1
   1  -3  19 400.893  12.151   2
   1  -3  19 381.390  12.317   3
  -1   3 -19 395.394  14.477   1
  -1   3 -19 382.540  11.156   4
  -1   3 -19 397.370   9.128   3
   2  -3  19 73.4367  5.0539   2
   2  -3  19 75.6994  5.2975   3
  -2   3 -19 75.5866  4.0070   3
  -2   3 -19 80.4181  5.0500   4
  -2   3 -19 75.8534  6.1336   1
   3  -3  19 135.863   6.995   3
   3  -3  19 136.239   6.765   2
  -3  -3 -19 133.056   6.940   1
  -3   3 -19 138.773   5.637   3
  -3   3 -19 131.600   8.042   1
  -3   3 -19 139.303   6.561   4
  -4  -3 -19 168.313   8.021   1
   4  -3  19 179.028   8.074   3
   4  -3  19 172.083   7.733   2
  -4   3 -19 166.470   7.451   4
  -4   3 -19 159.482   6.483   3
  -4   3 -19 172.038   9.431   1
  -5  -3 -19 123.780   7.101   1
   5  -3  19 123.643   6.721   3
  -5   3 -19 127.542   6.649   4
  -5   3 -19 123.666   5.910   3
  -5   3 -19 131.018   8.255   1
  -6  -3 -19 -0.4687  1.5143   1
   6  -3  19 7.79082 2.62257   3
  -6   3 -19 2.00586 1.98093   1
  -6   3 -19 3.29172 2.12199   3
  -6   3 -19 0.43390 1.93895   4
   7  -3  19 43.7848  4.0527   3
  -7  -3 -19 54.7509  5.1007   1
  -7   3 -19 52.8967  5.5046   1
  -7   3 -19 55.9604  4.5250   3
   8  -3  19 16.1823  3.0899   3
  -8  -3 -19 25.3811  4.1286   1
  -8   3 -19 21.6910  3.5350   3
  -8   3 -19 20.4731  3.7778   1
  -9   3 -19 142.700   7.021   3
  10  -3  19 22.8093  3.6694   3
 -10   3 -19 35.3506  3.8850   3
  -9  -4  19 11.4895  2.8420   2
  -8  -4  19 1.16960 1.63378   2
  -7  -4  19 34.6875  3.8760   2
  -6  -4  19 102.883   6.353   2
   6   4 -19 140.718   9.048   1
  -5  -4  19 47.1581  4.3956   2
   5   4 -19 56.9821  6.0526   1
   5   4 -19 67.7778  4.9309   4
   4   4 -19 65.2565  4.8813   4
   4   4 -19 58.6390  6.0026   1
   3   4 -19 10.2193  3.2238   1
   3   4 -19 8.42592 2.37696   4
  -2  -4  19 2.18758 1.88551   2
   2   4 -19 4.62921 2.09435   4
   2   4 -19 0.25686 1.91142   1
  -1  -4  19 9.45012 2.64011   2
   1   4 -19 9.48489 2.72392   4
   0  -4  19 65.1572  5.0522   2
   0  -4  19 74.5169  5.3201   3
   0   4 -19 63.7846  5.6781   1
   0   4 -19 70.0735  5.1844   4
   1  -4  19 7.19586 2.34292   3
   1  -4  19 6.56277 2.55210   2
  -1   4 -19 8.00786 2.53969   4
  -1   4 -19 11.7133  3.1621   1
   2  -4  19 0.11649 1.90460   3
   2  -4  19 0.51896 1.95524   2
  -2   4 -19 5.02887 2.22284   1
  -2   4 -19 2.39401 1.95928   4
   3  -4  19 10.7055  3.0419   3
   3  -4  19 6.90720 2.73901   2
  -3   4 -19 10.0206  3.1122   1
  -3   4 -19 11.4171  2.9439   4
   4  -4  19 53.0420  5.0602   3
   4  -4  19 45.4713  4.5908   2
  -4   4 -19 55.3023  5.8312   1
  -4   4 -19 59.1610  5.2248   4
   5  -4  19 64.2715  5.3089   2
   5  -4  19 66.2145  5.5008   3
  -5   4 -19 72.2092  5.6292   4
  -5   4 -19 58.1272  5.7537   1
   6  -4  19 149.994   7.763   2
   6  -4  19 148.506   7.839   3
  -6   4 -19 128.780   7.683   4
  -6   4 -19 149.376   9.188   1
  -7  -4 -19 43.7241  4.7543   1
   7  -4  19 49.7762  5.1220   3
  -7   4 -19 49.8358  5.8174   4
  -7   4 -19 40.1303  5.8698   1
   8  -4  19 1.96425 2.03943   3
  -8   4 -19 9.74578 3.42733   4
   9  -4  19 15.6115  2.8663   3
  -9   4 -19 14.1144  3.8158   4
  -7  -5  19 181.762   8.594   2
  -6  -5  19 112.442   6.653   2
  -5  -5  19 46.1995  4.2560   2
   5   5 -19 39.9000  4.8944   4
  -4  -5  19 230.264   9.519   2
   4   5 -19 212.919   9.457   4
  -3  -5  19 67.9606  5.1304   2
   3   5 -19 60.8596  6.0124   1
   3   5 -19 64.6779  5.2404   4
  -2  -5  19 19.2126  3.3636   2
   2   5 -19 24.3524  3.9725   4
  -1  -5  19 274.392  10.542   2
   1   5 -19 287.393  12.781   1
   1   5 -19 268.823  10.701   4
   0  -5  19 0.82913 1.49348   2
   0   5 -19 1.66007 2.25731   4
   0   5 -19 4.70623 2.11149   1
   1  -5  19 280.471  10.733   2
  -1   5 -19 266.662  12.618   1
  -1   5 -19 273.916  10.944   4
   2  -5  19 20.7890  3.6281   2
  -2   5 -19 24.7620  4.2641   4
  -2   5 -19 17.4805  3.8120   1
   3  -5  19 59.6990  5.2592   2
  -3   5 -19 68.0579  6.1400   1
  -3   5 -19 63.3533  5.6752   4
   4  -5  19 221.616   9.775   3
   4  -5  19 217.280   9.765   2
  -4   5 -19 223.339  10.207   4
  -4   5 -19 227.417  11.712   1
   5  -5  19 33.9077  4.8301   2
   5  -5  19 48.2561  4.9259   3
  -5   5 -19 31.9775  4.9253   4
   6  -5  19 98.6445  6.7652   2
   6  -5  19 101.001   6.974   3
  -6   5 -19 86.3548  6.7899   4
   7  -5  19 177.787   9.154   3
   7  -5  19 177.151   9.137   2
  -7   5 -19 178.877   9.553   4
  -4  -6  19 -0.0506  1.9364   2
  -3  -6  19 4.33510 2.16822   2
   3   6 -19 -0.4872  1.6626   4
  -2  -6  19 46.7352  4.3038   2
   2   6 -19 40.1912  5.1581   4
  -1  -6  19 181.946   8.636   2
   1   6 -19 182.386   9.416   4
   0  -6  19 5.39651 2.52208   2
   0   6 -19 -0.1486  2.6063   4
   1  -6  19 175.712   8.738   2
  -1   6 -19 169.895   9.267   4
   2  -6  19 20.2871  3.7006   2
   3  -6  19 0.00339 2.33554   2
  -3   6 -19 2.16121 2.07942   4
   4  -6  19 2.83316 2.52600   2
  -4   6 -19 2.44678 1.97976   4
 -11   0  20 5.28392 1.76380   3
  10   0 -20 1.41810 2.83188   3
 -10   0  20 6.63367 2.08164   3
  -9   0  20 101.279   6.179   3
   9   0 -20 88.7222  6.0164   3
  -8   0  20 136.661   7.078   3
   8   0 -20 134.649   7.202   3
  -7   0  20 10.5320  2.2930   3
   7   0 -20 15.5694  3.5424   3
  -6   0  20 285.957  10.010   3
   6   0 -20 282.961  10.180   3
   5   0 -20 148.525   7.335   3
  -5   0  20 153.482   6.927   3
   4   0 -20 141.733   7.120   3
  -4   0  20 144.302   6.585   3
   4   0 -20 146.200   7.368   1
   3   0 -20 96.6071  6.0385   3
   3   0 -20 87.7232  5.7649   1
  -3   0  20 62.7376  4.2729   3
   2   0 -20 363.655  11.586   3
   2   0 -20 354.376  11.870   1
  -2   0  20 305.607   9.761   3
   1   0 -20 165.492   7.993   1
  -1   0  20 184.542   6.810   3
   1   0 -20 168.783   7.872   3
   0   0 -20 605.023  16.252   3
   0   0  20 641.077  14.479   3
   0   0 -20 628.460  17.222   1
   1   0  20 164.795   6.068   3
  -1   0 -20 173.297   8.410   1
  -1   0 -20 168.298   8.164   3
   2   0  20 372.063   9.551   3
  -2   0 -20 369.159  12.179   3
  -2   0 -20 346.767  12.489   1
  -3   0 -20 88.6710  6.2105   3
   3   0  20 96.7748  4.2258   3
  -3   0 -20 102.216   6.619   1
   4   0  20 140.778   4.838   3
  -4   0 -20 129.300   7.285   3
  -4   0 -20 138.952   7.825   1
  -5   0 -20 144.666   7.895   3
  -5   0 -20 141.211   8.201   1
  -6   0 -20 283.711  11.861   1
  -6   0 -20 282.332  11.077   3
  -7   0 -20 14.8474  3.9441   3
  -7   0 -20 13.8683  3.5849   1
  -8   0 -20 138.171   8.667   1
  -8   0 -20 134.855   8.206   3
  -9   0 -20 83.5213  6.9321   3
  -9   0 -20 82.4748  6.9495   1
 -10   0 -20 2.83232 3.30003   3
 -11   0 -20 5.20628 3.47621   3
  11  -1 -20 43.9428  5.1953   3
 -11  -1  20 52.1077  5.0015   3
 -11   1  20 53.4989  4.5775   3
  10  -1 -20 23.0207  4.2694   3
 -10  -1  20 32.0864  4.6789   3
 -10   1  20 24.9358  3.6590   3
   9  -1 -20 35.4287  4.9244   3
  -9  -1  20 36.8023  4.9511   3
  -9   1  20 34.6737  3.6811   3
   8  -1 -20 14.0627  3.5625   3
  -8  -1  20 13.6221  3.3959   3
  -8   1  20 16.8326  2.8765   3
   8   1 -20 17.8954  3.0392   3
  -7  -1  20 374.802  12.987   3
  -7  -1  20 379.895  12.058   2
   7  -1 -20 385.035  12.708   3
  -7   1  20 385.224  11.437   3
   7   1 -20 379.548  10.761   3
   7   1 -20 376.818  13.283   1
  -6  -1  20 8.66887 2.44076   2
  -6  -1  20 6.67903 2.43719   3
   6  -1 -20 11.5993  3.5896   3
   6   1 -20 7.63163 2.48649   1
   6   1 -20 12.8840  3.1216   3
  -6   1  20 5.48514 1.99781   3
   5  -1 -20 6.31959 3.06176   3
  -5  -1  20 5.86298 2.26654   3
  -5  -1  20 7.77026 2.53173   2
  -5   1  20 6.87368 1.91350   3
   5   1 -20 5.72540 2.24657   1
   5   1 -20 9.26784 2.97010   3
  -4  -1  20 94.3527  5.4400   2
   4  -1 -20 88.8181  6.1772   3
  -4  -1  20 95.5775  5.7511   3
  -4   1  20 95.1046  4.6786   3
   4   1 -20 99.5255  5.8074   3
   4   1 -20 79.6040  6.0017   1
  -3  -1  20 297.670  10.323   3
   3  -1 -20 303.720  10.667   3
  -3  -1  20 316.361   9.971   2
   3   1 -20 300.878  10.073   3
   3   1 -20 304.228  11.554   1
  -3   1  20 302.980   8.535   3
  -2  -1  20 5.35426 2.09203   3
   2  -1 -20 5.10942 2.05165   1
   2  -1 -20 8.43522 3.03227   3
  -2   1  20 4.74592 1.51480   3
   2   1 -20 5.94089 2.64742   3
   2   1 -20 3.40242 1.98823   1
   1  -1 -20 191.754   8.358   3
   1  -1 -20 192.952   8.296   1
  -1  -1  20 201.096   7.793   3
   1   1 -20 200.328   8.261   3
   1   1 -20 195.506   9.206   1
  -1   1  20 195.680   5.733   3
   0  -1  20 24.1809  2.8115   3
   0  -1 -20 23.4215  3.5532   1
   0  -1 -20 24.7493  4.1554   3
   0   1 -20 22.8470  3.7747   3
   0   1 -20 22.5242  3.8798   1
   0   1  20 17.4749  1.7363   3
  -1  -1 -20 203.128   8.816   1
  -1  -1 -20 204.703   8.706   3
   1  -1  20 204.794   7.710   3
  -1   1 -20 202.228   8.511   3
  -1   1 -20 210.555   9.616   1
  -2  -1 -20 4.74833 2.07187   1
  -2  -1 -20 3.55038 2.67464   3
   2  -1  20 4.97055 1.91004   3
  -2   1 -20 7.03098 2.95586   3
  -2   1 -20 3.43969 1.91549   1
  -3  -1 -20 301.420  10.742   3
   3  -1  20 271.247   8.983   3
  -3  -1 -20 293.285  11.044   1
  -3   1 -20 310.735  12.204   1
  -3   1 -20 295.278  10.632   3
  -4  -1 -20 83.2340  6.0094   1
  -4  -1 -20 94.9429  6.2286   3
   4  -1  20 95.0310  5.0006   3
  -4   1 -20 89.4269  6.6327   1
  -4   1 -20 96.7778  6.2629   3
   5  -1  20 5.76189 1.98322   3
  -5  -1 -20 7.65432 2.60935   1
  -5  -1 -20 7.85234 2.95441   3
  -5   1 -20 9.85799 3.07173   3
  -5   1 -20 8.87839 2.89820   1
   6  -1  20 8.23442 2.26980   3
  -6  -1 -20 7.87419 2.75589   1
  -6   1 -20 14.8125  3.5060   1
  -6   1 -20 7.65855 3.38396   3
   7  -1  20 395.448  10.244   3
  -7  -1 -20 370.687  14.000   1
  -7   1 -20 376.773  13.122   3
  -7   1 -20 350.732  13.995   1
  -8  -1 -20 18.8411  3.8213   1
   8  -1  20 14.7685  2.4981   3
  -8   1 -20 15.3531  3.1043   1
  -8   1 -20 17.6372  4.3971   3
  -9  -1 -20 38.4179  5.4246   1
  -9   1 -20 40.4398  5.4916   3
 -10   1 -20 21.0769  4.5634   3
 -11   1 -20 55.6319  5.4536   3
  10  -2 -20 47.9787  4.6492   3
 -10  -2  20 33.3844  4.9854   3
 -10  -2  20 37.6829  4.3500   2
  -9  -2  20 31.0259  4.6109   3
   9  -2 -20 43.2958  5.5512   3
  -9  -2  20 34.6158  4.0582   2
   9   2 -20 31.1311  4.9519   1
  -9   2  20 28.3133  2.9316   3
  -8  -2  20 13.4328  3.4065   3
  -8  -2  20 17.7404  3.3685   2
  -8   2  20 17.4713  2.4959   3
   8   2 -20 17.8575  3.9243   1
  -7  -2  20 14.1426  3.3872   3
  -7  -2  20 19.5960  3.4070   2
   7   2 -20 19.2850  4.0467   1
  -6  -2  20 80.4188  5.6130   2
  -6  -2  20 88.0446  6.2156   3
   6   2 -20 94.6426  6.8726   1
  -5  -2  20 102.600   6.434   3
  -5  -2  20 104.876   6.079   2
   5   2 -20 113.371   7.433   1
  -4  -2  20 185.484   7.944   2
  -4  -2  20 172.153   8.208   3
   4   2 -20 189.372   6.170   3
   4   2 -20 188.551   9.484   1
  -3  -2  20 406.439  12.986   3
  -3  -2  20 419.255  12.451   2
   3   2 -20 418.725  10.694   3
   3   2 -20 424.405  14.630   1
  -2  -2  20 538.491  15.184   3
   2  -2 -20 553.383  15.130   3
  -2  -2  20 549.121  14.577   2
   2   2 -20 538.698  13.208   3
   2   2 -20 552.262  16.989   1
   1  -2 -20 19.7443  3.7089   3
  -1  -2  20 23.0457  3.4262   2
  -1  -2  20 16.7296  3.2852   3
   1   2 -20 13.2483  3.2938   1
   1   2 -20 17.6983  3.0734   3
   0  -2 -20 24.2140  3.6921   3
   0  -2  20 17.7790  3.0710   2
   0  -2  20 15.9770  3.1701   3
   0   2 -20 18.4617  3.7672   1
   0   2 -20 21.1760  3.3062   3
  -1  -2 -20 21.4533  3.3253   1
   1  -2  20 17.9091  3.1984   3
   1  -2  20 17.5169  2.9850   2
  -1   2 -20 18.7777  3.7679   1
  -1   2 -20 24.5301  3.6406   3
  -2  -2 -20 520.393  14.969   1
   2  -2  20 545.964  14.158   2
   2  -2  20 560.257  14.966   3
  -2   2 -20 543.241  14.362   3
  -2   2 -20 558.846  17.418   1
   3  -2  20 412.743  11.994   3
  -3  -2 -20 415.498  13.031   1
  -3   2 -20 400.336  14.476   1
  -3   2 -20 315.664  10.901   3
   4  -2  20 178.314   7.450   3
  -4  -2 -20 182.266   8.634   1
  -4   2 -20 172.781   9.486   1
   5  -2  20 109.167   5.838   3
  -5  -2 -20 111.822   6.982   1
  -5   2 -20 104.203   6.284   3
  -5   2 -20 108.020   7.556   1
  -6  -2 -20 84.2048  6.2177   1
  -6   2 -20 86.7906  5.9420   3
  -6   2 -20 86.4686  6.7064   1
   7  -2  20 16.0854  3.0253   3
  -7  -2 -20 15.4368  3.4837   1
  -7   2 -20 23.4158  3.9261   3
  -7   2 -20 18.4406  4.1565   1
  -8  -2 -20 14.3796  3.4109   1
   8  -2  20 11.6396  2.7991   3
  -8   2 -20 22.6209  3.6636   3
   9  -2  20 28.9693  3.8180   3
  -9   2 -20 36.8668  3.9643   3
  10  -2  20 23.9145  3.4911   3
 -10  -3  20 27.5888  4.3516   2
  -9  -3  20 99.5503  6.5421   2
  -8  -3  20 3.97419 2.18819   2
   8   3 -20 7.67490 2.78793   1
  -7  -3  20 32.1297  4.2461   2
   7   3 -20 21.2869  4.4636   1
  -6  -3  20 73.7177  5.6340   3
  -6  -3  20 77.5843  5.5985   2
   6   3 -20 66.7116  6.3578   1
  -5  -3  20 16.4358  3.1995   2
  -5  -3  20 19.4169  3.7420   3
   5   3 -20 18.9290  4.1920   1
  -4  -3  20 21.0001  3.4941   2
  -4  -3  20 31.6306  3.7415   3
   4   3 -20 26.5358  4.7064   1
   4   3 -20 24.5527  3.3809   4
  -3  -3  20 104.958   6.334   3
  -3  -3  20 101.758   6.049   2
   3   3 -20 99.2920  5.4136   4
   3   3 -20 97.8285  7.2470   1
  -2  -3  20 85.6411  5.8124   3
  -2  -3  20 75.4567  5.2853   2
   2   3 -20 82.2107  6.5872   1
   2   3 -20 82.2480  4.8876   4
  -1  -3  20 15.3097  3.3763   3
  -1  -3  20 15.9341  3.1347   2
   1   3 -20 16.2930  3.7394   1
   1   3 -20 14.8813  2.7191   4
   0  -3  20 0.77135 1.97306   3
   0  -3  20 -1.1737  1.6778   2
   0   3 -20 0.15488 1.78666   1
   0   3 -20 0.31405 1.39056   4
   1  -3  20 22.6302  3.7315   3
   1  -3  20 11.6661  2.8162   2
  -1   3 -20 16.7977  2.2422   3
  -1   3 -20 20.4132  4.2846   1
   2  -3  20 78.2428  5.3305   2
   2  -3  20 73.8384  5.4762   3
  -2   3 -20 75.2811  6.2579   1
  -2   3 -20 80.9098  4.2156   3
   3  -3  20 90.8335  5.9946   3
   3  -3  20 91.1737  5.7492   2
  -3   3 -20 99.5696  4.9552   3
  -3   3 -20 102.813   7.215   1
  -4  -3 -20 24.5536  3.8179   1
   4  -3  20 22.8509  3.7333   3
   4  -3  20 20.7742  3.6489   2
  -4   3 -20 25.3126  3.3509   3
   5  -3  20 23.3082  3.7393   3
  -5  -3 -20 14.1768  3.1194   1
  -5   3 -20 21.0711  4.0373   1
  -5   3 -20 19.4199  3.1412   3
  -6  -3 -20 79.7979  6.1537   1
   6  -3  20 71.4961  5.2053   3
  -6   3 -20 67.3450  6.0360   1
  -6   3 -20 77.7493  5.1078   3
   7  -3  20 25.8086  3.6205   3
  -7  -3 -20 26.6338  4.4212   1
  -7   3 -20 27.2344  4.3714   1
  -7   3 -20 33.3281  3.8669   3
  -8  -3 -20 5.33998 2.20635   1
   8  -3  20 5.18807 2.67789   3
  -8   3 -20 4.71010 2.36477   3
   9  -3  20 92.1996  5.7192   3
  -9   3 -20 93.5324  5.6574   3
  10  -3  20 20.3341  3.6148   3
 -10   3 -20 31.1677  3.6330   3
  -8  -4  20 20.0870  3.7867   2
  -7  -4  20 37.4972  4.1834   2
  -6  -4  20 79.0685  5.7000   2
  -5  -4  20 29.1582  4.0840   2
   5   4 -20 38.0445  5.7411   1
  -4  -4  20 106.972   6.446   2
   4   4 -20 99.3700  7.8225   1
   4   4 -20 105.473   6.144   4
  -3  -4  20 25.4787  3.9465   2
   3   4 -20 34.4399  4.2499   4
   3   4 -20 32.0940  5.3172   1
  -2  -4  20 36.6383  4.0781   2
   2   4 -20 44.7254  4.2750   4
   2   4 -20 44.1139  6.1012   1
  -1  -4  20 37.1634  3.9888   2
   1   4 -20 18.1148  4.5837   1
   1   4 -20 31.9927  4.1026   4
   0  -4  20 6.36646 2.67428   3
   0  -4  20 3.92489 2.29847   2
   0   4 -20 6.28001 2.28450   4
   0   4 -20 0.53289 2.06766   1
   1  -4  20 35.8969  4.0367   3
   1  -4  20 27.5448  4.1379   2
  -1   4 -20 39.9482  4.6600   4
  -1   4 -20 37.8997  4.2724   1
   2  -4  20 37.2379  4.5138   3
   2  -4  20 43.2236  4.3816   2
  -2   4 -20 35.0979  4.5167   4
  -2   4 -20 47.7570  5.3690   1
   3  -4  20 29.5799  4.1607   2
   3  -4  20 24.7538  4.0899   3
  -3   4 -20 37.3776  5.6880   1
  -3   4 -20 27.8131  4.0776   4
   4  -4  20 111.585   6.867   3
   4  -4  20 106.678   6.652   2
  -4   4 -20 103.676   6.518   4
  -4   4 -20 102.608   7.517   1
   5  -4  20 34.0696  4.7004   3
   5  -4  20 35.4413  4.7827   2
  -5   4 -20 44.9430  4.7927   1
  -5   4 -20 35.1252  4.7014   4
   6  -4  20 78.9979  6.2105   3
  -6   4 -20 85.4818  6.7277   1
  -6   4 -20 84.6117  6.2807   4
   7  -4  20 30.8099  4.7128   3
   8  -4  20 17.3691  3.3046   3
  -6  -5  20 122.305   7.215   2
  -5  -5  20 56.3374  5.1447   2
   5   5 -20 51.6944  5.0051   4
  -4  -5  20 1.97621 2.10075   2
   4   5 -20 2.79920 2.18671   4
  -3  -5  20 37.0485  4.2698   2
   3   5 -20 34.4586  4.6085   4
  -2  -5  20 53.2432  4.8023   2
   2   5 -20 77.9401  5.8729   4
  -1  -5  20 1.91970 1.96409   2
   1   5 -20 3.77160 2.40620   4
   0  -5  20 10.7640  3.0851   2
   0   5 -20 11.6462  3.1460   4
   1  -5  20 4.05793 2.60579   2
  -1   5 -20 2.81745 2.54398   1
  -1   5 -20 2.94969 2.32582   4
   2  -5  20 73.0102  5.7585   2
  -2   5 -20 73.8095  5.9981   4
  -2   5 -20 85.2061  6.8288   1
   3  -5  20 36.1390  4.9021   2
  -3   5 -20 40.6762  5.2351   4
   4  -5  20 2.64885 2.47798   3
   4  -5  20 0.74424 2.64805   2
  -4   5 -20 2.02657 2.41465   4
   5  -5  20 53.6308  5.5132   3
   5  -5  20 38.3309  5.1814   2
  -5   5 -20 43.3917  5.6930   4
   6  -5  20 121.199   7.620   2
   6  -5  20 137.097   8.101   3
  -6   5 -20 116.966   7.786   4
  -2  -6  20 154.270   8.166   2
   2   6 -20 153.946   8.446   4
  -1  -6  20 119.584   7.288   2
   1   6 -20 129.076   7.761   4
   0  -6  20 50.1034  5.1884   2
   0   6 -20 49.7009  5.8934   4
   1  -6  20 80.8219  6.0974   2
  -1   6 -20 114.223   7.524   4
   2  -6  20 144.627   8.292   2
  -2   6 -20 154.437   8.834   4
 -10   0  21 130.153   7.179   3
  10   0 -21 133.728   6.853   3
  -9   0  21 135.716   7.278   3
   9   0 -21 139.234   7.277   3
   8   0 -21 87.7904  6.0800   3
  -8   0  21 88.5528  5.7240   3
   7   0 -21 43.3937  4.9411   3
  -7   0  21 38.2506  3.7321   3
  -6   0  21 1.30508 1.70171   3
   6   0 -21 2.75807 2.37699   3
  -5   0  21 154.323   7.103   3
   5   0 -21 145.360   7.512   3
   4   0 -21 44.2548  4.5151   3
  -4   0  21 26.6413  3.0108   3
   4   0 -21 38.8767  4.1486   1
  -3   0  21 19.3723  2.8558   3
   3   0 -21 32.7463  4.4633   1
   3   0 -21 31.0403  4.3508   3
   2   0 -21 220.471   9.196   3
   2   0 -21 216.235   9.409   1
  -2   0  21 209.085   7.741   3
   1   0 -21 353.885  12.270   1
  -1   0  21 335.660   9.992   3
   1   0 -21 345.265  11.698   3
   0   0 -21 4.00341 1.93935   1
   0   0  21 5.24178 1.79817   3
   0   0 -21 5.46378 2.94458   3
  -1   0 -21 352.822  12.594   1
   1   0  21 342.929   9.472   3
  -1   0 -21 336.744  11.764   3
   2   0  21 211.429   6.782   3
  -2   0 -21 203.278   9.633   1
  -2   0 -21 204.227   9.095   3
   3   0  21 27.2258  2.5561   3
  -3   0 -21 30.9645  4.6066   1
  -3   0 -21 28.2070  4.5298   3
  -4   0 -21 47.4132  5.1152   3
   4   0  21 42.9554  2.7793   3
  -4   0 -21 43.7616  4.7983   1
  -5   0 -21 164.816   8.881   1
  -5   0 -21 154.473   8.299   3
  -6   0 -21 -0.5738  1.6146   1
  -6   0 -21 0.22159 3.12133   3
  -7   0 -21 33.4286  5.2831   3
  -7   0 -21 29.3234  4.7865   1
  -8   0 -21 92.7990  7.0238   3
  -8   0 -21 88.6196  7.1713   1
  -9   0 -21 120.690   8.099   3
 -10   0 -21 141.649   8.991   3
 -10  -1  21 9.18081 3.24312   3
  10  -1 -21 10.5806  3.6214   3
 -10   1  21 7.71604 2.17275   3
  -9  -1  21 94.6442  6.8026   3
  -9   1  21 82.7492  5.3787   3
  -8  -1  21 8.83447 2.87478   3
   8  -1 -21 10.2094  3.3840   3
  -8   1  21 12.1769  2.5572   3
  -7  -1  21 127.528   7.296   3
   7  -1 -21 123.646   7.138   3
  -7   1  21 117.844   5.963   3
   7   1 -21 125.827   6.219   3
  -6  -1  21 68.2693  5.2207   3
   6  -1 -21 77.1372  5.8489   3
  -6   1  21 65.2721  4.3626   3
   6   1 -21 74.4134  5.1720   3
   6   1 -21 77.2791  5.9256   1
   5  -1 -21 474.746  14.368   3
  -5  -1  21 465.210  14.170   3
  -5   1  21 485.409  12.404   3
   5   1 -21 492.484  15.501   1
   5   1 -21 467.373  13.068   3
   4  -1 -21 42.3648  5.2415   3
  -4  -1  21 38.8216  3.8863   3
   4   1 -21 36.4799  4.2905   3
   4   1 -21 41.4857  5.2400   1
  -4   1  21 38.1696  3.1832   3
  -3  -1  21 98.4735  5.7871   3
   3  -1 -21 91.9398  6.3622   3
   3   1 -21 97.0575  6.6859   1
  -3   1  21 104.167   4.678   3
   3   1 -21 100.603   6.010   3
   2  -1 -21 6.90995 3.08442   3
  -2  -1  21 7.93934 2.20703   3
  -2   1  21 6.60781 1.65090   3
   2   1 -21 7.14422 2.59896   1
   2   1 -21 3.56861 2.14475   3
   1  -1 -21 280.962  10.335   1
  -1  -1  21 278.719   9.630   3
   1  -1 -21 276.747  10.391   3
  -1   1  21 287.859   7.125   3
   1   1 -21 278.660  10.087   3
   1   1 -21 270.880  11.303   1
   0  -1 -21 0.64263 1.47838   1
   0  -1  21 2.80721 1.67558   3
   0  -1 -21 6.25019 3.04796   3
   0   1 -21 4.90607 2.41490   3
   0   1 -21 4.46989 2.10955   1
  -1  -1 -21 274.228  10.702   1
  -1  -1 -21 266.036  10.431   3
   1  -1  21 271.396   9.177   3
  -1   1 -21 275.847  10.199   3
  -1   1 -21 296.836  11.826   1
  -2  -1 -21 7.75727 2.38214   1
  -2  -1 -21 8.20318 3.20042   3
  -2   1 -21 8.30028 2.77130   1
  -2   1 -21 9.61788 3.11196   3
  -3  -1 -21 101.617   6.649   1
   3  -1  21 100.995   5.241   3
  -3  -1 -21 96.9218  6.5782   3
  -3   1 -21 91.4226  6.3389   3
  -3   1 -21 96.2706  6.8756   1
   4  -1  21 38.3660  3.4623   3
  -4  -1 -21 41.2931  4.7342   3
  -4  -1 -21 44.0895  4.6526   1
  -4   1 -21 40.3506  5.4523   1
  -4   1 -21 34.7137  4.7226   3
  -5  -1 -21 478.290  14.910   3
  -5  -1 -21 475.551  15.604   1
   5  -1  21 494.304  12.356   3
  -5   1 -21 477.457  14.651   3
  -5   1 -21 466.482  16.310   1
  -6  -1 -21 70.8494  5.9628   3
  -6  -1 -21 56.8448  5.6047   1
   6  -1  21 68.5606  4.2202   3
  -6   1 -21 66.9159  5.8779   3
  -6   1 -21 60.1396  5.9762   1
   7  -1  21 124.980   5.397   3
  -7  -1 -21 121.634   8.056   1
  -7   1 -21 122.570   8.282   1
  -7   1 -21 125.651   7.587   3
  -8  -1 -21 9.38083 2.83433   1
  -8   1 -21 6.93134 3.69954   3
  -9   1 -21 99.1761  7.3826   3
 -10   1 -21 12.4197  3.8635   3
  10  -2 -21 91.7729  6.0592   3
 -10  -2  21 81.4141  6.1277   2
 -10  -2  21 90.9411  6.8475   3
  -9  -2  21 84.2852  6.0482   2
   9  -2 -21 76.2464  6.2152   3
  -9  -2  21 81.2096  6.4332   3
  -8  -2  21 38.9020  5.2722   3
   8  -2 -21 44.1910  5.7969   3
  -8  -2  21 44.8352  4.5804   2
   8   2 -21 48.7164  5.3941   1
  -7  -2  21 22.9157  3.7435   2
   7  -2 -21 22.0559  4.6621   3
  -7  -2  21 26.5094  4.3747   3
   7   2 -21 22.9941  4.3317   1
  -6  -2  21 26.5122  4.0272   2
  -6  -2  21 31.0538  4.4696   3
   6  -2 -21 40.5367  5.3572   3
   6   2 -21 22.0397  4.1811   1
   5  -2 -21 120.191   7.327   3
  -5  -2  21 120.123   7.091   3
  -5  -2  21 119.912   6.691   2
   5   2 -21 113.625   7.565   1
   4  -2 -21 3.51856 3.22252   3
  -4  -2  21 4.16269 2.15202   3
  -4  -2  21 3.65321 2.09695   2
   4   2 -21 1.51594 2.07378   1
   4   2 -21 3.99450 1.95740   3
  -3  -2  21 60.5536  4.7088   2
   3  -2 -21 59.2162  5.6194   3
  -3  -2  21 55.4686  4.8033   3
   3   2 -21 53.2664  4.0134   3
   3   2 -21 62.6348  5.5990   1
   2  -2 -21 52.9827  5.0854   3
  -2  -2  21 53.8926  4.7708   3
  -2  -2  21 49.3437  4.4016   2
   2   2 -21 46.5693  5.0557   1
   2   2 -21 49.0524  4.0871   3
   1  -2 -21 33.6610  4.4411   3
  -1  -2  21 28.6316  3.8190   2
  -1  -2  21 26.7784  3.9281   3
   1   2 -21 22.7018  4.2161   1
   1   2 -21 23.7613  3.5365   3
   0  -2 -21 135.622   7.350   3
   0  -2  21 153.294   7.056   2
   0  -2  21 147.561   7.156   3
   0   2 -21 146.916   8.612   1
   0   2 -21 146.808   6.673   3
  -1  -2 -21 23.8950  3.6472   1
   1  -2  21 22.2613  3.4279   3
  -1   2 -21 24.6783  3.6391   3
  -1   2 -21 23.8492  4.1079   1
   2  -2  21 48.5219  4.1645   3
  -2  -2 -21 45.4169  4.4608   1
  -2   2 -21 49.8072  4.4441   3
  -2   2 -21 46.3713  6.0162   1
   3  -2  21 48.2349  4.0004   3
  -3  -2 -21 49.4615  4.7958   1
  -3   2 -21 59.9681  5.7308   1
  -3   2 -21 58.8361  4.8129   3
   4  -2  21 1.67698 1.78115   3
  -4  -2 -21 1.84545 1.92461   1
  -4   2 -21 1.12680 1.71811   3
  -4   2 -21 1.75978 2.08956   1
  -5  -2 -21 104.781   7.002   1
   5  -2  21 105.782   5.889   3
  -5   2 -21 118.421   6.690   3
  -5   2 -21 91.9169  7.2326   1
  -6  -2 -21 30.3405  4.6569   1
   6  -2  21 28.2880  3.4167   3
  -6   2 -21 38.5274  4.5427   3
  -6   2 -21 29.2487  4.7227   1
  -7  -2 -21 26.1404  4.4089   1
   7  -2  21 21.1045  3.3143   3
  -7   2 -21 22.2310  3.9067   3
  -8  -2 -21 42.7298  4.8841   1
   8  -2  21 38.4860  3.8883   3
  -8   2 -21 49.0348  4.6188   3
   9  -2  21 75.4718  4.9635   3
  -9   2 -21 78.6002  5.5254   3
 -10   2 -21 91.9435  5.8203   3
  -9  -3  21 47.6177  4.8501   2
  -8  -3  21 0.45960 2.06094   2
  -7  -3  21 17.1450  3.5703   2
  -7  -3  21 24.1503  3.9707   3
   7   3 -21 22.4260  4.2950   1
  -6  -3  21 22.1129  3.8862   3
  -6  -3  21 30.0846  4.2231   2
   6   3 -21 25.5838  4.6897   1
  -5  -3  21 28.5362  4.1894   2
  -5  -3  21 32.6476  3.9640   3
   5   3 -21 35.8091  5.4427   1
  -4  -3  21 1.73324 1.97579   2
  -4  -3  21 2.46732 2.20227   3
   4   3 -21 5.39304 2.51424   1
  -3  -3  21 106.638   6.347   2
  -3  -3  21 102.277   6.513   3
   3   3 -21 99.1131  7.4737   1
  -2  -3  21 3.70516 2.48083   3
  -2  -3  21 3.63726 2.19133   2
   2   3 -21 1.65238 1.93897   1
  -1  -3  21 133.062   7.315   3
  -1  -3  21 149.281   7.444   2
   1   3 -21 143.609   8.806   1
   0  -3  21 5.79840 2.36731   2
   0  -3  21 1.32469 2.19571   3
   0   3 -21 -0.8190  1.6281   1
   1  -3  21 136.024   7.303   3
   1  -3  21 138.705   7.101   2
  -1   3 -21 146.476   8.956   1
   2  -3  21 -0.5841  2.0590   3
   2  -3  21 3.10969 2.28310   2
  -2   3 -21 3.90621 1.85926   3
  -2   3 -21 1.26995 2.07945   1
   3  -3  21 106.680   6.378   2
   3  -3  21 101.770   6.448   3
  -3   3 -21 102.082   7.554   1
  -3   3 -21 106.749   5.199   3
   4  -3  21 0.76266 2.12240   3
  -4   3 -21 5.52003 2.30726   3
  -4   3 -21 11.0757  2.3024   1
   5  -3  21 37.7619  4.1362   3
  -5  -3 -21 34.4566  4.6915   1
  -5   3 -21 33.0762  3.6809   3
  -5   3 -21 31.3172  4.8109   1
  -6  -3 -21 29.5116  4.4793   1
   6  -3  21 30.8944  3.4654   3
  -6   3 -21 22.5514  4.2451   1
  -6   3 -21 33.5797  3.7954   3
   7  -3  21 19.3398  2.9999   3
  -7  -3 -21 14.2400  3.3159   1
  -7   3 -21 21.9683  3.5017   3
   8  -3  21 -0.7054  1.1942   3
  -8   3 -21 3.94079 2.32015   3
   9  -3  21 42.3198  4.1734   3
  -9   3 -21 51.3469  4.5797   3
  -8  -4  21 21.6775  3.7861   2
  -7  -4  21 29.8200  4.3547   2
  -6  -4  21 181.265   8.867   2
  -5  -4  21 71.1207  5.6467   2
  -4  -4  21 135.086   7.499   2
   4   4 -21 145.647   7.165   4
   4   4 -21 156.332   9.810   1
  -3  -4  21 25.9549  3.8878   2
   3   4 -21 28.0793  4.9088   1
   3   4 -21 21.2190  3.4798   4
  -2  -4  21 42.7625  4.4818   2
   2   4 -21 43.1677  4.2010   4
   2   4 -21 35.6278  5.5460   1
  -1  -4  21 24.0688  3.9820   2
  -1  -4  21 25.5991  4.1882   3
   1   4 -21 27.4493  4.8280   1
   1   4 -21 27.7538  3.9294   4
   0  -4  21 194.524   8.949   3
   0  -4  21 192.959   8.903   2
   0   4 -21 207.219   8.735   4
   0   4 -21 183.860  10.318   1
   1  -4  21 17.0269  3.6331   2
   1  -4  21 24.6241  4.0664   3
  -1   4 -21 42.0394  4.5602   1
  -1   4 -21 28.1606  4.0913   4
   2  -4  21 38.3966  4.5500   3
   2  -4  21 43.3454  4.4961   2
  -2   4 -21 37.8610  4.6391   4
  -2   4 -21 34.2426  5.2130   1
   3  -4  21 29.1364  4.4912   3
   3  -4  21 24.7639  3.9749   2
   4  -4  21 136.722   7.757   3
   4  -4  21 131.358   7.526   2
  -4   4 -21 145.172   9.044   1
   5  -4  21 66.9347  5.7256   3
   6  -4  21 164.553   8.593   3
   7  -4  21 29.7072  4.2646   3
  -5  -5  21 5.83819 2.35769   2
   5   5 -21 16.0397  3.3193   4
   4   5 -21 118.776   7.134   4
  -3  -5  21 19.9340  3.6148   2
   3   5 -21 30.7525  4.3634   4
  -2  -5  21 4.56570 2.46105   2
   2   5 -21 4.91791 2.64312   4
  -1  -5  21 136.896   7.694   2
   1   5 -21 132.938   7.633   4
   0  -5  21 15.8770  3.6995   2
   0   5 -21 16.4957  3.5709   4
   1  -5  21 133.683   7.704   2
  -1   5 -21 123.262   7.604   4
   2  -5  21 7.80450 3.02915   2
  -2   5 -21 7.11158 2.95654   4
   3  -5  21 32.3686  4.8251   2
   3  -5  21 36.7242  4.4682   3
  -3   5 -21 33.4914  4.8190   4
   4  -5  21 122.348   7.395   3
   4  -5  21 117.600   7.524   2
  -4   5 -21 116.501   7.591   4
   5  -5  21 10.9326  3.5647   3
   5  -5  21 8.93945 3.51632   2
  -5   5 -21 15.3996  3.6540   4
 -10   0  22 3.25461 1.85213   3
  10   0 -22 8.19356 2.95485   3
  -9   0  22 231.884   9.764   3
   9   0 -22 232.837   9.342   3
   8   0 -22 28.7870  4.5822   3
  -8   0  22 17.5115  3.1908   3
  -7   0  22 6.54482 2.21151   3
   7   0 -22 0.56150 2.88910   3
  -6   0  22 62.6833  4.7343   3
   5   0 -22 6.22641 3.11805   3
  -5   0  22 2.29179 1.49016   3
  -4   0  22 16.2420  2.7564   3
   4   0 -22 20.7970  3.8751   3
  -3   0  22 2.11201 1.77186   3
   3   0 -22 -0.1333  2.6762   3
   3   0 -22 2.30354 1.76994   1
   2   0 -22 403.180  13.626   1
   2   0 -22 406.646  13.029   3
  -2   0  22 384.796  11.201   3
   1   0 -22 194.560   9.211   1
  -1   0  22 196.522   7.309   3
   1   0 -22 190.189   8.833   3
   0   0 -22 6.27478 3.20063   3
   0   0  22 10.8502  2.2238   3
   0   0 -22 12.3244  3.0932   1
  -1   0 -22 192.679   9.367   1
  -1   0 -22 186.795   8.836   3
   1   0  22 196.415   6.734   3
  -2   0 -22 405.698  14.251   1
  -2   0 -22 384.860  12.974   3
   2   0  22 396.043   9.974   3
  -3   0 -22 0.55118 2.88329   3
   3   0  22 1.31481 1.35591   3
  -3   0 -22 1.85241 2.05931   1
  -4   0 -22 17.8296  3.5967   1
  -4   0 -22 16.7256  3.8621   3
  -5   0 -22 1.21453 2.26627   1
  -5   0 -22 1.25161 3.13975   3
  -6   0 -22 71.1483  6.2635   1
  -6   0 -22 67.0732  6.2206   3
  -7   0 -22 5.59700 3.53266   3
  -7   0 -22 3.52596 2.33547   1
  -8   0 -22 19.3804  4.7215   3
  -9   0 -22 222.894  10.772   3
 -10   0 -22 4.39699 3.53721   3
 -10  -1  22 15.8613  3.3204   3
  10  -1 -22 27.9294  4.5802   3
 -10   1  22 20.8995  3.2054   3
  -9  -1  22 147.771   8.162   3
   9  -1 -22 114.109   6.964   3
  -9   1  22 156.578   7.134   3
   8  -1 -22 -0.0156  2.7542   3
  -8  -1  22 1.14770 1.88633   3
  -8   1  22 1.55856 1.61098   3
   7  -1 -22 28.0862  4.5145   3
  -7  -1  22 29.9015  4.2493   3
   7   1 -22 31.5018  3.8472   3
  -7   1  22 31.0192  3.3283   3
   6  -1 -22 15.5124  4.0772   3
  -6  -1  22 15.0824  3.1109   3
   6   1 -22 15.9679  3.5316   3
  -6   1  22 18.7201  2.9234   3
   5  -1 -22 128.521   7.664   3
  -5  -1  22 121.311   6.808   3
   5   1 -22 119.958   7.582   1
   5   1 -22 119.968   6.506   3
  -5   1  22 126.865   5.706   3
  -4  -1  22 35.4969  3.7134   3
   4  -1 -22 33.3543  4.9679   3
   4   1 -22 34.8482  4.4603   3
  -4   1  22 31.2898  2.9290   3
   4   1 -22 26.4763  4.3923   1
  -3  -1  22 87.4163  5.4350   3
   3  -1 -22 91.6683  6.5080   3
   3   1 -22 94.8078  6.1228   3
   3   1 -22 88.9310  6.5238   1
  -3   1  22 90.7210  4.2707   3
  -2  -1  22 130.557   6.513   3
   2  -1 -22 131.210   7.433   3
   2   1 -22 142.729   8.091   1
  -2   1  22 134.753   4.870   3
   1  -1 -22 43.6577  4.3188   1
   1  -1 -22 45.3554  5.2158   3
  -1  -1  22 45.9427  3.8793   3
   1   1 -22 52.0762  4.8271   3
   1   1 -22 46.4311  4.8774   1
   0  -1  22 33.2548  3.5026   3
   0  -1 -22 33.0954  4.8900   3
   0  -1 -22 38.0932  4.8285   1
   0   1 -22 34.2375  4.9059   1
   0   1 -22 35.1234  4.2748   3
  -1  -1 -22 51.3876  5.5032   3
  -1  -1 -22 40.9934  4.4375   1
  -1   1 -22 49.1973  4.6816   3
  -1   1 -22 44.0407  5.7056   1
  -2  -1 -22 134.053   7.654   1
  -2  -1 -22 144.946   8.014   3
   2  -1  22 134.600   6.275   3
  -2   1 -22 133.511   7.357   3
  -2   1 -22 135.586   8.265   1
  -3  -1 -22 85.0052  6.3491   3
  -3  -1 -22 82.4237  6.1848   1
   3  -1  22 92.6479  5.0675   3
  -3   1 -22 75.1544  6.3186   1
  -3   1 -22 82.0442  6.1596   3
  -4  -1 -22 28.2225  4.4502   1
   4  -1  22 30.5648  3.2756   3
  -4  -1 -22 28.1560  4.4925   3
  -4   1 -22 33.0982  5.1426   1
  -4   1 -22 28.5523  4.5586   3
  -5  -1 -22 116.547   7.736   1
   5  -1  22 120.221   5.539   3
  -5  -1 -22 123.190   7.635   3
  -5   1 -22 120.807   7.256   3
  -5   1 -22 112.644   7.939   1
  -6  -1 -22 15.0659  3.8145   3
   6  -1  22 13.3374  2.5838   3
  -6  -1 -22 20.9008  4.1043   1
  -6   1 -22 16.5326  3.8599   1
  -6   1 -22 14.0774  3.8133   3
   7  -1  22 26.0662  3.0531   3
  -7  -1 -22 28.8774  4.7464   1
  -7   1 -22 26.3137  4.5783   3
  -7   1 -22 21.3229  4.4113   1
  -8   1 -22 0.25251 3.10740   3
  -9   1 -22 159.044   9.032   3
 -10   1 -22 22.3090  4.2525   3
   9  -2 -22 55.9975  5.2776   3
  -9  -2  22 55.4529  5.5502   3
  -9  -2  22 58.9173  5.4612   2
  -8  -2  22 101.266   6.652   2
   8  -2 -22 108.498   7.348   3
  -8  -2  22 95.4130  6.9174   3
  -7  -2  22 44.7627  4.6451   2
   7  -2 -22 52.8334  6.0220   3
  -7  -2  22 45.0771  4.9126   3
   7   2 -22 52.0311  5.5376   1
  -6  -2  22 44.1690  4.5368   2
   6  -2 -22 58.4459  5.8759   3
  -6  -2  22 50.6738  4.9703   3
   6   2 -22 53.0799  5.4956   1
  -5  -2  22 68.7284  5.4070   3
  -5  -2  22 66.6811  5.2026   2
   5  -2 -22 68.2555  6.0638   3
   5   2 -22 72.4965  6.3857   1
  -4  -2  22 73.4811  5.6053   3
   4  -2 -22 80.9879  6.5765   3
  -4  -2  22 70.4986  5.2494   2
   4   2 -22 79.6968  6.6139   1
  -3  -2  22 25.0770  3.9641   3
  -3  -2  22 18.7442  3.4226   2
   3  -2 -22 28.4898  4.7570   3
   3   2 -22 27.6533  3.3772   3
   3   2 -22 20.6536  4.0863   1
  -2  -2  22 35.8258  4.2660   3
  -2  -2  22 34.4526  4.3965   2
   2  -2 -22 40.9658  5.0132   3
   2   2 -22 32.0093  3.6944   3
   2   2 -22 32.6024  4.9634   1
  -1  -2  22 3.31202 2.18326   2
   1  -2 -22 6.66524 3.01826   3
  -1  -2  22 2.86143 2.20864   3
   1   2 -22 2.90597 2.51394   3
   1   2 -22 4.78272 2.37441   1
   0  -2  22 223.300   9.104   3
   0  -2 -22 238.932   9.700   3
   0   2 -22 228.279   8.500   3
   0   2 -22 220.504  10.817   1
   1  -2  22 3.65032 2.32000   3
  -1   2 -22 3.28265 2.31027   1
  -1   2 -22 6.15067 2.74905   3
   2  -2  22 32.3100  3.4642   3
  -2  -2 -22 36.6684  4.1599   1
  -2   2 -22 38.1284  4.2538   3
  -2   2 -22 37.4080  5.5125   1
   3  -2  22 26.6353  3.1639   3
  -3  -2 -22 29.0269  4.2169   1
  -3   2 -22 25.0587  3.9487   3
  -3   2 -22 27.7297  4.8534   1
  -4  -2 -22 68.9329  5.7312   1
   4  -2  22 65.4864  4.7507   3
  -4   2 -22 68.1719  6.3731   1
  -4   2 -22 50.0690  4.5037   3
  -5  -2 -22 70.1591  6.0197   1
  -5   2 -22 67.0218  6.4010   1
   6  -2  22 49.8564  4.1161   3
  -6  -2 -22 48.3967  5.2510   1
  -6   2 -22 52.7456  4.8912   3
  -6   2 -22 39.6001  6.0256   1
  -7  -2 -22 47.0376  5.1360   1
   7  -2  22 51.6124  4.3138   3
  -7   2 -22 50.8826  4.9893   3
   8  -2  22 103.679   5.706   3
  -8   2 -22 92.5449  6.3097   3
   9  -2  22 51.0698  4.2432   3
  -9   2 -22 56.3413  5.1182   3
  -8  -3  22 20.6737  3.9367   2
  -8  -3  22 25.0341  4.3247   3
  -7  -3  22 14.6466  3.4051   3
  -7  -3  22 11.2345  3.0675   2
  -6  -3  22 139.343   7.735   2
  -6  -3  22 130.022   7.831   3
   6   3 -22 151.838   9.426   1
  -5  -3  22 51.1751  4.8576   2
  -5  -3  22 45.4010  4.8998   3
   5   3 -22 47.3341  5.2600   1
  -4  -3  22 51.5402  5.0018   3
  -4  -3  22 54.3934  4.8859   2
   4   3 -22 51.9742  5.7779   1
  -3  -3  22 41.4989  4.6706   3
  -3  -3  22 46.7571  4.4631   2
   3   3 -22 43.4193  6.0428   1
  -2  -3  22 39.9969  4.2721   2
  -2  -3  22 40.6040  4.6518   3
   2   3 -22 43.4546  6.0090   1
  -1  -3  22 40.6887  4.4646   3
  -1  -3  22 29.4608  4.1467   2
   1   3 -22 38.5120  5.7430   1
   0  -3  22 8.07395 2.73008   2
   0  -3  22 7.05680 2.76777   3
   0   3 -22 12.5265  3.5135   1
   1  -3  22 35.7763  4.1234   2
   1  -3  22 41.7467  4.5821   3
  -1   3 -22 27.9261  5.0090   1
   2  -3  22 34.8131  4.0779   2
   2  -3  22 37.6732  4.5196   3
  -2   3 -22 47.8785  6.4654   1
  -2   3 -22 44.0923  3.4919   3
   3  -3  22 41.2295  4.4566   3
  -3   3 -22 40.0206  5.5528   1
  -3   3 -22 47.9722  3.7888   3
   4  -3  22 48.4673  4.4521   3
  -4   3 -22 60.0165  5.5919   1
  -4   3 -22 54.9936  4.1823   3
  -5  -3 -22 51.0725  5.2915   1
   5  -3  22 47.9943  4.3394   3
  -5   3 -22 52.0293  4.2510   3
  -6  -3 -22 134.321   8.174   1
   6  -3  22 138.089   7.061   3
  -6   3 -22 140.233   6.732   3
   7  -3  22 10.8961  2.6902   3
  -7   3 -22 18.5331  3.2417   3
   8  -3  22 18.1112  3.2773   3
  -8   3 -22 21.8459  3.6857   3
  -7  -4  22 2.52139 2.31162   2
  -6  -4  22 41.6613  4.6773   2
  -5  -4  22 9.75839 2.99802   2
  -4  -4  22 191.315   9.057   2
  -3  -4  22 7.89402 2.79458   2
  -2  -4  22 80.3938  6.0162   2
  -2  -4  22 95.8380  6.4875   3
   2   4 -22 95.2340  7.7831   1
  -1  -4  22 -3.8932  1.7674   3
  -1  -4  22 -0.7619  1.9515   2
   1   4 -22 2.04946 1.86657   1
   0  -4  22 142.889   7.878   3
   0  -4  22 145.655   7.811   2
   0   4 -22 130.794   9.034   1
   1  -4  22 2.09616 2.32233   2
   1  -4  22 1.89516 2.48804   3
   2  -4  22 89.7946  6.2969   2
   2  -4  22 86.4226  6.5238   3
  -2   4 -22 101.181   6.738   1
   3  -4  22 12.0545  3.3759   3
   3  -4  22 8.16766 2.96494   2
   4  -4  22 189.133   9.194   2
   4  -4  22 211.277   9.627   3
   5  -4  22 4.79977 3.04780   3
   6  -4  22 44.5662  4.6206   3
  -4  -5  22 4.63347 2.51160   2
   4   5 -22 -0.2002  1.8240   4
  -3  -5  22 13.5498  3.4339   2
   3   5 -22 13.5543  3.4116   4
  -2  -5  22 56.5208  5.2793   2
   2   5 -22 62.8698  5.4502   4
  -1  -5  22 34.4360  4.8367   2
   1   5 -22 28.7203  4.4806   4
   0  -5  22 2.71888 2.54147   2
   0   5 -22 -1.8792  2.0117   4
   1  -5  22 30.5322  4.5473   2
  -1   5 -22 30.7195  4.7519   4
   2  -5  22 53.5645  5.4540   2
   2  -5  22 54.7715  5.2639   3
  -2   5 -22 62.2723  5.6677   4
   3  -5  22 10.3699  3.3601   2
   3  -5  22 16.3139  3.4783   3
   4  -5  22 -0.2765  2.6029   2
   4  -5  22 3.77811 2.95253   3
   9   0 -23 14.9244  3.5563   3
  -9   0  23 7.42280 2.29541   3
  -8   0  23 42.0011  3.9987   3
   7   0 -23 250.707  10.112   3
  -6   0  23 16.2605  2.8929   3
  -5   0  23 45.3407  3.9630   3
   5   0 -23 42.6144  4.9114   3
  -4   0  23 85.4408  5.2384   3
   4   0 -23 82.3364  6.1022   3
   3   0 -23 41.4327  4.6249   1
  -3   0  23 48.8356  3.9653   3
   3   0 -23 47.4154  4.7553   3
  -2   0  23 135.893   6.262   3
   2   0 -23 145.405   7.920   3
   2   0 -23 135.843   7.852   1
   1   0 -23 34.9733  4.9696   3
   1   0 -23 25.1061  4.2575   1
  -1   0  23 31.1793  3.0991   3
   0   0 -23 -0.8817  1.4004   1
   0   0  23 -0.7643  1.4321   3
   0   0 -23 0.60641 2.67323   3
  -1   0 -23 26.0324  4.3757   1
   1   0  23 30.2277  2.9303   3
  -1   0 -23 30.3019  4.9355   3
  -2   0 -23 140.756   8.129   3
  -2   0 -23 133.639   8.152   1
   2   0  23 140.915   5.327   3
  -3   0 -23 47.3674  5.4052   3
  -3   0 -23 40.3095  5.4635   1
   3   0  23 40.5467  2.8730   3
  -4   0 -23 81.8596  6.6207   3
  -4   0 -23 84.8533  6.8039   1
  -5   0 -23 41.4528  5.8125   1
  -5   0 -23 47.1322  5.5283   3
  -6   0 -23 28.1352  4.9073   3
  -6   0 -23 27.1100  4.8345   1
  -7   0 -23 238.617  10.970   3
  -8   0 -23 87.4739  7.3472   3
  -9   0 -23 14.1789  4.5196   3
   9  -1 -23 73.1993  6.0235   3
  -9  -1  23 79.4033  5.8554   3
  -9   1  23 83.7756  5.3080   3
  -8  -1  23 94.9271  6.4322   3
   8  -1 -23 101.913   6.922   3
  -8   1  23 107.004   5.758   3
  -7  -1  23 1.79632 1.96618   3
   7  -1 -23 2.87137 2.75562   3
  -7   1  23 3.98340 1.85927   3
   7   1 -23 9.41478 2.80721   3
   6  -1 -23 4.74320 3.18702   3
  -6  -1  23 6.21097 2.17588   3
  -6   1  23 4.24914 1.87920   3
   6   1 -23 7.08598 2.71305   3
   5  -1 -23 25.1302  4.6471   3
  -5  -1  23 18.5710  3.2750   3
   5   1 -23 22.6172  4.2732   1
  -5   1  23 20.6302  2.8112   3
   5   1 -23 28.7716  4.1363   3
   4  -1 -23 21.2494  4.4462   3
  -4  -1  23 24.7390  3.5328   3
  -4   1  23 20.3348  2.6921   3
   4   1 -23 24.0619  4.3408   1
   4   1 -23 22.0261  4.0691   3
  -3  -1  23 63.5619  4.6616   3
   3  -1 -23 65.6283  5.9466   3
  -3   1  23 71.7438  3.8227   3
   3   1 -23 70.1473  5.4405   3
   3   1 -23 73.6112  6.1210   1
  -2  -1  23 52.8121  4.2406   3
   2  -1 -23 53.5187  5.4988   3
   2   1 -23 55.5459  5.4558   1
   2   1 -23 51.3762  4.6044   3
  -1  -1  23 97.6915  5.7364   3
   1  -1 -23 96.4841  6.7730   3
   1   1 -23 105.513   7.325   1
   1   1 -23 101.494   6.372   3
   0  -1 -23 26.6993  4.6036   3
   0  -1 -23 42.0614  4.4841   1
   0  -1  23 26.5082  3.7045   3
   0   1 -23 44.8723  4.8465   3
   0   1 -23 32.9477  4.9994   1
   1  -1  23 98.7750  5.5355   3
  -1  -1 -23 97.8480  6.6182   1
  -1  -1 -23 102.249   7.054   3
  -1   1 -23 111.155   7.478   1
  -1   1 -23 105.493   6.632   3
  -2  -1 -23 55.5551  5.9105   3
  -2  -1 -23 58.5883  5.3947   1
   2  -1  23 54.5460  4.1186   3
  -2   1 -23 51.6124  5.0752   3
  -2   1 -23 52.6396  5.5183   1
  -3  -1 -23 60.1137  5.5006   1
   3  -1  23 61.4108  4.3450   3
  -3  -1 -23 64.5079  6.1005   3
  -3   1 -23 71.3917  5.8091   3
  -3   1 -23 61.3979  5.9690   1
  -4  -1 -23 25.3673  4.6043   3
   4  -1  23 18.6180  2.9109   3
  -4  -1 -23 16.2269  3.7291   1
  -4   1 -23 24.5620  4.4375   3
  -4   1 -23 21.3042  4.3365   1
  -5  -1 -23 22.3921  4.1887   1
   5  -1  23 17.4981  2.8354   3
  -5  -1 -23 29.3128  4.9864   3
  -5   1 -23 17.8305  4.1120   1
  -5   1 -23 17.5959  4.1180   3
  -6  -1 -23 11.5975  3.3670   3
   6  -1  23 2.42786 1.89981   3
  -6  -1 -23 3.25604 2.01180   1
  -6   1 -23 3.54935 2.27777   1
  -6   1 -23 4.68444 3.20480   3
  -7   1 -23 5.59107 3.19467   3
  -8   1 -23 93.3321  7.0057   3
  -9   1 -23 88.2216  6.5654   3
   8  -2 -23 45.8082  5.1810   3
  -8  -2  23 31.6735  5.0497   3
   7  -2 -23 22.4140  4.8467   3
  -7  -2  23 27.2506  4.4587   3
   7   2 -23 22.8831  4.3069   1
  -6  -2  23 31.4848  4.5936   3
   6  -2 -23 31.9676  5.3813   3
  -6  -2  23 25.5743  4.0764   2
   6   2 -23 29.1902  4.8840   1
   5  -2 -23 53.1473  5.6968   3
  -5  -2  23 50.9751  5.0903   3
  -5  -2  23 44.8621  4.5740   2
   5   2 -23 47.5051  6.1495   1
  -4  -2  23 100.142   6.329   2
   4  -2 -23 102.043   7.253   3
  -4  -2  23 99.5774  6.6555   3
   4   2 -23 103.426   7.586   1
   3  -2 -23 219.023  10.120   3
  -3  -2  23 222.175   9.666   3
   3   2 -23 214.102   7.504   3
   3   2 -23 231.273  11.212   1
   2  -2 -23 64.3647  5.8374   3
  -2  -2  23 59.5115  5.0233   3
   2   2 -23 58.0681  4.4683   3
   2   2 -23 54.0927  5.6863   1
   1  -2 -23 59.6927  5.7836   3
  -1  -2  23 58.9910  4.9601   3
   1   2 -23 53.2993  5.6883   1
   1   2 -23 58.6116  4.6701   3
   0  -2 -23 66.2606  5.9372   3
   0  -2  23 59.3048  4.9383   3
   0   2 -23 52.7041  5.7429   1
   0   2 -23 61.9399  4.8385   3
   1  -2  23 60.5024  4.7407   3
  -1   2 -23 61.0345  6.0199   1
  -1   2 -23 64.1414  5.0801   3
   2  -2  23 54.5062  4.4079   3
  -2   2 -23 59.2906  6.0145   1
  -2   2 -23 59.8349  5.1067   3
   3  -2  23 220.949   8.802   3
  -3  -2 -23 215.250  10.013   1
  -3   2 -23 209.286  11.058   1
  -3   2 -23 200.386   8.812   3
  -4  -2 -23 105.518   7.116   1
  -4   2 -23 108.396   6.602   3
  -4   2 -23 97.2106  7.7053   1
  -5  -2 -23 50.6440  5.2577   1
   5  -2  23 38.4088  3.8561   3
  -5   2 -23 47.9389  6.3334   1
  -6  -2 -23 24.9796  4.4363   1
   6  -2  23 22.1428  3.2198   3
  -6   2 -23 20.7922  3.6424   3
   7  -2  23 24.8483  3.6151   3
  -7   2 -23 26.0998  4.3816   3
   8  -2  23 30.0242  3.5646   3
  -8   2 -23 33.7731  4.6911   3
  -7  -3  23 24.8643  4.4088   3
  -7  -3  23 30.3563  4.5462   2
  -6  -3  23 40.6617  4.5470   2
  -6  -3  23 39.3519  4.8255   3
  -5  -3  23 57.4279  5.4599   3
  -5  -3  23 57.4356  5.1637   2
  -4  -3  23 108.191   6.799   2
  -4  -3  23 100.604   6.998   3
   4   3 -23 105.688   7.954   1
  -3  -3  23 116.756   7.347   3
  -3  -3  23 114.480   6.947   2
   3   3 -23 122.034   8.430   1
  -2  -3  23 20.5389  3.8560   2
  -2  -3  23 19.8397  3.8957   3
   2   3 -23 30.3282  5.1729   1
  -1  -3  23 21.0298  3.8071   2
  -1  -3  23 20.6392  3.7831   3
   1   3 -23 12.4290  3.6152   1
   0  -3  23 3.77318 2.52717   2
   0  -3  23 1.57243 2.45545   3
   0   3 -23 -0.1575  2.0161   1
   1  -3  23 15.3883  3.6391   3
   1  -3  23 13.5343  3.3030   2
  -1   3 -23 14.6515  3.9140   1
   2  -3  23 21.2136  3.8705   3
  -2   3 -23 26.4562  4.9191   1
   3  -3  23 116.679   6.823   3
  -3   3 -23 113.220   8.367   1
  -3   3 -23 116.859   5.471   3
   4  -3  23 101.375   6.312   3
  -4   3 -23 111.173   5.598   3
   5  -3  23 53.2695  4.4716   3
  -5   3 -23 59.5089  4.4816   3
  -6  -3 -23 38.2134  5.2525   1
   6  -3  23 40.9532  4.0843   3
  -6   3 -23 50.0831  4.3313   3
  -7   3 -23 36.1607  3.8243   3
  -6  -4  23 0.78808 2.24091   2
  -5  -4  23 24.1985  4.0962   2
  -4  -4  23 4.16992 2.49199   2
  -3  -4  23 187.817   9.142   2
  -3  -4  23 184.456   9.280   3
  -2  -4  23 11.2359  3.2956   2
  -2  -4  23 2.27009 2.42787   3
  -1  -4  23 100.524   6.781   2
  -1  -4  23 103.925   6.957   3
   0  -4  23 33.3758  4.8111   2
   0  -4  23 41.6194  4.9794   3
   1  -4  23 120.557   7.293   2
   1  -4  23 124.074   7.795   3
   2  -4  23 8.16335 3.32508   3
   2  -4  23 9.25577 3.12079   2
   3  -4  23 174.119   8.799   2
   3  -4  23 180.300   9.017   3
   4  -4  23 -1.2804  2.8371   3
   5  -4  23 21.1565  4.0008   3
  -2  -5  23 45.5662  5.0514   2
  -1  -5  23 102.856   7.158   2
   0  -5  23 162.582   8.859   2
   1  -5  23 114.167   7.555   2
   2  -5  23 33.3609  4.9790   2
   2  -5  23 50.2941  5.3351   3
   8   0 -24 22.1657  4.2006   3
  -8   0  24 13.8849  2.9957   3
   7   0 -24 16.5155  3.8919   3
  -7   0  24 17.0626  3.0155   3
  -6   0  24 379.544  12.222   3
   6   0 -24 379.000  12.866   3
   5   0 -24 61.6064  5.6016   3
  -5   0  24 70.0831  4.8672   3
   4   0 -24 36.1116  5.0754   3
  -4   0  24 35.1825  3.6206   3
  -3   0  24 3.89692 2.06996   3
   3   0 -24 3.43345 2.83778   3
  -2   0  24 227.469   8.230   3
   2   0 -24 225.279   9.892   3
   2   0 -24 231.649  10.468   1
  -1   0  24 29.5559  3.1802   3
   1   0 -24 27.4991  4.5705   1
   1   0 -24 40.6773  5.3716   3
   0   0 -24 -0.7919  3.0392   3
   0   0 -24 0.73631 1.78871   1
   0   0  24 -0.3969  1.4014   3
  -1   0 -24 39.0051  5.2946   1
  -1   0 -24 35.3676  5.3130   3
   1   0  24 34.7010  3.0133   3
  -2   0 -24 226.625  10.435   3
   2   0  24 232.787   6.880   3
  -2   0 -24 226.888  10.932   1
  -3   0 -24 4.25251 3.12829   3
  -3   0 -24 1.81638 1.61272   1
  -4   0 -24 35.4804  5.5636   3
  -4   0 -24 35.8664  5.4607   1
  -5   0 -24 62.7243  6.1272   3
  -5   0 -24 61.8521  5.9144   1
  -6   0 -24 356.274  13.590   3
  -7   0 -24 17.8907  4.5202   3
  -8   0 -24 28.8810  5.0321   3
   8  -1 -24 70.1893  5.8748   3
  -8  -1  24 69.3409  5.2296   3
  -8   1  24 72.3622  4.7353   3
   7  -1 -24 63.6025  5.4677   3
  -7  -1  24 54.3824  4.5182   3
  -7   1  24 53.7355  4.0752   3
  -6  -1  24 10.0167  2.5058   3
   6  -1 -24 18.3159  3.9356   3
  -6   1  24 16.3272  2.6014   3
   6   1 -24 23.0655  3.6852   3
   5  -1 -24 5.08911 3.22267   3
  -5  -1  24 3.30523 1.63242   3
   5   1 -24 5.54324 2.74305   3
  -5   1  24 3.65378 1.81482   3
   4  -1 -24 462.748  15.035   3
  -4  -1  24 472.625  14.336   3
   4   1 -24 458.134  13.707   3
  -4   1  24 498.749  11.566   3
   4   1 -24 477.824  16.308   1
  -3  -1  24 177.739   7.967   3
   3  -1 -24 169.147   8.992   3
   3   1 -24 178.102   9.576   1
   3   1 -24 175.912   8.160   3
  -2  -1  24 39.3282  3.8908   3
   2  -1 -24 35.4234  5.3448   3
   2   1 -24 34.7915  4.7739   3
   2   1 -24 31.5060  5.1230   1
  -1  -1  24 78.6951  5.1984   3
   1   1 -24 57.5172  5.1145   3
   0  -1 -24 323.643  12.399   3
   0  -1  24 291.666  10.154   3
   0   1 -24 319.572  11.624   3
   0   1 -24 334.235  13.520   1
  -1  -1 -24 104.502   7.138   1
   1  -1  24 112.318   5.880   3
  -1  -1 -24 105.890   7.454   3
  -1   1 -24 109.110   6.938   3
  -1   1 -24 105.281   7.511   1
  -2  -1 -24 31.0565  4.6735   1
  -2  -1 -24 29.9025  5.0403   3
   2  -1  24 35.9309  3.5776   3
  -2   1 -24 39.2926  5.5652   1
  -2   1 -24 35.8935  4.8277   3
  -3  -1 -24 182.899   9.636   1
  -3  -1 -24 166.469   9.005   3
   3  -1  24 171.221   7.080   3
  -3   1 -24 183.552  10.154   1
  -3   1 -24 162.599   8.424   3
  -4  -1 -24 471.053  16.296   1
   4  -1  24 486.327  12.480   3
  -4  -1 -24 469.731  15.553   3
  -4   1 -24 469.863  14.943   3
  -4   1 -24 466.053  17.082   1
  -5  -1 -24 -2.1188  2.9180   3
   5  -1  24 2.38505 1.90347   3
  -5  -1 -24 0.56453 2.09302   1
  -5   1 -24 4.54055 2.55583   1
  -5   1 -24 0.39570 3.00872   3
  -6  -1 -24 18.4740  4.4243   3
  -6  -1 -24 20.5560  4.1197   1
  -6   1 -24 14.2268  3.8317   3
  -7   1 -24 46.4964  5.1982   3
  -8   1 -24 75.0582  5.9167   3
  -7  -2  24 43.7064  4.7453   3
   7  -2 -24 42.5239  5.6851   3
  -6  -2  24 20.2783  3.8958   3
   6  -2 -24 11.8623  4.4661   3
   6   2 -24 14.1090  3.4686   1
   5  -2 -24 43.0128  5.9409   3
  -5  -2  24 28.8304  4.6368   3
   5   2 -24 37.9466  5.5913   1
  -4  -2  24 57.2880  5.3952   3
   4  -2 -24 76.7636  6.7336   3
   4   2 -24 59.9448  6.0470   1
  -3  -2  24 51.0251  4.6665   3
   3  -2 -24 46.2656  5.9333   3
   3   2 -24 51.6362  6.6759   1
   3   2 -24 59.8773  4.3517   3
  -2  -2  24 109.159   6.660   3
   2  -2 -24 116.988   7.687   3
   2   2 -24 120.273   6.023   3
   2   2 -24 119.323   8.317   1
   1  -2 -24 46.9663  5.3129   3
  -1  -2  24 46.9790  4.5268   3
   1   2 -24 47.8373  4.4366   3
   1   2 -24 51.0650  6.5515   1
   0  -2  24 8.48748 2.53373   3
   0  -2 -24 16.7239  4.1318   3
   0   2 -24 8.45825 2.96863   3
   0   2 -24 9.02905 3.34341   1
   1  -2  24 47.1409  4.0912   3
  -1   2 -24 42.5819  6.0182   1
  -1   2 -24 48.5342  4.6083   3
   2  -2  24 112.360   6.277   3
  -2   2 -24 122.435   6.907   3
  -2   2 -24 121.483   8.371   1
   3  -2  24 47.0806  4.2290   3
  -3   2 -24 46.6500  6.3024   1
  -3   2 -24 47.3874  4.8304   3
   4  -2  24 60.5585  4.6025   3
  -4  -2 -24 61.6894  5.9164   1
  -4   2 -24 73.4023  6.8182   1
  -4   2 -24 68.3144  5.4837   3
   5  -2  24 33.2493  3.6668   3
  -5  -2 -24 38.0207  5.3192   1
  -5   2 -24 28.9762  4.2016   3
   6  -2  24 13.0965  2.9032   3
  -6   2 -24 8.25005 2.26753   3
   7  -2  24 35.5170  3.6612   3
  -6  -3  24 13.6740  3.4696   2
  -6  -3  24 10.5365  3.3970   3
   6  -3 -24 12.6373  4.5105   3
   5  -3 -24 240.591  10.936   3
  -5  -3  24 229.454  10.197   2
  -5  -3  24 218.616  10.452   3
  -4  -3  24 66.1590  5.9730   3
  -4  -3  24 75.6030  5.9326   2
   4  -3 -24 76.7210  6.5866   3
  -3  -3  24 3.43429 2.58573   2
  -3  -3  24 7.05781 3.04362   3
  -2  -3  24 10.7875  3.3177   3
  -2  -3  24 13.5909  3.6049   2
  -1  -3  24 26.0514  4.3135   3
  -1  -3  24 22.0514  4.0501   2
   1   3 -24 23.4968  4.6734   1
   0  -3  24 27.4819  4.5290   3
   0   3 -24 34.3802  5.7000   1
   1  -3  24 18.9074  4.0547   3
   2  -3  24 11.7342  2.9890   3
   3  -3  24 -0.3903  1.9692   3
  -3   3 -24 8.94619 2.38369   3
   4  -3  24 60.3162  4.8538   3
  -4   3 -24 78.5085  4.7473   3
   5  -3  24 209.276   8.985   3
  -5   3 -24 212.316   8.098   3
   6  -3  24 5.71967 2.60703   3
  -6   3 -24 12.5415  2.8699   3
  -4  -4  24 1.63318 2.59276   2
  -4  -4  24 4.42119 2.74180   3
  -3  -4  24 10.8918  3.2813   2
  -3  -4  24 6.41708 2.88401   3
  -2  -4  24 27.0250  4.3988   3
  -2  -4  24 22.6933  4.1297   2
  -1  -4  24 1.31318 2.77614   3
  -1  -4  24 -0.6352  2.3275   2
   0  -4  24 31.2244  4.6038   2
   0  -4  24 33.2418  5.0110   3
   1  -4  24 3.36274 2.67718   2
   1  -4  24 10.1296  3.5499   3
   2  -4  24 12.4781  3.6654   3
   3  -4  24 10.1969  3.1615   3
   4  -4  24 5.20186 2.85246   3
  -7   0  25 113.754   6.451   3
   7   0 -25 120.344   7.202   3
   6   0 -25 91.5534  6.4810   3
  -6   0  25 78.8594  5.2856   3
  -5   0  25 20.3040  3.2801   3
   4   0 -25 143.645   8.043   3
  -4   0  25 141.694   6.745   3
   3   0 -25 114.454   7.182   3
  -3   0  25 112.877   5.902   3
  -2   0  25 18.0353  2.8997   3
   2   0 -25 13.2167  3.6391   3
   1   0 -25 46.8429  5.9083   3
  -1   0  25 42.1737  3.5009   3
   1   0 -25 38.5995  5.4149   1
   0   0 -25 -4.8075  2.7401   3
   0   0  25 0.00554 1.47612   3
   0   0 -25 -1.3497  1.6113   1
  -1   0 -25 39.9345  5.5994   1
   1   0  25 40.2574  3.1719   3
  -1   0 -25 42.1595  5.8135   3
  -2   0 -25 19.1916  4.4986   3
  -2   0 -25 20.3921  4.1991   1
  -3   0 -25 105.206   7.767   1
  -3   0 -25 99.2597  7.3975   3
  -4   0 -25 147.924   9.160   1
  -4   0 -25 145.089   8.774   3
  -5   0 -25 27.8986  5.1735   3
  -6   0 -25 89.3376  7.2481   3
  -7   0 -25 126.332   8.424   3
  -7  -1  25 17.7216  2.9976   3
   7  -1 -25 28.4153  4.4937   3
  -7   1  25 20.9650  3.0085   3
  -6  -1  25 44.5476  4.1014   3
   6  -1 -25 55.6239  5.1938   3
   6   1 -25 46.9456  4.7267   3
  -6   1  25 51.9517  3.8211   3
  -5  -1  25 3.21894 1.95564   3
   5  -1 -25 -0.2171  3.0393   3
   5   1 -25 8.65301 3.14223   3
  -4  -1  25 47.1999  4.2247   3
   4  -1 -25 49.0263  5.7745   3
   4   1 -25 47.3628  6.1357   1
   4   1 -25 56.6758  5.2148   3
  -3  -1  25 3.49396 2.14135   3
   3  -1 -25 1.17300 3.63849   3
   3   1 -25 3.33139 1.97493   1
   3   1 -25 1.86469 2.86913   3
   2  -1 -25 6.14318 3.74687   3
  -2  -1  25 4.87236 2.06472   3
   2   1 -25 12.6611  3.6711   3
   2   1 -25 3.40815 2.48027   1
   1  -1 -25 131.682   8.357   3
  -1  -1  25 126.857   6.561   3
   1   1 -25 139.592   8.867   1
   0  -1 -25 156.208   8.888   3
   0  -1  25 173.711   7.524   3
   0   1 -25 151.394   8.186   3
   0   1 -25 166.040   9.714   1
  -1  -1 -25 119.339   8.031   3
   1  -1  25 115.243   6.057   3
  -1   1 -25 129.232   7.509   3
  -1   1 -25 116.172   8.102   1
  -2  -1 -25 10.5145  3.1437   1
   2  -1  25 12.8311  2.7372   3
  -2  -1 -25 10.9546  3.9324   3
  -2   1 -25 15.8591  3.5826   3
  -2   1 -25 8.17476 3.11330   1
  -3  -1 -25 3.86554 2.52208   1
  -3  -1 -25 4.86878 3.50597   3
   3  -1  25 0.60000 1.79955   3
  -3   1 -25 6.14948 2.89030   3
  -3   1 -25 2.25829 1.87830   1
   4  -1  25 44.9254  3.6422   3
  -4  -1 -25 51.9133  5.7825   3
  -4  -1 -25 52.2197  5.3995   1
  -4   1 -25 60.4065  5.4075   3
  -5  -1 -25 11.1896  3.6641   3
   5  -1  25 7.42771 2.30188   3
  -5   1 -25 5.78655 3.15304   3
  -6  -1 -25 43.7170  6.2592   3
  -6   1 -25 41.1500  4.9648   3
  -7  -1 -25 23.4177  4.7157   3
  -7   1 -25 29.4474  4.5711   3
  -6  -2  25 21.2178  3.8864   3
   6  -2 -25 23.9510  4.8034   3
  -5  -2  25 26.9570  4.2212   3
   5  -2 -25 28.4702  5.3780   3
   4  -2 -25 19.0439  4.8381   3
  -4  -2  25 10.6733  2.8379   3
   4   2 -25 14.3009  3.4960   1
   3  -2 -25 119.636   8.201   3
  -3  -2  25 105.382   6.690   3
   3   2 -25 119.005   8.344   1
   2  -2 -25 58.7644  6.3445   3
  -2  -2  25 45.6770  4.6221   3
   2   2 -25 48.6160  5.4473   1
   2   2 -25 60.9431  4.4781   3
   1  -2 -25 54.7878  5.7194   3
  -1  -2  25 60.6940  4.8175   3
   1   2 -25 43.9483  4.3804   3
   1   2 -25 42.9106  5.9970   1
   0  -2 -25 -4.0115  2.8220   3
   0  -2  25 0.25142 1.58536   3
   0   2 -25 -0.3044  1.8960   1
   0   2 -25 4.30788 2.63391   3
   1  -2  25 48.7985  4.2933   3
  -1   2 -25 44.5749  6.1819   1
  -1   2 -25 56.2538  4.9785   3
   2  -2  25 44.7275  4.1921   3
  -2   2 -25 53.9168  4.9271   3
  -3   2 -25 114.806   6.843   3
   4  -2  25 11.7538  2.8302   3
  -4   2 -25 14.8557  3.5017   3
   5  -2  25 20.0514  2.9628   3
  -5   2 -25 24.5804  3.7455   3
   6  -2  25 18.5306  3.3255   3
  -6   2 -25 29.3317  4.3125   3
  -5  -3  25 65.4159  5.7428   3
  -5  -3  25 65.4749  5.6750   2
   5  -3 -25 75.7028  6.8033   3
  -4  -3  25 11.9843  3.2137   3
   4  -3 -25 2.93329 3.35634   3
  -3  -3  25 2.14783 2.63013   3
  -2  -3  25 36.8245  5.0610   3
  -1  -3  25 32.2902  4.6881   3
   0  -3  25 3.24908 3.10655   3
   1  -3  25 26.2318  4.2773   3
   2  -3  25 38.8608  4.3241   3
   3  -3  25 7.93142 2.19252   3
   4  -3  25 5.24748 1.84884   3
   5  -3  25 56.4666  4.7945   3
  -5   3 -25 70.8006  4.6672   3
  -2  -4  25 29.2065  4.6887   3
  -2  -4  25 20.3918  4.0943   2
  -1  -4  25 25.1868  4.4166   2
  -1  -4  25 26.0672  4.6108   3
   0  -4  25 2.47392 2.86855   3
   0  -4  25 2.39977 2.90832   2
   1  -4  25 20.4485  4.1051   3
   2  -4  25 32.2873  4.4867   3
   6   0 -26 7.58307 3.31764   3
  -6   0  26 2.26888 2.09973   3
  -5   0  26 160.780   7.323   3
   5   0 -26 175.590   8.609   3
   4   0 -26 4.95744 3.17239   3
  -4   0  26 2.20608 1.98764   3
   3   0 -26 73.4965  5.9611   3
  -3   0  26 68.1971  4.6060   3
  -2   0  26 3.56882 1.95134   3
   2   0 -26 5.08604 2.91142   3
  -1   0  26 41.3451  3.5223   3
   1   0 -26 42.8082  5.1516   3
   0   0 -26 11.5188  3.9982   3
   0   0  26 8.21863 2.12643   3
   0   0 -26 10.1602  3.1458   1
  -1   0 -26 38.6488  5.4595   3
  -1   0 -26 40.7821  5.7397   1
  -2   0 -26 9.71501 4.02480   3
  -2   0 -26 6.59762 2.37295   1
  -3   0 -26 69.6270  6.5458   3
  -3   0 -26 62.1825  6.0738   1
  -4   0 -26 -1.6116  3.2615   3
  -5   0 -26 163.396   9.456   3
  -6   0 -26 -0.6588  3.0537   3
   6  -1 -26 76.6005  5.7514   3
  -6  -1  26 68.6661  5.1735   3
   6   1 -26 76.8593  5.2926   3
  -5  -1  26 2.20358 1.78560   3
   5  -1 -26 7.16439 3.08911   3
   5   1 -26 2.10324 2.62625   3
   4  -1 -26 65.4054  6.1837   3
  -4  -1  26 54.2338  4.6581   3
   4   1 -26 77.4133  5.7634   3
   3  -1 -26 24.5029  5.1145   3
   3   1 -26 22.6572  4.1459   1
   3   1 -26 27.8763  4.4637   3
   2  -1 -26 41.3325  5.9515   3
  -2  -1  26 31.5934  3.7242   3
   2   1 -26 33.1724  4.7883   3
   2   1 -26 25.3400  4.6662   1
   1  -1 -26 7.25127 4.08892   3
  -1  -1  26 6.86725 2.25543   3
   1   1 -26 2.21788 1.88144   1
   1   1 -26 7.40803 3.43413   3
   0  -1  26 153.613   7.071   3
   0  -1 -26 153.602   9.187   3
   0   1 -26 153.858   9.394   1
  -1  -1 -26 6.49712 4.04485   3
   1  -1  26 6.00466 2.20879   3
  -1   1 -26 5.32127 2.36070   1
  -1   1 -26 7.44613 3.37340   3
   2  -1  26 29.7232  3.4042   3
  -2  -1 -26 25.3233  4.6289   1
  -2  -1 -26 23.6824  4.7981   3
  -2   1 -26 37.9570  4.6590   3
  -3  -1 -26 19.8423  4.8645   3
   3  -1  26 15.6723  2.7517   3
  -3  -1 -26 16.4254  3.2764   1
  -3   1 -26 27.9628  4.3107   3
  -4  -1 -26 68.3997  6.7596   3
   4  -1  26 69.5999  4.3614   3
  -4   1 -26 74.3499  5.6856   3
  -5  -1 -26 5.69026 3.16669   3
  -5   1 -26 5.26477 2.17359   3
  -6  -1 -26 74.5513  6.7735   3
  -6   1 -26 76.9975  5.6778   3
   5  -2 -26 46.4097  6.2775   3
  -5  -2  26 41.6239  4.2114   3
  -4  -2  26 6.15567 2.21554   3
   4  -2 -26 2.76815 3.49295   3
  -3  -2  26 45.7463  4.4270   3
   3  -2 -26 48.5490  6.5453   3
   2  -2 -26 7.50368 4.08042   3
  -2  -2  26 11.5183  2.6583   3
   2   2 -26 9.58205 2.75317   3
  -1  -2  26 41.3125  4.0640   3
   1  -2 -26 56.8728  6.0967   3
   1   2 -26 47.6968  4.3438   3
   0  -2  26 9.91053 2.51420   3
   0  -2 -26 4.70880 3.81926   3
   0   2 -26 10.0704  2.8581   3
  -1  -2 -26 47.4652  5.6161   3
   1  -2  26 36.9287  4.0504   3
  -1   2 -26 48.2403  4.6699   3
   2  -2  26 2.44482 1.53261   3
  -2   2 -26 12.8562  3.4362   3
   3  -2  26 42.1976  3.8982   3
  -3   2 -26 47.1029  4.6509   3
   4  -2  26 4.85509 2.01397   3
  -4   2 -26 8.96237 3.02115   3
   5  -2  26 34.6694  3.7932   3
  -5   2 -26 45.1924  4.4934   3
  -3  -3  26 77.8535  6.1620   3
  -2  -3  26 213.152  10.078   3
  -1  -3  26 92.6694  6.6379   3
   0  -3  26 15.5650  3.2607   3
   1  -3  26 82.9470  5.8567   3
   2  -3  26 200.947   9.018   3
   3  -3  26 62.5026  4.6195   3
   5   0 -27 31.1321  4.7326   3
  -5   0  27 23.5406  3.5050   3
  -4   0  27 35.7912  3.6200   3
   3   0 -27 34.3092  4.9049   3
  -3   0  27 37.5407  3.6250   3
   2   0 -27 4.25861 2.61006   3
  -2   0  27 1.18986 1.77964   3
  -1   0  27 399.980  10.504   3
   1   0 -27 372.998  13.526   3
   0   0 -27 -0.2766  1.6326   1
   0   0 -27 -0.7689  3.1822   3
  -1   0 -27 373.263  14.687   1
  -1   0 -27 355.739  13.389   3
  -2   0 -27 -0.4766  3.2692   3
  -3   0 -27 33.0150  5.5464   3
  -4   0 -27 27.1453  5.1355   3
  -5   0 -27 19.9292  4.4129   3
   5   1 -27 22.4566  3.9814   3
  -4  -1  27 8.53335 2.45528   3
   4  -1 -27 12.5092  3.7698   3
   4   1 -27 12.7771  3.4364   3
  -3  -1  27 37.3385  3.8116   3
   3  -1 -27 37.4653  5.6678   3
   3   1 -27 34.0061  4.6762   3
   2  -1 -27 93.9080  7.6602   3
  -2  -1  27 95.1812  5.7813   3
   2   1 -27 100.141   6.710   3
   1  -1 -27 31.3894  5.5960   3
  -1  -1  27 24.9606  3.4560   3
   1   1 -27 33.9143  4.6743   3
   0  -1 -27 12.4974  4.2526   3
   0  -1  27 8.37008 2.47805   3
   0   1 -27 13.5671  2.9244   3
  -1  -1 -27 24.8418  4.9251   3
   1  -1  27 24.1017  3.3658   3
  -1   1 -27 27.8605  4.3031   3
   2  -1  27 87.0470  5.0424   3
  -2  -1 -27 86.8409  7.4583   3
  -2   1 -27 83.9536  6.2460   3
  -3  -1 -27 41.4314  6.2019   3
   3  -1  27 33.3621  3.3712   3
  -3   1 -27 43.0449  4.4276   3
  -4  -1 -27 8.11574 3.96116   3
  -4   1 -27 18.9516  3.3018   3
  -5  -1 -27 15.6072  3.8909   3
  -3  -2  27 72.4384  5.1879   3
   3  -2 -27 83.7887  7.3117   3
   2  -2 -27 8.09172 4.09421   3
  -1  -2  27 23.3835  3.4650   3
   1  -2 -27 17.6147  4.9036   3
   1   2 -27 22.3260  3.5817   3
   0  -2  27 18.1695  3.4112   3
   0  -2 -27 26.6014  5.0870   3
   0   2 -27 26.6523  3.7819   3
  -1  -2 -27 24.3307  4.9136   3
  -1   2 -27 24.8324  3.8824   3
   2  -2  27 3.95607 2.17438   3
  -2   2 -27 8.21099 2.85854   3
   3  -2  27 63.6517  4.8746   3
  -3   2 -27 72.3568  5.5477   3
  -3   0  28 2.65370 2.02326   3
   2   0 -28 16.1796  3.0538   3
   1   0 -28 8.54893 2.66792   3
  -1   0 -28 11.3492  3.6509   3
  -2   0 -28 13.0856  3.6658   3
  -3   0 -28 5.30905 3.35062   3
  -2  -1  28 13.6361  2.8484   3
   2  -1 -28 12.2758  4.0433   3
   2   1 -28 16.3519  3.6459   3
   1  -1 -28 6.53886 3.69618   3
  -1  -1  28 3.27080 2.33492   3
   1   1 -28 9.63583 3.39973   3
   0  -1  28 79.3283  5.1671   3
   0  -1 -28 88.0337  7.2536   3
   0   1 -28 83.5102  6.1642   3
   1  -1  28 2.74576 1.97879   3
  -1  -1 -28 3.62935 3.41377   3
  -1   1 -28 3.24324 1.73836   3
  -2  -1 -28 15.4355  4.7125   3
   2  -1  28 11.1205  2.6754   3
  -2   1 -28 15.6894  3.6010   3
   0   0   0    0.00    0.00   0
;
_shelx_hkl_checksum              40709
_shelx_res_file
;
    l10_0m.res created by SHELXL-2014/7
TITL l10_0m in P2(1)2(1)2(1) (100K)
CELL 0.71073   5.7058  10.6201  18.8688  90.000  90.000  90.000
ZERR    4.00   0.0001   0.0002   0.0004   0.000   0.000   0.000
LATT -1
SYMM 0.5-X, -Y, 0.5+Z
SYMM -X, 0.5+Y, 0.5-Z
SYMM 0.5+X, 0.5-Y, -Z
SFAC C H N O F S
UNIT 40 36 16 4 4 4
TEMP -173.000
SIZE 0.167 0.295 0.528
L.S. 10
BOND $H
FMAP 2 1 60
PLAN 20
ACTA
CONF
WGHT    0.037600    0.207100
FVAR       0.91700
S1    6    0.744717    0.268374    0.223437    11.00000    0.01617    0.01296 =
         0.02276    0.00152   -0.00245    0.00254
F1    5   -0.374201    0.875836    0.121426    11.00000    0.02935    0.01633 =
         0.02801   -0.00411   -0.00102    0.01052
O1    4    0.139049    0.268942    0.067827    11.00000    0.02424    0.01444 =
         0.01809   -0.00349    0.00038    0.00389
N1    3   -0.173379    0.396113    0.034382    11.00000    0.02045    0.01365 =
         0.01573   -0.00325   -0.00289   -0.00017
N2    3    0.239046    0.489077    0.164895    11.00000    0.01443    0.01218 =
         0.01438    0.00111    0.00029    0.00114
N3    3    0.382894    0.390018    0.172793    11.00000    0.01643    0.01166 =
         0.01673   -0.00114   -0.00282    0.00190
N4    3    0.601293    0.502656    0.253294    11.00000    0.01519    0.01374 =
         0.01796   -0.00024   -0.00147    0.00079
C1    1   -0.104786    0.571604    0.102706    11.00000    0.01391    0.01247 =
         0.01246    0.00015    0.00032    0.00018
C2    1   -0.142615    0.692827    0.127818    11.00000    0.01677    0.01335 =
         0.01501   -0.00100   -0.00052    0.00230
AFIX  43
H2A   2   -0.042279    0.730772    0.161851    11.00000   -1.20000
AFIX   0
C3    1   -0.335363    0.755031    0.100264    11.00000    0.01778    0.01415 =
         0.01746   -0.00007    0.00228    0.00447
C4    1   -0.487819    0.703571    0.051280    11.00000    0.01420    0.01997 =
         0.01860    0.00381    0.00047    0.00282
AFIX  43
H4A   2   -0.619253    0.750414    0.035152    11.00000   -1.20000
AFIX   0
C5    1   -0.446977    0.581766    0.025600    11.00000    0.01410    0.01934 =
         0.01629    0.00180   -0.00169   -0.00135
AFIX  43
H5A   2   -0.547970    0.544359   -0.008443    11.00000   -1.20000
AFIX   0
C6    1   -0.253772    0.517977    0.051735    11.00000    0.01524    0.01349 =
         0.01313    0.00016    0.00074   -0.00126
C7    1    0.021920    0.366648    0.071895    11.00000    0.01955    0.01293 =
         0.01249   -0.00183    0.00034   -0.00019
C8    1    0.072362    0.477795    0.118696    11.00000    0.01568    0.01194 =
         0.01294   -0.00107    0.00092    0.00118
C9    1    0.571438    0.395990    0.218268    11.00000    0.01336    0.01295 =
         0.01405    0.00207    0.00099    0.00010
C10   1    0.790758    0.522615    0.303657    11.00000    0.01885    0.02124 =
         0.02324   -0.00257   -0.00488   -0.00326
AFIX 137
H10A  2    0.785450    0.609499    0.321080    11.00000   -1.50000
H10B  2    0.941431    0.507428    0.280237    11.00000   -1.50000
H10C  2    0.773015    0.464362    0.343579    11.00000   -1.50000
AFIX   0
H1N3  2    0.361586    0.323641    0.150307    11.00000    0.02245
H1N1  2   -0.233833    0.345982    0.003778    11.00000    0.03457
H1N4  2    0.501749    0.562182    0.246352    11.00000    0.02710
HKLF 4 1 0 -1 0 1 0 0 0 0 1
REM  l10_0m in P2(1)2(1)2(1) (100K)
REM R1 =  0.0266 for    3953 Fo > 4sig(Fo)  and  0.0292 for all    4144 data
REM    167 parameters refined using      0 restraints
END
WGHT      0.0374      0.2085
REM Highest difference peak  0.310,  deepest hole -0.192,  1-sigma level  0.046
Q1    1  -0.1136  0.6275  0.1192  11.00000  0.05    0.31
Q2    1   0.0382  0.4216  0.0988  11.00000  0.05    0.29
Q3    1  -0.2467  0.7196  0.1166  11.00000  0.05    0.29
Q4    1  -0.4623  0.6417  0.0391  11.00000  0.05    0.28
Q5    1   0.7073  0.3428  0.2214  11.00000  0.05    0.28
Q6    1   0.5891  0.4421  0.2376  11.00000  0.05    0.28
Q7    1  -0.3457  0.5534  0.0382  11.00000  0.05    0.27
Q8    1  -0.1950  0.5424  0.0822  11.00000  0.05    0.27
Q9    1  -0.3806  0.7398  0.0631  11.00000  0.05    0.27
Q10   1  -0.7947  0.4029 -0.0771  11.00000  0.05    0.26
Q11   1  -0.4275  0.7305  0.0769  11.00000  0.05    0.24
Q12   1  -0.0093  0.5279  0.1165  11.00000  0.05    0.22
Q13   1  -0.1052  0.3750  0.0569  11.00000  0.05    0.22
Q14   1  -0.2210  0.4608  0.0417  11.00000  0.05    0.20
Q15   1   0.4500  0.4008  0.1969  11.00000  0.05    0.20
Q16   1   0.1602  0.4758  0.1376  11.00000  0.05    0.18
Q17   1   0.7447  0.2133  0.2007  11.00000  0.05    0.17
Q18   1   0.7456  0.5525  0.3416  11.00000  0.05    0.16
Q19   1   0.2415  0.5453  0.1820  11.00000  0.05    0.16
Q20   1  -0.3628  0.8035  0.1165  11.00000  0.05    0.15
;
_shelx_res_checksum              25543
loop_
_space_group_symop_operation_xyz
'x, y, z'
'-x+1/2, -y, z+1/2'
'-x, y+1/2, -z+1/2'
'x+1/2, -y+1/2, -z'
loop_
_atom_site_type_symbol
_atom_site_label
_atom_site_fract_x
_atom_site_fract_y
_atom_site_fract_z
_atom_site_U_iso_or_equiv
_atom_site_adp_type
_atom_site_calc_flag
_atom_site_occupancy
S S1 0.74472(6) 0.26837(3) 0.22344(2) 0.01730(8) Uani d 1
F F1 -0.37420(18) 0.87584(8) 0.12143(5) 0.0246(2) Uani d 1
O O1 0.13905(19) 0.26894(10) 0.06783(5) 0.0189(2) Uani d 1
N N1 -0.1734(2) 0.39611(11) 0.03438(6) 0.0166(2) Uani d 1
N N2 0.2390(2) 0.48908(9) 0.16490(5) 0.01366(19) Uani d 1
N N3 0.3829(2) 0.39002(10) 0.17279(6) 0.0149(2) Uani d 1
N N4 0.6013(2) 0.50266(10) 0.25329(6) 0.0156(2) Uani d 1
C C1 -0.1048(2) 0.57160(12) 0.10271(6) 0.0129(2) Uani d 1
C C2 -0.1426(2) 0.69283(12) 0.12782(7) 0.0150(2) Uani d 1
H H2A -0.0423 0.7308 0.1619 0.018 Uiso calc 1
C C3 -0.3354(2) 0.75503(12) 0.10026(7) 0.0165(2) Uani d 1
C C4 -0.4878(3) 0.70357(13) 0.05128(7) 0.0176(3) Uani d 1
H H4A -0.6193 0.7504 0.0352 0.021 Uiso calc 1
C C5 -0.4470(2) 0.58177(13) 0.02560(7) 0.0166(2) Uani d 1
H H5A -0.5480 0.5444 -0.0084 0.020 Uiso calc 1
C C6 -0.2538(3) 0.51798(11) 0.05173(6) 0.0140(2) Uani d 1
C C7 0.0219(2) 0.36665(12) 0.07190(7) 0.0150(2) Uani d 1
C C8 0.0724(2) 0.47780(12) 0.11870(6) 0.0135(2) Uani d 1
C C9 0.5714(2) 0.39599(11) 0.21827(7) 0.0135(2) Uani d 1
C C10 0.7908(3) 0.52261(14) 0.30366(8) 0.0211(3) Uani d 1
H H10A 0.7855 0.6095 0.3211 0.032 Uiso calc 1
H H10B 0.9414 0.5074 0.2802 0.032 Uiso calc 1
H H10C 0.7730 0.4644 0.3436 0.032 Uiso calc 1
H H1N3 0.362(4) 0.324(2) 0.1503(10) 0.022(5) Uiso d 1
H H1N1 -0.234(5) 0.346(2) 0.0038(11) 0.035(6) Uiso d 1
H H1N4 0.502(4) 0.562(2) 0.2464(12) 0.027(5) Uiso d 1
loop_
_atom_site_aniso_label
_atom_site_aniso_U_11
_atom_site_aniso_U_22
_atom_site_aniso_U_33
_atom_site_aniso_U_12
_atom_site_aniso_U_13
_atom_site_aniso_U_23
S1 0.01617(14) 0.01296(12) 0.02276(14) 0.00254(12) -0.00245(14) 0.00152(10)
F1 0.0294(5) 0.0163(4) 0.0280(4) 0.0105(4) -0.0010(4) -0.0041(3)
O1 0.0242(5) 0.0144(4) 0.0181(4) 0.0039(4) 0.0004(4) -0.0035(4)
N1 0.0205(6) 0.0137(4) 0.0157(5) -0.0002(4) -0.0029(4) -0.0032(4)
N2 0.0144(5) 0.0122(4) 0.0144(4) 0.0011(4) 0.0003(4) 0.0011(3)
N3 0.0164(5) 0.0117(4) 0.0167(5) 0.0019(4) -0.0028(4) -0.0011(4)
N4 0.0152(5) 0.0137(5) 0.0180(5) 0.0008(4) -0.0015(4) -0.0002(4)
C1 0.0139(5) 0.0125(5) 0.0125(5) 0.0002(4) 0.0003(4) 0.0001(4)
C2 0.0168(6) 0.0133(5) 0.0150(5) 0.0023(4) -0.0005(5) -0.0010(4)
C3 0.0178(6) 0.0142(5) 0.0175(5) 0.0045(5) 0.0023(5) -0.0001(4)
C4 0.0142(6) 0.0200(6) 0.0186(5) 0.0028(5) 0.0005(5) 0.0038(5)
C5 0.0141(6) 0.0193(6) 0.0163(5) -0.0013(5) -0.0017(5) 0.0018(4)
C6 0.0152(5) 0.0135(4) 0.0131(4) -0.0013(5) 0.0007(5) 0.0002(4)
C7 0.0195(6) 0.0129(5) 0.0125(5) -0.0002(5) 0.0003(5) -0.0018(4)
C8 0.0157(6) 0.0119(4) 0.0129(5) 0.0012(4) 0.0009(4) -0.0011(4)
C9 0.0134(5) 0.0130(5) 0.0140(5) 0.0001(4) 0.0010(4) 0.0021(4)
C10 0.0189(7) 0.0212(6) 0.0232(6) -0.0033(5) -0.0049(5) -0.0026(5)
loop_
_atom_type_symbol
_atom_type_description
_atom_type_scat_dispersion_real
_atom_type_scat_dispersion_imag
_atom_type_scat_source
C C 0.0033 0.0016 'International Tables Vol C Tables 4.2.6.8 and 6.1.1.4'
H H 0.0000 0.0000 'International Tables Vol C Tables 4.2.6.8 and 6.1.1.4'
N N 0.0061 0.0033 'International Tables Vol C Tables 4.2.6.8 and 6.1.1.4'
O O 0.0106 0.0060 'International Tables Vol C Tables 4.2.6.8 and 6.1.1.4'
F F 0.0171 0.0103 'International Tables Vol C Tables 4.2.6.8 and 6.1.1.4'
S S 0.1246 0.1234 'International Tables Vol C Tables 4.2.6.8 and 6.1.1.4'
loop_
_geom_angle_atom_site_label_1
_geom_angle_atom_site_label_2
_geom_angle_atom_site_label_3
_geom_angle
C7 N1 C6 110.94(11)
C7 N1 H1N1 122.6(16)
C6 N1 H1N1 126.5(16)
C8 N2 N3 116.80(10)
N2 N3 C9 120.70(11)
N2 N3 H1N3 121.2(15)
C9 N3 H1N3 118.1(14)
C9 N4 C10 123.16(12)
C9 N4 H1N4 117.9(15)
C10 N4 H1N4 118.9(15)
C2 C1 C6 121.04(12)
C2 C1 C8 132.37(12)
C6 C1 C8 106.60(11)
C3 C2 C1 115.96(12)
C3 C2 H2A 122.0
C1 C2 H2A 122.0
F1 C3 C4 117.79(12)
F1 C3 C2 117.95(12)
C4 C3 C2 124.24(13)
C3 C4 C5 119.46(13)
C3 C4 H4A 120.3
C5 C4 H4A 120.3
C6 C5 C4 117.45(12)
C6 C5 H5A 121.3
C4 C5 H5A 121.3
C5 C6 C1 121.83(12)
C5 C6 N1 128.66(12)
C1 C6 N1 109.51(12)
O1 C7 N1 127.23(12)
O1 C7 C8 126.33(12)
N1 C7 C8 106.43(11)
N2 C8 C1 126.00(11)
N2 C8 C7 127.51(12)
C1 C8 C7 106.49(11)
N4 C9 N3 116.83(11)
N4 C9 S1 125.88(10)
N3 C9 S1 117.29(9)
N4 C10 H10A 109.5
N4 C10 H10B 109.5
H10A C10 H10B 109.5
N4 C10 H10C 109.5
H10A C10 H10C 109.5
H10B C10 H10C 109.5
loop_
_geom_bond_atom_site_label_1
_geom_bond_atom_site_label_2
_geom_bond_distance
S1 C9 1.6804(13)
F1 C3 1.3618(15)
O1 C7 1.2366(16)
N1 C7 1.3567(18)
N1 C6 1.4116(16)
N1 H1N1 0.86(2)
N2 C8 1.2957(17)
N2 N3 1.3426(15)
N3 C9 1.3775(17)
N3 H1N3 0.83(2)
N4 C9 1.3225(16)
N4 C10 1.4549(18)
N4 H1N4 0.86(2)
C1 C2 1.3887(17)
C1 C6 1.4043(18)
C1 C8 1.4509(18)
C2 C3 1.3843(19)
C2 H2A 0.9500
C3 C4 1.3819(19)
C4 C5 1.4009(19)
C4 H4A 0.9500
C5 C6 1.3847(19)
C5 H5A 0.9500
C7 C8 1.5020(17)
C10 H10A 0.9800
C10 H10B 0.9800
C10 H10C 0.9800
loop_
_geom_hbond_atom_site_label_D
_geom_hbond_atom_site_label_H
_geom_hbond_atom_site_label_A
_geom_hbond_site_symmetry_A
_geom_hbond_distance_DH
_geom_hbond_distance_HA
_geom_hbond_distance_DA
_geom_hbond_angle_DHA
_geom_hbond_publ_flag
N3 H1N3 O1 . 0.83(2) 2.09(2) 2.7407(15) 135(2) yes
N1 H1N1 O1 4_455 0.86(2) 1.96(2) 2.8173(15) 178(3) yes
N4 H1N4 S1 3_655 0.86(2) 2.67(2) 3.4718(11) 157.0(19) yes
C2 H2A S1 3_655 0.95 2.78 3.6979(13) 163 yes
C10 H10C F1 3_545 0.98 2.55 3.1746(19) 122 yes
C4 H4A Cg2 4_465 0.95 2.62 3.4291(15) 143 yes
loop_
_geom_torsion_atom_site_label_1
_geom_torsion_atom_site_label_2
_geom_torsion_atom_site_label_3
_geom_torsion_atom_site_label_4
_geom_torsion
C8 N2 N3 C9 176.91(12)
C6 C1 C2 C3 0.79(19)
C8 C1 C2 C3 -179.31(13)
C1 C2 C3 F1 -177.62(11)
C1 C2 C3 C4 0.7(2)
F1 C3 C4 C5 176.88(12)
C2 C3 C4 C5 -1.4(2)
C3 C4 C5 C6 0.64(19)
C4 C5 C6 C1 0.80(19)
C4 C5 C6 N1 -179.45(13)
C2 C1 C6 C5 -1.56(19)
C8 C1 C6 C5 178.52(12)
C2 C1 C6 N1 178.64(12)
C8 C1 C6 N1 -1.28(14)
C7 N1 C6 C5 -179.55(13)
C7 N1 C6 C1 0.23(15)
C6 N1 C7 O1 -177.89(13)
C6 N1 C7 C8 0.88(14)
N3 N2 C8 C1 178.69(12)
N3 N2 C8 C7 -0.75(19)
C2 C1 C8 N2 2.3(2)
C6 C1 C8 N2 -177.77(13)
C2 C1 C8 C7 -178.15(14)
C6 C1 C8 C7 1.76(13)
O1 C7 C8 N2 -3.3(2)
N1 C7 C8 N2 177.88(13)
O1 C7 C8 C1 177.15(13)
N1 C7 C8 C1 -1.64(14)
C10 N4 C9 N3 179.35(12)
C10 N4 C9 S1 -1.59(19)
N2 N3 C9 N4 0.33(18)
N2 N3 C9 S1 -178.81(9)

_cod_database_fobs_code 1543230
