#------------------------------------------------------------------------------
#$Date: 2016-08-10 04:12:06 +0300 (Wed, 10 Aug 2016) $
#$Revision: 185715 $
#$URL: file:///home/coder/svn-repositories/cod/cif/1/54/38/1543874.cif $
#------------------------------------------------------------------------------
#
# This file is available in the Crystallography Open Database (COD),
# http://www.crystallography.net/. The original data for this entry
# were provided by IUCr Journals, http://journals.iucr.org/.
#
# The file may be used within the scientific community so long as
# proper attribution is given to the journal article from which the
# data were obtained.
#
data_1543874
loop_
_publ_author_name
'G\"orbitz, Carl Henrik'
'Karen, Pavel'
'Du\<sek, Michal'
'Pet\<r\'i\<cek, V\'aclav'
_publ_section_title
;
 An exceptional series of phase transitions in hydrophobic amino acids
 with linear side chains
;
_journal_issue                   5
_journal_name_full               IUCrJ
_journal_page_first
;
;
_journal_paper_doi               10.1107/S2052252516010472
_journal_volume                  3
_journal_year                    2016
_chemical_absolute_configuration rm
_chemical_formula_moiety         'C5 H11 N O2 S'
_chemical_formula_sum            'C5 H11 N O2 S'
_chemical_formula_weight         149.21
_chemical_name_common            L-methionine
_chemical_name_systematic
;
 S-2-amino-4-(methylthio)butanoic acid
;
_space_group_crystal_system      monoclinic
_space_group_IT_number           4
_space_group_name_Hall           'P 2yb'
_space_group_name_H-M_alt        'P 1 21 1'
_symmetry_space_group_name_Hall  'P 2yb'
_symmetry_space_group_name_H-M   'P 1 21 1'
_atom_sites_solution_hydrogens   geom
_atom_sites_solution_primary     direct
_atom_sites_solution_secondary   difmap
_audit_creation_method           SHELXL-2013
_cell_angle_alpha                90
_cell_angle_beta                 99.869(13)
_cell_angle_gamma                90
_cell_formula_units_Z            4
_cell_length_a                   9.588(4)
_cell_length_b                   5.203(2)
_cell_length_c                   16.101(7)
_cell_measurement_reflns_used    3602
_cell_measurement_temperature    405(2)
_cell_measurement_theta_max      24.98
_cell_measurement_theta_min      2.57
_cell_volume                     791.3(6)
_computing_cell_refinement       'APEX2 (Bruker, 2014)'
_computing_data_collection       'APEX2 (Bruker, 2014)'
_computing_data_reduction        'APEX2 (Bruker, 2014)'
_computing_molecular_graphics    'MERCURY (Macrae et al., 2008)'
_computing_publication_material  'SHELXL (Sheldrick, 2015b)'
_computing_structure_refinement  'SHELXL (Sheldrick, 2015b)'
_computing_structure_solution    'SHELXT (Sheldrick, 2015a)'
_diffrn_ambient_temperature      405(2)
_diffrn_detector_area_resol_mean 8.3
_diffrn_measured_fraction_theta_full 0.950
_diffrn_measured_fraction_theta_max 0.973
_diffrn_measurement_device_type  'Bruker D8 Vantage single crystal CCD'
_diffrn_measurement_method
'Sets of exposures each taken over 0.5\% \w rotation'
_diffrn_radiation_monochromator  graphite
_diffrn_radiation_type           MoK\a
_diffrn_radiation_wavelength     0.71073
_diffrn_reflns_av_R_equivalents  0.0569
_diffrn_reflns_av_unetI/netI     0.0635
_diffrn_reflns_Laue_measured_fraction_full 0.950
_diffrn_reflns_Laue_measured_fraction_max 0.973
_diffrn_reflns_limit_h_max       11
_diffrn_reflns_limit_h_min       -11
_diffrn_reflns_limit_k_max       6
_diffrn_reflns_limit_k_min       -6
_diffrn_reflns_limit_l_max       19
_diffrn_reflns_limit_l_min       -19
_diffrn_reflns_number            9797
_diffrn_reflns_point_group_measured_fraction_full 0.923
_diffrn_reflns_point_group_measured_fraction_max 0.947
_diffrn_reflns_theta_full        25.242
_diffrn_reflns_theta_max         25.043
_diffrn_reflns_theta_min         2.313
_exptl_absorpt_coefficient_mu    0.344
_exptl_absorpt_correction_T_max  1.000
_exptl_absorpt_correction_T_min  0.695
_exptl_absorpt_correction_type   multi-scan
_exptl_absorpt_process_details   'SADABS (Bruker, 2014)'
_exptl_crystal_colour            colourless
_exptl_crystal_density_diffrn    1.252
_exptl_crystal_density_method    'not measured'
_exptl_crystal_description       plate
_exptl_crystal_F_000             320
_exptl_crystal_size_max          0.48
_exptl_crystal_size_mid          0.45
_exptl_crystal_size_min          0.11
_refine_diff_density_max         0.291
_refine_diff_density_min         -0.245
_refine_diff_density_rms         0.060
_refine_ls_abs_structure_details
;
 Flack x determined using 529 quotients [(I+)-(I-)]/[(I+)+(I-)]
 (Parsons and Flack (2004), Acta Cryst. A60, s61).
;
_refine_ls_abs_structure_Flack   0.11(16)
_refine_ls_extinction_method     none
_refine_ls_goodness_of_fit_ref   1.160
_refine_ls_hydrogen_treatment    constr
_refine_ls_matrix_type           full
_refine_ls_number_parameters     279
_refine_ls_number_reflns         2638
_refine_ls_number_restraints     409
_refine_ls_restrained_S_all      1.146
_refine_ls_R_factor_all          0.1753
_refine_ls_R_factor_gt           0.1166
_refine_ls_shift/su_max          0.001
_refine_ls_shift/su_mean         0.000
_refine_ls_structure_factor_coef Fsqd
_refine_ls_weighting_details
;
 w=1/[\s^2^(Fo^2^)+(0.1053P)^2^+0.7893P]
 where P=(Fo^2^+2Fc^2^)/3
;
_refine_ls_weighting_scheme      calc
_refine_ls_wR_factor_gt          0.2624
_refine_ls_wR_factor_ref         0.2928
_reflns_Friedel_coverage         0.733
_reflns_Friedel_fraction_full    0.889
_reflns_Friedel_fraction_max     0.913
_reflns_number_gt                1642
_reflns_number_total             2638
_reflns_threshold_expression     'I > 2\s(I)'
_cod_data_source_file            ed5010.cif
_cod_data_source_block           Met405
_cod_original_cell_volume        791.3(5)
_cod_database_code               1543874
_shelx_space_group_comment
;
The symmetry employed for this shelxl refinement is uniquely defined
by the following loop, which should always be used as a source of
symmetry information in preference to the above space-group names.
They are only intended as comments.
;
_shelxl_version_number           2013-2
_shelx_res_file
;
REM Solution 1  R1  0.502  Rweak  0.217,  Alpha = 0.0218  in P2(1)
REM Flack x =  0.465 ( 0.023 ) from Parsons' quotients
REM Formula:  C2 N2 O4 S7 I
TITL M405 in P2(1)
CELL  0.71073   9.5877   5.2026  16.1014   90.000   99.869   90.000
ZERR    4.00   0.00390   0.00200   0.00650   0.0000   0.0131   0.0000
LATT -1
SYMM -X, 1/2+Y, -Z
SFAC C H N O S
UNIT 20 44 4 8 4
TEMP 131.870

L.S. 10

ACTA
BOND $H
CONF

LIST 4
FMAP 2
PLAN 20
RIGU

DFIX 0.3 0.05 C21A C22A C22A C23A C23A C24A C24A C21A

DFIX 1.52 0.02 C21A C31A C22B C32B
DFIX 1.50 0.02 C31A C41A C32B C42B
DFIX 1.78 0.02 C41A S11A C42B S12B
DFIX 1.7 0.02 S11A C51A S12B C52B

DFIX 2.75 0.04 C31A S11A C41A C51A C32B S12B C42B C52B

DFIX 3.25 0.05 C31A C51A C33A C53A C34A C54A

DFIX 3.25 0.04 C21B S11B C22B S12B
DFIX 3.25 0.04 C31B C51B C32B C52B C34B C54B C35B C55B C36B C56B C37B C57B

FLAT 0.07 N1A C21A C31A C41A
FLAT 0.07 N1A C22A C32A C42A
FLAT 0.07 C1A C23A C33A C43A
FLAT 0.07 H24A C24A C34A C44A

FLAT 0.07 C21A C31A C41A S11A
FLAT 0.07 C22A C32A C42A S12A
FLAT 0.07 C23A C33A C43A S13A
FLAT 0.07 C24A C34A C44A S14A

FLAT 0.07 C32A C42A S12A C52A

FLAT 0.05 N1B C21B C31B C41B
FLAT 0.05 N1B C25B C35B C45B
FLAT 0.05 N1B C26B C36B C46B
FLAT 0.05 C1B C22B C32B C42B
FLAT 0.05 C1B C24B C34B C44B

FLAT 0.05 C23B C33B C43B S13B
FLAT 0.05 C24B C34B C42B S14B
FLAT 0.05 C25B C35B C45B S15B
FLAT 0.05 C26B C36B C46B S16B

ISOR 0.02 S11A S12A

EADP C21A C22A C23A C24A
EADP C31A C32A C33A C34A
EADP C41A C42A
EADP S12A S13A S14A

EADP C21B C22B C23B C24B C25B C26B
EADP C31B C32B C33B C34B C35B C36B
EADP C41B C42B C43B C44B C45B C46B

EADP S11B S12B S13B S14B S15B S16B

SUMP 1.000 0.001 1.0 6 1.0 7 1.0 8 1.0 9
SUMP 1.000 0.001 1.0 2 1.0 3 1.0 5 1.0 10 1.0 11 1.0 12

WGHT    0.105300    0.789300
FVAR       1.01280   0.09799   0.15342   0.13921   0.23891   0.27803   0.09281
FVAR       0.49910   0.13013   0.17438   0.22384
MOLE 1
O1A   4    0.154232    0.248712    0.578028    11.00000    0.02789    0.06693 =
         0.11860   -0.00028    0.01945   -0.00557
O2A   4    0.242932   -0.119772    0.625312    11.00000    0.05373    0.05721 =
         0.15799    0.01173    0.02331   -0.01035
N1A   3    0.401228    0.465302    0.573497    11.00000    0.04016    0.06202 =
         0.09459   -0.00891    0.02057   -0.01438
AFIX  33
H1A   2    0.419456    0.419888    0.523149    11.00000   -1.50000
H2A   2    0.471009    0.564241    0.599525    11.00000   -1.50000
H3A   2    0.320059    0.551976    0.567095    11.00000   -1.50000
AFIX   0
C1A   1    0.253564    0.111156    0.606152    11.00000    0.02785    0.05776 =
         0.09269   -0.00890    0.01952   -0.00741

PART 1
C21A  1    0.390119    0.237621    0.623386    61.00000    0.02582    0.05715 =
         0.09044   -0.00892    0.01703   -0.01009
AFIX  13
H21A  2    0.446907    0.117202    0.596307    61.00000   -1.20000
AFIX   0

C31A  1    0.489675    0.287549    0.704162    61.00000    0.03069    0.08241 =
         0.08745   -0.00947    0.01827   -0.01897
AFIX  23
H31A  2    0.581921    0.333030    0.691559    61.00000   -1.20000
H32A  2    0.455194    0.432275    0.732787    61.00000   -1.20000
AFIX   0

C41A  1    0.504294    0.062464    0.760487    61.00000    0.15652    0.13559 =
         0.13620    0.03587   -0.00173   -0.01704
AFIX  23
H41A  2    0.532885   -0.084193    0.730203    61.00000   -1.20000
H42A  2    0.412555    0.023393    0.775071    61.00000   -1.20000
AFIX   0
S11A  5    0.628136    0.104283    0.854646    61.00000    0.17669    0.19629 =
         0.17320    0.02870   -0.02143    0.03216
C51A  1    0.522448    0.239592    0.915027    61.00000   10.30000
AFIX  33
H51A  2    0.575158    0.269493    0.970459    61.00000   -1.50000
H52A  2    0.444506    0.126755    0.918684    61.00000   -1.50000
H53A  2    0.487102    0.400083    0.890546    61.00000   -1.50000
AFIX   0

PART 2
SAME 0.004 0.006 C21A > C51A
C22A  1    0.412295    0.238241    0.624918    81.00000    0.02582    0.05715 =
         0.09044   -0.00892    0.01703   -0.01009
AFIX  13
H22A  2    0.484076    0.119558    0.610781    81.00000   -1.20000
AFIX   0

C32A  1    0.440868    0.311019    0.716302    81.00000    0.03069    0.08241 =
         0.08745   -0.00947    0.01827   -0.01897
AFIX  23
H33A  2    0.515876    0.438268    0.725527    81.00000   -1.20000
H34A  2    0.356487    0.388243    0.731273    81.00000   -1.20000
AFIX   0
C42A  1    0.482450    0.087906    0.771227    81.00000    0.15652    0.13559 =
         0.13620    0.03587   -0.00173   -0.01704
AFIX  23
H43A  2    0.559903   -0.000027    0.751611    81.00000   -1.20000
H44A  2    0.403274   -0.030535    0.765830    81.00000   -1.20000
AFIX   0
S12A  5    0.535345    0.164966    0.879151    81.00000    0.31460    0.26616 =
         0.12920    0.01585   -0.04319    0.00378
C52A  1    0.577181   -0.129154    0.917580    81.00000   10.30000
AFIX  33
H54A  2    0.619642   -0.116423    0.975926    81.00000   -1.50000
H55A  2    0.642860   -0.207644    0.886507    81.00000   -1.50000
H56A  2    0.493042   -0.232131    0.912353    81.00000   -1.50000
AFIX   0

PART 3
SAME 0.004 0.006 C21A > C51A
C23A  1    0.386154    0.235744    0.634946    91.00000    0.02582    0.05715 =
         0.09044   -0.00892    0.01703   -0.01009
AFIX  13
H23A  2    0.454627    0.110787    0.620471    91.00000   -1.20000
AFIX   0
C33A  1    0.418386    0.238063    0.729362    91.00000    0.03069    0.08241 =
         0.08745   -0.00947    0.01827   -0.01897
AFIX  23
H35A  2    0.344180    0.330493    0.750810    91.00000   -1.20000
H36A  2    0.419256    0.062855    0.750044    91.00000   -1.20000
AFIX   0
C43A  1    0.555740    0.359633    0.761408    91.00000    0.14474
AFIX  23
H45A  2    0.553344    0.535567    0.741271    91.00000   -1.20000
H46A  2    0.628846    0.269854    0.738073    91.00000   -1.20000
AFIX   0
S13A  5    0.602655    0.361730    0.872660    91.00000    0.31460    0.26616 =
         0.12920    0.01585   -0.04319    0.00378
C53A  1    0.485069    0.576463    0.895883    91.00000   10.30000
AFIX  33
H57A  2    0.492708    0.589250    0.955972    91.00000   -1.50000
H58A  2    0.391186    0.522109    0.871708    91.00000   -1.50000
H59A  2    0.503893    0.741150    0.873284    91.00000   -1.50000
AFIX   0

PART 4
SAME 0.004 0.006 C21A > C51A
C24A  1    0.373795    0.202890    0.612797    71.00000    0.02582    0.05715 =
         0.09044   -0.00892    0.01703   -0.01009
AFIX  13
H24A  2    0.423330    0.080814    0.581739    71.00000   -1.20000
AFIX   0

C34A  1    0.451275    0.180498    0.701582    71.00000    0.03069    0.08241 =
         0.08745   -0.00947    0.01827   -0.01897
AFIX  23
H37A  2    0.444973    0.004784    0.720740    71.00000   -1.20000
H38A  2    0.550501    0.220120    0.702943    71.00000   -1.20000
AFIX   0
C44A  1    0.393419    0.354718    0.759232    71.00000    0.05119
AFIX  23
H47A  2    0.294327    0.313456    0.757612    71.00000   -1.20000
H48A  2    0.398343    0.529520    0.738979    71.00000   -1.20000
AFIX   0
S14A  5    0.481504    0.340679    0.865198    71.00000    0.31460    0.26616 =
         0.12920    0.01585   -0.04319    0.00378
C54A  1    0.634536    0.481541    0.854665    71.00000   10.30000
AFIX  33
H60A  2    0.703979    0.448423    0.903950    71.00000   -1.50000
H61A  2    0.620390    0.663570    0.848068    71.00000   -1.50000
H62A  2    0.666973    0.413386    0.805940    71.00000   -1.50000
AFIX   0

PART 0

MOLE 2
O1B   4    0.663303    0.695647    0.580091    11.00000    0.03723    0.05627 =
         0.11499    0.00659    0.00834   -0.01434
O2B   4    0.743866    0.307434    0.611593    11.00000    0.06897    0.05451 =
         0.16350    0.00721    0.02023   -0.00976
N1B   3    0.921701    0.892370    0.589132    11.00000    0.04157    0.07102 =
         0.10958   -0.01299    0.02023   -0.01841
AFIX  33
H1B   2    0.957380    1.025870    0.620278    11.00000   -1.50000
H2B   2    0.832302    0.925347    0.566180    11.00000   -1.50000
H3B   2    0.972319    0.865040    0.548521    11.00000   -1.50000
AFIX   0
C1B   1    0.761117    0.541493    0.605039    11.00000    0.04148    0.05554 =
         0.10285   -0.00192    0.01498   -0.00609

PART 1
C21B  1    0.926368    0.683042    0.637900    21.00000    0.03717    0.06068 =
         0.09712   -0.01197    0.01822   -0.00788
AFIX  13
H21B  2    1.008129    0.570181    0.637640    21.00000   -1.20000
AFIX   0
C31B  1    0.911431    0.795169    0.723763    21.00000    0.06864
AFIX  23
H31B  2    0.987249    0.917163    0.741356    21.00000   -1.20000
H32B  2    0.822221    0.886573    0.718903    21.00000   -1.20000
AFIX   0
C41B  1    0.916679    0.588169    0.789008    21.00000    0.15295
AFIX  23
H41B  2    0.843495    0.463147    0.769122    21.00000   -1.20000
H42B  2    0.894069    0.664331    0.840064    21.00000   -1.20000
AFIX   0
S11B  5    1.081307    0.422670    0.815095    21.00000    0.18696    0.32670 =
         0.12364    0.00473   -0.03735    0.02856
C51B  1    1.196526    0.647094    0.859169    21.00000   10.30000
AFIX  33
H51B  2    1.284716    0.566654    0.882402    21.00000   -1.50000
H52B  2    1.158869    0.733233    0.903202    21.00000   -1.50000
H53B  2    1.211876    0.769727    0.817105    21.00000   -1.50000
AFIX   0

PART 2
SAME 0.004 0.006 C21B > C51B
C22B  1    0.898364    0.619852    0.662658    31.00000    0.03717    0.06068 =
         0.09712   -0.01197    0.01822   -0.00788
AFIX  13
H22B  2    0.972890    0.489410    0.666197    31.00000   -1.20000
AFIX   0
C32B  1    0.887612    0.740899    0.747897    31.00000    0.06864
AFIX  23
H33B  2    0.832367    0.897731    0.738950    31.00000   -1.20000
H34B  2    0.839054    0.623473    0.780064    31.00000   -1.20000
AFIX   0
C42B  1    1.031399    0.800991    0.796943    31.00000    0.15295
AFIX  23
H43B  2    1.020689    0.927883    0.839540    31.00000   -1.20000
H44B  2    1.087634    0.878689    0.758972    31.00000   -1.20000
AFIX   0
S12B  5    1.127094    0.533962    0.847628    31.00000    0.18696    0.32670 =
         0.12364    0.00473   -0.03735    0.02856
C52B  1    1.026259    0.423391    0.915430    31.00000   10.30000
AFIX  33
H54B  2    1.063373    0.262223    0.938424    31.00000   -1.50000
H55B  2    0.931019    0.399462    0.886389    31.00000   -1.50000
H56B  2    1.026733    0.545268    0.960244    31.00000   -1.50000
AFIX   0

PART 3
SAME 0.004 0.006 C21B > C51B
C23B  1    0.902345    0.607555    0.624808    41.00000    0.03717    0.06068 =
         0.09712   -0.01197    0.01822   -0.00788
AFIX  13
H23B  2    0.956748    0.487664    0.595934    41.00000   -1.20000
AFIX   0
C33B  1    0.962476    0.599534    0.719148    41.00000    0.06864
AFIX  23
H35B  2    0.934895    0.439803    0.742861    41.00000   -1.20000
H36B  2    1.065045    0.604588    0.727172    41.00000   -1.20000
AFIX   0
C43B  1    0.909839    0.821786    0.764376    41.00000    0.15295
AFIX  23
H45B  2    0.807263    0.814360    0.755435    41.00000   -1.20000
H46B  2    0.935920    0.979609    0.738848    41.00000   -1.20000
AFIX   0
S13B  5    0.973385    0.838075    0.874997    41.00000    0.18696    0.32670 =
         0.12364    0.00473   -0.03735    0.02856
C53B  1    0.916971    0.565269    0.914001    41.00000   10.30000
AFIX  33
H57B  2    0.938610    0.569302    0.974450    41.00000   -1.50000
H58B  2    0.963540    0.421083    0.893496    41.00000   -1.50000
H59B  2    0.816500    0.549405    0.896363    41.00000   -1.50000
AFIX   0

PART 4
SAME 0.004 0.006 C21B > C51B
C24B  1    0.900079    0.689854    0.641031    51.00000    0.03717    0.06068 =
         0.09712   -0.01197    0.01822   -0.00788
AFIX  13
H24B  2    0.971019    0.568029    0.627704    51.00000   -1.20000
AFIX   0
C34B  1    0.915979    0.650271    0.736310    51.00000    0.06864
AFIX  23
H37B  2    0.833541    0.719453    0.756016    51.00000   -1.20000
H38B  2    0.920815    0.467719    0.748716    51.00000   -1.20000
AFIX   0
C44B  1    1.046555    0.779482    0.782098    51.00000    0.15295
AFIX  23
H47B  2    1.047416    0.955414    0.762249    51.00000   -1.20000
H48B  2    1.128512    0.693590    0.767066    51.00000   -1.20000
AFIX   0
S14B  5    1.065115    0.784482    0.894219    51.00000    0.18696    0.32670 =
         0.12364    0.00473   -0.03735    0.02856
C54B  1    1.065320    0.473899    0.922521    51.00000   10.30000
AFIX  33
H60B  2    0.995386    0.446795    0.957751    51.00000   -1.50000
H61B  2    1.157037    0.428606    0.952991    51.00000   -1.50000
H62B  2    1.043653    0.368691    0.873006    51.00000   -1.50000
AFIX   0

PART 5
SAME 0.004 0.006 C21B > C51B
C25B  1    0.914327    0.650455    0.630070   101.00000    0.03717    0.06068 =
         0.09712   -0.01197    0.01822   -0.00788
AFIX  13
H25B  2    0.977589    0.532832    0.606816   101.00000   -1.20000
AFIX   0
C35B  1    0.991707    0.733555    0.716981   101.00000    0.06864
AFIX  23
H39B  2    1.085170    0.796625    0.712110   101.00000   -1.20000
H40B  2    0.940033    0.872908    0.737838   101.00000   -1.20000
AFIX   0
C45B  1    1.005566    0.514902    0.778424   101.00000    0.15295
AFIX  23
H49B  2    1.055679    0.376136    0.756069   101.00000   -1.20000
H50B  2    0.911372    0.452742    0.781939   101.00000   -1.20000
AFIX   0
S15B  5    1.094521    0.585040    0.882506   101.00000    0.18696    0.32670 =
         0.12364    0.00473   -0.03735    0.02856
C55B  1    1.254219    0.695312    0.870125   101.00000   10.30000
AFIX  33
H63B  2    1.310120    0.729386    0.924391   101.00000   -1.50000
H64B  2    1.242961    0.850945    0.837633   101.00000   -1.50000
H65B  2    1.300903    0.568668    0.841270   101.00000   -1.50000
AFIX   0

PART 6
SAME 0.004 0.006 C21B > C51B
C26B  1    0.901980    0.649449    0.627276   111.00000    0.03717    0.06068 =
         0.09712   -0.01197    0.01822   -0.00788
AFIX  13
H26B  2    0.971337    0.526367    0.612738   111.00000   -1.20000
AFIX   0
C36B  1    0.946641    0.734059    0.718942   111.00000    0.06864
AFIX  23
H36C  2    1.041825    0.803738    0.726576   111.00000   -1.20000
H36D  2    0.883705    0.868846    0.731737   111.00000   -1.20000
AFIX   0
C46B  1    0.942595    0.513821    0.778484   111.00000    0.15295
AFIX  23
H46C  2    1.003318    0.378416    0.763561   111.00000   -1.20000
H46D  2    0.846796    0.446824    0.770187   111.00000   -1.20000
AFIX   0
S16B  5    0.995633    0.585603    0.887625   111.00000    0.18696    0.32670 =
         0.12364    0.00473   -0.03735    0.02856
C56B  1    1.166604    0.670361    0.897355   111.00000   10.30000
AFIX  33
H56C  2    1.200029    0.728556    0.953839   111.00000   -1.50000
H56D  2    1.176143    0.806237    0.858380   111.00000   -1.50000
H56E  2    1.221414    0.524759    0.885412   111.00000   -1.50000

AFIX   0
HKLF 4

REM  M405 in P2(1)
REM R1 =  0.1166 for    1642 Fo > 4sig(Fo)  and  0.1753 for all    2638 data
REM    279 parameters refined using    409 restraints

END

WGHT      0.1214      0.8712

REM Highest difference peak  0.291,  deepest hole -0.245,  1-sigma level  0.060
Q1    1   0.6031 -0.0404  0.8018  11.00000  0.05    0.29
Q2    1   1.0643  0.6518  0.7799  11.00000  0.05    0.25
Q3    1   1.0196  0.9356  0.6010  11.00000  0.05    0.23
Q4    1   0.7991  0.3213  0.6661  11.00000  0.05    0.22
Q5    1   0.4214  0.2043  0.7851  11.00000  0.05    0.21
Q6    1   1.1521  0.6151  0.8817  11.00000  0.05    0.20
Q7    1   1.1607  0.5680  0.8058  11.00000  0.05    0.20
Q8    1   0.4992  0.5104  0.5676  11.00000  0.05    0.19
Q9    1   0.6878  0.1762  0.9190  11.00000  0.05    0.19
Q10   1   1.1800  0.5648  0.8996  11.00000  0.05    0.19
Q11   1   0.5655  0.2546  0.7787  11.00000  0.05    0.19
Q12   1   1.1277  0.6712  0.8942  11.00000  0.05    0.18
Q13   1   0.9326  0.8048  0.6246  11.00000  0.05    0.18
Q14   1   0.8841  0.9370  0.5183  11.00000  0.05    0.17
Q15   1   0.3976  0.3230  0.7234  11.00000  0.05    0.17
Q16   1   0.7389  0.0461  0.8974  11.00000  0.05    0.16
Q17   1   1.1847  0.8273  0.9061  11.00000  0.05    0.16
Q18   1   0.8013  1.0743  0.6556  11.00000  0.05    0.16
Q19   1   1.1031  0.4175  0.8008  11.00000  0.05    0.16
Q20   1   0.1716  0.1782  0.5271  11.00000  0.05    0.16
;
_shelx_res_checksum              12426
_shelx_hkl_file
;
   2   0   0  570.74   30.40
   2   0   0  556.64   29.20
  -2   0   0  548.65   26.40
  -2   0   0  554.84   30.40
  -2   0   0  564.54   29.20
   2   0   0  567.84   26.40
   3   0   0    0.80    0.80
   3   0   0    1.30    1.40
   3   0   0    0.30    2.50
  -3   0   0    0.20    1.50
  -3   0   0   -2.10    2.40
  -3   0   0   -0.40    0.70
  -4   0   0   31.90    3.90
  -4   0   0   28.30    4.40
   4   0   0   24.20    2.80
   4   0   0   31.60    3.40
   4   0   0   33.60    4.80
  -4   0   0   28.70    2.80
  -5   0   0    3.20    3.10
   5   0   0    5.70    3.20
   5   0   0    4.70    2.10
  -5   0   0    4.80    2.80
   5   0   0    7.40    1.90
   6   0   0  403.26   23.90
  -6   0   0  397.26   24.30
  -6   0   0  406.26   20.50
   6   0   0  396.06   23.50
   6   0   0  431.96   21.10
  -7   0   0    6.30    5.10
   7   0   0    4.20    4.40
  -7   0   0    8.10    2.50
  -7   0   0    9.50    4.60
   7   0   0    2.30    3.00
   7   0   0    8.20    3.40
  -8   0   0   61.19    9.60
   8   0   0   44.70    6.40
  -8   0   0   49.20    5.10
  -8   0   0   40.10    8.10
   8   0   0   40.40    7.30
   9   0   0   -0.90    3.70
  -9   0   0   14.50    6.20
   9   0   0    3.10    4.40
  -9   0   0   -1.10    5.80
 -10   0   0   24.80    8.60
  10   0   0    8.40    4.80
  10   0   0   15.90    6.10
   0  -1   0    0.20    0.70
   0   1   0    0.20    0.80
   0   1   0   -0.10    0.40
   1  -1   0  675.33   32.90
  -1  -1   0  651.73   33.20
   1  -1   0  621.64   35.20
  -1  -1   0  654.93   30.40
   1  -1   0  643.04   30.00
  -1   1   0  632.74   35.20
   1   1   0  632.04   33.30
   1   1   0  676.73   30.40
   2  -1   0   94.09    5.10
  -2  -1   0   83.99    5.60
   2  -1   0   87.79    4.40
   2  -1   0   88.89    4.50
   2  -1   0   82.59    6.10
  -2  -1   0   89.59    5.20
   2   1   0   92.39    5.20
   2   1   0   72.59    6.20
  -2   1   0   88.79    6.30
  -3  -1   0 3693.73  177.78
   3  -1   0 3467.15  186.48
   3  -1   0 3432.76  161.78
  -3  -1   0 3545.25  162.28
   3  -1   0 3450.85  177.18
  -3   1   0 3628.64  163.08
   3   1   0 3522.25  177.88
  -3   1   0 3522.55  186.48
  -3   1   0 3321.77  177.38
   4  -1   0   27.00    2.50
  -4  -1   0   23.10    3.10
  -4  -1   0   25.00    3.10
   4  -1   0   25.50    3.80
  -4  -1   0   27.30    4.00
   4  -1   0   22.00    3.60
   4   1   0   24.20    2.30
  -4   1   0   29.30    5.30
   4   1   0   26.40    3.20
  -4   1   0   23.60    2.20
   4   1   0   32.90    4.80
  -4   1   0   23.60    4.00
   5  -1   0  309.57   18.90
  -5  -1   0  309.87   16.10
  -5  -1   0  321.67   18.20
   5  -1   0  304.47   17.50
  -5  -1   0  302.27   17.80
   5  -1   0  303.27   15.70
   5   1   0  298.87   18.50
  -5   1   0  305.27   15.50
  -5   1   0  308.27   19.10
   5   1   0  300.57   17.30
  -5   1   0  303.47   18.40
  -6  -1   0    5.70    3.70
   6  -1   0    5.30    3.70
  -6  -1   0    6.50    2.40
  -6  -1   0    7.00    3.10
   6  -1   0    5.70    3.20
  -6   1   0    7.10    5.00
   6   1   0    4.40    3.80
  -6   1   0    2.90    1.80
   6   1   0    6.40    2.50
   6   1   0    6.80    1.90
  -6   1   0    2.70    3.80
  -7  -1   0   12.80    4.30
   7  -1   0   13.50    3.70
  -7  -1   0   24.30    5.90
   7  -1   0   11.80    4.90
  -7  -1   0   16.20    3.60
   7  -1   0   16.70    3.70
  -7   1   0   11.40    2.60
  -7   1   0   13.10    6.20
   7   1   0   18.60    4.30
   7   1   0   15.60    3.10
  -7   1   0   16.00    5.30
   7   1   0   17.20    5.10
   8  -1   0    9.40    4.30
   8  -1   0    9.30    5.60
  -8  -1   0    7.10    3.50
   8  -1   0   18.40    4.30
  -8  -1   0   16.20    5.30
   8   1   0   12.20    3.20
   8   1   0   15.10    4.80
   8   1   0    5.20    4.50
  -8   1   0    7.90    2.70
  -8   1   0    3.10    6.20
   9  -1   0   33.90    6.70
  -9  -1   0   35.80    6.90
   9  -1   0   40.10    6.40
   9   1   0   35.20    6.40
  -9   1   0   60.39   11.70
  -9   1   0   30.60    5.00
  -9   1   0   35.90    9.00
   9   1   0   36.80    5.80
 -10  -1   0    5.80    6.60
  10   1   0    7.80    5.60
 -10   1   0   23.70    8.20
  10   1   0   15.80    4.60
 -11   1   0   93.19   17.60
   0  -2   0  311.07   18.70
   0  -2   0  314.67   16.00
   0   2   0  333.07   17.40
   0   2   0  352.36   15.80
   0   2   0  343.57   17.50
   0   2   0  342.07   18.70
  -1  -2   0   35.80    2.70
   1  -2   0   36.10    2.50
   1  -2   0   37.00    2.70
  -1  -2   0   35.70    3.20
  -1  -2   0   36.60    3.00
   1  -2   0   36.20    3.70
  -1   2   0   35.80    3.80
   1   2   0   36.00    2.70
   1   2   0   36.90    3.40
  -1   2   0   36.40    2.10
  -1   2   0   39.20    2.60
   1   2   0   39.20    2.90
  -2  -2   0   40.80    3.30
   2  -2   0   37.30    4.00
   2  -2   0   38.50    2.40
   2  -2   0   31.40    2.80
  -2  -2   0   39.20    3.50
  -2   2   0   40.40    2.90
  -2   2   0   38.90    2.20
   2   2   0   36.70    3.80
   2   2   0   37.20    3.40
  -2   2   0   35.90    4.40
   3  -2   0    7.60    2.70
  -3  -2   0    5.60    2.20
   3  -2   0    6.20    1.20
   3  -2   0    4.60    1.40
  -3  -2   0    7.70    1.90
   3  -2   0    6.70    1.10
   3   2   0    6.30    2.90
   3   2   0    5.80    2.20
  -3   2   0    7.00    2.70
  -3   2   0    4.40    2.10
  -4  -2   0   94.19    7.10
   4  -2   0   95.69    6.00
   4  -2   0   91.79    5.10
   4  -2   0   87.89    5.40
   4  -2   0   91.79    7.80
  -4  -2   0   99.09    6.50
   4   2   0   92.29    8.00
  -4   2   0   89.19    8.20
   4   2   0   96.89    6.70
  -4   2   0   97.89    7.90
  -5  -2   0   38.20    5.30
   5  -2   0   24.30    3.10
   5  -2   0   27.80    2.50
   5  -2   0   22.10    4.60
  -5  -2   0   33.20    4.20
   5  -2   0   32.40    3.80
   5   2   0   28.50    4.30
  -5   2   0   25.50    5.70
  -5   2   0   30.60    5.70
   5   2   0   24.80    4.90
   6  -2   0   83.39    8.40
   6  -2   0   89.79    7.30
   6  -2   0   86.69    5.40
   6  -2   0   88.99    6.10
  -6  -2   0   80.69    7.50
  -6  -2   0  106.09    9.10
   6   2   0   88.59    7.60
  -6   2   0   68.39    8.80
   6   2   0   84.89    9.80
  -6   2   0   87.09   11.40
   7  -2   0    6.70    3.70
   7  -2   0    7.50    2.10
   7  -2   0    1.90    2.80
   7  -2   0    2.30    3.70
  -7  -2   0    8.40    3.50
  -7   2   0    5.70    6.80
   7   2   0    8.70    5.70
   7   2   0    8.00    3.80
  -7   2   0    2.80    5.10
   8  -2   0    9.10    2.40
   8  -2   0   11.60    4.00
   8  -2   0    1.70    4.50
  -8  -2   0    1.10    3.60
   8  -2   0    8.60    3.60
   8   2   0    3.90    4.50
  -8   2   0    7.80    6.70
  -8   2   0    9.10    7.20
  -9   2   0   10.00    7.70
 -10   2   0   26.60    9.80
   0  -3   0   -0.70    1.90
   0  -3   0   -0.60    1.80
   0   3   0   -0.40    1.60
   0   3   0    0.20    1.10
   0   3   0    0.70    1.80
   1  -3   0  248.58   16.30
  -1  -3   0  260.07   13.90
  -1  -3   0  245.98   15.40
   1  -3   0  262.87   13.30
  -1  -3   0  282.87   14.50
  -1   3   0  250.57   16.20
  -1   3   0  274.27   12.80
  -1   3   0  285.47   14.50
   1   3   0  274.27   13.30
  -1   3   0  263.77   14.40
   1   3   0  270.87   15.10
   1   3   0  267.67   15.20
   2  -3   0   30.80    4.70
   2  -3   0   32.20    3.60
   2  -3   0   35.50    3.10
  -2  -3   0   37.70    3.40
  -2  -3   0   37.30    4.50
   2   3   0   35.50    3.80
  -2   3   0   34.30    2.30
  -2   3   0   33.80    5.10
   2   3   0   33.80    4.90
  -2   3   0   36.30    3.50
   3  -3   0   13.00    2.20
  -3  -3   0   16.60    3.60
   3  -3   0   16.20    3.90
   3   3   0   20.60    3.90
   3   3   0   16.50    4.60
  -3   3   0   13.70    3.90
  -3   3   0   11.20    1.70
  -3   3   0   18.00    3.50
   4  -3   0   37.00    3.30
  -4  -3   0   25.40    5.00
   4  -3   0   22.10    4.30
  -4  -3   0   35.20    4.90
   4  -3   0   29.70    5.50
  -4   3   0   29.00    6.10
  -4   3   0   46.00    6.40
   4   3   0   46.30    8.00
   4   3   0   34.70    5.20
   5  -3   0   88.29    5.40
   5  -3   0   87.59    5.90
  -5  -3   0   87.89    7.70
  -5  -3   0  106.99    8.30
  -5   3   0   97.59   10.60
   5   3   0   97.89   10.30
  -5   3   0   79.69    8.90
   5   3   0   93.79    8.00
   6  -3   0   -2.10    4.00
  -6  -3   0    3.20    3.80
   6  -3   0   -1.90    2.20
  -6  -3   0   11.30    3.60
   6  -3   0    0.10    1.60
  -6   3   0    3.80    4.70
   6   3   0    0.10    3.60
   6   3   0    2.20    4.40
   7  -3   0   34.30    3.50
   7  -3   0   35.40    5.00
  -7  -3   0   23.00    6.10
   7  -3   0   25.60    6.10
   7  -3   0   44.70    5.60
   7   3   0   39.40    6.20
  -7   3   0   38.50    8.90
   8  -3   0    8.80    4.70
   8  -3   0    2.90    3.60
   9  -3   0   18.60    5.60
   9  -3   0   14.30    6.20
   9   3   0    4.70    5.90
  -9   3   0    3.90    9.50
   0  -4   0   -0.50    3.30
   0  -4   0    4.20    2.90
   0   4   0   -0.10    1.20
   0   4   0    1.20    2.70
  -1  -4   0   10.60    3.30
  -1  -4   0   14.00    3.90
   1   4   0   13.20    2.40
  -1   4   0   12.80    3.80
   1   4   0   16.10    3.40
   1   4   0   14.30    4.00
  -1   4   0    9.30    2.90
  -1   4   0   11.90    2.00
  -1   4   0   19.60    3.90
   2  -4   0   21.90    5.00
  -2  -4   0   22.00    3.50
  -2  -4   0   20.60    4.60
   2   4   0   24.70    3.80
  -2   4   0   21.80    2.30
  -2   4   0   30.70    6.10
   2   4   0   20.50    5.00
  -2   4   0   24.60    3.90
  -3  -4   0    7.20    4.00
  -3  -4   0    8.00    2.40
   3  -4   0    4.10    3.80
   3  -4   0    8.60    2.80
  -3   4   0    7.30    2.20
  -3   4   0   10.30    2.00
   3   4   0    7.40    3.10
  -3   4   0    6.60    4.90
   3   4   0   15.60    5.90
  -3   4   0    2.40    2.60
  -4  -4   0  126.99    8.60
   4  -4   0   90.09   10.00
  -4  -4   0   94.89    9.20
   4  -4   0  110.89    7.00
  -4   4   0  130.99    9.30
  -4   4   0   91.99   11.00
   4   4   0  103.59    8.40
   4   4   0  138.29   13.60
   5  -4   0   19.20    5.30
   5  -4   0   16.90    3.30
  -5  -4   0   33.00    6.40
   5  -4   0   24.70    4.00
  -5   4   0   16.10    6.30
   5   4   0   34.90    6.30
   6  -4   0   18.30    5.30
   6  -4   0   23.90    4.70
  -6  -4   0   26.50    5.90
   6  -4   0   22.50    4.10
   6   4   0   18.10    5.10
  -6   4   0   16.40    8.40
   7  -4   0    5.20    2.80
   7  -4   0    6.70    5.40
  -7  -4   0   18.50    6.30
  -7   4   0   -0.20   10.00
   7   4   0   -4.00    4.50
   8  -4   0   14.60    4.90
   8  -4   0    9.30    6.40
   8  -4   0    3.00    3.30
   8  -4   0    8.30    5.80
   8   4   0    3.10    5.90
  -8   4   0    5.60   11.70
   0  -5   0   -4.30    3.70
   0  -5   0   -1.90    4.90
   0   5   0    0.60    1.70
   0   5   0   -0.10    3.90
   0   5   0    2.40    4.80
  -1  -5   0   13.80    5.30
   1  -5   0   19.80    5.20
  -1  -5   0   14.50    4.10
  -1   5   0   22.50    2.80
   1   5   0   18.50    6.40
   1   5   0   18.70    3.60
  -1   5   0   18.30    5.40
  -1   5   0   17.90    4.90
   2  -5   0    0.70    4.30
   2  -5   0   -0.50    4.30
  -2  -5   0    2.60    5.00
  -2   5   0    6.60    5.50
  -2   5   0   -0.60    3.60
   2   5   0   -7.60    4.80
   2   5   0    2.00    2.70
   2   5   0    1.50    6.40
  -2   5   0   -3.90    3.60
  -3  -5   0    0.80    2.70
  -3  -5   0    1.00    5.20
   3  -5   0    5.70    4.70
   3   5   0    2.70    3.00
  -3   5   0    8.20    6.00
  -3   5   0    2.90    1.70
  -3   5   0    6.00    3.60
   3   5   0   11.40    7.90
   4  -5   0   16.20    3.30
  -4  -5   0    8.30    6.10
  -4  -5   0   12.40    3.50
   4  -5   0    8.90    4.70
   4  -5   0    4.20    4.90
  -4   5   0   10.10    3.60
   4   5   0   15.40    4.20
  -4   5   0    8.90    5.20
   5  -5   0   -3.50    5.90
  -5  -5   0    3.10    3.60
   5  -5   0    3.60    4.60
  -5   5   0    2.80    3.50
   5   5   0    2.00    4.30
  -5   5   0    3.40    7.80
   6  -5   0   -1.60    6.40
   6  -5   0    3.50    4.20
  -6  -5   0    2.30    4.60
   6   5   0   -4.40    4.50
  -6   5   0  -14.00   10.00
   0  -6   0   11.20    5.60
   0   6   0    3.10    8.60
  -1   6   0   28.90    8.00
  -2  -6   0    0.20    8.20
   2  -6   0    6.20    6.20
   2   6   0   -2.00    3.20
  -2   6   0   -8.80    5.90
 -10   0   1    6.10    8.20
  10   0  -1    6.70    5.40
  10   0  -1   12.10    4.30
  -9   0   1    0.30    3.00
   9   0  -1    2.90    5.30
   9   0  -1   -2.70    3.50
  -9   0   1   16.60    6.30
   9   0  -1   -3.40    4.10
  -9   0   1   -1.80    6.20
  -8   0   1  182.48   11.00
   8   0  -1  206.28   12.60
   8   0  -1  178.08   12.90
   8   0  -1  166.78   13.90
  -8   0   1  198.18   15.90
  -8   0   1  174.58   14.40
   7   0  -1    9.50    3.10
  -7   0   1    4.20    4.30
   7   0  -1    4.90    2.60
  -7   0   1    4.30    5.10
  -7   0   1    5.90    2.40
   7   0  -1    7.40    3.90
   6   0  -1  218.58   14.10
  -6   0   1  203.78   14.60
  -6   0   1  216.18   11.80
   6   0  -1  216.38   13.70
  -5   0   1   -0.60    3.00
   5   0  -1    0.20    2.70
   5   0  -1   -0.90    1.70
  -5   0   1   -1.00    1.30
   5   0  -1   -0.50    1.50
  -5   0   1    2.00    2.80
  -4   0   1  724.63   38.60
   4   0  -1  716.43   39.90
   4   0  -1  736.83   34.90
  -4   0   1  714.43   40.10
   4   0  -1  735.23   38.50
  -4   0   1  741.13   34.70
   3   0  -1    7.60    2.70
  -3   0   1    5.80    3.10
  -3   0   1    7.30    1.50
   3   0  -1    6.70    1.70
   3   0  -1    7.50    1.50
  -3   0   1    8.60    2.30
   2   0  -1 3147.79  141.29
   2   0  -1 3059.19  161.98
  -2   0   1 3099.49  142.19
   2   0  -1 2969.00  154.78
  -2   0   1 3122.49  156.08
  -2   0   1 2994.60  162.78
   1   0  -1    0.30    0.50
   1   0  -1    0.40    0.70
  -1   0   1   -0.70    0.50
  -1   0  -1    0.90    0.60
   1   0   1    1.00    0.70
  -1   0  -1    0.50    0.30
   2   0   1 1983.90  107.29
   2   0   1 2007.30  102.59
  -2   0  -1 2053.19   93.39
  -2   0  -1 1994.50  102.49
   2   0   1 2034.30   93.49
  -2   0  -1 2067.39  107.29
   3   0   1   19.00    2.00
  -3   0  -1   23.00    2.00
   3   0   1   22.50    2.60
  -3   0  -1   20.10    2.80
  -3   0  -1   18.90    3.00
   3   0   1   18.20    4.10
  -4   0  -1  428.26   24.10
   4   0   1  414.96   23.30
  -4   0  -1  435.26   20.70
   4   0   1  418.26   24.00
  -4   0  -1  420.16   23.20
   4   0   1  424.66   20.90
   5   0   1   -2.70    2.00
  -5   0  -1   -3.50    2.30
   5   0   1    0.80    3.00
  -5   0  -1   -0.90    1.30
   5   0   1    1.40    1.30
  -5   0  -1   -3.30    2.50
   6   0   1   81.79    6.70
   6   0   1   92.79    7.70
  -6   0  -1  103.69    8.60
   6   0   1   99.79    9.20
  -6   0  -1   99.49    6.30
   7   0   1    2.00    4.70
  -7   0  -1    0.10    4.60
  -7   0  -1   -0.90    1.80
   7   0   1    1.70    2.50
   7   0   1    3.40    2.80
  -7   0  -1    0.20    3.80
   8   0   1    3.30    5.40
  -8   0  -1    9.40    5.30
  -8   0  -1   15.30    5.30
  -8   0  -1   13.50    3.20
   8   0   1    6.20    4.20
   9   0   1   10.50    4.80
   9   0   1   10.00    4.60
   9   0   1    4.10    6.50
  -9   0  -1   12.90    6.30
  -9   0  -1   24.90    7.00
  11  -1  -1   15.60    7.90
  11   1  -1   32.90    7.30
 -10  -1   1    5.90    7.10
  10  -1  -1   16.20    6.00
  10  -1  -1   11.50    5.20
 -10   1   1   25.70    8.60
  10   1  -1    1.70    5.30
   9  -1  -1   32.20    6.20
   9  -1  -1   44.50    6.70
   9  -1  -1   22.50    7.30
  -9  -1   1   42.70    7.90
   9   1  -1   36.40    5.60
   9   1  -1   51.89    7.50
  -9   1   1   24.90    5.00
  -9   1   1   41.10    9.00
  -9   1   1   57.19   11.90
  -8  -1   1   14.90    5.60
   8  -1  -1   19.70    5.40
  -8  -1   1   15.60    3.80
   8  -1  -1   13.00    4.20
   8  -1  -1    7.80    5.30
  -8   1   1   16.70    3.10
   8   1  -1   21.50    4.80
   8   1  -1   14.20    5.00
   8   1  -1   18.30    3.60
  -8   1   1   16.00    6.20
  -7  -1   1   41.40    8.60
   7  -1  -1   31.20    5.90
   7  -1  -1   29.10    5.70
  -7  -1   1   34.90    4.80
   7  -1  -1   42.00    5.00
  -7  -1   1   31.40    6.10
   7   1  -1   32.50    5.30
   7   1  -1   31.60    6.20
  -7   1   1   37.30    3.90
  -7   1   1   32.70    7.00
   7   1  -1   32.50    4.10
  -7   1   1   38.20    7.80
  -6  -1   1    1.80    3.70
   6  -1  -1    3.20    2.10
   6  -1  -1   -0.10    3.00
   6  -1  -1    5.60    2.70
  -6  -1   1    4.50    3.00
  -6  -1   1    3.30    2.50
   6   1  -1    4.20    1.80
  -6   1   1    4.80    1.50
  -6   1   1    0.70    5.00
   6   1  -1    2.60    4.20
  -6   1   1    4.50    3.70
   6   1  -1    3.90    2.40
  -5  -1   1  586.84   28.80
  -5  -1   1  612.94   32.00
  -5  -1   1  557.84   32.30
   5  -1  -1  567.24   33.30
   5  -1  -1  589.54   28.40
   5  -1  -1  570.94   31.10
   5   1  -1  577.14   32.30
  -5   1   1  595.44   28.00
  -5   1   1  559.74   33.50
   5   1  -1  607.84   29.00
  -5   1   1  589.84   32.10
   5   1  -1  579.24   31.80
  -4  -1   1   28.50    3.40
   4  -1  -1   31.50    3.60
  -4  -1   1   25.40    3.20
   4  -1  -1   26.20    3.70
  -4  -1   1   28.70    4.20
   4  -1  -1   25.20    2.60
   4   1  -1   27.60    2.50
  -4   1   1   28.40    5.00
   4   1  -1   28.40    5.50
  -4   1   1   31.60    2.40
   4   1  -1   33.40    3.40
  -4   1   1   29.50    4.10
  -3  -1   1 2735.23  134.39
   3  -1  -1 2640.94  140.99
   3  -1  -1 2581.14  133.69
  -3  -1   1 2667.33  122.59
   3  -1  -1 2594.04  122.09
  -3  -1   1 2519.95  139.79
  -3   1   1 2533.65  133.89
  -3   1   1 2720.13  121.89
   3   1  -1 2753.82  122.69
  -3   1   1 2529.75  140.89
   3   1  -1 2722.63  134.59
   3   1  -1 2726.33  139.79
   2  -1  -1   40.70    2.50
   2  -1  -1   37.40    4.00
  -2  -1   1   44.50    3.30
   2  -1  -1   47.30    3.00
  -2  -1   1   41.20    2.80
   2   1  -1   51.19    3.50
  -2   1   1   47.90    2.50
  -2   1   1   42.40    4.10
  -2   1   1   47.20    3.50
  -1  -1   1 9253.37  468.65
  -1  -1   1 9003.80  428.56
   1  -1  -1 9255.07  491.65
   1  -1  -1 8886.41  468.05
  -1  -1   1 9999.00  489.65
  -1   1   1 9185.08  468.05
  -1   1   1 8810.92  491.95
   1   1  -1 9508.45  428.66
   1   1  -1 9533.05  468.65
   0  -1   1  118.29    6.40
   0  -1   1  120.29    6.00
   0  -1  -1  114.99    7.10
   0  -1   1  117.59    7.10
   0  -1  -1  124.49    6.00
   0   1   1  125.99    7.20
   0   1  -1  117.39    6.50
   0   1   1  126.79    6.60
   0   1  -1  125.09    7.00
   0   1   1  124.59    6.60
   0   1   1  122.89    5.90
   0   1  -1  130.09    6.00
  -1  -1  -1  607.44   28.50
   1  -1   1  604.94   30.70
   1  -1   1  583.44   28.10
  -1  -1  -1  610.74   31.10
   1  -1   1  568.54   32.90
   1   1   1  630.14   28.50
  -1   1  -1  617.34   32.90
  -1   1  -1  621.44   28.10
  -1   1  -1  613.24   30.70
   1   1   1  604.14   31.20
   2  -1   1    1.40    1.20
   2  -1   1    3.30    0.80
   2  -1   1    2.50    0.60
  -2  -1  -1    2.20    1.20
  -2  -1  -1    1.50    1.20
  -2   1  -1    4.20    1.80
   2   1   1    3.70    1.10
  -2   1  -1    3.00    2.00
   2   1   1    0.10    1.60
   3  -1   1 1041.80   50.29
   3  -1   1 1040.20   55.09
  -3  -1  -1 1123.59   50.79
   3  -1   1 1063.19   50.09
   3  -1   1 1036.00   58.59
  -3  -1  -1 1085.49   55.59
   3   1   1 1088.19   50.79
   3   1   1 1116.89   55.89
  -3   1  -1 1134.99   58.69
  -3   1  -1 1052.59   55.39
   4  -1   1   80.29    6.20
   4  -1   1   78.69    5.00
   4  -1   1   77.09    6.50
  -4  -1  -1   84.19    5.60
  -4  -1  -1   87.19    6.40
  -4  -1  -1   86.19    5.60
   4   1   1   79.89    6.90
  -4   1  -1   89.59    4.90
  -4   1  -1   80.89    7.00
   4   1   1   86.99    5.60
  -4   1  -1   81.99    7.20
   4   1   1   77.29    5.40
   5  -1   1   34.50    4.70
  -5  -1  -1   32.50    3.80
   5  -1   1   37.30    3.40
  -5  -1  -1   42.30    5.50
  -5  -1  -1   35.10    4.00
   5  -1   1   31.20    5.20
  -5   1  -1   33.10    2.90
   5   1   1   40.30    4.00
  -5   1  -1   36.50    5.50
   5   1   1   31.00    3.40
   5   1   1   31.50    5.40
  -5   1  -1   34.00    5.40
   6  -1   1    2.00    3.00
   6  -1   1   -1.00    1.90
   6  -1   1    0.90    3.70
  -6  -1  -1    0.20    1.80
  -6  -1  -1    8.80    3.80
  -6  -1  -1    2.80    2.70
   6   1   1    4.30    3.80
   6   1   1   -1.30    1.90
  -6   1  -1   -1.60    4.50
  -6   1  -1    0.60    1.40
  -6   1  -1    1.50    3.60
   6   1   1    2.10    2.40
  -7  -1  -1  106.59    7.70
   7  -1   1  101.59   10.20
  -7  -1  -1  108.79    8.60
   7  -1   1   97.29    9.30
   7  -1   1  105.39    7.80
   7   1   1   96.09   10.10
  -7   1  -1  103.59    6.70
  -7   1  -1  104.89   10.50
  -7   1  -1  105.29   11.60
  -8  -1  -1   12.80    3.30
   8  -1   1   10.30    4.00
  -8  -1  -1    7.70    4.50
   8  -1   1   13.00    4.60
   8  -1   1    4.40    5.90
  -8   1  -1   15.60    6.40
   8   1   1    6.60    4.00
  -8   1  -1   14.50    6.20
   8   1   1    6.30    4.80
   8   1   1    5.90    3.10
  -8   1  -1    5.30    2.70
   9  -1   1   39.90    7.30
  -9  -1  -1   22.40    6.50
   9  -1   1   44.90    7.10
   9   1   1   27.20    6.00
   9   1   1   37.00    5.50
  -9   1  -1   33.30    8.20
  -9   1  -1   51.19   10.40
  10   2  -1   27.90    4.80
 -10   2   1   24.70   10.10
   9   2  -1   18.30    3.60
  -9   2   1   10.20    7.80
   8  -2  -1    6.00    2.30
   8  -2  -1    2.10    4.00
   8  -2  -1   13.80    4.40
  -8  -2   1    3.40    4.00
   8  -2  -1    4.80    3.70
   8   2  -1    8.10    5.40
   8   2  -1    6.60    3.90
  -8   2   1    8.30    6.60
   7  -2  -1    9.70    3.10
  -7  -2   1    3.10    3.80
   7  -2  -1   10.30    3.90
   7  -2  -1    8.40    2.10
   7  -2  -1    6.30    3.70
  -7   2   1    6.10    7.20
  -7   2   1    8.20    5.20
   7   2  -1    9.30    4.20
   7   2  -1    7.00    5.30
   6  -2  -1   57.39    5.70
  -6  -2   1   67.39    8.10
  -6  -2   1   67.79    5.70
   6  -2  -1   51.49    3.90
   6  -2  -1   47.20    4.80
   6  -2  -1   50.99    6.70
   6   2  -1   52.39    8.20
  -6   2   1   51.19    7.20
   6   2  -1   55.09    5.90
   5  -2  -1    7.40    3.30
   5  -2  -1    9.70    2.00
  -5  -2   1   15.10    3.90
   5  -2  -1   10.20    1.90
  -5  -2   1   10.70    2.70
   5   2  -1   12.60    4.20
  -5   2   1   13.30    5.00
  -5   2   1   10.20    4.20
   5   2  -1   10.80    3.20
  -4  -2   1  224.48   13.00
  -4  -2   1  249.28   14.30
   4  -2  -1  247.08   11.60
   4  -2  -1  237.98   13.10
   4  -2  -1  227.38   11.90
   4  -2  -1  226.78   15.30
   4   2  -1  239.98   14.90
  -4   2   1  231.98   15.60
   4   2  -1  246.28   13.10
  -4   2   1  235.98   14.10
   3  -2  -1    8.90    1.40
  -3  -2   1   12.30    2.60
   3  -2  -1    8.40    3.00
   3  -2  -1    8.40    1.20
   3  -2  -1   11.50    2.10
  -3  -2   1   13.30    2.60
  -3   2   1    8.10    2.00
   3   2  -1   11.00    3.30
  -3   2   1    8.30    2.80
   3   2  -1   13.70    2.70
  -2  -2   1   30.30    3.00
   2  -2  -1   30.70    3.80
   2  -2  -1   23.10    2.50
   2  -2  -1   31.30    1.90
  -2  -2   1   26.50    3.10
   2   2  -1   32.90    3.10
   2   2  -1   28.50    4.00
  -2   2   1   28.60    1.80
  -2   2   1   30.30    3.90
  -2   2   1   31.50    2.70
   1  -2  -1   76.39    6.00
  -1  -2   1   77.49    5.00
  -1  -2   1   82.59    4.90
   1  -2  -1   85.19    4.90
  -1  -2   1   76.39    5.20
   1  -2  -1   78.99    4.30
  -1   2   1   80.69    6.10
  -1   2   1   80.29    4.90
   1   2  -1   87.99    5.00
   1   2  -1   80.49    5.40
  -1   2   1   79.89    4.00
   1   2  -1   81.59    4.70
   0  -2   1  191.88   12.00
   0  -2   1  200.48   10.20
   0  -2  -1  200.38   10.20
   0  -2  -1  207.58   12.10
   0   2  -1  213.38   10.00
   0   2   1  203.18   11.10
   0   2  -1  205.18   10.90
   0   2   1  204.38   12.10
   0   2   1  203.18   11.00
   0   2  -1  204.28   11.10
   0   2   1  213.58    9.90
   0   2  -1  214.68   12.00
   1  -2   1   50.29    4.60
  -1  -2  -1   56.49    3.80
  -1  -2  -1   59.69    4.00
   1  -2   1   55.09    3.40
  -1   2  -1   55.49    3.10
  -1   2  -1   55.99    4.70
   1   2   1   53.39    4.20
  -1   2  -1   64.19    3.50
  -1   2  -1   57.59    3.40
   1   2   1   61.39    3.80
   2  -2   1  100.59    5.30
   2  -2   1   96.29    5.80
  -2  -2  -1  102.89    6.30
  -2  -2  -1  103.79    6.40
   2  -2   1   95.29    7.40
   2   2   1  106.99    7.00
  -2   2  -1  101.89    5.30
  -2   2  -1  108.59    6.00
   2   2   1  107.29    6.30
  -2   2  -1  108.39    7.70
  -3  -2  -1   77.29    5.40
   3  -2   1   65.49    6.10
   3  -2   1   70.79    4.60
   3  -2   1   76.39    4.30
   3  -2   1   73.79    4.10
  -3  -2  -1   78.09    5.30
   3   2   1   74.69    5.40
  -3   2  -1   76.09    5.90
   3   2   1   71.79    6.40
   4  -2   1    5.60    2.40
  -4  -2  -1   12.70    2.60
  -4  -2  -1   12.90    2.80
   4  -2   1    8.00    1.60
   4  -2   1    6.80    1.60
   4  -2   1    8.40    1.90
  -4   2  -1   10.90    3.60
  -4   2  -1   10.50    3.50
   4   2   1   10.20    2.80
   4   2   1   12.70    3.60
   5  -2   1   19.50    3.90
  -5  -2  -1   22.50    4.00
   5  -2   1   15.00    2.10
   5  -2   1   18.60    2.80
   5  -2   1   19.60    4.40
  -5  -2  -1   16.30    3.60
  -5   2  -1   16.70    5.20
   5   2   1   15.30    4.80
   5   2   1   21.20    4.10
  -5   2  -1   20.40    4.60
   6  -2   1   79.19    8.50
   6  -2   1   80.99    7.40
  -6  -2  -1  104.79    8.60
   6  -2   1   91.59    6.30
  -6  -2  -1   88.89    7.20
   6  -2   1   86.19    5.40
   6   2   1   79.69    9.60
  -6   2  -1   86.49    9.20
  -6   2  -1   77.79   10.70
   6   2   1   85.19    7.60
  -7  -2  -1   -1.80    2.80
   7  -2   1   -1.00    3.70
   7  -2   1   -4.20    3.60
   7  -2   1    6.60    2.80
  -7  -2  -1   11.80    4.80
   7  -2   1    0.90    1.80
  -7   2  -1    3.40    4.90
  -7   2  -1   -1.30    5.80
   7   2   1    2.30    5.10
   7   2   1   -5.20    3.20
   8  -2   1   11.30    2.90
   8  -2   1   11.20    4.50
   8  -2   1    8.60    4.80
  -8   2  -1   14.40    6.50
  -8   2  -1   23.70    7.20
   8   2   1    5.50    4.50
   9  -2   1   13.20    4.60
   9  -2   1    9.50    5.40
   9  -2   1    2.70    6.00
  -9   2  -1   19.60    7.80
  10  -2   1   17.30    7.00
  10   2   1   14.50    6.70
 -10   2  -1   18.10    9.80
   9  -3  -1    6.30    5.50
  -9   3   1    4.90    9.80
   9   3  -1    5.10    5.80
   8  -3  -1    5.30    4.00
   8  -3  -1   14.10    5.20
  -8   3   1   -3.80    8.80
   7  -3  -1   18.50    3.00
   7  -3  -1   18.30    3.80
   7  -3  -1   18.60    4.90
   7  -3  -1   15.50    3.90
   7   3  -1   18.20    5.40
   7   3  -1   29.30    6.60
  -7   3   1   18.40    8.40
  -6  -3   1   18.80    5.30
   6  -3  -1   10.40    2.10
   6  -3  -1   12.20    4.10
   6  -3  -1   13.50    2.90
   6   3  -1   16.40    4.50
   6   3  -1   13.20    5.70
  -6   3   1   10.30    7.00
  -5  -3   1   95.09    8.40
   5  -3  -1  114.59    7.70
  -5  -3   1  124.69    9.50
   5  -3  -1  105.89    6.80
   5  -3  -1  105.99    6.20
  -5   3   1  131.29   10.90
  -5   3   1   97.39   10.20
   5   3  -1  115.09    8.70
   5   3  -1  128.39   11.40
  -4  -3   1   22.20    4.40
   4  -3  -1   16.10    2.20
   4  -3  -1   18.00    4.80
   4  -3  -1   20.10    2.60
  -4  -3   1   18.20    4.00
  -4   3   1   29.40    5.40
  -4   3   1   21.60    5.60
   4   3  -1   24.80    5.80
   4   3  -1   22.60    3.90
  -3  -3   1   26.30    4.40
   3  -3  -1   25.20    5.10
   3  -3  -1   33.80    2.40
  -3  -3   1   28.50    3.90
   3  -3  -1   25.60    2.50
   3   3  -1   36.30    6.00
   3   3  -1   28.40    4.10
  -3   3   1   23.30    5.50
  -3   3   1   22.40    3.70
   2  -3  -1   52.59    3.70
  -2  -3   1   53.99    4.30
   2  -3  -1   45.10    5.60
  -2  -3   1   48.00    4.20
   2   3  -1   53.19    6.40
  -2   3   1   55.19    3.00
   2   3  -1   55.39    4.30
  -2   3   1   49.40    6.30
  -2   3   1   59.19    4.70
  -1  -3   1  182.98   12.20
  -1  -3   1  196.38   11.10
   1  -3  -1  188.48   10.40
   1  -3  -1  190.38   13.00
  -1  -3   1  207.48   11.20
   1   3  -1  219.08   10.50
   1   3  -1  221.48   11.90
   1   3  -1  203.18   12.10
  -1   3   1  205.38   11.30
  -1   3   1  214.88   11.50
  -1   3   1  195.18   13.00
  -1   3   1  200.78    9.80
   0  -3   1   46.20    4.70
   0  -3  -1   48.20    4.90
   0  -3   1   50.39    4.40
   0  -3  -1   52.39    4.50
   0   3   1   48.60    3.90
   0   3  -1   56.79    4.80
   0   3   1   52.89    4.50
   0   3  -1   56.29    3.90
   0   3  -1   51.09    4.50
   0   3   1   54.59    5.00
   0   3  -1   55.99    3.50
   0   3   1   57.89    3.40
  -1  -3  -1  213.28   10.90
  -1  -3  -1  188.08   10.50
  -1  -3  -1  183.78   11.50
   1  -3   1  183.78   10.00
   1  -3   1  175.88   12.30
   1   3   1  175.58   11.30
  -1   3  -1  206.68   10.70
   1   3   1  197.78   11.80
  -1   3  -1  195.18   12.40
  -1   3  -1  194.68    9.50
  -1   3  -1  190.18   10.70
   1   3   1  196.38   10.00
   2  -3   1   76.59    4.90
   2  -3   1   68.89    6.60
  -2  -3  -1   78.39    5.40
  -2  -3  -1   73.69    5.80
   2   3   1   80.09    5.60
  -2   3  -1   78.19    4.80
  -2   3  -1   85.99    5.20
   2   3   1   81.99    6.80
  -2   3  -1   75.89    4.30
  -2   3  -1   69.09    6.90
  -3  -3  -1    7.60    2.20
   3  -3   1    8.90    3.40
   3  -3   1   10.40    2.00
  -3  -3  -1   11.30    3.00
   3   3   1    6.30    3.60
  -3   3  -1    8.10    2.40
  -3   3  -1    8.70    1.50
   3   3   1    6.40    3.00
  -3   3  -1    2.40    3.50
   4  -3   1   22.00    2.80
   4  -3   1   21.20    3.40
  -4  -3  -1   27.40    4.50
   4  -3   1   14.90    2.50
  -4  -3  -1   27.10    4.20
   4  -3   1   20.50    4.70
   4   3   1   25.10    4.80
   4   3   1   25.40    6.00
  -4   3  -1   32.60    6.50
  -4   3  -1   14.80    4.30
   5  -3   1   43.70    3.60
   5  -3   1   40.60    4.50
   5  -3   1   38.70    6.10
  -5   3  -1   54.39    9.50
  -5   3  -1   40.30    6.70
   5   3   1   48.00    8.30
   5   3   1   47.30    6.20
  -6  -3  -1    3.80    4.30
   6  -3   1    3.50    3.40
   6  -3   1    8.50    2.60
   6  -3   1    6.80    2.90
   6  -3   1    6.70    1.80
   6   3   1   13.10    4.60
  -6   3  -1    5.80    5.00
  -6   3  -1   11.20    7.20
   6   3   1   10.80    4.10
   7  -3   1   27.20    5.30
   7  -3   1   20.70    3.30
   7  -3   1   18.60    5.30
  -7   3  -1   30.30    8.40
   7   3   1   24.80    5.90
   8  -3   1    9.00    4.00
   8  -3   1    4.40    2.50
   8  -3   1   -4.50    5.10
   8  -3   1    0.10    3.40
  -8   3  -1    4.50    8.30
   8   3   1   -0.10    5.10
   9  -3   1    5.00    4.80
   9  -3   1   11.40    6.10
   9   3   1   -0.30    5.80
  -9   3  -1    8.20   10.20
   8  -4  -1    4.90    6.30
   8  -4  -1    0.60    3.00
   8  -4  -1    1.10    5.00
   8  -4  -1   13.40    6.60
  -8   4   1   19.20   12.80
   8   4  -1   -7.00    5.00
   7  -4  -1    5.30    5.80
   7  -4  -1   17.20    5.90
   7  -4  -1   11.70    3.00
   7   4  -1   15.40    5.30
   6  -4  -1   17.80    3.90
   6  -4  -1   24.90    4.50
   6  -4  -1   20.80    5.20
  -6  -4   1   38.10    8.20
  -6   4   1   15.60    8.20
   6   4  -1   22.10    5.00
   5  -4  -1   11.10    2.60
  -5  -4   1   11.60    4.00
  -5  -4   1    5.70    4.70
   5  -4  -1    3.10    4.30
   5   4  -1    5.50    3.50
   5   4  -1   18.30    7.30
  -5   4   1    5.20    5.90
  -5   4   1   13.60    5.60
   4  -4  -1  110.39    7.00
  -4  -4   1   92.89    9.00
   4  -4  -1  129.29    7.00
   4  -4  -1  123.79    8.70
   4  -4  -1   92.39    9.90
  -4   4   1  103.09   11.10
   4   4  -1  128.49   13.20
  -3  -4   1   36.80    4.50
   3  -4  -1   33.40    4.20
  -3  -4   1   32.50    6.00
   3  -4  -1   27.00    5.80
  -3   4   1   36.90    7.40
  -3   4   1   35.80    4.00
   3   4  -1   36.00    5.00
  -3   4   1   43.10    5.40
   3   4  -1   37.80    7.70
  -3   4   1   31.90    2.70
   2  -4  -1   15.70    4.60
  -2  -4   1   15.10    3.20
   2  -4  -1   18.80    3.40
  -2  -4   1   14.90    4.10
  -2  -4   1   18.00    3.10
  -2   4   1   23.30    4.10
   2   4  -1   20.90    3.30
  -2   4   1   11.90    4.60
  -2   4   1   18.40    3.50
  -2   4   1   17.50    2.00
   2   4  -1   17.30    5.50
  -1  -4   1   15.90    3.60
   1  -4  -1   15.90    4.10
   1  -4  -1   20.20    3.70
  -1  -4   1   24.80    4.50
   1   4  -1   26.80    3.70
  -1   4   1   16.40    4.70
  -1   4   1   21.30    4.40
   1   4  -1   28.80    4.00
  -1   4   1   19.20    4.20
   1   4  -1   22.20    4.80
  -1   4   1   21.30    2.20
   0  -4  -1    4.50    3.20
   0  -4   1    6.50    3.40
   0  -4   1    1.80    2.90
   0  -4  -1    7.20    3.40
   0   4   1    3.40    1.40
   0   4  -1    3.40    1.50
   0   4   1    9.10    3.30
   0   4   1    5.80    3.00
   0   4  -1    1.50    1.80
   0   4  -1    5.40    3.00
   1  -4   1   12.30    3.30
  -1  -4  -1   13.80    3.70
  -1  -4  -1   14.20    3.00
   1  -4   1    9.60    3.70
   1   4   1    9.80    3.10
  -1   4  -1   12.80    4.00
  -1   4  -1   11.10    3.00
  -1   4  -1   11.60    2.10
   1   4   1   13.20    3.00
   1   4   1   12.70    4.10
   1   4   1   14.20    2.50
   2  -4   1   14.20    4.20
  -2  -4  -1   16.30    3.50
   2  -4   1   15.50    3.40
  -2  -4  -1   14.10    3.90
   2   4   1   20.00    3.60
   2   4   1   16.80    4.60
  -2   4  -1   19.60    4.90
  -2   4  -1   16.00    2.90
  -2   4  -1   17.00    2.20
  -2   4  -1   18.90    4.00
  -3  -4  -1   94.89    6.70
  -3  -4  -1   74.59    7.60
   3  -4   1   78.79    6.10
  -3   4  -1   74.79    5.70
   3   4   1   88.69    6.90
   3   4   1   81.79   10.50
  -3   4  -1   85.09    9.30
  -3   4  -1   91.89    7.00
  -4  -4  -1   48.20    5.70
   4  -4   1   38.10    4.70
   4  -4   1   48.50    4.20
   4  -4   1   43.40    6.90
  -4  -4  -1   42.90    6.90
   4   4   1   34.30    5.90
  -4   4  -1   52.09    7.70
  -4   4  -1   39.10    7.90
   4   4   1   63.89   11.60
  -5  -4  -1   37.20    6.70
  -5  -4  -1   49.10    7.00
   5  -4   1   38.30    4.80
   5  -4   1   56.49    5.30
   5  -4   1   38.10    7.70
  -5   4  -1   42.40    7.90
   5   4   1   47.60    6.80
  -5   4  -1   41.90    8.80
  -6  -4  -1    9.00    5.70
   6  -4   1   15.90    3.60
   6  -4   1   12.30    5.30
  -7  -4  -1   11.20    5.70
   7  -4   1    0.20    2.80
   7  -4   1   -6.90    5.30
  -7   4  -1   -8.90    9.70
   7   4   1   -0.20    5.10
   8  -4   1   10.60    4.60
   8  -4   1   -0.70    6.60
   8   4   1    7.90    6.50
   6  -5  -1   13.40    6.40
  -6  -5   1    4.80    4.60
   6  -5  -1   13.30    6.50
  -6   5   1   -2.80   10.20
   6   5  -1   -0.40    4.70
  -5  -5   1    6.80    3.90
   5  -5  -1    3.10    5.80
   5  -5  -1   -2.90    3.10
   5  -5  -1    1.80    4.40
  -5   5   1   -1.40    7.20
  -5   5   1    3.20    3.60
   5   5  -1   -1.00    3.90
  -4  -5   1    4.60    5.70
   4  -5  -1    9.60    4.70
   4  -5  -1   16.10    5.60
  -4   5   1    8.50    3.60
   4   5  -1   17.00    4.30
   4   5  -1   26.20    9.80
  -4   5   1   10.60    5.30
  -3  -5   1    0.90    2.80
   3  -5  -1    7.20    5.10
  -3  -5   1   -4.70    5.40
   3  -5  -1    4.30    4.50
   3   5  -1    7.90    8.30
  -3   5   1   -0.80    3.70
   3   5  -1    3.90    3.00
  -3   5   1   -3.30    6.10
  -3   5   1    3.90    3.50
  -2  -5   1   11.20    5.70
   2  -5  -1   12.40    4.80
   2  -5  -1   10.80    4.80
  -2  -5   1    4.60    3.60
  -2   5   1    6.10    5.10
  -2   5   1   13.50    6.30
  -2   5   1   10.90    4.10
  -2   5   1    9.80    2.00
   2   5  -1   21.10    7.50
   2   5  -1   15.60    3.20
   1  -5  -1   11.10    4.30
  -1  -5   1   10.70    5.30
   1  -5  -1    9.40    4.80
  -1   5   1   13.50    4.40
   1   5  -1   12.00    5.90
   1   5  -1   10.00    4.10
  -1   5   1   11.40    4.80
  -1   5   1   14.80    5.50
   1   5  -1   10.90    2.40
   0  -5   1   22.70    5.70
   0  -5  -1   27.80    5.80
   0  -5  -1   27.00    5.40
   0  -5   1   29.10    5.50
   0   5  -1   24.30    6.20
   0   5  -1   32.00    3.60
   0   5   1   29.40    6.40
   0   5   1   26.30    3.30
   0   5  -1   33.30    6.20
   0   5   1   41.30    8.00
   1  -5   1    6.00    4.70
  -1  -5  -1    5.90    3.90
  -1  -5  -1    8.90    5.10
   1  -5   1   14.10    4.90
   1   5   1   13.20    3.90
   1   5   1   12.70    2.70
  -1   5  -1   16.40    4.20
   1   5   1   15.80    5.80
  -1   5  -1   13.60    5.00
  -1   5  -1   14.10    4.90
  -1   5  -1   13.80    2.70
   2  -5   1    5.80    4.80
  -2  -5  -1    2.70    5.00
   2  -5   1    5.50    4.70
  -2   5  -1   -1.10    3.70
  -2   5  -1    6.00    1.90
   2   5   1   15.40    5.90
  -2   5  -1    9.20    5.60
   2   5   1    5.00    2.70
   3  -5   1   -1.40    4.50
  -3  -5  -1   -2.90    5.10
   3  -5   1    3.10    4.50
  -3   5  -1    1.30    1.70
   3   5   1    4.70    7.40
  -3   5  -1   -0.40    3.50
   3   5   1    0.40    3.20
  -3   5  -1    2.20    5.70
  -4  -5  -1   21.50    4.30
   4  -5   1   16.50    4.90
  -4  -5  -1   19.70    6.30
   4   5   1   12.90    4.30
  -4   5  -1   12.90    3.90
   5  -5   1   -2.60    4.60
  -5  -5  -1    5.20    3.70
   5  -5   1   -1.60    5.40
   5  -5   1    6.90    3.90
  -5   5  -1    0.80    8.40
   5   5   1    2.50    4.20
   6  -5   1    6.80    4.20
  -6  -5  -1    2.20    4.70
   6  -5   1    3.70    5.30
   6  -5   1    0.60    6.50
   6   5   1   -6.50    5.10
   2  -6  -1   -6.20    7.10
  -2   6   1    2.30    2.40
  -2   6   1    1.10    6.10
  -1   6   1    9.00    8.00
   1   6  -1    8.30   10.50
  -1   6   1   27.20    8.80
   0  -6   1   -2.80    5.50
   0  -6   1    2.80    8.00
   0   6   1    2.70    2.60
   0   6  -1    3.40    2.70
   0   6   1    4.70    8.40
   0   6  -1    3.50    5.80
   2  -6   1    0.90    6.20
   2   6   1    0.10    3.30
  -2   6  -1    0.50    2.70
  10   0  -2    1.40    5.10
 -10   0   2    0.70    8.00
  10   0  -2    4.60    4.30
   8   0  -2  229.38   13.50
  -8   0   2  219.78   16.60
  -8   0   2  198.28   15.80
   8   0  -2  214.08   14.30
   8   0  -2  208.78   15.10
  -8   0   2  210.08   12.40
  -7   0   2   13.70    3.00
  -7   0   2   10.00    4.60
   7   0  -2   13.10    3.60
   7   0  -2   14.20    4.40
  -7   0   2   17.40    6.20
  -6   0   2   23.40    5.50
   6   0  -2   18.00    4.20
  -6   0   2   15.70    3.10
   6   0  -2   16.50    3.30
  -5   0   2    0.40    2.50
  -5   0   2    0.50    1.60
   5   0  -2   -0.90    1.70
   5   0  -2    0.20    1.60
  -5   0   2   -2.50    3.40
   4   0  -2 2179.18  111.19
   4   0  -2 2173.58  116.19
   4   0  -2 2255.97  101.49
  -4   0   2 2173.98  101.29
  -4   0   2 2194.38  111.49
  -4   0   2 2100.79  116.39
  -3   0   2   52.89    3.60
  -3   0   2   51.59    4.40
   3   0  -2   51.79    4.00
  -3   0   2   57.09    5.90
   3   0  -2   58.09    3.80
   3   0  -2   61.79    5.30
   2   0  -2 7282.57  316.47
  -2   0   2 6819.02  316.17
  -2   0   2 6441.26  362.46
   2   0  -2 6878.71  362.86
   2   0  -2 6718.03  346.47
  -2   0   2 6879.11  347.57
  -1   0   2    0.90    0.60
  -1   0   2   -0.40    0.60
   1   0  -2    0.70    0.60
   1   0  -2   -0.10    0.50
   0   0   2   23.50    1.40
   0   0   2   23.20    1.50
   0   0  -2   23.30    1.40
   0   0   2   22.20    1.20
   0   0  -2   22.70    1.20
  -1   0  -2    2.80    0.50
  -1   0  -2    3.80    0.70
   1   0   2    3.80    0.60
  -2   0  -2  398.26   20.90
   2   0   2  379.86   21.00
   2   0   2  364.96   20.20
  -2   0  -2  368.56   20.00
  -2   0  -2  399.56   18.20
  -3   0  -2   25.50    2.10
   3   0   2   23.80    2.10
  -3   0  -2   18.80    3.00
  -3   0  -2   24.60    2.70
   3   0   2   21.50    2.50
   3   0   2   17.20    3.60
  -4   0  -2  854.51   44.30
  -4   0  -2  873.01   46.30
   4   0   2  831.92   40.40
   4   0   2  807.32   46.30
   4   0   2  842.72   44.60
  -4   0  -2  881.71   40.20
  -5   0  -2   26.10    2.90
   5   0   2   23.60    4.60
   5   0   2   21.80    3.20
  -5   0  -2   27.10    4.10
  -5   0  -2   22.50    4.70
   5   0   2   25.20    3.80
   6   0   2    0.30    2.60
  -6   0  -2    0.40    1.60
   6   0   2    2.90    4.50
   6   0   2    4.10    2.10
  -7   0  -2   11.20    5.00
  -7   0  -2    7.70    4.40
   7   0   2    9.90    5.70
  -8   0  -2   72.69    9.30
  -8   0  -2   93.29    6.80
   8   0   2  103.99    8.10
   8   0   2   78.99    8.20
   8   0   2   76.99   11.40
 -10   0  -2   11.10    7.90
 -11   1   2   94.79   17.80
  10  -1  -2    8.60    5.80
  10  -1  -2    2.90    4.50
 -10  -1   2    3.40    7.40
  10   1  -2   13.80    5.90
 -10   1   2   12.90    7.90
  10   1  -2    7.90    3.80
   9  -1  -2   46.60    7.50
   9  -1  -2   63.49    8.20
   9  -1  -2   46.50    8.10
  -9  -1   2   54.69    9.90
  -9   1   2   60.99    5.90
  -9   1   2   49.80   11.30
   9   1  -2   53.29    7.90
   9   1  -2   63.69    6.40
  -8  -1   2   18.20    5.70
  -8  -1   2    6.30    3.50
   8  -1  -2    7.30    3.70
   8  -1  -2    2.10    4.90
  -8  -1   2    8.00    5.10
  -8   1   2    6.70    6.80
   8   1  -2    7.80    4.00
   8   1  -2    7.60    2.80
   8   1  -2    2.30    3.80
  -8   1   2   11.00    6.50
   7  -1  -2   96.89    9.00
  -7  -1   2  113.09   10.80
   7  -1  -2   96.09    7.80
  -7  -1   2  109.59    7.80
  -7  -1   2  105.89    9.40
   7  -1  -2   98.29    9.70
   7   1  -2  100.89   10.60
  -7   1   2   98.89   12.50
  -7   1   2  100.79   10.40
   7   1  -2  105.79    7.50
   7   1  -2  112.79    8.50
  -7   1   2  102.59    6.80
   6  -1  -2    8.90    3.30
   6  -1  -2   14.80    2.90
  -6  -1   2    6.30    3.50
  -6  -1   2    9.20    4.30
  -6  -1   2    7.80    2.60
   6  -1  -2    8.70    2.90
   6   1  -2   10.00    3.10
   6   1  -2    8.40    4.30
   6   1  -2   10.50    2.20
  -6   1   2    7.90    4.00
  -6   1   2    9.40    2.10
  -5  -1   2  447.96   27.00
   5  -1  -2  467.85   27.90
   5  -1  -2  487.25   23.70
  -5  -1   2  466.65   24.00
  -5  -1   2  503.85   27.00
  -5   1   2  453.55   28.00
   5   1  -2  493.85   26.40
  -5   1   2  484.45   23.30
  -5   1   2  491.05   27.00
   5   1  -2  500.65   24.30
   5   1  -2  481.15   27.10
   4  -1  -2   63.49    4.60
   4  -1  -2   58.09    4.00
  -4  -1   2   54.29    4.60
   4  -1  -2   53.09    5.20
  -4  -1   2   56.29    4.60
  -4  -1   2   59.79    6.00
   4   1  -2   57.49    4.70
  -4   1   2   63.89    6.10
  -4   1   2   52.19    5.50
   4   1  -2   60.89    3.90
   4   1  -2   57.69    6.50
  -4   1   2   59.09    3.70
   3  -1  -2  196.78   10.20
  -3  -1   2  181.18   11.00
   3  -1  -2  177.48    9.20
  -3  -1   2  178.08    9.80
   3  -1  -2  165.58   11.30
  -3  -1   2  170.78   10.40
  -3   1   2  166.58   11.50
  -3   1   2  178.78   10.60
   3   1  -2  204.68   10.10
   3   1  -2  190.08    9.90
  -3   1   2  177.18    9.00
   3   1  -2  186.28   11.40
   2  -1  -2   86.89    5.10
  -2  -1   2   71.49    6.10
  -2  -1   2   87.99    5.10
  -2  -1   2   87.39    5.30
   2   1  -2   91.79    5.20
  -2   1   2   87.09    5.30
   2   1  -2   82.59    6.70
  -2   1   2   85.09    4.30
   2   1  -2   99.79    4.90
  -2   1   2   77.49    6.10
   1  -1  -2 1272.27   73.99
  -1  -1   2 1425.36   70.49
   1  -1  -2 1372.66   70.39
  -1  -1   2 1440.76   73.39
  -1  -1   2 1346.47   64.39
  -1  -1   2 1601.84   73.79
  -1   1   2 1256.77   74.09
   1   1  -2 1391.16   70.59
  -1   1   2 1363.16   70.39
   1   1  -2 1429.76   64.39
   0  -1   2   20.30    1.60
   0  -1   2   24.00    1.90
   0  -1  -2   26.50    1.50
   0  -1   2   25.20    2.00
   0   1   2   22.40    2.20
   0   1   2   25.30    1.80
   0   1  -2   27.60    2.00
   0   1   2   28.80    1.60
   0   1   2   24.70    1.90
   0   1  -2   22.60    1.60
   1  -1   2 1516.75   84.49
   1  -1   2 1548.45   73.79
  -1  -1  -2 1676.03   73.49
  -1  -1  -2 1627.34   80.39
   1   1   2 1577.14   80.49
  -1   1  -2 1554.44   73.59
   1   1   2 1585.94   73.49
  -1   1  -2 1622.24   84.49
   2  -1   2   88.89    4.50
  -2  -1  -2   89.39    5.40
   2  -1   2   93.69    5.30
   2  -1   2   82.79    6.00
  -2  -1  -2   96.09    5.10
   2   1   2   80.59    5.70
  -2   1  -2   86.69    6.10
   2   1   2   85.09    5.00
  -2   1  -2   80.39    4.50
  -3  -1  -2  502.85   25.60
  -3  -1  -2  496.85   23.40
   3  -1   2  495.25   22.70
   3  -1   2  464.25   22.90
   3  -1   2  460.95   25.20
   3  -1   2  442.36   27.00
   3   1   2  479.45   23.40
  -3   1  -2  508.45   27.30
   3   1   2  479.05   25.90
  -3   1  -2  474.25   25.40
   4  -1   2   35.30    4.80
  -4  -1  -2   40.90    3.20
   4  -1   2   37.40    3.00
  -4  -1  -2   37.20    3.40
  -4  -1  -2   38.10    4.20
   4  -1   2   33.60    2.70
   4  -1   2   33.40    4.00
  -4   1  -2   34.70    5.00
   4   1   2   33.60    3.20
   4   1   2   32.80    3.50
   4   1   2   34.20    4.60
  -4   1  -2   37.20    4.50
   5  -1   2   42.00    3.60
  -5  -1  -2   46.60    5.60
  -5  -1  -2   44.40    4.00
   5  -1   2   36.10    4.80
   5  -1   2   41.70    6.10
  -5  -1  -2   37.30    4.10
   5   1   2   34.90    4.20
  -5   1  -2   38.60    6.00
  -5   1  -2   49.99    5.70
   5   1   2   39.90    5.60
  -5   1  -2   40.10    3.30
   5   1   2   35.60    3.90
  -6  -1  -2    8.10    2.40
  -6  -1  -2    7.50    4.00
  -6  -1  -2    7.60    3.00
   6  -1   2   13.20    3.80
   6  -1   2   10.60    2.40
   6  -1   2   11.10    4.50
  -6   1  -2    7.00    3.90
   6   1   2   10.20    4.40
   6   1   2    8.80    2.60
  -6   1  -2    9.90    2.10
  -6   1  -2    8.80    4.80
   6   1   2    5.10    2.70
  -7  -1  -2  144.39    9.20
   7  -1   2  140.09    9.70
  -7  -1  -2  136.89   10.00
   7  -1   2  139.79   11.50
   7  -1   2  145.69   12.30
   7   1   2  164.08   10.40
  -7   1  -2  144.79   12.10
   7   1   2  143.79   12.30
   7   1   2  128.09    9.70
  -7   1  -2  143.49    8.50
  -7   1  -2  146.89   12.50
  -8  -1  -2   12.50    3.90
   8  -1   2   18.10    4.20
  -8  -1  -2   20.60    4.70
   8  -1   2    7.90    4.30
   8  -1   2    6.70    5.80
   8   1   2   14.00    4.50
   8   1   2   14.50    3.60
   8   1   2   23.60    6.10
  -8   1  -2   17.30    5.90
  -8   1  -2   20.10    3.40
  -8   1  -2   16.20    6.60
  -9  -1  -2   20.20    6.10
   9  -1   2   19.00    5.60
   9  -1   2    7.80    7.40
   9   1   2   22.00    5.60
   9   1   2   15.30    4.20
  -9   1  -2   13.00    7.30
  10  -1   2   18.50    5.90
  10  -1   2   15.40    6.00
 -10  -1  -2   27.50    9.20
 -10  -1  -2    3.40    6.10
 -10   1  -2   17.30    8.20
  10   1   2    9.00    4.40
  10   1   2    4.00    6.00
  10  -2  -2   26.00    6.90
  10  -2  -2   51.89   10.20
 -10   2   2   41.00   10.10
   9   2  -2   19.20    4.30
   8  -2  -2   21.70    5.20
  -8  -2   2   11.70    4.70
  -8  -2   2   20.30    5.30
  -8   2   2   27.30    8.10
   8   2  -2   11.80    5.40
   8   2  -2   12.70    4.30
  -8   2   2   16.70    7.10
  -8   2   2   14.30    3.00
  -7  -2   2    7.30    3.00
  -7  -2   2    7.80    4.00
   7  -2  -2    1.40    3.00
  -7   2   2    3.10    5.10
   7   2  -2    0.40    4.70
  -7   2   2    2.60    7.20
   7   2  -2    0.70    3.40
   6  -2  -2   33.50    4.60
   6  -2  -2   31.20    4.10
  -6  -2   2   30.00    4.90
   6  -2  -2   36.60    5.50
   6   2  -2   27.70    6.00
  -6   2   2   36.30    7.00
  -6   2   2   31.10    6.20
   6   2  -2   28.40    5.00
   5  -2  -2   44.10    5.50
  -5  -2   2   40.50    4.80
   5  -2  -2   41.00    3.80
   5  -2  -2   43.40    3.10
   5  -2  -2   51.59    4.40
  -5   2   2   42.80    6.40
   5   2  -2   47.30    5.10
   5   2  -2   46.20    7.50
  -5   2   2   54.79    7.70
   4  -2  -2  125.29    9.60
   4  -2  -2  127.99    6.60
   4  -2  -2  129.09    7.10
  -4  -2   2  143.89    9.40
  -4  -2   2  119.19    8.10
   4  -2  -2  135.09    8.00
   4   2  -2  139.69    8.40
   4   2  -2  134.29   10.20
  -4   2   2  132.09    9.00
  -4   2   2  120.29    9.90
  -3  -2   2   14.40    1.90
   3  -2  -2   17.70    1.40
   3  -2  -2   19.10    1.70
   3  -2  -2   17.40    3.30
  -3  -2   2   17.90    3.20
   3  -2  -2   18.10    2.40
  -3  -2   2   16.80    3.50
   3   2  -2   18.70    3.00
   3   2  -2   20.60    3.90
  -3   2   2   21.30    3.10
  -3   2   2   20.40    4.10
  -2  -2   2   48.20    4.00
  -2  -2   2   54.99    3.20
  -2  -2   2   46.60    4.00
   2  -2  -2   53.49    4.70
   2  -2  -2   50.49    2.70
   2  -2  -2   42.40    3.60
  -2  -2   2   50.59    3.40
   2  -2  -2   57.89    2.80
  -2   2   2   44.90    4.80
  -2   2   2   52.79    3.80
   2   2  -2   53.69    5.20
   2   2  -2   51.79    3.80
  -1  -2   2   70.99    4.50
  -1  -2   2   69.89    4.80
  -1  -2   2   67.89    4.60
   1  -2  -2   70.29    3.90
   1  -2  -2   72.79    4.50
   1  -2  -2   72.19    5.50
   1   2  -2   71.99    5.30
  -1   2   2   73.59    4.60
  -1   2   2   69.39    5.60
   1   2  -2   75.79    4.30
  -1   2   2   69.79    3.60
   1   2  -2   80.89    4.70
   0  -2   2    0.90    1.20
   0  -2   2    0.80    0.60
   0  -2  -2    0.10    1.30
   0  -2   2   -0.20    1.20
   0  -2  -2    1.40    1.20
   0   2  -2    1.10    0.80
   0   2  -2    1.00    1.10
   0   2   2    1.80    0.90
   0   2   2    1.40    1.70
   0   2   2    2.40    1.00
   0   2   2    1.10    0.90
   0   2  -2    0.20    1.20
  -1  -2  -2   14.90    2.20
  -1  -2  -2   13.80    1.70
   1  -2   2   13.40    1.70
   1  -2   2   12.50    2.30
  -1   2  -2   14.70    1.40
   1   2   2   15.70    2.40
  -1   2  -2   13.10    1.40
  -1   2  -2   17.10    1.40
  -1   2  -2   15.50    2.60
   1   2   2   15.70    2.20
   2  -2   2  327.27   16.00
   2  -2   2  311.17   19.50
  -2  -2  -2  350.06   16.80
   2  -2   2  336.77   17.30
  -2  -2  -2  348.77   18.00
   2   2   2  333.37   16.70
   2   2   2  332.47   18.40
  -2   2  -2  335.07   15.90
  -3  -2  -2   33.00    3.50
   3  -2   2   32.00    2.40
   3  -2   2   34.40    2.70
   3  -2   2   26.50    3.80
  -3  -2  -2   41.90    3.60
  -3   2  -2   34.00    4.50
   3   2   2   32.10    4.20
   3   2   2   37.50    3.80
  -3   2  -2   29.30    4.50
   4  -2   2   72.99    4.90
   4  -2   2   73.49    4.70
  -4  -2  -2   70.49    5.70
   4  -2   2   70.49    4.20
   4   2   2   69.29    7.60
  -4   2  -2   63.29    7.10
   4   2   2   72.09    5.70
  -4   2  -2   62.59    6.90
   5  -2   2    4.60    2.90
  -5  -2  -2    5.00    2.50
   5  -2   2    5.80    2.50
   5  -2   2    3.70    1.40
  -5  -2  -2    8.70    2.90
   5   2   2    6.70    2.80
   5   2   2    4.50    3.90
  -5   2  -2    2.30    3.80
  -5   2  -2    1.60    4.60
  -6  -2  -2   78.89    6.80
   6  -2   2   82.49    8.20
   6  -2   2   69.29    5.80
   6  -2   2   80.19    5.10
  -6   2  -2   81.99   10.20
  -6   2  -2   74.79    8.70
   6   2   2   89.99    7.30
   6   2   2   78.29    9.10
   7  -2   2    2.50    1.90
   7  -2   2    4.60    2.80
  -7  -2  -2    0.50    3.00
   7  -2   2    2.60    3.80
   7  -2   2    2.60    3.80
  -7  -2  -2   10.60    4.60
   7   2   2    5.60    3.90
   7   2   2    3.40    4.00
  -7   2  -2   -1.30    5.60
  -7   2  -2   -2.40    4.50
   8  -2   2    6.80    5.10
   8  -2   2   18.70    3.60
  -8   2  -2    7.50    7.00
  -8   2  -2   23.90    6.90
   8   2   2   15.60    5.30
   9  -2   2    3.20    4.50
   9  -2   2   -2.30    5.40
   9  -2   2    0.70    5.90
   9   2   2    3.30    5.80
  -9   2  -2    5.70    7.00
  10  -2   2    6.60    6.60
  10  -2   2   14.50    6.30
 -10   2  -2   21.50    8.90
   9  -3  -2    5.20    5.00
   9  -3  -2   14.30    6.10
   9  -3  -2   12.20    2.90
   9   3  -2    3.00    5.30
  -9   3   2   22.20   10.80
   8  -3  -2    6.50    4.10
  -8  -3   2   19.50    7.90
   8  -3  -2   -2.90    4.60
  -8   3   2   10.50    9.10
   8   3  -2   -3.00    4.00
   7  -3  -2    8.30    3.50
   7  -3  -2    8.70    3.50
   7  -3  -2    7.20    2.00
  -7  -3   2   -1.80    4.00
   7  -3  -2    9.50    4.00
  -7   3   2   14.80    7.60
   7   3  -2   16.60    6.00
   7   3  -2    4.00    4.20
  -6  -3   2   36.90    6.00
   6  -3  -2   39.00    4.40
   6  -3  -2   38.10    5.30
   6  -3  -2   29.60    3.00
   6  -3  -2   40.20    6.20
   6   3  -2   30.20    5.80
  -6   3   2   35.30    7.50
  -6   3   2   40.40    8.10
   6   3  -2   45.00    9.70
  -5  -3   2   95.19    8.90
   5  -3  -2   90.19    6.00
   5  -3  -2  100.09    7.10
  -5  -3   2   96.29    8.00
   5  -3  -2   91.69    5.30
  -5   3   2   84.09    9.70
   5   3  -2   95.39    7.80
   5   3  -2   97.19   11.20
   4  -3  -2   26.70    3.80
   4  -3  -2   22.40    2.50
   4  -3  -2   18.80    2.20
   4  -3  -2   23.50    5.00
  -4  -3   2   28.40    4.40
  -4  -3   2   24.80    4.50
  -4   3   2   24.20    5.90
  -4   3   2   19.90    3.70
   4   3  -2   27.70    6.10
   4   3  -2   23.00    4.50
   3  -3  -2   28.90    5.20
   3  -3  -2   29.00    2.40
   3  -3  -2   24.20    2.40
  -3  -3   2   27.40    3.80
  -3  -3   2   23.80    4.50
  -3   3   2   27.70    5.80
  -3   3   2   31.00    3.90
   3   3  -2   30.10    5.70
  -2  -3   2   58.69    4.00
  -2  -3   2   52.09    4.50
   2  -3  -2   55.19    3.90
  -2  -3   2   57.19    5.50
   2  -3  -2   58.89    6.00
  -2  -3   2   65.29    4.70
   2  -3  -2   65.29    4.90
  -2   3   2   58.79    6.70
   2   3  -2   61.69    7.10
  -2   3   2   57.89    3.30
  -2   3   2   72.79    5.20
   2   3  -2   68.19    4.70
   1  -3  -2   76.19    6.50
  -1  -3   2   71.39    5.70
  -1  -3   2   79.79    5.00
   1  -3  -2   73.29    4.90
   1   3  -2   86.29    5.60
  -1   3   2   85.89    5.80
  -1   3   2   77.79    7.00
   1   3  -2   83.89    5.00
  -1   3   2   75.39    5.30
  -1   3   2   77.19    4.10
   1   3  -2   75.39    6.60
   0  -3  -2  214.38   13.20
   0  -3   2  207.78   11.40
   0  -3   2  197.68   13.20
   0  -3  -2  210.68   11.20
   0   3  -2  233.88   13.20
   0   3  -2  222.78   12.40
   0   3   2  219.68   10.60
   0   3  -2  223.18   10.80
   0   3  -2  220.58   11.70
   0   3   2  201.38   13.20
   0   3   2  217.38   12.10
   1  -3   2   30.40    3.40
  -1  -3  -2   27.20    3.10
   1  -3   2   30.50    4.10
  -1  -3  -2   29.90    3.80
  -1   3  -2   27.50    3.10
   1   3   2   32.00    3.50
  -1   3  -2   34.10    2.50
   1   3   2   33.20    4.20
  -1   3  -2   38.00    3.00
   1   3   2   30.30    3.70
   1   3   2   33.20    3.20
  -2  -3  -2   38.40    4.40
   2  -3   2   35.50    4.70
   2   3   2   44.70    5.40
   2   3   2   48.60    4.30
  -2   3  -2   40.00    3.10
  -2   3  -2   42.00    5.50
  -2   3  -2   42.10    3.40
  -2   3  -2   40.30    2.80
   3  -3   2   40.40    3.50
  -3  -3  -2   42.70    4.30
   3  -3   2   34.90    5.10
   3  -3   2   44.40    3.70
  -3  -3  -2   48.40    4.80
   3   3   2   47.20    5.20
  -3   3  -2   38.90    5.80
  -3   3  -2   42.20    3.10
   3   3   2   44.60    5.60
  -3   3  -2   46.90    5.10
   4  -3   2    8.50    3.70
   4  -3   2    6.30    1.80
  -4  -3  -2   11.70    3.00
   4   3   2    9.00    3.60
  -4   3  -2   12.90    4.80
  -4   3  -2   12.30    4.60
   4   3   2   14.30    4.60
  -5  -3  -2   41.50    5.70
  -5  -3  -2   41.40    6.00
   5  -3   2   34.00    3.30
   5  -3   2   28.50    4.10
   5  -3   2   31.40    4.20
   5  -3   2   25.80    5.70
   5   3   2   36.60    6.10
  -5   3  -2   33.60    6.60
  -5   3  -2   39.30    7.10
   6  -3   2   18.50    3.10
   6  -3   2   22.30    5.00
   6  -3   2   27.50    3.20
  -6   3  -2   21.70    7.00
  -6   3  -2   22.70    7.30
   6   3   2   36.90    5.90
   7  -3   2    2.90    4.60
  -7  -3  -2   -0.90    4.50
   7  -3   2    2.20    2.30
   7  -3   2    1.60    3.00
   7  -3   2   -0.90    3.10
   7   3   2   -1.60    4.20
  -7   3  -2   -0.40    6.70
   8  -3   2    6.20    3.70
   8  -3   2    9.20    4.00
   8  -3   2    1.80    5.10
  -8   3  -2   11.70    8.60
   8   3   2    5.80    5.10
   9  -3   2    6.80    4.70
   9   3   2    3.00    6.30
  -9   3  -2   15.70    9.70
   8  -4  -2   16.40    6.90
   8  -4  -2   29.50    5.90
   8  -4  -2    9.10    6.90
  -8   4   2   20.30   12.50
   8   4  -2   21.80    5.80
   7  -4  -2    7.40    2.70
   7  -4  -2    2.60    5.90
   7  -4  -2   -1.80    5.80
   7  -4  -2   -1.50    3.60
  -7   4   2    4.30    9.90
   7   4  -2   13.60    4.70
   6  -4  -2   14.60    3.30
  -6  -4   2   21.20    5.30
   6  -4  -2   13.50    2.80
   6  -4  -2   12.60    4.90
  -6   4   2    1.20    7.30
   5  -4  -2   33.80    6.90
   5  -4  -2   32.20    4.00
   5  -4  -2   29.30    4.00
  -5  -4   2   30.80    6.00
   5   4  -2   33.50    5.40
  -5   4   2   30.00    6.20
   5   4  -2   55.99   11.80
  -5   4   2   26.20    7.60
   4  -4  -2   49.50    4.40
   4  -4  -2   47.30    7.10
  -4  -4   2   35.80    6.90
   4  -4  -2   45.60    4.10
   4  -4  -2   43.10    6.50
  -4   4   2   62.59    6.90
   4   4  -2   60.59   11.50
   4   4  -2   50.89    5.90
  -4   4   2   49.10    9.20
   3  -4  -2   87.99    6.40
  -3  -4   2  104.29    7.30
  -3  -4   2   93.39    8.50
   3  -4  -2   93.99    8.90
  -3   4   2   87.89   10.00
   3   4  -2  105.29    7.30
  -3   4   2  107.09    8.00
   3   4  -2  112.29   12.30
  -2  -4   2    1.30    3.60
   2  -4  -2    5.30    3.50
  -2  -4   2    3.30    2.50
   2  -4  -2    4.10    2.70
   2   4  -2    3.70    2.30
  -2   4   2   10.70    3.50
  -2   4   2    2.80    1.00
  -2   4   2    2.00    2.20
   2   4  -2    0.00    4.90
  -2   4   2    9.40    4.70
  -1  -4   2    7.20    2.90
  -1  -4   2   11.00    4.00
   1  -4  -2   10.20    3.30
   1  -4  -2   10.80    3.20
   1   4  -2   11.10    2.30
   1   4  -2    5.20    2.60
  -1   4   2    6.00    2.60
  -1   4   2    9.20    4.00
  -1   4   2    9.70    3.30
   1   4  -2    4.00    4.20
  -1   4   2    9.50    1.50
   0  -4   2   13.40    3.80
   0  -4   2   12.70    3.50
   0  -4  -2   10.00    3.60
   0  -4  -2   14.50    3.40
   0   4   2   14.30    4.10
   0   4   2   13.90    3.40
   0   4   2   15.80    2.00
   0   4  -2   11.70    2.00
   0   4  -2   11.40    2.20
   0   4  -2   11.40    3.80
   0   4  -2   18.00    4.00
   0   4   2   10.10    2.70
  -1  -4  -2   21.20    3.70
  -1  -4  -2   23.80    4.70
   1  -4   2   24.90    5.00
   1  -4   2   27.00    4.20
  -1   4  -2   32.20    3.90
   1   4   2   25.30    4.10
   1   4   2   26.00    5.60
   1   4   2   27.70    3.40
  -1   4  -2   26.20    2.80
  -1   4  -2   31.70    5.30
  -1   4  -2   22.90    4.60
   2  -4   2   16.20    4.30
  -2  -4  -2   16.00    4.10
   2  -4   2   19.60    3.60
  -2   4  -2   21.80    5.60
   2   4   2   17.30    3.20
  -2   4  -2   16.60    2.80
  -2   4  -2   15.40    2.30
  -2   4  -2   16.00    2.90
   2   4   2   18.20    4.90
   3  -4   2  126.79    8.20
  -3  -4  -2  126.59    9.40
  -3  -4  -2  133.09    9.00
  -3   4  -2  132.19    7.30
   3   4   2  130.09    9.00
  -3   4  -2  125.19    8.00
  -3   4  -2  134.09   11.70
  -3   4  -2  138.29    9.00
   3   4   2  129.39   11.10
   4  -4   2    8.80    3.00
   4  -4   2    6.50    4.50
  -4  -4  -2   14.30    3.20
  -4   4  -2   10.40    4.40
   4   4   2   17.80    4.20
   4   4   2   26.50    7.10
  -4   4  -2   17.50    5.40
   5  -4   2   36.10    5.00
   5  -4   2   48.60    5.90
  -5  -4  -2   38.90    7.20
  -5  -4  -2   48.20    6.60
   5   4   2   30.50    5.70
  -5   4  -2   42.70    8.00
   6  -4   2   -1.30    3.00
  -6  -4  -2   -0.10    5.80
  -6  -4  -2    3.60    4.50
   6  -4   2    5.80    3.30
   6  -4   2    2.60    4.70
  -6   4  -2   -1.90    8.20
   6   4   2   -6.10    4.50
   7  -4   2   -0.30    3.20
  -7   4  -2   -2.20    9.00
   7   4   2    1.20    5.30
   8  -4   2   41.30    8.30
  -8  -4  -2   64.39   11.60
   6  -5  -2   -9.10    7.40
   6  -5  -2   13.40    6.00
   6   5  -2    2.20    4.80
  -6   5   2   -0.80   10.30
  -5  -5   2    2.50    3.80
   5  -5  -2   -5.60    6.10
  -5   5   2   -4.40    7.10
   5   5  -2   -1.10    3.70
   4  -5  -2   19.90    3.40
   4  -5  -2   12.80    6.00
   4  -5  -2   12.50    4.80
  -4  -5   2   11.60    3.60
  -4   5   2    7.70    3.60
   4   5  -2   15.60    4.00
   4   5  -2   19.60   10.40
  -3  -5   2    2.80    2.70
   3  -5  -2   -0.80    4.60
   3  -5  -2    7.40    5.00
  -3  -5   2   -7.40    5.30
  -3   5   2    0.10    6.50
   3   5  -2   14.50    8.80
   3   5  -2    4.50    3.00
  -3   5   2    1.70    3.50
  -2  -5   2   19.20    3.80
   2  -5  -2   15.50    5.30
  -2  -5   2   28.30    5.50
  -2  -5   2   14.20    5.80
  -2   5   2   18.10    4.50
  -2   5   2   17.60    2.40
  -2   5   2   17.10    6.40
   2   5  -2   27.70    4.20
   2   5  -2   18.30    5.60
   2   5  -2   32.20    8.80
   1  -5  -2   -5.50    3.90
  -1  -5   2    3.80    3.70
   1  -5  -2    0.20    4.10
  -1  -5   2    1.70    5.20
  -1   5   2    6.70    4.90
   1   5  -2   -0.40    3.40
  -1   5   2   -0.50    1.30
   1   5  -2    4.50    6.30
  -1   5   2   -0.10    4.00
   0  -5  -2   44.50    7.10
   0  -5   2   44.20    7.80
   0  -5   2   37.10    6.80
   0  -5  -2   39.90    6.40
   0   5  -2   63.39    7.00
   0   5   2   50.89    4.00
   0   5  -2   55.99    4.50
   0   5  -2   51.19    8.80
   0   5   2   50.69    7.10
   0   5   2   61.99    8.30
  -1  -5  -2   -1.60    3.00
  -1  -5  -2   -1.50    4.50
   1  -5   2   -0.60    4.70
   1  -5   2    2.20    3.90
  -1   5  -2    2.40    3.30
   1   5   2    1.50    2.10
  -1   5  -2    4.00    1.80
  -1   5  -2   10.30    4.90
  -1   5  -2    2.90    4.80
   1   5   2    4.50    5.20
  -2  -5  -2   10.00    5.40
   2  -5   2   21.20    5.40
   2  -5   2    9.40    5.00
   2   5   2   25.10    7.00
  -2   5  -2   14.50    3.70
   2   5   2   21.80    4.40
  -2   5  -2   15.20    4.90
  -2   5  -2   21.40    6.30
  -2   5  -2   18.10    3.10
   3  -5   2   -2.60    5.00
   3  -5   2    5.00    4.90
  -3  -5  -2    5.80    5.10
   3   5   2   -6.80    6.60
  -3   5  -2    1.10    3.90
   3   5   2    2.30    3.40
   4  -5   2   19.10    5.90
  -4  -5  -2   16.70    4.10
   4  -5   2   21.90    5.40
   4   5   2   14.60    4.50
  -4   5  -2   21.70    7.00
  -5  -5  -2    1.50    3.50
   5  -5   2    1.30    5.10
   5  -5   2   -2.00    5.70
   5   5   2   -1.80    4.40
  -5   5  -2    1.00   10.10
  -6  -5  -2    1.80    4.40
   6  -5   2   -8.10    6.20
   6   5   2   -4.70    5.50
   2  -6  -2  -10.00    6.30
   2   6  -2    2.90    3.00
  -2   6   2   -3.90    7.20
  -2   6   2   -1.00    6.70
   0  -6  -2   -3.40    4.90
   0  -6   2   -9.30    6.00
   0  -6   2   -0.60    8.10
   0   6  -2    2.90    2.90
   0   6  -2   -5.80    5.90
   0   6   2   -2.40    2.20
   1  -6   2    4.00    8.40
   2   6   2   -1.70    3.20
  -2   6  -2   -2.00    2.80
 -10   0   3    3.50    8.50
  -9   0   3   -1.00    6.10
   9   0  -3    3.50    4.20
  -9   0   3    0.60    3.20
  -8   0   3   81.29    7.30
  -8   0   3   87.19   10.30
   8   0  -3  109.69    8.50
   8   0  -3   82.49    9.10
   8   0  -3  109.19    8.80
   7   0  -3   11.20    4.20
  -7   0   3   10.00    2.80
  -7   0   3   11.20    5.10
  -7   0   3   12.10    5.80
   7   0  -3   13.50    3.60
   7   0  -3   14.20    3.30
  -6   0   3  224.08   15.70
   6   0  -3  247.68   13.20
   6   0  -3  241.58   14.50
   6   0  -3  218.88   14.40
  -6   0   3  233.78   12.70
  -6   0   3  217.28   15.10
   5   0  -3   27.40    3.30
  -5   0   3   26.30    4.60
  -5   0   3   31.50    5.50
   5   0  -3   22.90    4.70
   5   0  -3   32.30    3.50
  -5   0   3   21.00    3.20
   4   0  -3 1700.43   75.89
  -4   0   3 1511.05   86.89
   4   0  -3 1622.54   86.79
   4   0  -3 1640.14   83.09
  -4   0   3 1610.14   75.69
  -4   0   3 1638.94   83.49
   3   0  -3   26.10    2.60
   3   0  -3   29.50    3.80
  -3   0   3   21.90    2.40
  -3   0   3   27.90    4.50
   3   0  -3   22.70    2.50
  -3   0   3   24.10    2.90
  -2   0   3 2075.29  116.69
  -2   0   3 2177.68  101.79
   2   0  -3 2307.97  116.69
   2   0  -3 2321.67  101.79
   2   0  -3 2200.18  111.49
  -2   0   3 2136.89  111.59
   1   0  -3    2.50    0.70
  -1   0   3    1.90    0.70
  -1   0   3    3.00    0.80
  -1   0   3    2.20    0.80
   1   0  -3    2.20    0.70
   0   0   3   12.90    1.10
   0   0  -3   13.20    0.90
  -1   0  -3   13.90    1.30
   1   0   3   11.60    1.00
  -1   0  -3   10.30    1.00
   1   0   3   13.60    1.10
   1   0   3   11.40    1.20
  -2   0  -3   17.80    2.00
   2   0   3   18.90    1.90
   2   0   3   19.60    1.70
  -2   0  -3   21.30    1.70
  -2   0  -3   23.00    2.00
  -3   0  -3    2.00    1.40
  -3   0  -3    3.50    1.40
  -3   0  -3    1.40    0.90
   3   0   3    2.10    1.10
   3   0   3    3.00    1.20
   3   0   3    1.00    2.00
   4   0   3   16.30    2.80
   4   0   3   15.80    2.20
   4   0   3   14.80    3.50
  -4   0  -3   16.50    2.90
  -4   0  -3   16.30    3.20
  -4   0  -3   13.60    2.10
  -5   0  -3   33.00    4.20
   5   0   3   24.70    3.80
  -5   0  -3   27.30    2.90
  -5   0  -3   29.90    4.80
   6   0   3   96.09   10.30
  -6   0  -3   93.09    6.40
   6   0   3   93.39    8.20
  -6   0  -3  110.59    8.30
   6   0   3  100.79    7.10
  -7   0  -3   36.30    6.20
   7   0   3   21.90    6.60
  -7   0  -3   18.20    3.50
  -7   0  -3   30.90    6.00
   7   0   3   29.60    4.70
  -8   0  -3  133.59    9.00
   8   0   3  129.69   11.00
   8   0   3  139.29   13.80
  -8   0  -3  158.18   11.80
   8   0   3  118.09    9.80
   9   0   3    9.70    4.60
  -9   0  -3   -1.20    6.30
  -9   0  -3   20.00    6.80
   9   0   3   -1.70    6.80
  10   0   3   -6.60    5.40
 -10   0  -3   22.60    9.00
 -10   0  -3    4.90    7.30
  10  -1  -3   12.40    5.00
 -10  -1   3    2.20    8.00
  10  -1  -3    3.60    5.70
 -10   1   3   23.50    8.40
   9  -1  -3   78.69    8.70
   9  -1  -3   91.79    9.50
  -9  -1   3   73.89   10.30
   9   1  -3   87.79    7.30
   9   1  -3   63.59    8.80
  -9   1   3   71.29   12.30
  -9   1   3   88.39   12.50
  -9   1   3   96.49    7.20
   8  -1  -3   28.30    5.20
   8  -1  -3   17.00    5.50
  -8  -1   3   37.70    7.60
   8  -1  -3   24.00    4.90
  -8  -1   3   23.80    6.20
  -8  -1   3   34.50    5.30
  -8   1   3   24.30    3.90
  -8   1   3   23.60    7.70
   8   1  -3   18.90    4.90
   8   1  -3   15.40    5.50
  -8   1   3   26.00    8.00
   7  -1  -3  142.89   11.00
   7  -1  -3  131.19   10.70
  -7  -1   3  126.39    9.50
   7  -1  -3  163.78    9.80
  -7  -1   3  150.08   12.80
   7   1  -3  147.29   10.00
   7   1  -3  128.29   12.00
  -7   1   3  138.19   14.40
  -7   1   3  145.99    8.50
   7   1  -3  148.69    9.40
  -7   1   3  136.99   12.00
  -6  -1   3    6.10    4.30
   6  -1  -3   10.40    2.60
  -6  -1   3    7.80    3.60
  -6  -1   3    3.70    2.40
   6  -1  -3    5.20    2.40
   6   1  -3    7.20    2.10
  -6   1   3    6.20    5.30
   6   1  -3    6.70    4.20
   6   1  -3    8.10    3.10
  -6   1   3    5.80    3.90
  -6   1   3    6.80    1.90
   5  -1  -3   59.29    5.40
   5  -1  -3   63.69    4.60
   5  -1  -3   56.29    4.90
  -5  -1   3   52.69    6.90
  -5  -1   3   58.19    5.50
  -5  -1   3   52.19    4.80
   5   1  -3   60.29    5.20
   5   1  -3   59.49    4.20
   5   1  -3   54.29    6.90
  -5   1   3   57.49    7.00
  -5   1   3   58.49    4.00
  -5   1   3   50.29    5.90
   4  -1  -3   14.70    2.30
  -4  -1   3   19.00    3.80
  -4  -1   3   12.40    2.60
  -4  -1   3   16.10    2.80
   4  -1  -3   14.00    2.60
   4  -1  -3   13.10    2.70
  -4   1   3   15.40    3.50
   4   1  -3   18.90    3.60
   4   1  -3   17.40    3.00
  -4   1   3   16.70    2.00
  -4   1   3   14.70    3.10
  -3  -1   3   67.09    4.80
   3  -1  -3   68.59    4.50
  -3  -1   3   64.69    6.20
   3  -1  -3   71.39    4.00
   3  -1  -3   63.09    5.20
  -3  -1   3   64.49    4.50
   3   1  -3   74.69    4.90
  -3   1   3   67.19    5.70
  -3   1   3   68.19    3.80
  -3   1   3   66.79    5.20
   3   1  -3   63.09    6.10
  -2  -1   3  101.19    7.30
   2  -1  -3  106.29    6.20
  -2  -1   3  116.99    6.30
   2  -1  -3  101.69    7.00
   2  -1  -3  103.89    5.40
  -2  -1   3  106.19    6.20
  -2   1   3  106.69    6.30
  -2   1   3  108.09    5.30
   2   1  -3  108.99    7.40
   2   1  -3  115.19    6.10
   2   1  -3  116.19    6.20
  -2   1   3   97.49    7.20
   1  -1  -3 1278.57   69.29
  -1  -1   3 1343.37   66.09
  -1  -1   3 1369.46   68.69
   1  -1  -3 1255.77   65.89
  -1  -1   3 1270.57   60.29
   1   1  -3 1300.17   65.99
  -1   1   3 1202.98   69.29
  -1   1   3 1288.47   65.89
   1   1  -3 1382.06   60.29
   0  -1   3   70.19    3.90
   0  -1  -3   74.39    3.50
   0  -1  -3   66.79    4.20
   0  -1  -3   67.19    4.20
   0  -1   3   70.59    4.50
   0   1   3   68.29    4.10
   0   1   3   61.69    4.40
   0   1  -3   70.39    3.70
   0   1  -3   78.59    4.50
   0   1   3   71.59    3.60
   1  -1   3  197.58   11.90
   1  -1   3  208.38   10.00
  -1  -1  -3  221.58   10.10
  -1  -1  -3  216.78   11.10
   1   1   3  199.98   11.30
  -1   1  -3  204.68   10.00
   1   1   3  201.68   11.30
  -1   1  -3  212.38   11.90
   1   1   3  202.48   10.20
   2  -1   3   10.10    2.00
   2  -1   3    9.10    1.10
   2  -1   3   12.90    2.40
  -2  -1  -3   10.50    1.50
  -2  -1  -3    9.20    1.60
   2   1   3   11.30    1.60
   2   1   3   10.30    1.90
  -2   1  -3   11.00    2.20
  -2   1  -3   10.30    1.10
  -3  -1  -3 1425.56   66.09
   3  -1   3 1171.88   63.59
   3  -1   3 1146.49   67.29
  -3  -1  -3 1274.87   58.49
   3  -1   3 1264.67   57.89
   3  -1   3 1213.18   58.09
  -3  -1  -3 1265.47   63.99
  -3   1  -3 1235.18   63.69
   3   1   3 1223.48   58.49
  -3   1  -3 1309.07   67.49
   3   1   3 1240.98   64.29
   3   1   3 1189.58   66.29
   4  -1   3    7.70    3.10
   4  -1   3   10.60    2.70
   4  -1   3   10.40    1.90
  -4  -1  -3   10.70    1.80
  -4  -1  -3   11.80    2.50
   4   1   3    9.60    2.00
  -4   1  -3    7.70    2.60
  -4   1  -3   10.00    2.70
   4   1   3    9.80    2.30
   5  -1   3  100.19    6.00
   5  -1   3   97.19    8.80
  -5  -1  -3  114.99    6.70
   5  -1   3   94.09    8.00
  -5  -1  -3  107.09    6.80
   5   1   3   96.29    8.50
   5   1   3  103.99    7.10
  -5   1  -3  106.59    8.60
  -5   1  -3  103.39    8.20
  -6  -1  -3   17.80    3.50
  -6  -1  -3   17.60    4.70
   6  -1   3   16.40    3.30
   6  -1   3   17.20    4.30
  -6  -1  -3   14.50    3.10
   6  -1   3   13.30    5.10
  -6   1  -3   16.00    5.10
   6   1   3   15.10    4.90
   6   1   3   15.80    3.30
  -6   1  -3   18.70    4.90
   6   1   3   16.40    3.70
  -7  -1  -3   83.09    6.90
   7  -1   3   73.59    6.70
   7  -1   3   74.19   10.20
   7  -1   3   81.69    8.30
  -7  -1  -3   90.39    6.60
   7   1   3   90.69   10.10
  -7   1  -3   81.49    9.30
   7   1   3   66.49    7.30
  -7   1  -3   73.89    5.70
   7   1   3   81.39    6.90
  -7   1  -3   74.79    9.00
  -8  -1  -3   12.50    3.60
  -8  -1  -3   20.60    6.50
   8  -1   3    8.40    4.80
  -8  -1  -3   17.50    4.50
   8  -1   3   14.50    4.00
   8  -1   3    6.50    6.30
   8   1   3   12.70    4.00
   8   1   3   17.00    6.30
  -8   1  -3   22.80    5.80
   8   1   3   20.00    4.50
  -8   1  -3   11.90    5.70
   9  -1   3   11.00    5.90
  -9  -1  -3   30.30    7.20
   9  -1   3    0.60    7.60
   9  -1   3   15.90    4.40
  -9  -1  -3   19.60    5.50
  -9   1  -3   17.70    7.10
   9   1   3   20.90    5.90
 -10  -1  -3   29.90    8.80
  10  -1   3    7.90    5.70
  10  -2  -3   39.70    8.10
 -10   2   3   40.00   10.50
  10   2  -3   63.79    6.80
   9  -2  -3   16.20    5.30
  -9   2   3    7.80    8.10
   9   2  -3   27.00    4.60
   8  -2  -3   11.50    4.10
   8  -2  -3    1.70    4.20
  -8  -2   3    7.30    4.30
  -8  -2   3   10.70    5.20
   8  -2  -3    8.60    4.00
  -8   2   3    9.00    7.20
  -8   2   3   10.70    2.80
   8   2  -3    4.90    4.40
  -8   2   3   10.10    6.70
   8   2  -3   12.90    4.40
  -7  -2   3   -0.70    3.50
   7  -2  -3    6.60    2.90
   7  -2  -3   -2.30    3.40
  -7  -2   3    8.40    5.70
  -7  -2   3    3.60    3.90
  -7   2   3    4.20    2.10
  -7   2   3   -0.40    4.50
   7   2  -3    2.80    3.70
  -7   2   3    5.20    7.10
   7   2  -3   -1.40    4.60
  -6  -2   3    2.30    4.50
  -6  -2   3    3.40    2.90
  -6  -2   3   -0.70    3.00
   6  -2  -3    3.30    2.40
   6  -2  -3    2.40    2.80
   6   2  -3   -0.10    1.60
   6   2  -3   -0.80    2.90
  -6   2   3    2.30    4.20
  -6   2   3    4.90    5.80
   6   2  -3    2.70    4.70
  -5  -2   3   77.09    6.30
  -5  -2   3   92.99    8.70
   5  -2  -3   91.99    5.80
   5  -2  -3   88.09    6.20
   5  -2  -3   84.79    7.50
  -5  -2   3   78.69    6.70
  -5   2   3   95.09    9.20
   5   2  -3   96.19    5.30
   5   2  -3   85.89    9.30
  -5   2   3   72.29    8.10
   5   2  -3   85.69    6.80
   4  -2  -3   65.89    3.70
  -4  -2   3   61.29    5.40
   4  -2  -3   64.09    4.20
  -4  -2   3   60.59    4.70
   4  -2  -3   66.89    6.20
  -4  -2   3   73.49    6.90
   4   2  -3   66.59    5.40
   4   2  -3   70.49    7.60
  -4   2   3   67.89    6.20
   4   2  -3   67.49    4.00
  -4   2   3   60.29    6.50
  -3  -2   3    7.10    1.30
   3  -2  -3    3.70    1.30
   3  -2  -3    4.80    0.80
   3  -2  -3    4.40    2.00
  -3  -2   3    2.10    1.20
   3  -2  -3    4.80    1.00
  -3  -2   3    6.10    2.60
  -3   2   3    4.90    1.70
   3   2  -3    4.80    3.30
   3   2  -3    5.60    2.00
  -3   2   3    4.30    2.50
  -2  -2   3  315.87   17.50
   2  -2  -3  307.67   18.90
   2  -2  -3  319.37   17.30
   2  -2  -3  318.17   15.00
  -2  -2   3  335.97   17.80
  -2  -2   3  301.57   16.20
  -2  -2   3  346.97   17.50
   2   2  -3  338.57   16.10
  -2   2   3  330.47   17.30
  -2   2   3  290.67   18.90
   2   2  -3  337.27   18.30
   1  -2  -3   69.49    3.60
  -1  -2   3   65.29    4.50
   1  -2  -3   70.49    4.40
  -1  -2   3   64.99    4.30
  -1  -2   3   67.49    4.60
   1  -2  -3   64.39    5.00
   1   2  -3   67.99    5.50
  -1   2   3   64.29    4.40
   1   2  -3   67.49    4.10
   1   2  -3   76.19    4.60
  -1   2   3   58.39    5.40
   0  -2   3  134.39    7.20
   0  -2  -3  137.19    8.30
   0  -2   3  138.99    7.20
   0  -2  -3  138.89    7.00
   0  -2   3  127.89    8.40
   0   2   3  134.89    7.80
   0   2   3  137.59    6.80
   0   2   3  130.89    8.60
   0   2   3  129.29    7.70
   0   2  -3  135.59    7.90
   0   2  -3  147.79    8.40
   0   2  -3  140.99    7.00
   1  -2   3   50.99    4.50
  -1  -2  -3   59.99    4.00
   1  -2   3   56.49    3.50
  -1  -2  -3   59.19    3.80
   1   2   3   57.19    3.80
  -1   2  -3   58.99    4.60
   1   2   3   56.09    4.30
  -1   2  -3   55.59    3.30
  -2  -2  -3  760.72   38.70
   2  -2   3  677.23   41.20
  -2  -2  -3  765.02   35.60
   2  -2   3  752.82   35.00
  -2   2  -3  784.02   41.40
   2   2   3  752.32   39.20
   2   2   3  738.73   35.50
  -2   2  -3  743.93   34.90
   3  -2   3    8.20    2.70
   3  -2   3   10.40    1.80
  -3  -2  -3    8.90    2.20
  -3  -2  -3    8.40    1.90
   3  -2   3    5.60    1.20
  -3   2  -3    5.90    1.30
   3   2   3    7.60    2.70
   3   2   3    8.90    2.10
  -3   2  -3    3.10    2.80
  -3   2  -3    5.90    2.30
  -4  -2  -3   73.39    5.50
   4  -2   3   60.59    6.10
  -4  -2  -3   73.69    5.80
   4  -2   3   70.69    4.90
   4  -2   3   68.89    4.20
   4  -2   3   71.29    4.70
   4   2   3   65.39    7.70
  -4   2  -3   73.29    7.00
   4   2   3   67.09    5.60
  -4   2  -3   62.69    6.80
  -5  -2  -3   18.10    3.50
   5  -2   3   15.90    3.10
   5  -2   3   14.80    2.80
   5  -2   3   14.00    3.50
  -5  -2  -3   23.20    4.40
   5  -2   3   12.40    2.30
  -5   2  -3   12.40    4.70
   5   2   3   18.00    3.70
   5   2   3   18.00    4.80
   6  -2   3   17.20    3.00
  -6  -2  -3   18.90    4.10
   6  -2   3   20.00    4.20
   6  -2   3   17.60    2.80
   6   2   3   23.50    5.00
  -6   2  -3   19.60    6.20
  -6   2  -3   23.30    5.80
   6   2   3   28.20    5.30
   7  -2   3    4.10    4.00
  -7  -2  -3    4.50    3.20
  -7  -2  -3    7.50    4.20
   7  -2   3   -4.70    4.30
   7  -2   3    1.90    1.80
   7  -2   3    5.20    3.00
   7   2   3    3.30    4.00
   7   2   3    3.20    3.90
   8  -2   3   -4.60    5.30
   8  -2   3    3.40    2.70
   8  -2   3   12.00    3.80
   8  -2   3    5.20    4.90
  -8   2  -3   12.40    5.80
   8   2   3    3.60    4.80
   9  -2   3    3.10    5.60
   9  -2   3  -10.40    6.70
  -9  -2  -3   16.50    7.60
   9   2   3   -4.40    5.40
  -9   2  -3    7.20    6.70
  10  -2   3   16.30    6.20
  10  -2   3    0.10    6.40
  10  -2   3    0.60    8.70
 -10   2  -3   13.60    9.30
  10   2   3   12.00    7.40
   9  -3  -3   18.60    6.60
   9  -3  -3   12.20    2.80
  -9   3   3    7.10   10.60
   9   3  -3    1.30    5.10
   8  -3  -3    6.30    5.30
  -8   3   3   -4.70    8.90
   7  -3  -3   12.10    4.80
   7  -3  -3   12.70    3.70
   7  -3  -3    2.70    3.50
  -7  -3   3   18.60    4.50
   7  -3  -3    7.30    1.90
   7   3  -3    3.90    3.90
   7   3  -3   13.00    6.60
  -7   3   3    6.70    8.10
   6  -3  -3   48.20    3.50
   6  -3  -3   48.90    5.00
  -6  -3   3   39.50    6.40
   6  -3  -3   48.70    6.90
   6  -3  -3   51.19    5.80
  -6  -3   3   62.19    9.00
   6   3  -3   48.90    6.30
  -6   3   3   61.09   11.20
  -6   3   3   40.10    7.80
   6   3  -3   49.20   10.70
   5  -3  -3   61.79    4.70
   5  -3  -3   59.89    3.80
  -5  -3   3   52.69    6.20
  -5  -3   3   59.89    8.10
   5  -3  -3   57.99    6.00
  -5   3   3   55.79    8.10
   5   3  -3   74.49    6.70
   5   3  -3   65.29   11.00
  -5   3   3   70.99    8.50
   4  -3  -3   21.00    2.30
   4  -3  -3   23.40    3.70
  -4  -3   3   21.40    4.30
   4  -3  -3   18.70    5.10
   4  -3  -3   15.50    2.40
   4   3  -3   22.20    3.80
  -4   3   3   22.10    5.20
   4   3  -3   21.50    6.20
  -3  -3   3   57.39    4.40
   3  -3  -3   81.49    4.10
   3  -3  -3   58.99    4.00
   3  -3  -3   60.39    7.00
  -3  -3   3   77.89    5.90
  -3  -3   3   73.79    5.00
  -3  -3   3   65.99    6.00
   3  -3  -3   72.99    5.70
  -3   3   3   69.29    5.70
  -3   3   3   69.19    7.80
   3   3  -3   60.79    8.40
   3   3  -3   76.29    5.60
  -2  -3   3   58.39    4.00
  -2  -3   3   50.89    5.20
   2  -3  -3   53.29    5.70
  -2  -3   3   57.09    4.60
  -2  -3   3   60.89    4.60
   2  -3  -3   66.99    4.90
   2  -3  -3   58.49    3.80
   2   3  -3   63.39    7.50
  -2   3   3   54.39    6.70
   2   3  -3   62.49    4.60
  -2   3   3   53.19    3.10
   1  -3  -3   97.29    5.80
  -1  -3   3   92.39    6.90
  -1  -3   3   88.09    6.60
  -1  -3   3  101.49    6.00
   1  -3  -3   95.39    7.40
  -1   3   3   93.59    6.50
  -1   3   3  101.49    8.10
   1   3  -3  104.99    8.10
  -1   3   3  101.79    5.00
  -1   3   3  103.69    6.90
   1   3  -3  114.19    6.90
   1   3  -3  106.69    6.00
   0  -3  -3  166.88   11.00
   0  -3   3  167.18    9.90
   0  -3  -3  182.18    9.40
   0  -3   3  156.78   11.20
   0   3  -3  184.08    9.10
   0   3   3  177.58   10.30
   0   3   3  162.08   11.40
   0   3  -3  184.68   10.60
   0   3   3  181.38    8.80
   0   3  -3  178.58    9.70
   0   3   3  186.18   10.60
   0   3  -3  192.98   11.20
   1  -3   3  131.19    9.90
   1  -3   3  143.49    8.20
  -1  -3  -3  147.29    8.90
  -1  -3  -3  140.99    8.30
   1   3   3  145.59    9.40
   1   3   3  139.29    9.00
  -1   3  -3  150.88    7.70
   1   3   3  150.98    8.00
  -1   3  -3  154.28   10.10
  -1   3  -3  148.19    8.50
  -1   3  -3  155.68    8.10
   2  -3   3    3.10    1.90
   2  -3   3    4.80    3.00
  -2  -3  -3    2.90    2.40
  -2  -3  -3    3.80    1.50
  -2   3  -3    4.00    1.30
   2   3   3    3.50    2.40
   2   3   3    7.60    2.70
  -2   3  -3    5.70    1.50
  -2   3  -3    6.40    3.20
  -2   3  -3    4.50    1.20
  -3  -3  -3   77.59    5.80
   3  -3   3   61.89    6.80
   3  -3   3   68.09    4.90
   3  -3   3   79.69    4.80
  -3  -3  -3   77.69    6.00
   3   3   3   77.59    6.40
   3   3   3   77.19    7.20
  -3   3  -3   76.99    7.50
  -3   3  -3   80.49    6.80
   4  -3   3    1.90    1.60
   4  -3   3    4.70    1.80
  -4  -3  -3    3.40    3.20
   4  -3   3   -0.70    2.90
  -4  -3  -3    5.40    2.20
   4   3   3    2.40    3.30
  -4   3  -3   -0.40    4.50
  -4   3  -3    2.40    2.90
   4   3   3    9.00    4.00
   5  -3   3   15.80    3.90
  -5  -3  -3   19.30    4.40
   5  -3   3   12.30    2.30
  -5  -3  -3   26.10    5.00
   5  -3   3   16.00    2.90
   5   3   3   18.10    4.30
  -5   3  -3   27.30    6.10
   5   3   3   25.10    6.20
  -5   3  -3    9.10    5.80
   6  -3   3   23.50    4.50
   6  -3   3   19.60    5.00
  -6  -3  -3   28.90    6.20
  -6  -3  -3   23.70    5.20
   6  -3   3   29.80    4.50
   6  -3   3   25.80    3.50
   6   3   3   30.90    5.50
  -6   3  -3   29.40    6.70
  -6   3  -3   29.10    6.80
   7  -3   3    3.90    3.00
  -7  -3  -3   -0.70    4.20
   7  -3   3    1.90    2.20
   7  -3   3   -2.00    3.00
   7  -3   3   -0.30    4.60
  -7   3  -3    4.70    7.10
   7   3   3   -0.70    4.60
   8  -3   3    3.80    4.00
   8  -3   3   -7.80    5.70
   8  -3   3    2.90    3.70
   8   3   3   -8.00    5.20
  -8   3  -3    3.00    7.60
   9  -3   3    3.00    7.00
   9  -3   3   13.90    5.70
   9   3   3    2.90    6.70
  -9   3  -3    9.00    8.40
   8  -4  -3   29.10    7.10
   8   4  -3   26.90    6.00
  -8   4   3   40.30   12.90
   7  -4  -3    9.20    4.00
  -7  -4   3   10.20    5.60
   7  -4  -3    8.90    5.60
   6  -4  -3    4.90    5.30
   6  -4  -3    9.00    2.50
   6   4  -3   12.10    8.70
  -6   4   3   -2.20    6.60
   5  -4  -3   44.90    8.30
   5  -4  -3   59.49    4.90
   5  -4  -3   55.69    4.60
  -5  -4   3   38.90    7.40
  -5  -4   3   67.29    7.40
  -5   4   3   54.99    8.60
   5   4  -3   81.69   13.40
  -5   4   3   49.10    9.80
   5   4  -3   52.29    6.20
   4  -4  -3   13.70    2.70
   4  -4  -3    9.70    4.50
  -4  -4   3   10.60    4.50
   4  -4  -3   11.50    2.70
   4  -4  -3    7.40    3.90
  -4  -4   3   14.90    3.70
   4   4  -3   16.90    7.40
   4   4  -3   16.10    3.70
  -4   4   3   12.00    5.80
  -4   4   3   12.10    4.00
   3  -4  -3   78.49    5.80
   3  -4  -3   89.39    4.90
  -3  -4   3   72.39    7.70
  -3  -4   3   76.59    6.40
   3  -4  -3   70.39    8.50
   3  -4  -3   83.29    7.80
  -3  -4   3   83.79    5.50
  -3  -4   3   83.89    6.60
   3   4  -3   94.09   11.90
  -3   4   3   87.49    7.70
   3   4  -3   85.29    6.50
  -3   4   3   71.79    9.60
  -2  -4   3    8.80    2.10
   2  -4  -3   12.90    3.00
  -2  -4   3    9.50    2.20
   2  -4  -3    7.70    3.60
  -2  -4   3    4.80    2.70
  -2  -4   3    8.20    4.20
   2   4  -3    9.80    2.70
  -2   4   3    8.30    1.20
   2   4  -3    9.50    6.00
  -2   4   3    6.90    2.50
  -2   4   3    8.00    5.00
   1  -4  -3    5.00    2.80
  -1  -4   3    4.00    2.70
   1  -4  -3    0.50    2.80
  -1  -4   3    6.60    3.70
   1   4  -3    4.50    1.90
  -1   4   3    4.40    4.30
  -1   4   3    4.10    2.60
   1   4  -3    4.80    2.30
   1   4  -3    1.20    4.80
  -1   4   3    3.40    1.00
  -1   4   3    2.90    3.30
   1   4  -3    1.30    2.50
   0  -4   3    7.60    3.50
   0  -4   3    6.50    3.30
   0  -4  -3    9.90    3.20
   0   4   3   13.40    3.40
   0   4  -3    6.70    1.80
   0   4  -3   10.60    2.00
   0   4  -3   11.00    3.10
   0   4   3   11.20    3.80
   0   4   3   11.30    3.40
   0   4   3    9.80    1.70
   0   4  -3    2.50    4.00
   1  -4   3   18.00    3.70
  -1  -4  -3   12.00    2.50
  -1  -4  -3   14.50    3.60
   1  -4   3   15.30    4.40
   1   4   3   11.40    3.80
  -1   4  -3   15.30    2.30
  -1   4  -3   11.30    3.50
   1   4   3   12.70    3.30
  -1   4  -3   13.10    4.00
   1   4   3   16.00    3.40
   1   4   3   15.60    2.60
  -1   4  -3   16.80    3.30
   2  -4   3   12.80    4.00
   2  -4   3   16.20    3.60
  -2  -4  -3   26.60    4.80
  -2   4  -3   13.40    2.40
  -2   4  -3   17.50    2.50
   2   4   3   16.40    3.40
   2   4   3   15.90    4.80
  -2   4  -3   14.30    3.10
  -2   4  -3   22.00    4.60
  -3  -4  -3   91.29    7.00
   3  -4   3   86.99    6.80
   3  -4   3   72.09    8.40
  -3   4  -3   83.49    6.10
  -3   4  -3   93.69    5.70
   3   4   3  103.59   10.00
  -3   4  -3  104.69    7.90
  -3   4  -3   90.19    9.50
   3   4   3   90.79    7.30
  -4  -4  -3   55.19    5.50
   4  -4   3   37.10    6.90
   4  -4   3   46.20    5.20
  -4  -4  -3   38.90    6.70
  -4   4  -3   42.70    3.90
  -4   4  -3   39.70    3.90
  -4   4  -3   43.20    9.30
  -4   4  -3   40.90    7.70
   4   4   3   39.40    6.30
  -5  -4  -3   34.30    6.00
  -5  -4  -3   17.20    5.90
   5  -4   3   23.90    3.90
   5  -4   3   13.00    5.00
  -5   4  -3   23.30    7.30
   5   4   3   18.90    5.40
  -6  -4  -3    4.90    4.00
   6  -4   3    6.20    5.10
   6  -4   3   10.10    3.80
  -6  -4  -3   13.80    5.20
  -6   4  -3    1.80    7.80
   6   4   3    5.40    4.90
   7  -4   3    6.20    4.10
   7  -4   3   -3.00    5.90
  -7  -4  -3   17.40    5.40
   7   4   3   -4.70    5.30
  -7   4  -3   15.90    9.00
   8  -4   3   -4.30    4.80
   8   4   3    7.30    7.10
   6  -5  -3    4.20    6.90
   6   5  -3    3.50    4.70
  -6   5   3   14.30    9.50
   5  -5  -3   11.70    5.90
  -5  -5   3   10.20    4.10
  -5   5   3    4.10    6.30
   5   5  -3    5.40    3.80
   4  -5  -3   15.90    4.60
   4  -5  -3   11.40    2.80
   4  -5  -3   14.20    5.60
  -4  -5   3   14.60    3.60
   4   5  -3   15.60    3.90
  -4   5   3    6.40    3.80
  -4   5   3    8.50    5.00
   4   5  -3   15.80   10.80
  -3  -5   3    7.20    2.70
   3  -5  -3    4.40    5.10
  -3  -5   3    3.90    3.50
  -3  -5   3    4.60    5.60
   3  -5  -3    7.70    2.20
   3  -5  -3    5.70    4.20
  -3   5   3   10.00    6.90
   3   5  -3    9.30    9.40
   3   5  -3    2.10    2.80
  -3   5   3    6.80    3.60
  -3   5   3   -2.70    4.30
   2  -5  -3   12.40    4.30
   2  -5  -3    5.80    4.80
  -2  -5   3    4.10    5.60
  -2  -5   3    6.80    3.00
  -2   5   3    8.80    1.60
  -2   5   3    7.10    4.00
   2   5  -3    6.80    4.70
   2   5  -3   22.60    8.80
  -2   5   3   20.90    6.40
  -2   5   3   10.00    6.20
  -1  -5   3    2.00    4.00
   1  -5  -3   -2.90    3.90
  -1  -5   3   -4.70    5.00
   1  -5  -3    5.70    3.80
  -1   5   3   -1.00    5.00
  -1   5   3   -0.40    5.50
   1   5  -3    0.80    3.40
  -1   5   3    1.80    1.20
   1   5  -3    4.60    7.30
   1   5  -3    1.90    2.00
  -1   5   3    2.80    4.10
   0  -5   3   27.10    6.50
   0  -5   3   37.30    6.50
   0   5  -3   41.90    7.60
   0   5  -3   44.90    4.20
   0   5   3   36.00    3.40
   0   5  -3   38.60    6.50
   0   5   3   34.00    6.20
   0   5   3   40.50    7.00
   1  -5   3    5.00    4.90
   1  -5   3    0.30    4.10
  -1  -5  -3   -6.30    4.20
  -1   5  -3   -0.80    4.80
   1   5   3    2.80    3.50
   1   5   3    4.40    2.30
  -1   5  -3   10.70    3.20
   1   5   3    7.80    5.40
  -1   5  -3    1.10    1.70
   2  -5   3   17.70    5.90
   2  -5   3   16.40    5.50
  -2   5  -3   21.20    3.40
   2   5   3   38.00    8.30
  -2   5  -3   15.40    3.50
  -2   5  -3   20.70    5.40
  -2   5  -3   26.20    7.20
   2   5   3   23.90    4.50
   3  -5   3    7.30    5.10
  -3  -5  -3   -4.30    5.30
   3  -5   3    1.30    4.90
  -3   5  -3    2.00    4.60
   3   5   3   11.10    3.80
   3   5   3   -6.30    6.80
  -4  -5  -3    4.10    6.00
   4  -5   3   11.30    5.70
  -4  -5  -3    6.50    3.70
   4  -5   3    5.70    4.90
  -4   5  -3    6.60    2.60
  -4   5  -3    1.00    7.50
   4   5   3    6.90    4.30
  -5  -5  -3    6.20    4.10
   5  -5   3    3.20    5.30
   5  -5   3   14.10    5.90
   5  -5   3   14.20    4.10
   5   5   3   -5.10    4.80
  -6  -5  -3    9.30    4.70
   6   5   3    5.60    5.80
   2  -6  -3   -3.10    6.30
   2   6  -3   -3.50    3.00
  -1  -6   3   12.40    5.90
   1  -6  -3    1.20    5.40
  -1   6   3    3.90    8.70
   1   6  -3    9.40    3.30
   0  -6   3    3.90    5.60
   0   6   3   15.20    8.60
   0   6  -3   -8.80    6.00
 -10   0   4    1.50    8.70
  10   0  -4   19.30    6.20
  -9   0   4   11.90    5.70
  -9   0   4   -1.00    6.00
   9   0  -4    5.70    4.80
   9   0  -4    1.20    3.40
  -9   0   4   -2.70    3.40
   8   0  -4    4.10    3.30
  -8   0   4   -1.40    5.30
  -8   0   4    2.80    5.20
   8   0  -4    0.80    3.60
  -8   0   4    8.40    3.00
  -7   0   4    2.70    4.10
   7   0  -4   -1.60    3.10
   7   0  -4    1.00    3.10
   7   0  -4   -0.80    2.40
  -7   0   4   -4.00    5.10
  -7   0   4    0.40    2.30
  -6   0   4  223.38   15.70
   6   0  -4  242.58   15.10
   6   0  -4  247.48   14.90
  -6   0   4  237.18   16.50
  -6   0   4  226.98   13.10
   6   0  -4  261.57   13.70
   5   0  -4   49.40    5.70
  -5   0   4   38.20    5.20
   5   0  -4   45.40    4.30
  -5   0   4   55.89    7.40
  -5   0   4   48.30    4.20
   5   0  -4   50.09    4.70
   4   0  -4  601.34   32.00
   4   0  -4  644.54   29.20
  -4   0   4  597.44   32.40
  -4   0   4  585.94   29.00
   4   0  -4  627.24   33.30
  -4   0   4  556.94   33.40
   3   0  -4    9.80    1.90
  -3   0   4    8.60    2.80
   3   0  -4   12.40    2.40
  -3   0   4    8.80    2.10
  -3   0   4    8.40    1.70
   3   0  -4    7.90    1.80
  -2   0   4 1314.17   74.79
  -2   0   4 1441.26   71.59
   2   0  -4 1466.15   65.19
   2   0  -4 1407.26   71.39
  -2   0   4 1357.86   65.19
   2   0  -4 1443.06   74.69
  -1   0   4   15.60    1.70
   1   0  -4   13.40    1.40
   1   0  -4   17.00    1.60
  -1   0   4   15.90    1.70
   1   0  -4   19.40    1.60
   0   0   4 8962.80  411.86
   0   0  -4 9178.58  411.96
   0   0  -4 9092.09  451.45
   0   0   4 8998.20  472.15
   0   0   4 8483.45  451.35
   1   0   4    2.50    0.80
   1   0   4    1.20    0.60
   1   0   4    1.60    0.70
   1   0   4    0.40    0.40
  -1   0  -4    1.10    0.50
  -1   0  -4    1.30    0.50
   2   0   4  101.39    5.50
   2   0   4   98.59    6.40
   2   0   4   96.09    6.20
  -2   0  -4  104.19    5.90
   2   0   4  104.79    5.40
  -2   0  -4  115.39    6.40
   3   0   4   95.49    6.50
  -3   0  -4  100.89    6.30
  -3   0  -4  105.69    5.50
  -3   0  -4   94.59    6.10
   3   0   4   92.99    6.70
   3   0   4   93.69    5.60
   4   0   4   44.60    4.30
   4   0   4   46.10    3.70
  -4   0  -4   47.40    3.60
  -4   0  -4   48.90    4.40
  -4   0  -4   48.10    4.20
   4   0   4   45.50    5.70
  -5   0  -4    5.10    1.90
   5   0   4    6.90    2.60
  -5   0  -4    6.00    2.90
   5   0   4    6.40    2.00
  -5   0  -4    8.60    2.70
   6   0   4  154.88   11.10
  -6   0  -4  162.38   11.00
   6   0   4  157.98    9.90
   6   0   4  155.38   13.00
  -6   0  -4  166.38   11.70
  -6   0  -4  151.88    9.20
   7   0   4   18.80    4.40
  -7   0  -4   14.80    4.50
   7   0   4   20.20    3.90
  -7   0  -4   19.50    5.60
   7   0   4   13.00    6.70
   8   0   4  142.99   10.40
  -8   0  -4  149.79    9.50
   8   0   4  139.59   14.70
   8   0   4  122.89   11.40
  -8   0  -4  161.78   11.90
   9   0   4   -1.00    4.80
  -9   0  -4    5.50    6.30
  -9   0  -4   -0.30    5.80
   9   0   4    2.00    8.00
   9   0   4   11.70    4.70
  10   0   4   -0.10    6.60
 -10   0  -4    5.10    7.40
 -10   0  -4    9.60    7.40
  10   0   4    9.50    5.70
  10  -1  -4    9.90    5.70
 -10  -1   4    0.70    7.40
  10  -1  -4    9.00    5.40
 -10   1   4   14.40    8.30
   9  -1  -4   78.29    8.40
  -9  -1   4   64.79   10.30
   9  -1  -4   74.09    8.50
  -9   1   4   60.49    6.50
  -9   1   4   56.99   11.10
   9   1  -4   66.79    6.30
   9   1  -4   58.39    8.10
  -9   1   4   62.69   12.00
  -8  -1   4   25.90    6.30
   8  -1  -4   38.40    5.90
   8  -1  -4   20.70    4.70
  -8  -1   4   18.90    4.60
   8   1  -4   28.40    6.70
  -8   1   4   26.90    6.90
   8   1  -4   29.30    5.30
   8   1  -4   23.30    3.80
  -8   1   4   25.60    4.60
  -8   1   4   29.30    8.00
  -7  -1   4  117.89    8.20
  -7  -1   4  125.79   12.30
   7  -1  -4   98.49    8.60
   7  -1  -4  118.09    9.30
  -7  -1   4  110.59    9.80
   7  -1  -4  122.59    8.50
  -7   1   4  112.99    7.20
   7   1  -4  110.59   10.80
  -7   1   4   94.49   10.40
   7   1  -4  122.39    8.90
   7   1  -4  114.69    7.80
  -7   1   4  119.19   13.80
  -6  -1   4    2.30    2.10
   6  -1  -4    0.10    2.10
   6  -1  -4    3.00    2.50
  -6  -1   4   -1.60    2.80
   6  -1  -4    2.80    2.60
  -6  -1   4   -0.30    4.70
  -6   1   4    3.20    5.00
   6   1  -4    2.00    3.40
   6   1  -4    0.30    1.20
   6   1  -4   -0.50    2.60
  -6   1   4   -0.90    3.10
   5  -1  -4   49.40    4.10
   5  -1  -4   41.40    4.30
   5  -1  -4   47.70    4.70
  -5  -1   4   50.89    7.20
  -5  -1   4   41.60    4.80
  -5  -1   4   41.80    4.40
  -5   1   4   38.90    3.70
   5   1  -4   49.90    4.90
   5   1  -4   51.99    3.80
  -5   1   4   51.59    7.30
  -5   1   4   42.90    5.50
   5   1  -4   50.19    6.20
  -4  -1   4    9.70    2.40
   4  -1  -4   10.70    2.00
  -4  -1   4    9.40    3.90
  -4  -1   4    7.60    2.10
   4  -1  -4    9.30    1.90
   4  -1  -4   11.30    2.50
  -4   1   4   10.10    1.70
  -4   1   4    8.40    2.80
   4   1  -4   11.40    2.60
  -4   1   4   10.50    3.20
   4   1  -4    9.00    3.10
   3  -1  -4  682.53   34.80
   3  -1  -4  701.63   31.60
  -3  -1   4  704.73   35.70
   3  -1  -4  672.53   37.10
  -3  -1   4  672.43   36.30
  -3  -1   4  651.03   32.20
  -3   1   4  625.14   37.20
  -3   1   4  660.53   31.40
   2  -1  -4   42.40    3.30
  -2  -1   4   45.30    3.50
   2  -1  -4   41.50    3.60
   2  -1  -4   48.20    2.60
  -2  -1   4   44.80    3.10
  -2  -1   4   46.90    5.20
   2   1  -4   41.50    2.90
   2   1  -4   45.10    4.40
   2   1  -4   48.90    3.40
  -2   1   4   45.90    3.40
  -2   1   4   38.60    3.90
  -2   1   4   43.40    2.50
   1  -1  -4  983.60   51.09
  -1  -1   4  966.20   48.70
  -1  -1   4  939.61   44.50
  -1  -1   4  983.50   50.59
   1  -1  -4  943.61   48.60
   1   1  -4  960.60   48.50
  -1   1   4  929.01   48.60
   1   1  -4 1023.90   44.40
  -1   1   4  877.61   51.09
   1   1  -4  913.11   50.59
   0  -1  -4   34.90    2.50
   0  -1   4   31.70    2.60
   0  -1  -4   33.50    2.60
   0  -1   4   37.90    2.90
   0  -1   4   32.20    2.40
   0   1   4   32.10    2.40
   0   1   4   30.00    2.60
   0   1  -4   38.40    2.00
   0   1   4   33.90    1.80
   0   1  -4   33.60    2.20
   1  -1   4  376.96   21.70
  -1  -1  -4  406.66   20.50
  -1  -1  -4  394.06   18.50
   1  -1   4  377.06   18.50
   1   1   4  394.36   20.60
  -1   1  -4  416.76   21.70
  -1   1  -4  389.36   18.50
   1   1   4  392.76   18.70
   1   1   4  380.36   21.10
   2  -1   4   89.19    6.40
  -2  -1  -4   94.49    5.20
   2  -1   4   93.09    5.90
  -2  -1  -4   90.29    5.70
   2  -1   4   94.89    5.00
   2   1   4   93.89    5.50
   2   1   4   99.19    5.30
  -2   1  -4   88.29    4.90
   2   1   4   91.59    5.40
   2   1   4   95.19    6.10
  -2   1  -4   93.79    6.30
   3  -1   4  648.44   31.00
  -3  -1  -4  682.83   34.20
   3  -1   4  640.64   34.10
   3  -1   4  611.74   36.20
  -3  -1  -4  690.83   31.30
   3  -1   4  689.83   30.80
   3   1   4  660.33   31.50
  -3   1  -4  658.43   33.80
  -3   1  -4  700.73   36.30
   3   1   4  629.44   34.80
   3   1   4  621.94   34.50
   3   1   4  614.44   35.20
   4  -1   4   28.70    2.50
  -4  -1  -4   30.40    2.70
   4  -1   4   26.40    5.40
  -4  -1  -4   25.50    2.90
  -4  -1  -4   29.30    3.50
   4  -1   4   24.50    3.70
  -4   1  -4   27.10    3.90
   4   1   4   24.90    3.00
  -4   1  -4   30.30    4.20
   4   1   4   38.30    5.30
   4   1   4   28.60    3.40
  -5  -1  -4  223.38   13.30
   5  -1   4  206.18   11.60
   5  -1   4  211.18   11.10
   5  -1   4  206.88   13.90
  -5  -1  -4  221.68   12.40
  -5  -1  -4  214.38   11.70
   5   1   4  198.38   12.90
   5   1   4  189.28   11.90
  -5   1  -4  227.18   14.20
   5   1   4  226.18   14.20
  -5   1  -4  223.38   13.40
   6  -1   4    6.30    3.70
   6  -1   4   13.20    2.90
  -6  -1  -4    7.60    3.70
  -6  -1  -4   12.80    2.80
   6  -1   4    9.50    2.00
   6  -1   4    4.90    4.70
  -6  -1  -4    8.10    2.50
   6   1   4   13.00    3.20
   6   1   4   15.50    5.10
  -6   1  -4   13.60    4.40
  -6   1  -4   12.20    4.50
   7  -1   4   31.50    3.80
  -7  -1  -4   40.70    6.50
   7  -1   4   29.50    6.90
   7  -1   4   30.10    6.20
   7  -1   4   34.80    4.90
  -7  -1  -4   31.60    4.70
  -7  -1  -4   36.90    4.80
  -7   1  -4   39.60    7.80
  -7   1  -4   46.60    8.20
   7   1   4   24.80    5.10
   7   1   4   31.80    6.00
   7   1   4   43.90    9.30
   8  -1   4    0.80    3.40
  -8  -1  -4    6.40    5.00
   8  -1   4    8.50    4.60
   8  -1   4    1.40    6.40
   8  -1   4    9.50    3.10
  -8  -1  -4    3.70    3.70
  -8   1  -4    9.20    5.70
   8   1   4   10.20    6.40
  -8   1  -4   12.60    5.50
   8   1   4    9.50    3.60
   9  -1   4   -3.00    8.10
  -9  -1  -4    7.30    6.20
  -9  -1  -4    6.60    4.50
   9  -1   4   11.40    4.90
   9  -1   4   -3.60    5.40
   9   1   4    0.00    4.10
   9   1   4   20.00    5.90
  -9   1  -4   19.10    7.00
  10  -1   4    0.70    6.50
 -10  -1  -4   13.30    7.70
  10   1   4    2.40    6.40
 -10   1  -4   15.40    8.80
  10   1   4    1.40    4.70
  10   2  -4   62.19    7.30
   9  -2  -4   15.00    5.70
  -9  -2   4   14.80    6.70
   9  -2  -4   16.50    5.50
   9   2  -4   11.10    5.20
  -9   2   4   10.50    3.50
  -9   2   4    8.30    8.70
   8  -2  -4    1.00    3.50
  -8  -2   4    4.40    4.90
   8  -2  -4    2.50    4.00
   8  -2  -4    5.30    4.20
  -8  -2   4    8.40    3.60
  -8   2   4    3.00    5.30
  -8   2   4    3.40    7.50
   8   2  -4   -1.40    4.10
   8   2  -4   -3.50    3.60
  -8   2   4    1.00    2.40
  -7  -2   4    4.90    4.20
   7  -2  -4    7.30    3.50
  -7  -2   4    8.30    3.20
   7  -2  -4    4.40    3.00
  -7   2   4   14.30    7.90
  -7   2   4    6.50    4.60
   7   2  -4   13.60    5.70
   7   2  -4    4.00    3.50
  -7   2   4    8.20    2.30
   6  -2  -4   41.10    4.90
  -6  -2   4   51.69    8.90
  -6  -2   4   40.00    5.40
   6  -2  -4   41.40    5.70
   6  -2  -4   45.10    4.70
   6   2  -4   42.70    5.60
   6   2  -4   51.89    3.90
  -6   2   4   51.19    8.10
   6   2  -4   46.20    8.20
  -6   2   4   35.40    6.80
  -6   2   4   38.50    3.60
  -5  -2   4   35.10    4.30
   5  -2  -4   41.90    4.30
   5  -2  -4   43.90    5.30
  -5  -2   4   56.59    7.70
   5  -2  -4   40.60    4.00
  -5  -2   4   44.70    5.00
  -5   2   4   46.10    3.30
  -5   2   4   61.09    7.80
  -5   2   4   35.20    6.20
   5   2  -4   47.40    5.20
   5   2  -4   45.80    3.20
   5   2  -4   45.00    7.80
  -4  -2   4   80.59    7.40
   4  -2  -4   66.79    5.40
   4  -2  -4   85.19    4.80
   4  -2  -4   73.79    6.60
  -4  -2   4   75.59    5.30
  -4  -2   4   70.99    5.90
   4  -2  -4   76.09    4.10
  -4   2   4   62.89    6.60
  -4   2   4   78.79    6.40
   4   2  -4   82.09    8.40
   4   2  -4   77.89    4.70
  -3  -2   4   16.00    2.90
   3  -2  -4   14.10    2.90
  -3  -2   4   12.80    2.00
  -3  -2   4   18.50    3.50
   3  -2  -4   14.70    1.10
   3  -2  -4   19.40    1.70
   3  -2  -4   17.10    2.50
  -3   2   4   13.10    2.40
   3   2  -4   22.20    4.40
   3   2  -4   17.00    2.80
  -2  -2   4  528.75   26.10
  -2  -2   4  443.06   23.60
  -2  -2   4  514.75   26.50
   2  -2  -4  467.05   27.40
   2  -2  -4  483.95   25.50
  -2  -2   4  492.65   25.70
  -2   2   4  481.85   25.50
   2   2  -4  500.35   23.50
  -2   2   4  429.06   27.40
   2   2  -4  496.05   26.30
  -1  -2   4   60.39    4.30
  -1  -2   4   55.09    4.00
   1  -2  -4   59.99    4.60
  -1  -2   4   56.09    4.20
   1  -2  -4   62.49    4.10
  -1  -2   4   58.79    3.90
  -1   2   4   53.99    5.20
   1   2  -4   60.39    3.80
  -1   2   4   58.19    4.20
   1   2  -4   57.59    5.40
   0  -2   4   81.19    5.00
   0  -2  -4   89.99    5.60
   0  -2  -4   89.99    4.50
   0  -2   4   77.49    5.80
   0   2   4   71.39    5.90
   0   2  -4   94.49    5.80
   0   2  -4   83.59    4.60
   0   2  -4   89.99    5.60
   0   2   4   80.19    5.20
   0   2   4   85.49    5.40
  -1  -2  -4   91.29    5.10
  -1  -2  -4   87.79    4.90
   1  -2   4   73.19    6.00
   1  -2   4   80.49    4.80
   1   2   4   74.89    5.60
  -1   2  -4   93.69    6.20
  -1   2  -4   86.09    4.60
   1   2   4   87.79    5.90
   1   2   4   87.39    5.00
   1   2   4   83.89    5.50
  -2  -2  -4  433.56   22.30
  -2  -2  -4  440.46   20.60
   2  -2   4  427.26   20.10
   2  -2   4  382.46   24.00
   2   2   4  420.16   20.60
   2   2   4  403.36   22.90
  -2   2  -4  428.66   20.00
  -3  -2  -4    3.80    1.50
   3  -2   4    3.20    1.00
   3  -2   4    7.00    2.40
  -3  -2  -4    2.70    1.80
  -3   2  -4    3.90    1.10
  -3   2  -4    3.30    2.80
   3   2   4    4.60    2.10
   3   2   4    5.50    2.60
  -3   2  -4    1.20    2.00
   4  -2   4   59.69    4.60
   4  -2   4   46.70    5.50
   4  -2   4   56.79    3.70
  -4  -2  -4   51.59    4.80
  -4  -2  -4   60.29    5.00
   4  -2   4   58.79    4.10
  -4   2  -4   53.99    6.10
   4   2   4   53.19    6.60
   4   2   4   54.19    5.10
  -4   2  -4   44.90    5.40
  -5  -2  -4   34.70    4.30
   5  -2   4   31.50    3.10
  -5  -2  -4   38.10    5.00
   5  -2   4   27.90    4.90
   5  -2   4   34.50    5.30
  -5   2  -4   25.20    4.70
  -5   2  -4   33.80    6.00
   5   2   4   30.90    6.60
   5   2   4   27.50    4.80
  -6  -2  -4    5.10    2.40
   6  -2   4   -0.10    1.60
   6  -2   4   -1.30    3.90
   6  -2   4    1.40    3.20
  -6  -2  -4    4.10    3.30
  -6   2  -4   -1.30    4.00
   6   2   4    7.60    4.00
  -6   2  -4   -1.60    4.10
   7  -2   4    1.40    2.00
   7  -2   4   -3.00    3.60
  -7  -2  -4    3.30    3.10
   7  -2   4    2.20    5.00
  -7  -2  -4    7.70    4.00
   7   2   4   10.80    4.20
  -7   2  -4    0.30    5.30
   7   2   4    5.80    4.00
   8  -2   4   -0.10    5.20
   8  -2   4    3.50    3.60
   8  -2   4   -0.40    6.40
  -8   2  -4    9.80    6.30
   8   2   4    4.90    4.90
   9  -2   4   -4.20    7.90
   9   2   4   -2.30    6.10
  -9   2  -4   30.10    8.80
   9  -3  -4    7.50    6.10
   9  -3  -4   17.90    6.00
  -9   3   4    2.80   10.50
   8  -3  -4    3.40    2.00
   8  -3  -4    9.40    5.40
   8  -3  -4   -0.80    3.80
   8  -3  -4   -2.80    4.40
   8   3  -4   -6.00    3.80
  -8   3   4    3.10    8.40
   7  -3  -4   14.10    2.60
   7  -3  -4   18.60    4.90
   7  -3  -4    6.70    4.00
   7   3  -4   20.90    7.50
   7   3  -4   16.20    4.50
  -7   3   4   11.50    7.50
   6  -3  -4   46.30    5.00
  -6  -3   4   47.20    6.70
   6  -3  -4   56.89    7.10
   6  -3  -4   48.30    3.40
   6  -3  -4   53.99    5.80
   6   3  -4   55.29    6.20
   6   3  -4   59.39   11.50
  -6   3   4   44.30    8.00
  -6   3   4   53.79   10.60
   5  -3  -4   94.49    7.60
  -5  -3   4   78.39    7.60
  -5  -3   4  107.79    9.70
   5  -3  -4  106.49    6.20
  -5  -3   4   86.29    6.70
   5  -3  -4   95.79    5.20
  -5  -3   4  103.79    6.30
  -5   3   4   78.39    9.30
  -5   3   4  106.29    9.70
   5   3  -4  101.09   12.30
   4  -3  -4   16.30    2.30
   4  -3  -4   19.80    2.00
  -4  -3   4   12.90    2.40
  -4  -3   4   16.70    2.70
  -4  -3   4   17.10    4.40
   4  -3  -4   17.40    4.20
   4  -3  -4   22.70    3.90
  -4  -3   4   14.60    3.70
   4   3  -4   20.30    6.50
  -4   3   4   11.70    4.40
  -4   3   4   19.20    3.80
   4   3  -4   22.20    4.00
  -3  -3   4   33.60    3.30
  -3  -3   4   27.70    4.80
  -3  -3   4   34.10    4.70
   3  -3  -4   36.70    2.50
  -3  -3   4   36.50    3.10
   3  -3  -4   36.40    4.90
   3  -3  -4   33.90    2.60
  -3   3   4   28.50    5.90
   3   3  -4   40.70    4.20
  -2  -3   4   39.10    3.20
  -2  -3   4   34.50    3.70
   2  -3  -4   29.40    4.50
  -2  -3   4   39.30    3.80
   2  -3  -4   44.00    4.10
  -2  -3   4   36.00    4.50
  -2   3   4   34.70    5.80
   2   3  -4   41.50    3.80
   2   3  -4   40.00    7.20
  -1  -3   4  174.28    9.90
  -1  -3   4  173.18   11.20
  -1  -3   4  164.78   10.10
   1  -3  -4  172.48   11.50
   1  -3  -4  176.58    9.00
  -1   3   4  175.98    8.50
   1   3  -4  185.28    9.50
  -1   3   4  173.58   10.50
  -1   3   4  192.28   10.90
  -1   3   4  160.48   12.00
   1   3  -4  190.98   11.80
   1   3  -4  209.58   11.10
   0  -3   4   12.80    3.00
   0  -3  -4   18.50    2.50
   0  -3   4   16.00    2.90
   0  -3  -4   12.40    2.70
   0   3   4   13.30    3.40
   0   3  -4    9.40    1.90
   0   3   4   15.80    3.20
   0   3  -4   19.10    3.40
   0   3   4   15.40    1.80
   0   3   4    9.80    2.20
   0   3  -4   12.50    1.90
   0   3  -4   13.60    3.40
  -1  -3  -4  126.99    8.00
   1  -3   4  117.69    9.30
  -1  -3  -4  142.29    7.70
   1  -3   4  130.69    7.70
   1   3   4  127.89    8.40
   1   3   4  134.99    7.50
  -1   3  -4  141.49    7.30
   1   3   4  122.29    8.80
   1   3   4  137.39    9.00
  -1   3  -4  153.88    9.50
  -1   3  -4  135.99    7.20
  -2  -3  -4   22.70    3.80
  -2  -3  -4   25.00    3.30
   2  -3   4   20.40    3.20
   2  -3   4   22.30    4.20
   2   3   4   30.60    4.20
   2   3   4   32.90    4.80
  -2   3  -4   25.90    4.50
   3  -3   4   39.20    5.50
  -3  -3  -4   50.89    4.50
  -3  -3  -4   49.10    4.80
   3  -3   4   45.00    4.10
   3   3   4   57.59    6.10
   3   3   4   44.00    5.20
  -3   3  -4   48.10    6.10
  -3   3  -4   37.70    3.30
   4  -3   4    7.80    2.00
   4  -3   4    3.80    1.90
  -4  -3  -4    7.10    2.90
   4  -3   4    4.40    1.80
   4   3   4    6.80    2.90
   4   3   4    2.60    3.20
  -4   3  -4   -2.40    4.00
   5  -3   4   17.70    2.80
   5  -3   4   14.30    2.60
   5  -3   4   15.40    4.80
  -5  -3  -4   21.70    4.10
  -5  -3  -4   26.40    4.90
  -5   3  -4    9.30    4.10
   5   3   4   16.50    4.50
  -5   3  -4   12.30    5.00
  -6  -3  -4    3.40    4.10
   6  -3   4   -1.40    3.90
   6  -3   4    5.90    3.20
   6  -3   4    6.80    2.90
   6  -3   4    6.30    2.30
   6   3   4   16.50    5.80
  -6   3  -4    5.90    5.60
  -6   3  -4    6.70    5.40
   6   3   4    7.90    4.70
  -7  -3  -4   14.20    4.70
   7  -3   4    0.20    4.40
   7  -3   4    8.40    2.70
   7  -3   4    7.30    3.50
   7  -3   4    5.90    3.30
   7   3   4    7.70    5.30
  -7   3  -4   12.50    6.10
   8  -3   4    5.70    4.00
  -8  -3  -4   11.80    5.90
   8  -3   4   11.40    6.30
   8  -3   4   12.70    4.60
  -8   3  -4   10.00    6.80
   8   3   4    1.00    6.30
   9  -3   4    2.20    5.20
   9   3   4   -7.90    7.50
   8  -4  -4   23.50    7.00
   8  -4  -4   17.70    5.90
  -8   4   4   12.90   11.80
   8   4  -4   10.60    4.80
   7  -4  -4   -8.10    5.80
  -7  -4   4    8.30    5.70
   7  -4  -4    8.90    5.50
   7  -4  -4   -0.10    2.40
   7   4  -4   -1.70    3.80
  -7   4   4   -2.60    8.50
   6  -4  -4   10.50    2.50
  -6  -4   4    9.70    4.80
   6  -4  -4   12.10    5.20
   6   4  -4    9.60    9.00
   6   4  -4    9.00    3.70
  -6   4   4   10.50    6.80
  -5  -4   4   26.60    6.10
   5  -4  -4   33.40    3.80
   5  -4  -4   22.10    3.90
   5  -4  -4   38.70    7.10
   5   4  -4   28.70    5.40
  -5   4   4   40.20    9.40
  -5   4   4   28.90    6.00
   5   4  -4   47.60    9.80
   4  -4  -4   23.70    2.90
  -4  -4   4   20.50    5.30
   4  -4  -4   18.90    4.80
  -4  -4   4   22.60    3.60
   4  -4  -4   17.50    3.50
   4   4  -4   24.80    4.60
  -4   4   4   15.10    6.80
   4   4  -4   21.10    8.00
  -4   4   4   17.10    4.40
  -3  -4   4   10.40    3.10
   3  -4  -4   15.20    4.00
  -3  -4   4    8.40    4.40
  -3  -4   4   18.60    3.30
  -3  -4   4   16.70    2.90
   3  -4  -4   18.60    3.90
   3  -4  -4   13.50    2.80
   3   4  -4   20.10    3.60
  -3   4   4   16.20    6.10
   3   4  -4   23.30    7.60
  -3   4   4   22.60    4.70
  -2  -4   4   19.90    3.30
  -2  -4   4   20.10    4.00
   2  -4  -4   21.30    4.60
   2  -4  -4   26.60    3.70
  -2  -4   4   24.30    3.40
  -2  -4   4   18.90    4.70
  -2   4   4   29.80    6.70
   2   4  -4   27.40    4.00
   2   4  -4   32.10    7.10
  -2   4   4   20.10    4.00
   1  -4  -4   17.80    3.90
   1  -4  -4   18.20    3.00
  -1  -4   4   13.80    4.20
  -1   4   4   16.80    1.50
   1   4  -4   21.30    6.00
   1   4  -4   19.90    3.90
   1   4  -4   17.40    3.10
  -1   4   4   14.70    3.50
  -1   4   4   18.90    5.10
  -1   4   4   27.20    4.80
   0  -4  -4    8.00    2.60
   0  -4   4    6.10    3.50
   0  -4   4    7.80    3.30
   0  -4  -4    5.80    2.70
   0   4  -4    8.10    3.50
   0   4   4    7.00    3.40
   0   4  -4    8.20    1.70
   0   4   4    7.70    1.60
   0   4  -4    7.40    4.80
   0   4   4    5.30    3.80
   0   4  -4    8.20    2.10
   1  -4   4    3.90    3.10
  -1  -4  -4    7.00    2.20
   1  -4   4    5.20    3.40
  -1  -4  -4    2.40    2.90
   1   4   4    5.20    3.50
  -1   4  -4   -1.00    3.60
   1   4   4    5.50    2.10
  -1   4  -4    4.80    1.60
  -1   4  -4    3.70    3.60
  -2  -4  -4   37.70    5.10
   2  -4   4   24.80    4.10
  -2   4  -4   30.80    6.30
  -2   4  -4   32.90    4.00
   2   4   4   26.20    4.60
  -2   4  -4   27.20    3.00
   2   4   4   31.30    5.10
   2   4   4   36.20    7.30
  -3  -4  -4    3.10    4.00
   3  -4   4    7.50    4.20
  -3  -4  -4    8.40    2.80
   3  -4   4    9.80    3.30
  -3   4  -4   14.80    2.80
  -3   4  -4    9.00    4.70
   3   4   4   11.30    4.80
   4  -4   4   59.29    5.90
  -4  -4  -4   74.89    7.30
  -4  -4  -4   68.09    6.30
  -4   4  -4   60.39    9.30
   4   4   4   79.99    8.80
  -4   4  -4   54.39    4.80
   4   4   4   48.70    7.00
   5  -4   4   15.60    3.70
  -5  -4  -4    6.40    3.10
   5  -4   4   10.90    3.50
  -5  -4  -4   14.40    4.90
  -5   4  -4   11.40    5.70
   5   4   4   13.30    5.00
  -6  -4  -4    8.60    4.90
  -6  -4  -4   12.10    4.60
   6  -4   4   -2.50    4.10
   6  -4   4   -2.30    4.90
   6   4   4    6.00    5.80
  -6   4  -4    6.60    6.50
  -7  -4  -4    8.40    5.10
   7  -4   4    0.20    5.90
   7  -4   4    2.70    3.90
   7   4   4   -4.20    6.30
   6  -5  -4   -2.00    6.70
  -6  -5   4    8.80    5.30
  -6   5   4   -2.80    8.80
   6   5  -4    7.20    4.50
  -5  -5   4    7.40    4.10
   5  -5  -4    2.20    5.80
   5  -5  -4    7.80    6.80
   5   5  -4    1.80    3.60
   4  -5  -4   11.80    5.50
  -4  -5   4   13.60    3.70
   4  -5  -4    6.90    2.60
  -4   5   4    1.10    5.00
  -4   5   4   11.30    4.30
   4   5  -4   22.70   11.60
   4   5  -4    9.10    3.70
   3  -5  -4    3.50    4.70
   3  -5  -4    7.10    4.00
  -3  -5   4    5.40    2.70
  -3  -5   4    0.00    3.70
  -3  -5   4    8.40    2.70
   3   5  -4    0.00    2.80
   3   5  -4    3.10    9.90
  -3   5   4    6.30    6.90
  -3   5   4    1.70    3.50
  -3   5   4   -5.90    5.30
  -2  -5   4    1.00    3.90
  -2  -5   4    0.40    2.80
   2  -5  -4    1.10    4.20
  -2  -5   4    2.00    5.80
   2  -5  -4    0.20    3.50
  -2   5   4    3.20    4.00
   2   5  -4   14.30    9.00
  -2   5   4   -0.60    5.90
   2   5  -4   -4.00    3.90
  -2   5   4    4.90    6.30
   2   5  -4    1.50    2.60
   1  -5  -4   10.30    4.00
   1  -5  -4    4.10    3.70
  -1  -5   4   -0.60    5.30
  -1  -5   4    6.00    4.10
   1   5  -4    9.80    8.20
   1   5  -4    1.60    4.00
  -1   5   4    7.00    1.30
  -1   5   4    7.90    5.70
  -1   5   4    5.00    4.30
  -1   5   4   -3.30    5.80
   1   5  -4    2.30    2.10
   0  -5   4    5.40    4.50
   0  -5   4    3.70    5.00
   0  -5  -4    7.50    4.00
   0   5  -4   18.70    5.00
   0   5   4   13.60    5.10
   0   5  -4   14.60    2.70
   0   5   4   11.10    5.10
   0   5  -4   25.50    5.20
   0   5   4   14.10    2.60
   1  -5   4    6.10    4.40
   1  -5   4    8.60    5.20
  -1  -5  -4    3.00    4.50
   1   5   4    9.10    2.40
   1   5   4   14.30    5.90
  -1   5  -4    6.60    2.30
  -1   5  -4    8.90    6.50
  -1   5  -4    2.90    2.70
   1   5   4    7.10    4.80
   2  -5   4    2.40    4.90
   2  -5   4    9.50    5.10
  -2   5  -4    4.20    5.50
  -2   5  -4   10.50    5.70
   2   5   4   12.90    3.10
  -2   5  -4    9.00    2.50
  -2   5  -4    8.10    3.20
   3  -5   4    8.00    5.00
  -3  -5  -4    0.40    5.60
   3  -5   4    9.40    5.40
  -3   5  -4   12.40    3.00
  -3   5  -4    9.80    5.70
   3   5   4    9.00    4.00
   3   5   4    3.50    6.60
  -4  -5  -4    8.20    5.60
   4  -5   4    2.50    5.30
  -5  -5  -4   -1.50    4.10
   5  -5   4    9.10    4.40
   5  -5   4    4.80    6.50
  -5  -5  -4   19.30    6.60
   5   5   4   -3.30    5.00
   1  -6  -4    6.80    5.40
  -1  -6   4    0.80    6.00
  -1   6   4    0.10    9.70
   1   6  -4    3.40    3.20
   1   6   4   41.20   11.10
 -10   0   5    7.60    8.50
   9   0  -5    5.50    3.70
  -9   0   5    9.20    5.40
  -9   0   5    1.30    3.20
   9   0  -5   -0.80    4.30
  -9   0   5    3.40    7.00
  -8   0   5    5.80    5.50
  -8   0   5   17.00    3.50
  -8   0   5    3.40    6.10
   8   0  -5    1.60    3.90
   8   0  -5    9.60    3.40
   7   0  -5    2.40    3.30
   7   0  -5   -2.40    3.40
  -7   0   5    0.80    5.80
   7   0  -5    1.70    2.60
  -7   0   5    3.60    4.80
  -7   0   5    0.60    2.90
   6   0  -5  116.59    8.40
   6   0  -5  102.79    9.00
   6   0  -5  121.39    8.00
  -6   0   5   97.89    9.10
  -6   0   5  112.29   11.20
  -6   0   5  114.69    7.30
  -5   0   5   22.00    3.10
  -5   0   5    9.90    4.60
   5   0  -5   18.10    2.70
   5   0  -5   12.70    3.30
   5   0  -5   17.20    3.10
  -4   0   5  138.99    9.70
   4   0  -5  144.69    7.90
   4   0  -5  140.69    8.60
  -4   0   5  121.39    8.80
  -4   0   5  123.19    7.60
   4   0  -5  130.89    8.60
   3   0  -5   27.50    2.50
   3   0  -5   30.00    2.80
  -3   0   5   29.30    4.00
  -3   0   5   23.10    2.80
   3   0  -5   24.70    2.90
  -3   0   5   25.40    2.70
  -2   0   5 1032.40   51.89
   2   0  -5 1104.39   54.09
   2   0  -5 1040.90   47.10
   2   0  -5  983.90   51.59
  -2   0   5  963.50   54.19
  -2   0   5  942.01   47.10
   1   0  -5   32.10    2.40
  -1   0   5   29.10    2.20
   1   0  -5   30.40    1.90
  -1   0   5   28.10    2.50
  -1   0   5   34.40    2.60
   1   0  -5   32.90    2.40
   0   0  -5 1631.44   83.59
   0   0   5 1639.84   83.59
   0   0   5 1651.23   87.49
   0   0  -5 1695.73   76.39
   0   0  -5 1641.94   87.49
   0   0   5 1660.93   76.19
   1   0   5   22.20    1.90
  -1   0  -5   27.20    1.80
   1   0   5   29.40    2.30
   1   0   5   24.90    1.70
   1   0   5   24.90    2.10
   1   0   5   25.30    2.10
   2   0   5 1625.94   75.59
  -2   0  -5 1613.84   82.79
  -2   0  -5 1853.31   86.99
   2   0   5 1591.54   75.79
   2   0   5 1522.55   82.99
   2   0   5 1600.04   87.09
  -3   0  -5  121.49    7.10
  -3   0  -5  108.99    6.70
   3   0   5  111.69    6.00
   3   0   5  102.39    7.10
   3   0   5  104.89    7.50
   3   0   5  106.49    6.20
  -4   0  -5  101.09    5.70
   4   0   5   81.49    6.60
  -4   0  -5   97.99    6.50
   4   0   5   97.79    8.00
   4   0   5   85.69    5.90
  -4   0  -5   98.89    6.60
   5   0   5    4.70    2.00
  -5   0  -5    3.00    1.60
   5   0   5    3.10    2.50
  -5   0  -5    1.80    2.20
   5   0   5    2.30    4.20
   6   0   5   59.19    9.80
  -6   0  -5   57.79    6.80
   6   0   5   54.69    5.50
  -6   0  -5   66.69    6.30
  -6   0  -5   62.39    4.90
   6   0   5   57.09    6.30
   7   0   5    3.10    3.20
  -7   0  -5    1.90    3.60
  -7   0  -5    2.00    2.20
  -7   0  -5    8.10    4.20
   7   0   5    3.70    6.30
   7   0   5    3.00    3.60
   8   0   5   37.60    7.10
  -8   0  -5   36.70    7.10
   8   0   5   33.30    8.50
   8   0   5   46.40    6.60
   9   0   5    1.80    5.20
  -9   0  -5    4.10    5.60
  -9   0  -5    7.90    6.00
   9   0   5    1.20    8.90
 -10   0  -5    9.20    7.60
 -10   0  -5    6.60    7.40
  10   0   5   11.10    6.20
 -11   1   5   80.39   16.60
  10  -1  -5   20.00    5.70
 -10  -1   5   11.70    8.80
 -10   1   5   24.90    8.10
   9  -1  -5   58.09    7.70
  -9  -1   5   41.40    8.60
   9  -1  -5   44.10    8.20
   9   1  -5   52.59    5.50
  -9   1   5   34.00    9.00
   9   1  -5   46.40    7.20
  -9   1   5   47.20    9.00
  -9   1   5   33.60    5.80
  -8  -1   5   14.60    5.80
  -8  -1   5   12.50    5.90
  -8  -1   5    8.60    3.90
   8  -1  -5   18.70    4.80
   8  -1  -5   20.40    4.70
  -8   1   5   14.00    7.50
   8   1  -5    7.10    4.90
  -8   1   5    6.80    6.20
   8   1  -5   21.80    3.70
   8   1  -5   15.80    4.60
  -8   1   5   22.40    3.80
  -7  -1   5   26.50    4.50
   7  -1  -5   22.00    4.80
  -7  -1   5   29.00    6.20
   7  -1  -5   39.50    5.60
   7   1  -5   31.00    5.80
  -7   1   5   29.30    6.20
  -7   1   5   42.80    8.80
   7   1  -5   33.90    7.20
  -7   1   5   32.50    4.10
   6  -1  -5   -0.80    2.20
  -6  -1   5    2.30    3.10
  -6  -1   5   -2.20    2.30
   6  -1  -5    3.90    2.60
   6  -1  -5    7.00    2.90
  -6  -1   5    1.60    5.30
  -6   1   5    0.30    4.90
  -6   1   5    1.40    3.70
   6   1  -5    2.50    3.10
   6   1  -5    5.60    3.80
   6   1  -5    6.50    2.10
   5  -1  -5  140.39    7.80
  -5  -1   5  112.99    8.50
   5  -1  -5  120.89    8.00
  -5  -1   5  116.39    7.90
  -5  -1   5  127.49   10.80
   5   1  -5  131.79    9.60
  -5   1   5  121.09    7.10
   5   1  -5  131.49    8.20
  -5   1   5  113.89    9.40
  -4  -1   5   15.00    4.50
   4  -1  -5   14.30    2.60
  -4  -1   5   13.20    2.60
   4  -1  -5   13.30    2.70
  -4  -1   5   15.00    2.80
   4   1  -5   16.10    2.80
   4   1  -5   14.40    3.40
   4   1  -5   18.50    2.40
  -4   1   5   13.60    2.40
  -4   1   5   20.30    4.20
  -3  -1   5  729.43   41.20
  -3  -1   5  790.52   40.40
   3  -1  -5  760.32   39.50
   3  -1  -5  797.12   35.80
  -3  -1   5  728.83   36.40
   3  -1  -5  793.62   42.00
   3   1  -5  839.12   36.60
  -3   1   5  761.32   39.70
  -3   1   5  730.53   35.70
   3   1  -5  777.32   40.00
  -3   1   5  695.43   42.00
  -2  -1   5    6.80    2.80
   2  -1  -5    4.10    1.40
  -2  -1   5    5.50    1.40
   2  -1  -5    6.10    1.40
  -2  -1   5    5.90    1.80
  -2   1   5    6.50    1.10
  -2   1   5    7.20    1.80
   2   1  -5    5.60    1.10
   2   1  -5    7.50    2.00
  -2   1   5    7.20    1.50
  -1  -1   5 1330.47   68.09
   1  -1  -5 1332.57   71.39
  -1  -1   5 1344.97   62.29
   1  -1  -5 1382.66   68.19
  -1  -1   5 1411.56   70.99
   1  -1  -5 1341.57   61.59
   1   1  -5 1260.97   70.99
  -1   1   5 1342.27   68.09
   1   1  -5 1344.07   67.79
  -1   1   5 1239.18   71.49
   1   1  -5 1418.56   62.09
  -1   1   5 1315.97   61.59
   0  -1   5   77.39    4.90
   0  -1  -5   84.39    4.60
   0  -1   5   66.29    4.10
   0  -1  -5   70.99    4.50
   0  -1   5   69.09    4.50
   0   1   5   72.39    3.60
   0   1  -5   69.09    3.90
   0   1   5   69.49    4.50
   0   1   5   71.29    3.80
   0   1  -5   73.69    4.00
   0   1   5   68.29    4.70
   1  -1   5   26.80    2.10
   1  -1   5   26.50    2.60
  -1  -1  -5   28.50    2.00
   1   1   5   24.00    2.10
   1   1   5   24.20    2.40
  -1   1  -5   29.60    2.80
   1   1   5   25.50    2.30
  -1   1  -5   30.70    2.00
   1   1   5   30.70    2.70
   2  -1   5   41.10    2.70
   2  -1   5   35.30    3.60
  -2  -1  -5   38.10    2.80
  -2  -1  -5   39.20    3.10
   2  -1   5   34.90    3.50
  -2   1  -5   39.00    2.60
   2   1   5   44.10    3.00
   2   1   5   40.10    3.70
  -2   1  -5   46.90    3.70
   2   1   5   39.70    3.00
   2   1   5   43.20    2.90
  -2   1  -5   39.30    2.50
  -3  -1  -5  622.44   29.20
  -3  -1  -5  633.74   32.00
   3  -1   5  601.34   29.10
   3  -1   5  600.54   31.90
   3  -1   5  559.54   33.90
   3   1   5  643.24   32.60
   3   1   5  595.84   32.40
   3   1   5  611.04   29.50
   3   1   5  583.94   33.00
  -3   1  -5  606.94   31.40
  -3   1  -5  646.04   34.10
  -4  -1  -5    3.30    1.70
  -4  -1  -5    4.90    1.60
   4  -1   5    3.00    2.30
   4  -1   5    3.70    3.50
   4  -1   5    5.70    1.40
   4   1   5    4.60    1.80
  -4   1  -5    6.00    2.80
  -4   1  -5    3.90    2.10
   4   1   5    4.40    2.00
   4   1   5    9.90    3.50
   5  -1   5  183.08   13.30
  -5  -1  -5  199.28   10.80
   5  -1   5  182.98   10.60
   5  -1   5  193.78   10.10
   5  -1   5  175.18   12.90
  -5  -1  -5  209.58   11.40
  -5  -1  -5  201.98   12.10
   5   1   5  193.18   11.30
  -5   1  -5  187.18   11.90
  -5   1  -5  203.88   13.10
   5   1   5  200.78   13.70
   5   1   5  173.98   11.90
  -6  -1  -5    4.90    2.10
  -6  -1  -5    7.80    2.50
  -6  -1  -5    8.60    3.10
   6  -1   5    4.30    1.90
   6  -1   5    1.90    5.20
   6  -1   5    1.50    3.10
  -6   1  -5   -1.30    3.60
   6   1   5    6.30    5.30
  -6   1  -5    8.90    4.30
   6   1   5    1.90    2.60
  -7  -1  -5   14.10    4.50
  -7  -1  -5   12.50    2.70
   7  -1   5    3.90    5.80
   7  -1   5    9.90    2.60
   7  -1   5    8.80    3.10
   7   1   5   10.20    6.20
  -7   1  -5   14.20    5.00
   7   1   5   14.90    3.80
  -7   1  -5   10.50    5.60
  -8  -1  -5    6.00    4.60
   8  -1   5    5.00    4.50
   8  -1   5   -5.70    6.60
  -8  -1  -5    2.90    3.40
   8   1   5    7.90    7.20
   8   1   5   -3.30    3.90
  -8   1  -5    2.90    5.40
  -8   1  -5    2.90    5.30
   8   1   5   -4.80    4.30
  -9  -1  -5   13.90    6.20
   9  -1   5    0.30    8.80
   9  -1   5    7.30    5.90
  -9  -1  -5   12.50    4.60
   9  -1   5   12.70    5.00
  -9   1  -5    8.90    6.90
   9   1   5    0.30    5.30
   9   1   5   10.20    4.50
 -10  -1  -5    9.50    7.70
  10  -1   5   12.30    6.20
  10  -1   5   -6.60    7.30
  10   1   5    3.10    5.10
  10   1   5    5.20    6.70
 -10   1  -5    2.10    7.80
  10  -2  -5   -1.20    6.70
  10  -2  -5   13.80    6.50
 -10   2   5   21.20    9.60
 -10   2   5   -1.30    3.80
   9  -2  -5   15.90    5.60
   9  -2  -5   21.20    6.30
  -9   2   5   25.10    8.70
   9   2  -5   37.60    6.00
   8  -2  -5   13.40    4.70
  -8  -2   5   13.20    5.50
  -8   2   5    8.60    7.90
   8   2  -5   11.40    5.60
  -8   2   5    5.40    5.30
   8   2  -5    5.10    4.20
   7  -2  -5   16.20    4.10
  -7  -2   5   12.90    4.70
   7  -2  -5   10.50    3.50
  -7  -2   5   13.40    6.00
   7  -2  -5   12.50    3.70
  -7   2   5    7.10    4.40
   7   2  -5   15.20    2.90
  -7   2   5   12.40    7.60
   7   2  -5   12.50    3.80
   6  -2  -5  135.29   10.10
   6  -2  -5  145.69    8.40
   6  -2  -5  122.59    8.50
  -6  -2   5  112.89    8.80
  -6  -2   5  136.69   12.20
  -6  -2   5  116.59    9.10
  -6   2   5  119.89    7.10
   6   2  -5  123.09   11.50
  -6   2   5  143.19   12.90
   6   2  -5  130.09    9.20
  -6   2   5  115.89   11.00
   5  -2  -5   15.60    3.60
   5  -2  -5   17.20    3.10
  -5  -2   5   14.00    5.20
   5  -2  -5    9.10    2.40
  -5  -2   5    8.60    3.00
  -5  -2   5   13.00    2.80
   5   2  -5    9.40    1.70
   5   2  -5   11.00    5.10
  -5   2   5    7.40    4.10
  -5   2   5   12.60    2.00
  -5   2   5   17.80    4.60
   5   2  -5   17.90    3.60
  -4  -2   5   39.90    5.60
  -4  -2   5   27.10    3.20
  -4  -2   5   25.50    4.10
   4  -2  -5   34.70    2.90
   4  -2  -5   26.60    3.40
   4   2  -5   30.70    2.50
  -4   2   5   26.70    4.50
  -4   2   5   28.80    4.60
   4   2  -5   30.30    3.90
   4   2  -5   30.90    6.70
  -3  -2   5   50.79    3.80
   3  -2  -5   50.79    4.20
  -3  -2   5   51.19    5.80
  -3  -2   5   48.70    4.60
   3  -2  -5   49.50    4.80
  -3   2   5   49.60    4.50
  -3   2   5   45.80    5.50
   3   2  -5   49.10    6.80
   3   2  -5   52.39    4.20
  -2  -2   5  634.14   32.50
  -2  -2   5  594.34   31.40
  -2  -2   5  632.94   32.10
   2  -2  -5  595.74   31.20
   2  -2  -5  584.74   33.20
  -2   2   5  520.15   33.30
   2   2  -5  626.14   28.60
   2   2  -5  585.44   31.60
  -2   2   5  577.64   31.20
  -1  -2   5  110.29    6.70
  -1  -2   5  111.19    7.20
  -1  -2   5  108.59    6.70
   1  -2  -5  117.99    6.90
   1  -2  -5  117.29    7.50
  -1  -2   5  110.89    6.80
  -1   2   5  117.09    7.10
   1   2  -5  116.49    6.20
  -1   2   5  102.99    7.90
   1   2  -5  111.39    7.40
   0  -2  -5    2.70    1.00
   0  -2   5    2.50    1.20
   0  -2   5    2.50    1.40
   0  -2  -5    2.90    0.70
   0   2   5    1.00    0.90
   0   2  -5    3.20    1.00
   0   2   5    2.60    1.30
   0   2  -5    3.60    1.50
   0   2   5    2.30    1.80
   1  -2   5   24.90    3.30
  -1  -2  -5   31.90    2.50
  -1  -2  -5   38.50    2.60
   1   2   5   34.30    2.80
  -1   2  -5   36.10    2.40
   1   2   5   27.10    3.20
   1   2   5   30.20    3.10
   2  -2   5   21.60    2.30
  -2  -2  -5   23.10    2.40
  -2  -2  -5   22.50    2.70
   2  -2   5   18.50    3.00
   2   2   5   22.50    2.80
  -2   2  -5   21.50    3.40
   2   2   5   19.20    3.50
  -2   2  -5   19.10    1.90
   3  -2   5    1.20    1.10
  -3  -2  -5    4.20    1.50
  -3  -2  -5    2.50    1.40
   3  -2   5    2.70    2.30
   3   2   5    4.10    2.40
   3   2   5    6.10    2.20
  -3   2  -5    3.20    2.60
   4  -2   5   37.70    3.90
  -4  -2  -5   36.60    4.10
   4  -2   5   33.30    2.80
   4  -2   5   32.40    3.40
  -4  -2  -5   30.80    3.70
   4  -2   5   25.20    4.60
  -4   2  -5   32.50    5.20
   4   2   5   37.50    4.70
   4   2   5   38.20    4.40
   5  -2   5    2.90    3.40
   5  -2   5    5.50    3.40
   5  -2   5    1.30    1.40
  -5  -2  -5    1.60    2.50
  -5  -2  -5    4.20    2.40
  -5   2  -5    2.50    3.70
   5   2   5    7.50    3.10
  -5   2  -5    3.90    3.10
   6  -2   5    9.90    2.70
   6  -2   5    8.80    4.40
  -6  -2  -5   11.10    3.10
   6  -2   5   11.40    4.20
  -6  -2  -5    8.90    3.70
   6  -2   5    8.30    2.20
  -6   2  -5    9.30    4.20
  -6   2  -5   11.50    4.80
   6   2   5   11.60    4.20
   7  -2   5    8.30    4.50
  -7  -2  -5   16.40    4.70
   7  -2   5    1.70    5.30
   7  -2   5    2.80    3.20
   7  -2   5    2.90    2.30
  -7  -2  -5    6.00    3.60
  -7   2  -5   12.40    5.00
   7   2   5    8.80    4.80
  -7   2  -5    7.60    6.20
  -8  -2  -5   15.10    5.70
   8  -2   5    1.90    6.50
   8  -2   5   -1.80    5.10
   8  -2   5    4.60    3.80
   8   2   5    2.40    5.30
  -8   2  -5    7.00    5.80
   9  -2   5    5.10    8.50
   9  -2   5    1.60    6.10
   9  -2   5   -6.30    5.20
   9   2   5   -0.10    6.20
  -9   2  -5    3.60    7.50
   8  -3  -5    0.20    1.80
   8  -3  -5   -4.00    4.20
   8  -3  -5    5.20    4.70
   8  -3  -5    4.10    5.10
  -8   3   5  -10.90    8.40
   8   3  -5    0.10    3.70
   8   3  -5    2.60    1.60
  -7  -3   5   27.90    5.40
   7  -3  -5   36.70    6.20
   7  -3  -5   23.30    2.80
   7  -3  -5   22.80    4.90
   7   3  -5   26.60    4.70
   7   3  -5   34.50    8.90
  -7   3   5   22.10    8.00
   6  -3  -5   32.60    5.10
  -6  -3   5   19.30    4.60
   6  -3  -5   26.10    2.40
  -6  -3   5   24.50    4.80
   6  -3  -5   29.40    5.80
   6   3  -5   25.60    4.70
   6   3  -5   26.90    8.20
  -6   3   5   23.00    5.80
  -6   3   5   40.80    7.50
   5  -3  -5  150.98   10.10
   5  -3  -5  139.59    7.30
   5  -3  -5  152.18    8.20
   5  -3  -5  148.29   11.60
  -5  -3   5  133.69    9.20
  -5  -3   5  157.78   12.30
  -5  -3   5  124.69    9.80
  -5  -3   5  153.68    9.00
   5   3  -5  155.48   14.30
  -5   3   5  165.38   11.60
   5   3  -5  146.19    9.50
  -5   3   5  118.79   11.90
   4  -3  -5   21.10    4.30
  -4  -3   5   16.30    3.00
   4  -3  -5   17.00    4.00
  -4  -3   5   14.60    2.60
  -4  -3   5   22.50    4.40
   4   3  -5   28.30    7.00
   4   3  -5   27.00    4.10
  -4   3   5   25.50    5.40
  -4   3   5   18.40    5.60
  -3  -3   5    7.70    2.00
   3  -3  -5    7.00    2.80
  -3  -3   5   10.40    2.90
  -3  -3   5    6.60    1.90
  -3  -3   5    5.20    2.90
  -3   3   5    9.30    4.20
  -3   3   5    7.90    2.90
   3   3  -5    5.60    2.20
  -2  -3   5   17.20    3.40
  -2  -3   5   19.70    3.30
   2  -3  -5   30.10    3.80
  -2  -3   5   22.60    3.10
  -2  -3   5   27.60    2.80
   2  -3  -5   22.60    3.90
  -2   3   5   22.70    4.80
   2   3  -5   30.20    5.70
   2   3  -5   30.10    3.30
   1  -3  -5  158.28   10.20
  -1  -3   5  152.38    8.70
  -1  -3   5  151.48    9.20
  -1  -3   5  142.59   10.10
   1   3  -5  160.78    8.50
   1   3  -5  171.68   11.10
  -1   3   5  152.28    9.50
  -1   3   5  138.09   10.90
  -1   3   5  171.18    9.90
   0  -3   5   16.70    3.30
   0  -3   5   20.00    3.20
   0  -3  -5   22.80    2.90
   0  -3  -5   22.30    2.40
   0   3  -5   25.90    5.30
   0   3   5   17.10    3.40
   0   3  -5   16.40    1.90
   0   3   5   23.20    4.40
   0   3   5   16.20    3.10
   0   3  -5   24.40    3.50
   0   3  -5   19.40    2.30
   0   3   5   21.40    2.10
  -1  -3  -5   50.59    4.00
   1  -3   5   51.89    4.40
  -1  -3  -5   62.09    4.00
   1   3   5   53.09    5.50
  -1   3  -5   50.29    3.50
   1   3   5   45.40    5.30
   1   3   5   46.10    4.30
   1   3   5   64.69    5.20
   2  -3   5   52.49    5.80
  -2  -3  -5   58.49    4.70
   2  -3   5   50.39    4.60
   2   3   5   60.69    5.30
  -2   3  -5   57.39    3.80
   2   3   5   60.69    6.00
  -2   3  -5   68.69    6.30
   3  -3   5   10.80    2.50
  -3  -3  -5    7.80    2.60
  -3  -3  -5   10.10    2.40
   3  -3   5    9.10    3.20
  -3   3  -5   10.80    2.10
   3   3   5   12.90    3.40
  -3   3  -5   14.40    4.20
   3   3   5   11.80    3.40
   4  -3   5    1.70    2.10
  -4  -3  -5   -0.90    2.00
   4  -3   5   -1.60    2.60
  -4  -3  -5   -1.80    2.70
  -4   3  -5    1.50    4.10
   4   3   5    3.20    3.40
   4   3   5    4.00    3.20
  -5  -3  -5   30.90    5.50
   5  -3   5   28.60    6.30
  -5  -3  -5   34.10    5.40
   5  -3   5   25.80    4.10
   5  -3   5   33.00    3.80
  -5   3  -5   35.40    6.80
  -5   3  -5   34.50    5.50
   5   3   5   43.40    6.40
  -6  -3  -5    3.90    3.90
   6  -3   5    0.20    2.70
   6  -3   5    3.50    2.20
  -6  -3  -5    9.70    3.40
  -6   3  -5    6.90    4.20
   6   3   5   -1.90    4.40
   7  -3   5   -3.70    4.50
   7  -3   5    4.40    3.60
   7  -3   5    3.80    3.30
  -7  -3  -5    3.40    4.50
   7   3   5    2.40    5.30
  -7   3  -5   16.40    5.80
  -8  -3  -5   17.90    6.30
   8  -3   5   -0.10    6.10
   8   3   5   -0.70    6.30
  -8   3  -5   20.40    7.20
  -8  -4   5   29.40    8.20
   8  -4  -5   21.30    6.90
  -8   4   5    5.90   11.60
  -7  -4   5    4.60    5.90
   7  -4  -5    8.90    5.60
   7  -4  -5    8.90    4.30
  -7   4   5   -7.40    8.60
   7   4  -5    4.40    4.00
  -6  -4   5   16.90    5.10
   6  -4  -5   10.90    5.00
   6  -4  -5   14.30    2.70
   6  -4  -5   10.80    5.70
   6   4  -5   16.20    4.30
   6   4  -5   21.20   10.10
  -6   4   5    7.00    6.70
  -5  -4   5   10.30    3.80
  -5  -4   5    6.50    2.80
  -5  -4   5    3.70    5.00
  -5  -4   5    2.20    2.60
   5  -4  -5   12.90    2.70
   5  -4  -5    7.10    2.30
   5  -4  -5    9.90    4.40
  -5   4   5    2.10    4.70
  -5   4   5   10.30    7.20
   5   4  -5    4.00    3.10
   5   4  -5   10.30    8.60
   4  -4  -5   27.00    5.20
   4  -4  -5   29.80    6.30
  -4  -4   5   21.00    3.70
  -4  -4   5   23.20    5.20
  -4  -4   5   23.80    4.10
  -4   4   5   23.80    4.90
   4   4  -5   35.10    4.70
  -4   4   5   34.90    7.40
  -3  -4   5    2.20    2.20
   3  -4  -5    3.70    3.20
   3  -4  -5    4.40    3.50
  -3  -4   5    3.80    4.60
  -3  -4   5    0.60    1.90
  -3   4   5    1.50    5.20
   3   4  -5   12.10    7.70
   3   4  -5    3.10    2.50
   2  -4  -5   13.70    3.40
  -2  -4   5   11.30    4.40
  -2  -4   5   14.60    3.10
  -2  -4   5   13.10    2.40
  -2   4   5    7.50    2.80
  -2   4   5   26.60    5.70
  -2   4   5   14.30    5.60
  -1  -4   5   15.10    4.40
  -1  -4   5   14.80    3.70
   1   4  -5   24.90    6.60
  -1   4   5   18.40    3.60
  -1   4   5   19.20    5.30
   1   4  -5   17.70    2.90
   0  -4   5    0.60    2.70
   0  -4   5   -2.00    3.20
   0  -4  -5   -0.90    2.40
   0  -4  -5   -1.20    2.30
   0   4  -5    0.70    1.50
   0   4   5   -0.50    1.20
   0   4  -5   -1.20    2.70
   0   4   5    1.00    4.10
   0   4   5    0.30    3.10
   0   4  -5   -3.50    5.00
  -1  -4  -5   10.90    3.40
  -1  -4  -5   13.60    2.70
   1  -4   5   10.30    4.00
   1  -4   5   13.60    3.90
   1   4   5   10.20    4.00
   1   4   5   13.70    2.50
  -1   4  -5   17.30    2.50
   1   4   5   10.20    3.70
   2  -4   5   18.20    4.50
   2  -4   5   17.80    3.80
   2   4   5   18.30    3.60
   2   4   5   20.20    4.80
  -2   4  -5   20.80    4.90
  -3  -4  -5   15.40    3.90
   3  -4   5    9.90    3.60
  -3   4  -5   12.60    5.30
   3   4   5    5.40    3.80
  -3   4  -5   17.20    3.10
   4  -4   5   34.70    6.50
  -4  -4  -5   48.10    6.10
  -4  -4  -5   48.40    6.30
   4  -4   5   45.40    5.80
  -4   4  -5   44.80    4.50
   4   4   5   52.19    7.70
  -5  -4  -5    3.40    4.40
   5  -4   5   10.40    3.80
   5  -4   5    3.50    4.60
  -5  -4  -5   16.40    3.80
   5  -4   5   13.80    3.60
   5   4   5    8.10    5.30
   6  -4   5    5.40    4.40
  -6  -4  -5   -3.20    5.70
  -6  -4  -5    5.00    4.00
   6   4   5    2.30    5.90
  -7  -4  -5    9.30    4.90
   7  -4   5    8.00    4.50
   7  -4   5   -1.80    6.70
   7   4   5   -2.40    6.30
  -6  -5   5    8.50    5.10
   6  -5  -5    3.10    7.00
   6   5  -5   -3.00    4.10
  -5  -5   5   -1.60    4.10
   5  -5  -5    0.80    6.00
  -5   5   5   -3.70    6.40
   5   5  -5   -0.10   13.60
   5   5  -5    1.60    3.50
  -4  -5   5   10.10    4.00
  -4  -5   5    6.30    3.40
   4  -5  -5   19.60    6.00
  -4  -5   5   14.30    3.80
  -4   5   5   11.90    4.40
   4   5  -5   24.60   12.70
   4   5  -5   21.50    4.10
  -3  -5   5    2.50    2.80
  -3  -5   5    3.90    3.60
  -3  -5   5    5.00    2.70
   3  -5  -5    6.30    4.90
   3   5  -5    5.00   11.00
  -3   5   5   -0.20    5.50
   3   5  -5    2.90    2.70
  -3   5   5   -3.10    3.60
  -3   5   5   -8.10    7.40
  -2  -5   5    5.60    3.40
  -2  -5   5    7.10    3.90
   2  -5  -5   12.60    4.50
  -2   5   5    5.90    4.20
  -2   5   5    9.20    7.30
   2   5  -5    5.80    4.00
   2   5  -5   16.00    9.90
   2   5  -5   12.10    3.00
  -2   5   5    4.70    6.60
   1  -5  -5   11.80    4.10
  -1  -5   5   10.70    5.60
   1   5  -5    8.40    8.90
   1   5  -5    9.00    2.50
  -1   5   5    8.50    5.90
  -1   5   5    2.40    6.40
  -1   5   5    4.70    4.70
   0  -5   5   -3.80    4.10
   0  -5  -5    5.50    3.60
   0  -5   5   -3.20    5.00
   0   5   5    2.30    5.10
   0   5  -5    4.80    2.50
   0   5   5    2.40    4.70
   0   5  -5    6.00    2.30
   0   5   5    1.80    1.50
   0   5  -5    4.00    7.80
   1  -5   5    9.90    5.10
   1  -5   5    6.10    5.50
  -1   5  -5    8.20    2.50
   1   5   5   10.70    6.20
   1   5   5   11.10    2.50
  -1   5  -5    5.20    5.40
  -2  -5  -5   11.00    4.40
   2  -5   5   -6.10    4.60
   2  -5   5   -0.40    5.10
  -2   5  -5    2.30    2.20
  -3  -5  -5   14.20    5.10
   3  -5   5    0.90    5.20
   3   5   5    0.10    5.20
  -3   5  -5    6.30    2.70
   3   5   5    1.40    3.80
   4  -5   5    5.10    6.00
  -4  -5  -5   -5.90    5.30
  -4   5  -5    4.90    2.70
   4   5   5   -1.70    4.80
   5  -5   5   -5.50    6.50
   5  -5   5    6.50    4.60
  -5  -5  -5    0.60    6.10
  -5  -5  -5   -6.20    4.20
   5   5   5    2.00    5.50
  -9   0   6    7.70    5.70
  -9   0   6   -9.40    6.20
  -9   0   6   -3.20    3.60
   9   0  -6    5.90    3.30
   9   0  -6   -5.00    4.30
  -8   0   6   15.50    6.50
   8   0  -6    9.10    4.20
  -8   0   6    8.60    6.40
  -7   0   6    2.30    2.80
   7   0  -6    5.20    3.90
   7   0  -6    4.00    3.60
  -7   0   6    2.20    4.70
   7   0  -6    5.00    2.80
  -6   0   6   20.10    4.90
  -6   0   6    3.00    5.70
   6   0  -6    9.70    3.60
  -6   0   6   13.70    3.10
   5   0  -6   -0.90    1.40
   5   0  -6   -2.10    1.90
  -5   0   6    1.80    2.30
   5   0  -6    3.40    2.30
  -5   0   6   -0.50    2.00
   4   0  -6   21.60    2.50
  -4   0   6   17.20    4.20
  -4   0   6   15.60    2.70
  -4   0   6   15.10    3.00
   4   0  -6   16.70    3.10
  -3   0   6    4.90    1.80
  -3   0   6    8.10    2.50
   3   0  -6    8.40    1.80
  -3   0   6    7.90    1.80
   3   0  -6    8.90    1.80
   3   0  -6    6.50    1.70
  -2   0   6  153.08    8.30
   2   0  -6  163.78    9.10
  -2   0   6  158.38    9.70
   2   0  -6  168.08    8.10
  -2   0   6  164.68    9.40
   1   0  -6    0.90    0.60
  -1   0   6    1.40    0.90
  -1   0   6    0.10    1.00
  -1   0   6    0.30    1.00
   1   0  -6    1.30    0.90
   1   0  -6    1.70    0.90
   0   0   6 4513.25  227.58
   0   0   6 4260.87  216.98
   0   0  -6 4397.86  198.88
   0   0  -6 4309.17  227.48
   0   0  -6 4153.98  217.88
   0   0   6 4198.88  198.48
   1   0   6    0.50    0.90
   1   0   6    1.40    0.70
   1   0   6    2.20    1.10
  -1   0  -6    0.80    0.60
   1   0   6    0.90    1.00
  -2   0  -6  311.97   15.70
   2   0   6  283.77   16.00
   2   0   6  275.87   16.30
   2   0   6  299.47   14.50
   2   0   6  300.77   16.80
   2   0   6  303.97   14.30
  -3   0  -6    8.70    1.60
   3   0   6    6.80    2.30
  -3   0  -6   11.00    2.30
   3   0   6    8.80    2.10
   3   0   6    6.40    1.70
   4   0   6    5.90    2.10
  -4   0  -6    5.50    1.90
  -4   0  -6    6.60    2.30
   4   0   6    6.10    1.50
   4   0   6    5.50    3.70
   5   0   6    3.80    4.70
   5   0   6    2.50    1.60
   5   0   6    7.40    2.80
   5   0   6    3.80    2.10
  -5   0  -6    2.00    2.30
  -5   0  -6    3.90    2.30
   6   0   6   16.80    4.20
  -6   0  -6   20.50    4.20
  -6   0  -6   20.60    4.20
   6   0   6   20.20    6.70
  -6   0  -6   19.90    3.30
   6   0   6   31.20    4.60
  -7   0  -6   -0.10    3.70
  -7   0  -6    1.90    3.50
   7   0   6   -1.90    3.30
   7   0   6   -0.70    3.50
   7   0   6    9.40    6.60
  -8   0  -6    2.00    4.60
   8   0   6   10.70    8.10
  -8   0  -6    9.30    4.70
   8   0   6    9.10    4.20
  -9   0  -6    7.70    5.70
   9   0   6    0.80    5.60
  -9   0  -6   10.70    5.90
   9   0   6   -4.90    5.00
  10   0   6    3.00    6.60
 -10   0  -6    6.70    6.90
  11  -1  -6    0.50    7.90
  11  -1  -6   18.10    6.80
  11   1  -6   -6.10    7.30
  11   1  -6   11.10    4.60
 -11   1   6   29.70    9.80
 -10  -1   6    2.70    8.30
  10  -1  -6    3.80    5.70
 -10   1   6   16.20    8.30
  -9  -1   6   45.10    9.30
   9  -1  -6   43.40    7.20
   9  -1  -6   36.50    7.90
   9   1  -6   43.70    7.20
  -9   1   6   42.80    5.40
  -9   1   6   37.80    8.40
   8  -1  -6   -0.60    3.90
  -8  -1   6    3.90    5.30
   8  -1  -6    5.80    3.90
  -8  -1   6   18.00    5.90
  -8  -1   6   13.00    3.60
  -8   1   6    6.70    6.90
   8   1  -6    6.00    2.60
  -8   1   6    3.30    5.40
   8   1  -6    5.60    4.40
  -8   1   6    9.30    3.00
   7  -1  -6   -1.80    2.70
  -7  -1   6    2.50    6.30
  -7  -1   6    8.70    2.80
  -7  -1   6    5.80    4.30
  -7   1   6    2.50    2.40
   7   1  -6    7.30    3.90
   7   1  -6    0.10    3.90
  -7   1   6    4.20    4.20
   6  -1  -6   -1.10    1.90
   6  -1  -6    7.60    3.10
  -6  -1   6   -3.40    5.20
  -6  -1   6   -0.30    2.70
   6  -1  -6    1.40    2.50
  -6  -1   6    3.80    3.50
  -6   1   6   -0.80    1.90
   6   1  -6    2.10    2.90
  -6   1   6    2.70    5.40
  -6   1   6   -1.50    3.00
   6   1  -6    2.20    1.90
   6   1  -6   -1.10    3.40
   5  -1  -6  115.19    7.10
   5  -1  -6  106.89    7.40
   5  -1  -6  117.59    8.30
  -5  -1   6  101.49    7.30
  -5   1   6  111.09    6.70
  -5   1   6   99.49    8.60
  -5   1   6  111.59    9.50
   5   1  -6  110.79    8.90
  -4  -1   6    0.20    4.00
  -4  -1   6    1.90    1.80
   4  -1  -6    4.70    2.00
   4  -1  -6    2.00    1.40
  -4  -1   6    1.70    1.90
   4  -1  -6    4.30    1.70
  -4   1   6    4.10    1.50
  -4   1   6    2.30    2.60
   4   1  -6    1.50    2.70
   4   1  -6    1.50    1.90
  -4   1   6    3.30    2.50
   4   1  -6    3.80    1.60
   3  -1  -6  232.68   13.50
   3  -1  -6  227.28   11.00
  -3  -1   6  225.78   13.00
   3  -1  -6  216.38   12.50
  -3  -1   6  237.78   14.10
  -3  -1   6  204.28   11.70
  -3   1   6  205.28   13.70
   3   1  -6  220.78   12.90
  -3   1   6  218.28   12.80
   3   1  -6  238.18   11.70
  -3   1   6  203.98   11.00
   3   1  -6  248.48   12.60
   2  -1  -6   31.90    1.80
  -2  -1   6   32.50    2.80
   2  -1  -6   27.50    2.90
  -2  -1   6   32.20    4.70
   2  -1  -6   31.50    2.90
  -2  -1   6   32.10    3.10
  -2   1   6   32.80    2.40
   2   1  -6   33.00    2.70
   2   1  -6   33.80    3.30
   2   1  -6   30.10    2.40
  -2   1   6   30.90    3.40
  -2   1   6   29.20    3.10
  -1  -1   6  182.78    9.60
   1  -1  -6  187.78   10.40
   1  -1  -6  186.48    8.80
  -1  -1   6  185.78   10.70
   1  -1  -6  202.88   10.90
  -1  -1   6  189.88   10.60
  -1   1   6  170.88   11.00
   1   1  -6  180.48   10.50
   1   1  -6  185.38   10.00
  -1   1   6  188.88   10.50
  -1   1   6  181.38    8.90
   1   1  -6  193.28    9.30
   0  -1   6   67.89    4.60
   0  -1   6   62.39    4.20
   0  -1  -6   63.69    4.30
   0  -1   6   59.69    3.80
   0  -1  -6   67.69    4.20
   0  -1   6   64.19    4.10
   0   1  -6   64.79    3.60
   0   1   6   62.29    3.30
   0   1   6   55.49    4.30
   0   1  -6   57.19    3.70
   0   1   6   63.69    4.30
   0   1   6   70.69    3.50
   1  -1   6  474.35   22.30
   1  -1   6  429.36   23.90
  -1  -1  -6  475.85   25.20
   1  -1   6  456.35   26.00
   1   1   6  483.85   22.00
   1   1   6  452.25   25.40
   1   1   6  476.05   24.70
   1   1   6  480.25   22.30
   1   1   6  467.15   24.50
  -1   1  -6  492.35   22.20
   2  -1   6   21.60    2.00
  -2  -1  -6   21.70    2.10
  -2  -1  -6   20.80    2.40
   2  -1   6   17.90    2.60
   2  -1   6   18.90    2.60
   2  -1   6   17.60    1.80
  -2   1  -6   20.60    1.90
   2   1   6   23.80    2.40
   2   1   6   21.60    2.30
   2   1   6   22.10    3.10
   2   1   6   23.40    2.20
  -2   1  -6   24.10    2.90
   3  -1   6  211.18   13.00
   3  -1   6  228.68   11.40
   3  -1   6  228.78   11.70
  -3  -1  -6  234.08   12.80
   3  -1   6  207.68   13.80
  -3  -1  -6  230.38   11.60
   3   1   6  218.58   13.10
  -3   1  -6  255.77   13.90
  -3   1  -6  220.98   12.10
   3   1   6  232.98   12.60
   3   1   6  227.48   12.00
   4  -1   6    3.20    1.40
   4  -1   6    6.80    3.80
   4  -1   6    6.60    1.90
  -4  -1  -6    5.00    2.00
   4   1   6    7.40    2.00
   4   1   6    4.20    3.30
   4   1   6    5.10    1.60
  -4   1  -6    8.30    2.90
   4   1   6    6.40    2.50
  -4   1  -6    6.20    1.80
  -5  -1  -6   14.40    3.10
   5  -1   6   13.80    4.10
   5  -1   6   18.70    3.20
   5  -1   6   15.90    2.60
   5  -1   6   10.90    5.20
  -5  -1  -6   12.00    2.70
   5   1   6   13.90    3.20
  -5   1  -6   21.10    4.40
   5   1   6   17.60    5.60
   5   1   6   22.80    4.10
  -5   1  -6   14.20    3.10
  -6  -1  -6   -2.80    2.10
   6  -1   6   -1.50    2.30
  -6  -1  -6    5.70    3.00
   6  -1   6   -0.70    5.40
   6  -1   6    1.00    3.60
   6  -1   6    1.20    1.70
  -6   1  -6   -1.80    3.00
   6   1   6    1.20    2.80
   6   1   6    1.20    3.00
   6   1   6   11.40    6.20
  -6   1  -6    0.10    4.20
   7  -1   6    7.60    6.20
  -7  -1  -6   10.40    3.50
  -7  -1  -6   20.90    4.90
   7  -1   6   14.80    3.50
   7  -1   6   20.40    3.40
   7  -1   6   11.40    4.70
  -7  -1  -6   13.70    3.40
   7   1   6   21.50    7.00
  -7   1  -6   18.10    5.40
   7   1   6    7.70    3.80
  -7   1  -6   13.80    4.40
   8  -1   6    6.90    4.00
   8  -1   6   -6.90    5.00
   8  -1   6   -2.50    7.50
  -8  -1  -6    0.40    3.60
  -8  -1  -6    6.60    4.90
  -8   1  -6    1.90    4.90
  -8   1  -6    1.20    5.30
   8   1   6    0.10    4.00
  -9  -1  -6   12.90    6.10
  -9  -1  -6    1.30    4.40
   9  -1   6   -2.10    9.60
   9  -1   6    4.70    5.80
  -9   1  -6    2.20    5.90
   9   1   6   -0.10    4.60
  10  -2  -6   26.00    7.50
  10  -2  -6   46.30   10.60
   9  -2  -6   36.80    8.40
  -9   2   6    8.80    9.30
   8  -2  -6   12.20    4.10
   8  -2  -6   24.10    5.20
  -8  -2   6   12.00    5.70
   8   2  -6   24.20    4.20
  -8   2   6   13.90    3.10
  -8   2   6   19.10    7.60
   8   2  -6    8.50    6.40
   7  -2  -6    5.00    3.50
   7  -2  -6   -0.60    2.40
  -7  -2   6    2.10    3.70
  -7  -2   6   10.20    6.60
  -7  -2   6    0.70    3.20
   7  -2  -6    6.60    3.50
  -7   2   6    2.00    2.00
   7   2  -6    6.70    2.50
  -7   2   6   -2.80    4.00
   7   2  -6   -3.00    5.00
   7   2  -6   -0.90    3.50
  -7   2   6   -2.10    6.40
   6  -2  -6  138.79    9.30
  -6  -2   6  124.09    9.70
   6  -2  -6  161.88    9.00
  -6  -2   6  152.18   13.70
  -6  -2   6  125.89    9.30
  -6   2   6  121.99   11.70
  -6   2   6  138.39    7.60
   6   2  -6  142.19   12.70
  -6   2   6  154.38   13.40
  -5  -2   6   15.50    3.70
   5  -2  -6   15.20    3.00
   5  -2  -6   21.80    4.20
  -5  -2   6   18.50    3.60
  -5  -2   6   16.70    6.20
   5  -2  -6   20.20    3.40
  -5   2   6   17.70    2.20
  -5   2   6   18.10    4.60
   5   2  -6   20.00    5.60
  -5   2   6   14.70    4.20
   5   2  -6   20.40    3.80
   4  -2  -6   35.40    4.30
   4  -2  -6   38.00    3.10
   4  -2  -6   34.40    3.70
  -4  -2   6   43.40    6.30
  -4  -2   6   26.70    3.50
  -4  -2   6   35.50    4.50
   4   2  -6   32.40    6.90
  -4   2   6   30.00    5.10
   4   2  -6   31.20    3.90
  -4   2   6   35.10    4.90
  -4   2   6   28.90    2.30
   4   2  -6   33.30    2.80
   3  -2  -6   32.90    3.80
  -3  -2   6   32.80    4.10
  -3  -2   6   29.60    3.00
   3  -2  -6   25.70    3.50
  -3  -2   6   32.70    6.00
  -3   2   6   26.90    4.50
   3   2  -6   40.40    6.30
  -3   2   6   34.50    4.00
  -2  -2   6  325.57   17.20
  -2  -2   6  309.27   17.40
  -2  -2   6  325.07   17.60
   2  -2  -6  322.87   18.20
  -2  -2   6  278.07   15.80
   2  -2  -6  319.97   17.00
  -2   2   6  277.67   18.40
   2   2  -6  296.77   17.30
   2   2  -6  329.77   15.50
  -2   2   6  304.27   17.10
   1  -2  -6   40.90    3.50
  -1  -2   6   35.20    3.70
   1  -2  -6   41.40    3.60
  -1  -2   6   39.20    3.40
  -1  -2   6   41.50    3.20
  -1  -2   6   35.00    3.70
  -1   2   6   33.70    4.30
   1   2  -6   37.60    2.90
   1   2  -6   39.20    4.00
   0  -2   6   46.00    3.90
   0  -2   6   40.10    3.50
   0   2   6   38.70    4.20
   0   2   6   48.70    2.90
   0   2   6   46.90    3.70
   0   2  -6   45.00    3.00
   0   2   6   41.80    3.80
   0   2   6   44.90    2.40
   1  -2   6   21.50    3.00
  -1  -2  -6   27.30    2.30
   1  -2   6   24.30    2.60
  -1  -2  -6   20.40    2.10
   1   2   6   29.70    3.10
   1   2   6   20.80    3.00
  -1   2  -6   29.40    3.30
   1   2   6   24.10    3.40
  -1   2  -6   25.30    2.10
   1   2   6   26.60    2.60
   2  -2   6   22.60    2.40
  -2  -2  -6   17.10    1.70
   2   2   6   20.20    3.80
   2   2   6   15.10    2.40
   2   2   6   14.20    2.50
   3  -2   6   23.40    4.20
  -3  -2  -6   34.40    3.60
  -3  -2  -6   35.00    3.60
   3  -2   6   31.00    2.80
  -3   2  -6   32.40    2.80
  -3   2  -6   36.20    4.90
  -4  -2  -6   54.19    5.00
  -4  -2  -6   48.90    4.60
   4  -2   6   45.00    3.60
   4  -2   6   55.29    4.90
   4  -2   6   42.90    5.60
   4  -2   6   49.30    4.30
   4   2   6   55.29    6.00
  -4   2  -6   51.69    6.20
  -4   2  -6   44.80    3.70
  -5  -2  -6    9.90    2.80
   5  -2   6    8.60    3.80
   5  -2   6    5.40    1.90
   5  -2   6   10.40    4.00
   5   2   6    8.80    3.30
  -5   2  -6    4.10    2.60
  -5   2  -6    9.30    3.90
   6  -2   6   11.30    2.40
   6  -2   6   13.70    3.20
   6  -2   6    4.40    4.60
   6  -2   6   11.20    4.20
  -6  -2  -6   19.70    4.30
  -6   2  -6   13.20    5.20
  -6   2  -6   11.20    3.70
   6   2   6   18.10    4.20
   7  -2   6    5.00    4.50
  -7  -2  -6   16.70    4.20
  -7   2  -6    9.30    4.50
   7   2   6   11.30    4.60
   8  -2   6    2.80    5.90
  -8  -2  -6    9.50    5.20
   8  -2   6    0.60    7.20
   8  -2   6   11.50    4.50
   8   2   6   12.20    6.00
  -8   2  -6    7.20    5.50
   9  -2   6    5.30    7.20
  -9  -2  -6    1.60    6.00
   9   2   6   -6.00    6.90
  -9   2  -6    2.00    6.60
   9  -3  -6   15.20    6.20
   9  -3  -6   14.60    6.80
  -9   3   6   -6.30    9.70
   8  -3  -6    4.60    4.60
   8  -3  -6   14.70    5.60
   7  -3  -6   39.30    5.70
  -7  -3   6   29.30    6.30
   7  -3  -6   26.80    4.90
   7   3  -6   30.60    8.10
   7   3  -6   26.70    4.70
  -7   3   6   35.20    8.50
  -6  -3   6   18.90    2.90
   6  -3  -6   21.70    4.30
   6  -3  -6   25.30    5.60
   6   3  -6    6.80    6.90
  -6   3   6   18.20    6.70
   5  -3  -6  135.69    7.40
   5  -3  -6  121.99    9.60
  -5  -3   6  160.98   12.10
  -5  -3   6  144.69    8.50
  -5  -3   6  108.49    9.20
   5  -3  -6  145.19   10.90
   5  -3  -6  124.99    6.50
   5   3  -6  134.09    9.00
  -5   3   6  103.69   11.40
   5   3  -6  134.09   14.10
  -4  -3   6    6.50    2.10
   4  -3  -6    2.30    3.00
  -4  -3   6    8.60    3.20
   4  -3  -6    4.60    3.20
   4   3  -6    0.70    6.10
  -4   3   6   11.20    3.70
  -4   3   6    5.20    4.60
   3  -3  -6    6.40    2.80
  -3  -3   6    3.00    3.00
  -3  -3   6    1.60    2.90
  -3  -3   6    3.80    1.80
   3   3  -6    1.80    5.40
   3   3  -6    5.50    2.00
  -3   3   6    3.70    2.70
  -3   3   6    0.20    3.60
   2  -3  -6   42.90    4.40
  -2  -3   6   26.60    4.30
   2  -3  -6   37.10    4.60
  -2  -3   6   41.10    3.50
  -2  -3   6   35.10    3.80
  -2  -3   6   30.20    4.10
   2   3  -6   40.30    8.00
  -2   3   6   34.10    6.00
   2   3  -6   41.30    3.70
  -1  -3   6   19.30    2.50
  -1  -3   6   23.40    3.50
  -1  -3   6   23.00    3.00
   1  -3  -6   27.10    3.60
  -1  -3   6   20.80    3.50
   1   3  -6   29.90    6.50
  -1   3   6   25.00    4.40
   1   3  -6   24.70    2.70
  -1   3   6   24.90    5.40
  -1   3   6   24.90    3.60
   0  -3   6   21.20    3.80
   0  -3  -6   33.90    2.40
   0  -3   6   27.40    3.80
   0  -3  -6   29.30    3.30
   0   3  -6   28.30    2.70
   0   3  -6   35.70    4.20
   0   3   6   38.70    4.10
   0   3   6   28.20    3.80
   0   3   6   28.90    5.20
   0   3   6   27.80    2.50
   1  -3   6   19.00    3.50
   1  -3   6   14.10    2.80
  -1  -3  -6   18.10    2.50
   1   3   6   20.50    3.60
   1   3   6   11.30    2.70
   1   3   6   17.80    3.40
   1   3   6   18.40    3.80
  -1   3  -6   14.60    3.50
  -1   3  -6   20.40    2.30
  -2  -3  -6   47.60    3.90
   2  -3   6   40.60    4.20
   2   3   6   47.60    5.60
   2   3   6   39.70    4.80
   2   3   6   29.80    4.90
  -2   3  -6   39.40    3.30
  -2   3  -6   51.39    5.40
  -3  -3  -6   25.40    3.60
   3  -3   6   14.30    3.00
   3   3   6   22.90    4.10
   3   3   6   29.00    5.80
  -3   3  -6   23.40    5.20
  -4  -3  -6   21.10    3.90
   4  -3   6    7.70    3.70
   4  -3   6   12.30    2.80
  -4  -3  -6   18.10    3.80
  -4   3  -6   12.20    4.70
   4   3   6   14.20    3.90
  -4   3  -6   13.70    2.50
   5  -3   6   11.10    3.10
   5  -3   6    6.50    2.40
  -5  -3  -6    5.00    2.50
   5  -3   6    5.50    3.70
  -5  -3  -6    6.50    3.60
   5   3   6    6.90    4.50
  -5   3  -6    8.10    4.80
   6  -3   6   10.00    3.20
  -6  -3  -6   14.90    4.50
   6  -3   6    9.10    4.00
   6  -3   6    7.00    4.30
   6   3   6   19.80    5.50
  -6   3  -6   15.70    3.70
   7  -3   6    5.30    3.40
   7  -3   6    6.90    5.30
  -7  -3  -6   10.10    4.30
  -7   3  -6    2.10    4.60
   7   3   6    8.80    5.70
   8  -3   6   -8.90    6.60
  -8  -3  -6    7.90    5.70
   8  -3   6   -8.00    4.90
   8   3   6   -9.20    6.10
  -8  -4   6   35.00    8.70
   7  -4  -6    7.90    4.30
   7  -4  -6   19.60    5.90
  -7   4   6   -9.60    8.40
   7   4  -6   -0.70    3.70
   6  -4  -6    2.90    5.70
  -6  -4   6   10.20    5.10
  -6  -4   6    4.70    2.50
   6  -4  -6   14.40    5.10
   6   4  -6    3.50   10.10
   6   4  -6    4.00    3.30
  -5  -4   6   10.90    4.60
   5  -4  -6   15.20    4.70
  -5  -4   6    4.90    2.60
  -5   4   6    3.10    6.60
   5   4  -6    9.60    3.30
  -5   4   6    4.60    5.20
   5   4  -6    3.90    8.90
  -4  -4   6   22.10    4.30
  -4  -4   6   29.60    5.60
   4  -4  -6   26.20    5.30
  -4  -4   6   19.50    3.70
  -4   4   6   21.90    7.00
   4   4  -6   43.50    9.40
  -4   4   6   24.20    5.00
  -3  -4   6    8.80    2.70
  -3  -4   6   10.30    3.10
  -3  -4   6   14.80    4.50
  -3  -4   6   15.20    3.40
   3  -4  -6   18.80    4.80
  -3   4   6   14.40    4.30
   3   4  -6   19.20    7.90
  -3   4   6   10.70    5.90
   3   4  -6   14.80    3.10
  -2  -4   6    0.90    1.60
  -2  -4   6    0.90    2.10
   2  -4  -6    1.80    3.20
  -2  -4   6   -0.40    2.50
  -2  -4   6    5.30    4.10
   2   4  -6    1.90    1.90
  -2   4   6   -1.20    5.00
  -2   4   6   -2.80    2.40
   2   4  -6    5.40    6.90
  -1  -4   6   14.00    4.20
  -1  -4   6   19.20    4.30
  -1  -4   6   19.30    3.60
  -1   4   6   14.50    5.30
   1   4  -6   16.80    6.50
  -1   4   6   13.50    3.30
   1   4  -6   14.80    2.80
   0  -4  -6    7.00    2.20
   0  -4   6   14.20    4.40
   0  -4   6   11.10    3.60
   0  -4  -6    6.60    2.60
   0   4   6   11.20    1.60
   0   4  -6   11.60    5.20
   0   4   6   16.50    3.90
   0   4  -6   15.60    3.70
   0   4  -6   12.40    2.40
  -1  -4  -6   16.50    3.20
   1  -4   6   14.30    3.90
   1  -4   6   16.60    4.30
  -1   4  -6   18.60    4.60
  -1   4  -6   24.30    2.90
   1   4   6   17.50    4.60
   1   4   6   18.80    2.80
   2  -4   6    3.00    3.20
  -2  -4  -6    1.50    3.20
   2  -4   6    1.50    3.90
   2   4   6    8.20    3.20
   2   4   6   11.10    4.40
  -3  -4  -6   26.80    4.80
   3  -4   6   25.90    5.60
   3  -4   6   34.10    5.60
   3   4   6   37.50    6.40
  -3   4  -6   38.80    7.70
  -3   4  -6   38.90    3.90
   4  -4   6   15.20    3.80
   4  -4   6   10.20    4.50
  -4  -4  -6   18.30    4.40
  -4  -4  -6   11.30    3.40
   4   4   6   13.30    5.00
  -4   4  -6   17.00    3.10
   5  -4   6   12.60    3.60
   5  -4   6    3.30    4.60
  -5  -4  -6   10.90    3.60
  -5  -4  -6   12.70    4.80
   5   4   6    7.10    5.40
   6  -4   6   11.10    4.60
  -6  -4  -6    9.50    3.80
   6   4   6   -2.10    5.80
   7  -4   6    0.00    4.70
  -6  -5   6   -1.70    5.50
   6   5  -6    5.20    4.20
  -6   5   6  -14.20    8.80
  -5  -5   6    7.30    4.70
   5  -5  -6   14.10    6.60
   5   5  -6    2.60   14.50
   5   5  -6    1.80    3.70
  -5   5   6   -9.70    6.50
   4  -5  -6   22.10    6.10
  -4  -5   6   13.20    4.50
  -4  -5   6   18.40    4.20
   4   5  -6   20.50    4.40
   4   5  -6   26.20   13.60
  -3  -5   6    4.10    2.60
   3  -5  -6   14.40    5.30
  -3  -5   6   -0.20    3.80
  -3  -5   6   -2.40    3.10
   3   5  -6    6.90   11.40
   3   5  -6    6.80    3.10
  -3   5   6    1.50    8.00
  -3   5   6   -2.40    5.70
  -2  -5   6   10.10    3.50
   2  -5  -6   15.10    5.10
  -2  -5   6   15.90    4.80
  -2   5   6    7.30    7.30
   2   5  -6    9.60    2.70
  -2   5   6   15.20    7.70
   2   5  -6   11.10   10.40
   1  -5  -6    5.10    3.70
  -1  -5   6    6.20    4.50
  -1  -5   6    9.30    3.70
   1   5  -6    8.40    2.60
   1   5  -6   13.00    9.30
  -1   5   6   -1.80    6.40
  -1   5   6   -1.50    7.00
   0  -5  -6    0.60    2.90
   0  -5   6    7.50    4.40
   0   5  -6    4.20    2.20
   0   5   6    4.40    5.30
   0   5  -6   -1.00    4.40
   0   5  -6    4.70    2.30
   0   5   6    3.10    1.40
   1  -5   6    2.00    5.00
  -1  -5  -6    3.70    3.30
  -1   5  -6    3.20    4.90
   1   5   6    6.10    2.30
  -1   5  -6    2.20    2.20
   2  -5   6    8.70    5.60
  -2  -5  -6    8.90    4.20
   2   5   6    8.40    3.40
  -2   5  -6   13.20    2.90
  -3  -5  -6   -4.50    4.60
   3  -5   6   -3.40    4.90
  -3   5  -6    4.80    2.90
   3   5   6    1.80    4.20
   4  -5   6    1.90    6.40
  -4  -5  -6   -8.40    5.70
   4   5   6   -0.30    5.00
   4   5   6   -7.90    7.00
  -4   5  -6    3.30    3.00
   5   5   6    9.30    6.00
  10   0  -7    2.10    3.70
  10   0  -7    3.00    6.30
 -10   0   7   18.50    7.40
  -9   0   7    6.50    4.20
  -9   0   7   -2.90    6.10
   9   0  -7   -7.10    4.70
   9   0  -7   -1.50    3.40
  -9   0   7    3.70    6.50
  -8   0   7    1.60    3.80
  -8   0   7    5.40    5.40
   8   0  -7    5.40    2.80
  -8   0   7    3.50    6.30
   8   0  -7   -3.90    3.40
  -7   0   7    3.20    4.10
   7   0  -7   -4.00    3.20
   7   0  -7    6.20    2.40
   7   0  -7    7.40    3.90
  -7   0   7   -1.30    5.90
   6   0  -7   62.69    6.40
  -6   0   7   65.19    5.80
  -6   0   7   66.79   10.90
   6   0  -7   78.09    5.90
  -6   0   7   56.89    7.00
  -5   0   7    1.60    4.00
   5   0  -7    2.30    2.10
   5   0  -7    1.40    2.40
  -5   0   7    1.20    2.50
  -4   0   7  433.66   24.10
  -4   0   7  388.16   21.00
   4   0  -7  409.46   22.90
   4   0  -7  461.15   21.10
  -4   0   7  374.06   24.20
   4   0  -7  487.95   24.10
   3   0  -7    0.20    1.30
  -3   0   7    2.70    1.80
   3   0  -7    2.50    1.30
  -3   0   7    2.30    2.50
  -3   0   7    0.10    1.40
  -2   0   7   -0.80    1.30
   2   0  -7   -0.60    1.00
   2   0  -7   -0.20    0.80
   2   0  -7   -0.30    1.10
  -2   0   7    2.00    1.40
  -2   0   7    0.60    1.50
  -1   0   7  108.09    5.90
   1   0  -7  116.19    5.60
  -1   0   7  107.39    6.60
   1   0  -7  113.39    6.60
   1   0  -7  110.39    6.50
  -1   0   7  104.69    6.90
   0   0  -7  461.85   21.10
   0   0  -7  448.66   24.30
   0   0   7  467.15   24.40
   0   0  -7  420.86   23.20
   0   0   7  443.66   23.30
   0   0   7  439.86   21.10
   1   0   7   16.10    2.00
   1   0   7   14.40    1.70
   1   0   7   19.40    2.10
  -1   0  -7   16.40    1.60
   1   0   7   18.40    1.60
   1   0   7   21.10    2.30
   2   0   7   68.59    5.10
   2   0   7   73.39    5.20
   2   0   7   73.59    4.90
   2   0   7   68.89    4.70
   2   0   7   80.29    4.20
   2   0   7   74.59    4.50
   3   0   7    4.40    1.70
   3   0   7    3.20    2.40
  -3   0  -7    4.10    1.30
   3   0   7    2.90    1.00
   4   0   7   20.90    3.60
  -4   0  -7   26.30    3.10
   4   0   7   27.30    2.70
   4   0   7   25.00    5.00
  -4   0  -7   20.80    3.50
   4   0   7   25.30    3.40
  -5   0  -7    6.80    2.40
   5   0   7    3.20    1.70
   5   0   7    7.30    5.30
   5   0   7   -0.20    2.00
  -5   0  -7    4.70    2.60
   6   0   7    9.80    3.00
   6   0   7   18.60    3.20
  -6   0  -7   13.40    3.40
   6   0   7   12.10    6.60
   6   0   7   11.90    4.10
  -6   0  -7   11.20    3.40
   7   0   7    1.80    4.00
  -7   0  -7    9.90    3.70
   7   0   7    7.10    2.70
   7   0   7    9.20    6.90
  -7   0  -7    7.60    3.60
   8   0   7   16.40    9.10
   8   0   7   18.30    4.80
   8   0   7    7.60    5.50
  -8   0  -7   21.10    5.40
   9   0   7    1.30    5.00
   9   0   7    5.10    5.70
  -9   0  -7    7.00    5.80
  11  -1  -7    1.00    8.50
  11  -1  -7   14.40    7.00
  11   1  -7    7.50    7.50
  10  -1  -7   15.30    5.50
 -10  -1   7   -3.00    8.60
 -10   1   7    7.60    8.00
  10   1  -7    3.70    5.60
   9  -1  -7   42.90    7.30
  -9  -1   7   44.40    9.20
   9  -1  -7   58.39    7.80
  -9   1   7   40.60    9.30
  -9   1   7   49.30    6.60
   9   1  -7   40.20    7.10
  -8  -1   7   13.50    6.00
  -8  -1   7    0.40    4.00
  -8  -1   7    7.90    5.30
   8  -1  -7    9.60    4.40
   8  -1  -7   10.30    3.90
  -8   1   7    8.10    6.70
   8   1  -7    6.80    4.80
   8   1  -7   -0.60    4.00
  -8   1   7    1.00    6.00
  -8   1   7    7.00    3.50
   7  -1  -7   25.00    4.30
  -7  -1   7   47.70    8.80
  -7  -1   7   31.40    6.20
  -7  -1   7   33.40    5.20
  -7   1   7   31.40    6.30
   7   1  -7   35.40    6.10
  -7   1   7   26.30    4.40
   6  -1  -7   -0.50    2.20
  -6  -1   7   -4.30    5.70
   6  -1  -7   -2.80    2.00
   6  -1  -7    1.20    3.00
  -6  -1   7   -1.60    2.70
  -6  -1   7   -1.20    3.20
   6   1  -7    4.40    3.10
  -6   1   7   -0.50    5.40
  -6   1   7   -2.00    3.30
  -6   1   7    5.30    2.20
  -5  -1   7   29.10    4.40
   5  -1  -7   41.20    4.50
   5  -1  -7   33.70    4.20
  -5  -1   7   30.80    4.50
  -5  -1   7   41.80    7.60
   5  -1  -7   40.80    4.40
  -5   1   7   43.80    7.40
   5   1  -7   24.40    5.50
  -5   1   7   28.50    5.20
  -5   1   7   36.40    3.60
   5   1  -7   40.10    4.60
   4  -1  -7    8.60    2.10
   4  -1  -7    4.10    1.80
  -4  -1   7    7.90    2.50
   4  -1  -7    8.80    2.30
  -4  -1   7    9.60    4.60
  -4   1   7    6.20    3.40
   4   1  -7    7.60    2.20
   4   1  -7    8.50    2.10
  -4   1   7    8.70    1.80
  -4   1   7    7.40    3.10
  -3  -1   7   38.80    3.80
  -3  -1   7   49.00    6.90
   3  -1  -7   37.70    3.70
  -3  -1   7   37.80    3.90
   3  -1  -7   44.00    3.80
   3  -1  -7   40.20    2.80
   3   1  -7   44.00    3.30
  -3   1   7   36.00    4.30
   3   1  -7   43.30    4.50
  -3   1   7   38.20    3.20
   3   1  -7   48.00    3.60
  -3   1   7   41.40    4.50
   2  -1  -7   55.19    4.20
  -2  -1   7   53.09    4.10
  -2  -1   7   54.99    4.20
   2  -1  -7   54.69    3.00
  -2  -1   7   60.99    6.10
  -2   1   7   51.79    4.40
  -2   1   7   53.49    4.70
   2   1  -7   59.19    4.30
   2   1  -7   59.09    3.90
   2   1  -7   58.39    3.80
  -2   1   7   58.39    3.60
  -1  -1   7  824.02   42.00
   1  -1  -7  876.71   42.10
   1  -1  -7  813.72   37.60
  -1  -1   7  794.82   38.40
  -1  -1   7  876.51   43.70
  -1   1   7  747.43   44.10
   1   1  -7  767.22   43.60
   1   1  -7  795.52   41.50
   1   1  -7  856.71   38.10
  -1   1   7  773.02   37.80
  -1   1   7  829.42   42.10
   0  -1   7    6.20    1.70
   0  -1   7    3.80    1.30
   0  -1  -7    3.30    1.40
   0  -1   7    4.50    1.40
   0  -1   7    4.80    1.50
   0  -1  -7    5.60    1.30
   0   1   7    3.30    1.50
   0   1   7    4.20    0.90
   0   1  -7    4.50    1.10
   0   1   7    4.90    1.20
   1  -1   7  199.78   11.20
   1  -1   7  226.78   10.70
   1  -1   7  216.28   12.70
   1  -1   7  216.88   11.20
  -1  -1  -7  223.68   11.90
  -1   1  -7  221.98   10.50
   1   1   7  211.18   10.30
   1   1   7  195.58   12.10
   1   1   7  215.58   10.70
   1   1   7  203.38   11.70
   1   1   7  203.98   11.90
   2  -1   7    4.20    1.20
   2  -1   7    5.60    2.00
   2   1   7    3.20    1.40
  -2   1  -7    5.50    1.90
   2   1   7    4.60    1.30
   2   1   7    6.10    1.70
   2   1   7    5.00    1.50
   2   1   7    5.10    1.50
  -2   1  -7    4.50    1.10
   3  -1   7  189.18    9.60
   3  -1   7  172.78   11.30
   3  -1   7  193.88   10.00
   3  -1   7  166.88   12.10
  -3  -1  -7  197.38   10.80
   3   1   7  192.48   10.60
   3   1   7  181.28   11.10
   3   1   7  177.98   11.60
   3   1   7  188.28   10.20
  -3   1  -7  204.88   11.90
  -3   1  -7  188.58   10.10
   3   1   7  175.58    9.80
  -4  -1  -7   21.00    3.00
   4  -1   7   18.20    4.00
   4  -1   7   21.90    2.60
   4  -1   7   17.90    4.70
  -4  -1  -7   21.20    3.30
   4  -1   7   28.80    3.40
   4   1   7   20.50    2.90
   4   1   7   19.80    4.20
   4   1   7   20.20    3.30
  -4   1  -7   25.80    4.10
   4   1   7   23.20    3.80
  -4   1  -7   17.90    2.70
   5  -1   7   29.00    5.20
  -5  -1  -7   28.80    4.50
  -5  -1  -7   28.80    3.70
   5  -1   7   35.30    6.30
   5  -1   7   27.20    3.30
  -5   1  -7   30.00    4.00
  -5   1  -7   33.70    5.30
   5   1   7   31.20    4.50
   5   1   7   24.60    4.30
   5   1   7   29.40    3.40
   5   1   7   35.20    6.60
   6  -1   7    3.80    2.10
  -6  -1  -7   -0.70    2.40
   6  -1   7    0.60    5.80
  -6   1  -7    1.70    3.50
   6   1   7    6.60    6.10
   6   1   7    8.10    3.50
   6   1   7    2.50    3.00
  -6   1  -7    0.80    2.90
   7  -1   7   47.50    8.00
  -7  -1  -7   65.39    7.80
  -7  -1  -7   51.89    5.90
  -7  -1  -7   62.59    6.10
   7  -1   7   66.99    6.80
   7  -1   7   59.39   11.90
   7   1   7   59.09    7.30
  -7   1  -7   78.79    7.60
  -7   1  -7   77.49    8.80
   7   1   7   53.29    7.50
  -8  -1  -7    1.60    4.40
   8  -1   7   -4.60    8.30
  -8  -1  -7    3.90    3.70
   8  -1   7    8.10    4.50
   8  -1   7    7.50    5.40
   8   1   7    3.70    4.30
  -8   1  -7    7.70    5.80
   9  -1   7   12.50    6.40
  -9  -1  -7    1.10    5.30
   9  -1   7   -0.70    5.20
   9  -1   7   -6.60   10.40
   9   1   7   -2.20    5.10
  -9   1  -7    6.00    5.70
   9   1   7   -4.10    6.20
  10  -2  -7   46.10    8.50
 -10  -2   7   34.00   10.00
  10  -2  -7   40.20    8.40
  10   2  -7   25.50    7.60
  10   2  -7   47.00    7.00
 -10   2   7   31.40   10.50
   9  -2  -7    9.70    6.00
   9  -2  -7    1.10    5.60
  -9  -2   7    0.10    6.90
  -9   2   7   -7.00    8.70
  -8  -2   7   28.30    7.90
  -8  -2   7   10.00    5.40
   8  -2  -7   12.00    5.00
   8   2  -7   17.40    4.00
   8   2  -7   14.00    4.30
  -8   2   7   17.60    3.20
   7  -2  -7    6.30    3.80
  -7  -2   7   -1.00    3.60
   7  -2  -7    7.90    3.80
  -7  -2   7    5.20    4.00
  -7  -2   7   -2.20    6.40
   7   2  -7    6.10    3.10
   7   2  -7    2.00    5.60
  -7   2   7    1.60    4.90
  -7   2   7   -5.60    6.70
   7   2  -7    8.20    2.40
  -6  -2   7   92.69   12.70
   6  -2  -7   98.79    8.40
   6  -2  -7   70.29    6.70
   6  -2  -7   90.89    6.80
  -6   2   7   88.19   12.20
  -6   2   7   66.29    9.20
   6   2  -7   93.29    6.10
   6   2  -7   91.19   10.90
  -6   2   7  101.39    5.60
   6   2  -7   96.59    7.50
  -5  -2   7   38.60    7.20
   5  -2  -7   36.10    4.00
   5  -2  -7   27.70    4.70
  -5  -2   7   20.30    4.20
   5  -2  -7   22.60    4.20
  -5  -2   7   25.00    4.00
  -5   2   7   27.30    5.30
  -5   2   7   27.50    5.40
   5   2  -7   35.90    4.60
   5   2  -7   26.50    2.70
   5   2  -7   29.80    6.10
  -4  -2   7   43.90    5.20
  -4  -2   7   42.50    8.50
   4  -2  -7   50.39    4.60
   4  -2  -7   52.09    3.40
  -4  -2   7   45.90    4.70
   4  -2  -7   55.59    5.50
  -4   2   7   59.09    6.00
   4   2  -7   51.29    7.60
   4   2  -7   57.89    4.80
  -4   2   7   43.40    5.90
  -4   2   7   47.40    3.10
   4   2  -7   55.09    3.90
  -3  -2   7   20.90    4.70
   3  -2  -7   14.10    3.10
  -3  -2   7   20.40    3.80
   3   2  -7   19.20    2.80
  -3   2   7   21.00    4.40
   3   2  -7   21.10    4.30
  -3   2   7   20.60    3.80
  -2  -2   7   57.19    4.40
  -2  -2   7   56.99    5.00
  -2  -2   7   55.79    6.30
   2  -2  -7   66.19    5.10
  -2  -2   7   63.49    4.60
   2   2  -7   55.99    5.60
  -2   2   7   52.89    5.70
  -1  -2   7   10.20    2.10
  -1  -2   7    9.20    2.40
   1  -2  -7    7.50    2.00
  -1  -2   7    6.50    2.50
   1  -2  -7    7.90    2.00
  -1  -2   7    7.40    2.00
  -1   2   7    9.80    2.20
   1   2  -7    9.10    1.80
   1   2  -7    8.30    1.60
  -1   2   7    7.20    2.70
   0  -2   7   16.40    2.60
   0  -2   7   19.70    2.40
   0  -2   7   17.20    2.80
   0   2   7   16.60    1.30
   0   2  -7   19.90    2.00
   0   2   7   17.20    3.10
   0   2   7   15.70    2.00
   0   2   7   16.70    2.90
  -1  -2  -7   20.50    2.30
   1  -2   7   21.10    2.70
   1   2   7   18.50    3.10
   1   2   7   18.50    1.90
   1   2   7   27.20    2.70
  -1   2  -7   22.50    3.10
   1   2   7   19.60    3.40
   2  -2   7   83.99    7.20
  -2  -2  -7   97.69    5.60
   2  -2   7  106.69    5.90
  -2   2  -7   97.79    5.60
  -2   2  -7  104.29    7.60
   2   2   7  107.09    7.40
   2   2   7   90.69    6.60
   2   2   7   98.49    6.20
   2   2   7   84.59    6.30
  -3  -2  -7   19.20    3.40
   3  -2   7   17.70    2.40
  -3  -2  -7   16.70    3.00
   3  -2   7   20.40    3.90
  -3   2  -7   22.10    2.40
  -3   2  -7   28.20    4.40
  -4  -2  -7   23.10    3.70
   4  -2   7   16.50    3.20
   4  -2   7   12.80    3.50
  -4  -2  -7   15.00    2.90
   4  -2   7   19.50    2.60
   4   2   7   27.60    4.60
   4   2   7   28.40    5.60
  -4   2  -7   18.00    4.00
  -5  -2  -7    3.70    2.50
  -5  -2  -7    1.20    2.40
   5  -2   7    5.60    1.80
   5  -2   7    0.20    3.50
   5  -2   7    5.90    2.50
  -5   2  -7    7.10    3.60
   5   2   7   -2.60    3.40
  -5   2  -7    3.80    2.10
  -6  -2  -7   24.70    4.90
   6  -2   7   28.20    6.60
  -6  -2  -7   38.60    6.00
   6  -2   7   28.00    5.00
   6  -2   7   34.90    3.90
   6   2   7   34.40    5.70
  -6   2  -7   40.80    5.20
  -6   2  -7   39.60    7.80
  -7  -2  -7   -0.20    4.10
   7  -2   7    2.30    4.70
   7  -2   7   -7.40    5.40
  -7   2  -7    2.00    3.80
   7   2   7   13.60    4.80
  -8  -2  -7    6.90    5.30
   8  -2   7   17.10    5.00
   8  -2   7    6.30    5.70
   8   2   7    8.10    6.10
  -8   2  -7    2.00    4.80
   9  -2   7    2.70    7.60
  -9  -2  -7    1.70    6.30
   9   2   7    2.20    7.70
   9  -3  -7   68.99   11.90
  -7  -3   7   18.40    5.20
   7  -3  -7   19.10    4.70
   7  -3  -7   31.80    4.90
   7  -3  -7   22.20    2.60
   7   3  -7   23.40    8.20
   7   3  -7   26.70    4.80
  -7   3   7   14.90    8.30
  -6  -3   7   11.30    4.00
   6  -3  -7   14.90    3.90
   6  -3  -7   16.60    3.40
  -6  -3   7   14.80    4.00
  -6   3   7   15.70    6.40
   6   3  -7   12.80    7.20
   6   3  -7   14.70    3.80
  -6   3   7    4.60    5.30
   5  -3  -7   67.09    7.30
  -5  -3   7   68.69    6.10
  -5  -3   7   64.69    6.90
   5   3  -7   65.69   11.40
   5   3  -7   81.29    6.40
  -5   3   7   53.29    8.80
  -5   3   7   69.69    8.80
   4  -3  -7    3.20    3.10
  -4  -3   7   -3.00    2.20
   4  -3  -7    2.80    2.90
  -4  -3   7   -3.30    3.00
   4   3  -7   -4.10    5.50
   4   3  -7   -0.80    2.20
  -4   3   7    1.60    4.20
  -3  -3   7    4.10    1.90
  -3  -3   7    2.70    2.90
  -3  -3   7    2.40    1.60
  -3  -3   7    0.30    3.40
   3  -3  -7   -0.40    2.90
  -3   3   7    6.50    3.20
  -3   3   7    4.50    4.10
   3   3  -7    3.40    2.00
   3   3  -7    2.80    5.10
  -2  -3   7   30.00    3.30
   2  -3  -7   29.00    3.80
  -2  -3   7   24.40    4.10
   2  -3  -7   24.60    4.20
  -2  -3   7   27.10    3.70
  -2   3   7   28.00    6.20
   2   3  -7   25.80    3.10
   2   3  -7   28.10    5.30
  -1  -3   7    2.70    2.20
   1  -3  -7    0.60    2.00
  -1  -3   7    4.10    2.60
  -1  -3   7   -0.20    1.80
  -1   3   7    2.50    1.90
   1   3  -7    2.90    1.40
  -1   3   7    4.20    3.70
  -1   3   7    8.70    2.90
   0  -3   7   18.50    3.60
   0  -3   7   20.90    4.20
   0   3  -7   18.90    2.40
   0   3   7   18.40    3.60
   0   3   7   18.20    4.40
  -1  -3  -7    9.20    1.80
   1  -3   7    7.10    3.10
  -1  -3  -7   10.40    2.20
   1   3   7    8.80    3.50
   1   3   7    9.80    3.20
  -1   3  -7    8.90    3.50
  -1   3  -7   10.20    1.90
   1   3   7   11.70    2.70
   2  -3   7    8.00    2.30
   2  -3   7    6.60    2.90
   2   3   7   10.10    3.40
  -2   3  -7    9.00    1.80
   2   3   7    9.90    3.20
  -2   3  -7    8.20    3.20
  -3  -3  -7    1.70    2.50
   3  -3   7    3.30    2.10
   3  -3   7    0.80    3.00
   3   3   7    8.40    4.00
  -3   3  -7    0.90    1.60
   3   3   7    3.30    3.10
  -3   3  -7    5.00    2.90
  -4  -3  -7    9.20    3.30
  -4  -3  -7   10.60    3.00
  -4   3  -7   10.00    2.40
  -4   3  -7   10.50    5.20
   4   3   7   16.60    4.20
  -5  -3  -7    7.30    3.70
   5  -3   7   -3.70    4.10
   5  -3   7    7.30    3.10
   5  -3   7    3.40    2.30
  -5  -3  -7    9.10    2.90
  -6  -3  -7    8.00    3.50
  -6  -3  -7   12.80    4.60
   6  -3   7    2.60    5.00
   6   3   7   17.60    5.20
   7  -3   7    9.30    4.30
  -7  -3  -7   10.00    4.60
   7  -3   7    1.20    5.40
   7   3   7   12.10    5.90
  -8  -3  -7    5.90    5.40
   8  -3   7  -10.50    7.30
   8   3   7    9.30    7.20
  -8  -4   7   22.50    9.50
  -7  -4   7   17.30    6.90
   7  -4  -7   17.70    6.80
  -7   4   7    8.40    8.60
  -6  -4   7    3.40    2.80
  -6  -4   7   10.20    5.30
  -6  -4   7    1.30    3.70
   6   4  -7   -0.90    9.90
   6   4  -7    1.60    3.30
  -6   4   7   -8.80    6.10
   5  -4  -7   33.80    7.80
   5   4  -7   11.50    9.70
   4  -4  -7    0.10    4.10
   4  -4  -7   15.10    4.30
  -4  -4   7   10.30    3.50
  -4  -4   7    7.10    2.90
   4   4  -7    8.70    2.90
  -4   4   7    6.20    6.20
   4   4  -7   11.40    8.40
  -4   4   7    1.10    4.50
  -3  -4   7   11.10    3.00
  -3  -4   7    7.00    2.80
  -3  -4   7    4.90    3.00
   3  -4  -7   10.10    4.20
   3  -4  -7    7.80    3.40
  -3  -4   7   -0.60    3.90
  -3   4   7    7.70    6.00
   3   4  -7   10.00    7.80
   3   4  -7   12.50    2.80
  -3   4   7   16.50    4.80
   2  -4  -7    2.00    3.20
  -2  -4   7    4.60    2.50
  -2  -4   7    2.60    1.80
  -2  -4   7   -6.20    3.70
  -2   4   7    6.80    5.30
   2   4  -7    2.50    2.00
   2   4  -7    5.10    6.60
  -2   4   7   -1.10    2.70
  -1  -4   7    5.20    3.00
  -1  -4   7   -1.00    2.60
  -1  -4   7    4.70    3.90
   1  -4  -7    4.60    2.80
   1   4  -7    5.10    5.40
  -1   4   7    6.70    5.30
   1   4  -7    2.10    1.60
  -1   4   7    3.80    2.80
   0  -4   7   15.10    4.40
   0  -4   7   13.80    4.00
   0   4  -7   11.80    3.90
   0   4   7   13.40    5.00
   0   4   7   19.60    4.50
   0   4  -7   19.40    2.90
   1  -4   7    8.30    3.90
  -1  -4  -7   10.70    2.40
   1  -4   7    4.20    3.80
   1   4   7   12.80    2.70
   1   4   7   12.00    4.70
  -1   4  -7    7.00    4.60
   1   4   7   12.60    4.40
   1   4   7    9.40    3.80
  -1   4  -7   13.00    2.40
   2  -4   7    5.50    3.60
  -2  -4  -7    0.00    2.80
   2  -4   7    7.70    3.90
   2   4   7    5.90    3.30
  -2   4  -7    0.70    4.30
  -2   4  -7    4.30    1.90
   2   4   7   10.90    4.50
   3  -4   7   29.70    6.70
  -3  -4  -7   42.20    5.50
   3  -4   7   41.90    6.00
   3   4   7   30.80    6.50
   4  -4   7   -0.30    4.80
  -4  -4  -7   -1.80    3.90
  -4   4  -7   -1.00    2.20
   4   4   7    2.20    4.90
  -5  -4  -7    9.50    4.40
  -5  -4  -7    3.30    3.70
   5  -4   7    4.30    3.70
   5   4   7   -0.10    5.40
  -6  -4  -7    5.50    4.00
   6  -4   7   10.60    5.00
   6  -4   7   -8.70    5.70
   6   4   7   -6.70    6.60
  -5  -5   7    0.40    4.30
  -5  -5   7    4.20    4.50
   5  -5  -7   12.60    6.70
  -5   5   7  -10.60    6.70
   5   5  -7   -4.00   14.90
   5   5  -7    8.50    3.90
   4  -5  -7   24.80    6.10
  -4   5   7    0.60    6.20
   4   5  -7   12.30    3.80
   4   5  -7   11.90   13.50
  -3  -5   7    2.10    3.60
   3  -5  -7    1.30    5.00
  -3  -5   7    2.80    2.60
   3   5  -7    0.00   11.50
   3   5  -7    3.10    3.00
  -3   5   7    4.80    8.80
  -3   5   7   -2.40    6.30
  -2  -5   7    8.70    3.50
  -2  -5   7    0.10    4.50
   2  -5  -7    1.20    4.40
   2   5  -7    1.40   10.10
   2   5  -7    6.20    2.50
  -2   5   7    7.20    7.80
  -2   5   7    5.00    7.50
   2   5  -7   -0.70    3.30
  -1  -5   7   -1.80    3.70
   1  -5  -7    4.40    3.50
  -1  -5   7    1.90    4.30
   1   5  -7    1.70    2.00
   1   5  -7    4.80    2.40
  -1   5   7    2.50    7.30
  -1   5   7    3.00    6.80
   0   5   7   28.70    8.50
   0   5  -7   13.00    3.00
   0   5   7    5.00    6.10
   2  -5   7    8.80    6.20
   2   5   7   13.20    3.60
   3  -5   7    1.60    5.60
  -3   5  -7    9.50    3.10
   3   5   7    3.80    4.20
   4  -5   7    0.80    6.10
   4   5   7   -2.00    5.10
  -4   5  -7   -0.70    3.10
  11   0  -8    1.80    5.10
  11   0  -8   -8.40    8.00
  10   0  -8    8.00    4.20
 -10   0   8   15.40    7.70
  10   0  -8   -6.30    6.10
  -9   0   8   -0.40    7.00
  -9   0   8   -2.50    6.50
   9   0  -8    4.30    3.30
   9   0  -8   -1.90    5.00
  -9   0   8   10.20    4.50
   8   0  -8    4.30    2.70
   8   0  -8    0.80    4.30
  -8   0   8    1.30    5.20
   8   0  -8   -2.70    3.00
  -8   0   8   -4.60    5.70
  -8   0   8    0.80    3.70
  -7   0   8    4.60    4.60
  -7   0   8   -2.40    3.20
   7   0  -8   10.30    2.80
   7   0  -8    3.70    3.80
  -7   0   8    8.60    7.00
   6   0  -8   42.90    5.60
  -6   0   8   59.39   11.00
  -6   0   8   52.79    6.70
  -6   0   8   48.10    5.50
   5   0  -8    1.80    2.30
  -5   0   8    7.90    5.40
  -5   0   8    4.50    2.50
  -5   0   8    4.70    2.50
   5   0  -8    9.60    2.90
  -4   0   8  588.94   35.70
   4   0  -8  642.34   33.80
  -4   0   8  687.43   35.00
  -4   0   8  591.24   30.90
   4   0  -8  700.23   30.90
   3   0  -8    7.90    1.70
   3   0  -8    5.80    1.70
  -3   0   8    7.20    2.40
  -3   0   8    6.60    2.20
  -3   0   8    9.70    3.20
   2   0  -8    0.90    1.20
  -2   0   8    1.40    1.80
  -2   0   8   -1.10    1.50
   2   0  -8    2.10    1.60
   2   0  -8   -0.10    0.80
   1   0  -8   11.70    2.20
   1   0  -8   12.80    1.90
  -1   0   8   17.20    2.10
  -1   0   8   13.20    2.40
  -1   0   8   13.10    2.60
   0   0  -8  650.73   34.20
   0   0  -8  643.34   29.70
   0   0   8  638.14   32.80
   0   0   8  617.74   29.70
   0   0   8  646.24   34.30
   0   0  -8  603.74   32.60
  -1   0  -8   11.90    1.50
   1   0   8   10.80    1.60
   1   0   8   13.70    2.00
   1   0   8   11.40    2.00
   1   0   8   15.80    2.20
   2   0   8   10.80    2.30
   2   0   8   13.40    2.10
   2   0   8   15.40    2.30
   2   0   8   12.00    1.70
   2   0   8   10.40    2.30
   3   0   8    0.70    1.60
   3   0   8    0.60    2.40
   3   0   8   -1.70    1.70
  -3   0  -8    0.40    1.20
   3   0   8   -1.40    1.10
   4   0   8    2.20    1.40
   4   0   8   -0.70    3.80
  -4   0  -8   -0.60    1.50
   4   0   8   -0.90    1.80
   4   0   8    1.10    2.20
  -5   0  -8    5.90    3.00
   5   0   8    1.80    3.00
   5   0   8    4.10    1.80
   5   0   8    6.10    5.50
  -6   0  -8  128.19    9.20
   6   0   8  107.29   10.30
   6   0   8  133.79   12.70
  -6   0  -8  132.99    9.60
   6   0   8  129.29    7.80
   6   0   8  126.29    9.00
   7   0   8    4.70    4.20
  -7   0  -8    5.00    4.00
   7   0   8    8.90    7.80
   7   0   8    2.30    4.40
  -8   0  -8   17.10    5.40
   8   0   8   10.60    5.60
  -8   0  -8   17.00    5.20
   8   0   8   30.00   10.60
  -9   0  -8   -0.10    5.60
   9   0   8   12.00    6.60
   9   0   8   22.00    6.60
  10  -1  -8    8.00    5.30
  10  -1  -8    0.20    6.80
  10   1  -8    5.10    4.50
 -10   1   8    9.50    8.20
 -10   1   8   11.20    4.40
   9  -1  -8   32.70    6.90
  -9  -1   8   15.40    7.50
   9  -1  -8   22.60    6.60
  -9   1   8   15.40    4.90
  -9   1   8   29.90    8.00
   8  -1  -8   10.00    3.60
  -8  -1   8    8.50    5.40
  -8  -1   8    3.10    5.90
   8  -1  -8    4.70    4.90
  -8  -1   8   12.90    4.20
   8  -1  -8    5.00    3.00
  -8   1   8    7.10    3.20
  -8   1   8    9.80    5.90
  -8   1   8    6.60    6.80
   8   1  -8    0.80    3.90
  -7  -1   8   58.09   12.30
   7  -1  -8   60.39    6.30
  -7  -1   8   59.59    6.80
  -7  -1   8   62.69    7.70
   7   1  -8   51.59    8.10
  -7   1   8   66.19    5.70
  -7   1   8   49.00    7.80
  -7   1   8   59.99   11.60
   6  -1  -8   -0.20    3.10
   6  -1  -8   -2.50    2.20
  -6  -1   8    0.30    3.10
   6  -1  -8   -3.50    2.20
  -6  -1   8    0.30    2.70
  -6  -1   8    0.00    6.70
   6   1  -8    3.10    2.70
   6   1  -8    1.00    2.90
  -6   1   8    4.50    3.30
   6   1  -8   -3.00    3.30
  -6   1   8   -3.20    2.60
  -6   1   8    1.70    6.00
   5  -1  -8   22.70    3.70
  -5  -1   8   24.80    4.30
   5  -1  -8   28.80    3.90
   5  -1  -8   33.40    4.20
  -5  -1   8   25.50    4.40
  -5  -1   8   30.00    7.10
  -5   1   8   24.60    5.10
  -5   1   8   24.50    3.40
  -5   1   8   39.70    7.40
   5   1  -8   30.80    4.40
   5   1  -8   27.40    5.90
   5   1  -8   29.60    3.70
  -4  -1   8   14.40    3.20
   4  -1  -8   12.30    2.20
   4  -1  -8   13.90    2.80
   4  -1  -8   18.30    2.80
  -4  -1   8   15.20    5.60
  -4  -1   8   11.80    2.80
   4   1  -8   18.80    3.60
  -4   1   8   18.20    3.90
   4   1  -8   21.40    2.90
  -4   1   8   16.10    2.60
   4   1  -8   18.70    3.00
  -4   1   8   12.20    3.50
   3  -1  -8    4.70    1.80
   3  -1  -8    6.10    2.00
   3  -1  -8    5.10    1.20
  -3  -1   8    4.30    2.10
  -3  -1   8    5.20    4.00
  -3  -1   8    2.60    2.00
  -3   1   8    4.30    2.20
  -3   1   8    3.30    2.00
  -3   1   8    6.50    1.90
   3   1  -8    5.40    2.20
   3   1  -8    6.80    1.80
   2  -1  -8   13.60    1.20
  -2  -1   8   12.20    2.40
  -2  -1   8   13.30    3.70
   2  -1  -8   11.90    2.20
  -2   1   8   13.00    2.50
   2   1  -8   15.70    2.00
  -2   1   8   13.20    2.90
   2   1  -8   12.50    1.90
   2   1  -8   16.60    2.50
  -2   1   8   11.40    2.30
  -1  -1   8  376.46   20.50
  -1  -1   8  452.65   23.20
   1  -1  -8  420.36   19.70
  -1  -1   8  436.06   22.50
   1   1  -8  415.46   21.90
  -1   1   8  445.66   22.60
  -1   1   8  388.36   19.80
  -1   1   8  404.86   23.60
   1   1  -8  444.06   20.20
   0  -1   8   30.80    2.90
   0  -1   8   27.00    2.90
   0  -1  -8   21.60    3.00
   0  -1   8   33.60    3.10
   0   1   8   31.50    2.30
   0   1   8   31.10    3.40
   0   1   8   25.60    3.30
   0   1  -8   28.10    2.20
   0   1   8   28.00    2.10
   0   1  -8   31.60    2.30
   1  -1   8   74.19    5.20
   1  -1   8   83.89    4.60
   1  -1   8   78.89    5.70
   1  -1   8   70.69    4.60
   1  -1   8   73.19    4.70
  -1  -1  -8   85.09    5.00
  -1   1  -8   79.69    4.40
   1   1   8   70.99    4.60
   1   1   8   67.79    5.30
   1   1   8   75.39    5.00
   1   1   8   77.39    4.20
   2  -1   8    5.10    1.20
   2  -1   8    1.90    1.80
   2   1   8    7.30    1.80
   2   1   8    4.30    1.80
   2   1   8    5.50    1.70
   2   1   8    7.10    1.70
   2   1   8    3.50    2.10
   2   1   8    6.10    1.20
   3  -1   8   44.00    5.60
   3  -1   8   44.20    3.50
   3  -1   8   43.70    5.00
   3  -1   8   42.80    3.80
   3  -1   8   46.30    3.40
   3   1   8   47.00    3.90
   3   1   8   43.10    3.50
   3   1   8   49.99    4.30
  -3   1  -8   43.60    4.70
   3   1   8   44.00    4.10
   3   1   8   48.60    5.80
   4  -1   8    0.50    1.40
   4  -1   8   -3.50    4.10
  -4  -1  -8    2.60    1.80
   4  -1   8    3.20    2.10
   4  -1   8    1.20    2.60
   4   1   8   -1.50    2.10
   4   1   8   -0.40    1.80
  -4   1  -8    1.60    1.40
   4   1   8    0.10    3.20
   4   1   8    3.30    1.90
   4   1   8   -0.40    2.20
  -4   1  -8   -0.40    2.30
   5  -1   8   22.40    4.10
   5  -1   8   23.70    6.20
   5  -1   8   24.80    4.80
   5  -1   8   32.20    3.40
  -5  -1  -8   28.60    4.50
   5   1   8   21.70    4.20
   5   1   8   24.80    3.80
   5   1   8   23.50    4.30
   5   1   8   24.60    3.80
  -5   1  -8   23.00    4.70
  -5   1  -8   29.20    3.60
   5   1   8   30.20    6.50
   6  -1   8    9.10    2.60
  -6  -1  -8   12.60    3.20
   6  -1   8   12.30    6.60
   6  -1   8    8.00    4.10
  -6   1  -8   12.70    4.00
  -6   1  -8   11.40    3.00
   6   1   8   12.70    3.90
   6   1   8   17.60    6.80
   6   1   8    8.40    3.90
   7  -1   8   22.80    6.00
   7  -1   8   36.40    6.00
   7  -1   8   23.50    8.40
  -7  -1  -8   31.20    5.30
  -7   1  -8   30.20    6.10
   7   1   8   33.20    4.60
   7   1   8   28.30    5.50
   8  -1   8   -2.90    8.90
  -8  -1  -8    0.60    4.60
   8  -1   8   -1.40    4.30
   8  -1   8    2.00    5.40
   8   1   8   -2.70    4.70
  -9  -1  -8   13.40    5.90
   9  -1   8    6.80   11.80
  -9   1  -8   10.70    5.60
  10  -2  -8   37.60    8.80
  10  -2  -8   60.19   11.90
 -10  -2   8   31.10   10.60
  10   2  -8   46.80    7.60
  10   2  -8   30.90    6.90
 -10   2   8   44.20   12.60
  -9  -2   8   -1.80    6.90
   9  -2  -8    7.60    5.80
   9  -2  -8   12.60    6.00
  -9   2   8   10.90    8.60
   9   2  -8   11.50    4.90
  -9   2   8   16.00    3.50
   9   2  -8   12.50    4.10
   8  -2  -8    6.40    4.70
   8  -2  -8   -3.10    4.50
  -8  -2   8   17.30    8.20
  -8  -2   8   -1.10    4.80
   8   2  -8   -1.00    3.80
   7  -2  -8    4.00    2.80
   7  -2  -8    8.30    4.30
   7  -2  -8   10.40    4.10
  -7  -2   8    2.90    3.90
  -7  -2   8   21.10    7.30
  -7  -2   8    2.80    3.60
   7   2  -8    7.10    3.80
  -7   2   8    5.80    6.50
   7   2  -8   -2.70    5.80
  -7   2   8    7.30    5.40
   7   2  -8    7.30    2.20
   6  -2  -8   25.10    5.30
  -6  -2   8   32.60    8.30
  -6  -2   8   21.30    4.70
   6  -2  -8   16.10    3.50
   6  -2  -8   23.70    4.80
  -6  -2   8   24.80    4.70
   6   2  -8   28.60    4.80
  -6   2   8   28.00    6.70
  -6   2   8   19.60    3.40
   6   2  -8   18.80    2.80
   6   2  -8   18.70    6.20
  -6   2   8   25.50    6.30
   5  -2  -8   23.50    3.40
   5  -2  -8   18.30    3.30
  -5  -2   8   26.90    7.50
  -5  -2   8   21.30    4.20
   5  -2  -8   26.20    4.70
  -5  -2   8   13.40    3.90
  -5   2   8   19.10    2.80
  -5   2   8   21.70    4.40
   5   2  -8   18.00    5.70
   5   2  -8   19.60    2.50
   5   2  -8   22.10    4.00
  -5   2   8   24.50    5.10
  -4  -2   8   28.50    4.50
  -4  -2   8   44.90    7.40
   4  -2  -8   47.70    4.80
  -4  -2   8   33.80    4.50
   4  -2  -8   30.60    4.20
   4   2  -8   40.10    4.20
  -4   2   8   39.00    5.90
  -4   2   8   42.90    6.10
   4   2  -8   36.50    7.00
   3  -2  -8   12.70    2.70
  -3  -2   8    9.00    2.80
  -3  -2   8    7.30    2.30
  -3  -2   8   11.60    5.00
   3  -2  -8    7.80    2.40
   3   2  -8   10.20    2.20
  -3   2   8    9.90    3.50
   3   2  -8   11.70    3.60
  -3   2   8    9.40    2.90
  -2  -2   8    0.70    1.70
  -2  -2   8    4.00    1.50
  -2  -2   8   -2.00    3.60
  -2  -2   8    2.60    2.20
   2  -2  -8    4.40    1.80
   2   2  -8    3.80    2.20
  -2   2   8    2.60    2.50
  -2   2   8    1.90    2.60
  -1  -2   8   10.50    2.70
  -1  -2   8    9.00    3.20
   1  -2  -8   10.60    2.10
   1   2  -8   15.70    2.10
   1   2  -8   11.30    1.80
  -1   2   8   11.20    2.70
   0  -2   8   16.60    2.90
   0  -2   8   20.50    3.10
   0  -2   8   15.30    2.70
   0  -2  -8   25.60    3.00
   0   2   8   22.40    3.20
   0   2   8   16.30    3.60
   0   2   8   21.70    2.50
   0   2   8   25.00    3.40
   0   2  -8   23.50    2.30
   0   2   8   19.50    1.60
   1  -2   8   12.80    3.00
  -1  -2  -8   13.30    2.00
   1  -2   8   13.50    2.70
   1   2   8   17.50    3.60
   1   2   8   13.70    1.70
   1   2   8   14.70    3.00
  -1   2  -8   19.10    2.20
   1   2   8   20.80    2.90
   1   2   8   11.10    2.40
   2  -2   8  163.58    8.80
   2  -2   8  151.98   10.90
   2   2   8  164.38   10.60
   2   2   8  156.98    9.10
  -2   2  -8  173.48    8.60
   2   2   8  156.68    8.30
   2   2   8  160.08    9.90
   2   2   8  144.79    9.70
   3  -2   8   11.80    3.40
   3  -2   8    9.00    1.90
  -3  -2  -8   13.40    2.40
  -3   2  -8   16.80    2.40
  -3   2  -8   12.50    3.70
   3   2   8   12.80    2.40
   3   2   8    6.50    2.90
   3   2   8    8.90    2.40
   4  -2   8   48.80    4.50
  -4  -2  -8   47.30    4.60
   4  -2   8   43.20    3.80
   4   2   8   61.19    7.00
   4   2   8   36.30    4.30
   4   2   8   48.00    5.70
  -5  -2  -8    5.70    2.50
   5  -2   8    3.50    3.90
   5  -2   8   10.00    3.90
   5  -2   8    9.00    3.00
   5   2   8   15.40    5.80
   5   2   8   11.20    3.80
  -6  -2  -8   26.40    5.40
  -6  -2  -8   40.50    6.10
   6  -2   8   25.90    5.70
   6  -2   8   33.20    6.70
   6  -2   8   28.30    4.50
   6   2   8   40.30    6.50
  -6   2  -8   39.40    4.70
   7  -2   8    1.60    3.80
   7  -2   8    1.40    5.10
   7  -2   8   -4.10    5.80
  -7  -2  -8    1.00    3.80
  -7   2  -8   -1.80    3.40
   7   2   8    1.30    5.30
  -8  -2  -8    1.50    4.90
   8  -2   8   -5.90    6.30
  -8   2  -8    5.90    4.50
   8   2   8   19.90    6.60
   8  -3  -8    7.40    5.80
   8  -3  -8    1.20    4.90
   8  -3  -8    2.70    2.10
  -8  -3   8   -0.30    5.80
   8   3  -8    2.90    2.10
   7  -3  -8   10.70    4.00
   7  -3  -8   13.40    2.20
  -7  -3   8    4.40    4.90
  -7   3   8   -6.20    6.60
   7   3  -8    8.60    3.60
   7   3  -8    7.60    2.20
   7   3  -8   10.00    8.00
   6  -3  -8   22.90    4.30
   6  -3  -8   25.60    5.10
  -6  -3   8   28.20    3.50
  -6  -3   8   21.60    4.40
   6   3  -8   18.90    7.30
   6   3  -8   24.80    4.20
  -6   3   8   12.70    5.60
  -6   3   8   11.60    6.40
   5  -3  -8   26.00    5.30
  -5  -3   8   13.90    3.90
  -5  -3   8   15.10    4.50
  -5  -3   8   33.10    6.90
   5  -3  -8   18.40    4.10
   5   3  -8   19.70    6.70
   5   3  -8   22.20    4.00
  -5   3   8   21.70    5.80
  -5   3   8   23.00    5.70
  -4  -3   8    2.90    2.10
   4  -3  -8    3.80    2.80
  -4  -3   8   -4.10    2.90
   4   3  -8    4.30    5.90
  -4   3   8    6.30    4.80
   4   3  -8    3.00    2.10
  -3  -3   8   17.70    3.20
   3  -3  -8   13.30    3.30
  -3  -3   8   22.30    4.90
  -3  -3   8   13.30    2.90
  -3  -3   8   12.50    3.50
   3   3  -8   15.30    2.90
   3   3  -8   18.10    5.50
  -3   3   8   18.50    5.70
   2  -3  -8   20.90    3.90
  -2  -3   8   14.20    3.50
  -2  -3   8   11.20    3.20
  -2  -3   8   10.80    2.80
   2  -3  -8   11.60    3.10
   2   3  -8   16.30    2.90
   2   3  -8   14.80    4.40
  -2   3   8   10.60    4.70
  -1  -3   8   10.70    3.10
  -1  -3   8    9.50    2.40
  -1  -3   8    9.90    2.60
  -1   3   8    6.90    2.40
   1   3  -8    7.00    1.70
  -1   3   8    6.30    3.90
   0  -3   8    3.50    2.40
   0  -3   8    3.40    2.10
   0  -3   8    1.30    2.50
   0   3  -8    5.50    1.70
   0   3   8    7.50    2.90
   0   3   8    6.50    2.50
   1  -3   8    7.20    2.40
  -1  -3  -8   12.40    2.40
   1  -3   8    5.40    2.60
  -1   3  -8    9.90    3.50
   1   3   8    8.10    3.60
   1   3   8   13.20    2.80
   1   3   8   10.50    3.40
  -2  -3  -8   21.40    3.00
   2  -3   8   24.60    4.60
   2  -3   8   23.10    3.60
  -2   3  -8   24.20    2.90
  -2   3  -8   28.90    5.60
   2   3   8   33.50    6.30
   2   3   8   31.50    5.30
   2   3   8   25.70    4.00
   2   3   8   19.20    4.30
   3  -3   8   25.80    5.30
  -3  -3  -8   27.20    4.10
   3   3   8   39.40    5.50
   3   3   8   37.00    5.70
  -3   3  -8   32.70    6.20
  -3   3  -8   31.20    3.50
   4  -3   8    1.50    3.40
  -4  -3  -8    2.30    2.70
  -4  -3  -8   -1.00    2.80
  -4   3  -8    3.70    2.00
  -4   3  -8   10.20    4.10
   4   3   8    5.00    3.90
   5  -3   8    7.50    4.90
   5  -3   8    5.50    3.20
  -5  -3  -8    7.80    3.60
  -5  -3  -8   10.90    3.50
   5   3   8    5.30    4.40
  -6  -3  -8   -4.00    4.10
   6  -3   8   -4.10    5.40
  -6  -3  -8    7.90    3.70
   6   3   8    7.40    5.50
   7  -3   8   -5.30    5.90
   7  -3   8    5.20    4.40
  -7  -3  -8    6.90    4.40
   7   3   8   -4.70    6.20
  -8   4   8  -15.10   10.50
  -7  -4   8   12.60    7.20
  -7  -4   8    2.60    3.40
  -7   4   8  -10.00    8.50
   7   4  -8    1.80    3.50
  -6  -4   8    1.50    4.00
   6  -4  -8    2.10    6.20
  -6  -4   8    4.30    6.00
  -6  -4   8   -4.40    2.80
   6   4  -8    0.50    3.10
  -6   4   8   -2.20    6.50
   6   4  -8   -4.70   10.80
  -5  -4   8   -1.10    3.90
   5  -4  -8    7.20    5.20
  -5  -4   8    1.50    2.80
   5   4  -8    4.30    9.70
  -5   4   8   -1.40    4.90
  -4  -4   8    1.30    2.90
   4  -4  -8    1.80    3.30
  -4  -4   8    0.50    3.30
   4   4  -8    0.20    2.40
   4   4  -8    0.00    8.20
  -4   4   8    3.50    5.90
  -3  -4   8   -6.60    4.10
  -3  -4   8    0.90    2.80
  -3  -4   8    5.00    2.80
  -3  -4   8   -0.80    2.80
   3  -4  -8   11.10    4.10
   3  -4  -8    1.70    3.20
   3   4  -8    1.70    7.30
  -3   4   8    3.30    4.40
  -3   4   8    4.70    6.60
   3   4  -8    3.40    2.20
  -2  -4   8   -6.60    3.60
  -2  -4   8    1.80    3.40
  -2  -4   8    1.00    1.80
   2  -4  -8    0.90    3.00
  -2  -4   8    6.50    2.60
   2   4  -8    1.30    1.70
   2   4  -8    2.10    6.00
  -2   4   8   -4.10    5.10
  -2   4   8   -3.30    2.90
  -1  -4   8    1.80    3.90
  -1  -4   8    0.50    2.90
   1  -4  -8    4.50    2.90
  -1  -4   8    9.60    3.40
  -1   4   8    3.70    3.20
  -1   4   8   -3.10    4.90
   1   4  -8    2.80    1.80
  -1   4   8   -3.40    5.00
   0  -4   8   20.00    4.40
   0  -4   8   13.60    4.30
   0  -4   8   13.60    3.70
   0   4   8   14.10    5.60
   0   4   8   10.40    4.20
   1  -4   8    1.20    3.50
  -1  -4  -8    0.80    2.40
   1  -4   8    3.50    4.10
   1   4   8   10.90    4.80
  -1   4  -8    3.10    1.90
   1   4   8    4.50    4.50
  -1   4  -8   -2.60    3.50
   1   4   8    1.40    2.40
   1   4   8    7.50    4.80
   2  -4   8    2.90    3.70
  -2  -4  -8   15.00    3.10
   2  -4   8   10.80    4.10
  -2   4  -8    7.00    5.70
   2   4   8    3.80    3.80
  -2   4  -8   16.00    3.20
  -3   4  -8   21.90    3.80
   4   4   8    2.80    5.30
   6  -4   8   -3.80    6.90
   6  -4   8   12.80    5.40
  -6  -4  -8   -2.50    4.20
   6   4   8   -3.30    6.90
   5  -5  -8    7.60    6.50
  -5  -5   8   -0.10    5.00
  -5  -5   8    0.60    4.90
   5   5  -8    3.60    4.00
  -4  -5   8    7.00    4.40
  -4  -5   8   -5.30    4.10
  -4  -5   8    1.30    3.50
   4  -5  -8    0.80    5.80
   4   5  -8    3.80    3.30
  -3  -5   8   -0.10    4.10
  -3  -5   8    5.70    4.50
   3  -5  -8   16.10    5.60
  -3  -5   8    5.60    2.60
  -3   5   8   -1.20    8.90
  -3   5   8   -2.30    6.80
   3   5  -8    2.40    3.10
   2  -5  -8    3.60    4.40
  -2   5   8   -0.10    8.80
  -2   5   8    0.30    7.90
   1  -5  -8    6.00    3.70
  -1  -5   8    5.30    4.00
  -1  -5   8   -6.80    4.30
   1   5  -8    2.20    2.70
  -1   5   8    0.80    7.60
  -1   5   8    7.60    8.20
   0  -5   8    5.70    5.20
   0   5   8    1.10    6.70
   0   5  -8    4.60    2.50
   0   5   8   -0.90    7.90
   2  -5   8    0.40    5.30
   2   5   8   -5.30    5.70
   2   5   8    4.80    3.50
   3  -5   8   -4.20    5.90
  -3   5  -8   -1.70    3.00
   3   5   8    0.20    4.70
  10   0  -9   -0.60    6.20
 -10   0   9    8.20    7.80
  -9   0   9   -5.10    4.80
  -9   0   9    4.30    6.90
   9   0  -9    9.40    3.90
  -8   0   9    4.30    6.10
   8   0  -9    2.80    3.20
  -8   0   9    3.30    6.20
  -8   0   9    9.90    3.80
  -7   0   9    6.70    3.10
   7   0  -9    7.20    3.40
  -7   0   9   -8.10    6.70
  -7   0   9    4.30    4.90
   7   0  -9    6.60    3.90
   6   0  -9   47.20    5.70
  -6   0   9   51.59    8.90
  -6   0   9   36.60    5.40
  -6   0   9   38.00    6.20
  -5   0   9    3.90    2.90
   5   0  -9    8.40    2.50
   5   0  -9    7.50    2.80
  -5   0   9    5.90    2.70
  -5   0   9    3.50    5.70
   4   0  -9  233.18   13.40
  -4   0   9  220.68   12.60
  -4   0   9  216.88   14.50
   4   0  -9  260.27   12.20
  -3   0   9   41.10    4.40
  -3   0   9   38.70    6.20
  -3   0   9   37.50    4.10
   3   0  -9   40.30    3.20
   3   0  -9   39.10    3.90
  -2   0   9  336.97   19.70
  -2   0   9  343.07   18.80
   2   0  -9  345.97   18.40
   2   0  -9  355.46   16.50
  -2   0   9  329.77   17.00
  -1   0   9    0.70    1.40
  -1   0   9    1.70    1.60
   1   0  -9   -0.70    1.20
  -1   0   9   -1.30    1.40
   0   0  -9   17.50    1.70
   0   0  -9   14.70    2.10
   0   0   9   18.10    2.50
   0   0   9   16.40    2.10
   0   0  -9   21.00    2.50
   1   0   9    1.10    1.40
   1   0   9    1.50    1.50
   1   0   9    3.20    1.30
   1   0   9    2.50    1.40
  -1   0  -9    1.40    0.80
   2   0   9   76.49    4.90
   2   0   9   62.29    4.80
   2   0   9   72.69    5.60
   2   0   9   81.99    5.30
   2   0   9   77.19    4.50
   2   0   9   76.79    5.80
   3   0   9   35.80    3.00
   3   0   9   30.10    4.90
   3   0   9   28.10    3.70
   3   0   9   32.00    3.50
   3   0   9   27.40    3.60
   4   0   9    6.10    2.20
   4   0   9    2.40    2.40
  -4   0  -9    5.50    2.00
   4   0   9    3.60    1.80
   4   0   9    5.90    2.40
   4   0   9    4.70    4.20
   5   0   9    5.00    5.40
   5   0   9    3.00    3.30
   5   0   9   -2.20    2.40
  -5   0  -9   -0.70    2.00
   5   0   9    2.70    1.90
   6   0   9   64.79    6.80
   6   0   9   52.29    5.00
  -6   0  -9   45.90    6.40
  -6   0  -9   53.19    6.00
   6   0   9   64.49    7.70
   6   0   9   64.99   10.90
   7   0   9   12.20    4.20
   7   0   9   12.30    8.30
  -7   0  -9    2.30    3.90
  -7   0  -9    2.60    3.40
   7   0   9    1.80    4.90
   8   0   9   19.70   11.20
   8   0   9    8.10    5.80
  -8   0  -9    2.80    5.70
   8   0   9    3.50    5.60
  -8   0  -9    4.60    4.80
 -10   1   9    7.80    8.70
 -10   1   9   10.30    5.10
  10   1  -9   21.60    6.10
   9  -1  -9    3.90    5.90
  -9  -1   9   -0.20    6.80
   9  -1  -9   13.00    4.90
   9   1  -9   11.30    5.20
  -9   1   9   -0.40    7.90
  -9   1   9    3.90    4.10
   8  -1  -9   -2.60    4.40
  -8  -1   9    5.10    5.80
   8  -1  -9    4.60    3.70
  -8  -1   9    4.30    4.60
  -8  -1   9   11.60    7.00
   8   1  -9   10.40    4.50
  -8   1   9   -8.80    6.10
  -8   1   9    1.10    3.40
   7  -1  -9   35.20    5.60
  -7  -1   9   46.80    7.20
  -7  -1   9   45.10    6.60
  -7  -1   9   61.69   10.10
   7  -1  -9   45.80    5.80
   7   1  -9   45.40    6.50
   7   1  -9   53.29    7.40
  -7   1   9   31.30    7.10
  -7   1   9   46.50    9.00
  -7   1   9   44.40    5.90
  -6  -1   9   -2.00    7.70
   6  -1  -9   -1.80    2.30
  -6  -1   9   -1.70    3.10
   6  -1  -9    4.80    2.60
  -6  -1   9    0.70    3.20
   6  -1  -9    2.10    2.90
   6   1  -9   -0.80    2.90
  -6   1   9    1.40    5.70
  -6   1   9   -0.20    3.60
   6   1  -9   -2.60    3.60
   6   1  -9   -0.30    2.60
  -5  -1   9    3.50    3.10
   5  -1  -9    9.20    2.70
  -5  -1   9    6.60    3.20
  -5  -1   9    8.90    7.10
   5  -1  -9    9.70    2.60
   5   1  -9   13.00    3.60
  -5   1   9   12.40    4.70
   5   1  -9   15.30    3.30
  -5   1   9    8.30    2.70
   5   1  -9   10.10    2.90
  -5   1   9   11.20    4.10
   4  -1  -9   12.80    3.00
  -4  -1   9    9.00    2.80
  -4  -1   9    9.50    2.90
   4  -1  -9    9.20    1.80
  -4  -1   9   14.00    5.90
  -4   1   9   14.70    3.90
  -4   1   9    7.60    2.30
  -4   1   9    7.00    3.30
   4   1  -9   10.50    2.60
   4   1  -9    8.70    2.00
   4   1  -9   10.40    3.10
   3  -1  -9   44.90    4.40
  -3  -1   9   44.30    4.70
  -3  -1   9   47.60    4.70
   3  -1  -9   52.49    3.10
  -3  -1   9   54.29    8.10
  -3   1   9   53.19    5.50
  -3   1   9   48.00    5.10
   3   1  -9   55.89    4.10
   3   1  -9   60.19    4.70
  -3   1   9   50.49    4.20
  -2  -1   9    8.20    2.30
   2  -1  -9    5.40    2.10
   2  -1  -9    8.50    1.10
  -2  -1   9   10.20    2.50
  -2  -1   9   11.30    3.70
   2   1  -9   10.40    2.20
   2   1  -9    9.90    1.90
  -2   1   9    9.20    2.70
  -2   1   9    8.20    2.30
   2   1  -9   12.10    2.50
  -2   1   9    9.90    2.00
   1  -1  -9  303.47   14.30
   1  -1  -9  301.77   16.40
  -1  -1   9  273.17   15.00
  -1  -1   9  312.37   16.80
  -1  -1   9  303.27   17.10
  -1   1   9  276.07   14.40
   1   1  -9  318.07   14.70
   1   1  -9  300.97   16.00
  -1   1   9  286.27   17.50
  -1   1   9  327.07   16.80
   0  -1   9   24.00    3.10
   0  -1   9   16.50    2.30
   0  -1   9   22.20    2.60
   0   1  -9   17.50    2.00
   0   1   9   21.20    3.00
   0   1  -9   13.90    1.80
   0   1   9   17.50    2.00
   0   1   9   14.50    3.10
   1  -1   9   39.30    3.90
   1  -1   9   50.49    3.80
   1  -1   9   40.80    3.50
   1  -1   9   48.00    3.30
  -1  -1  -9   45.10    3.50
   1  -1   9   37.40    3.10
   1   1   9   35.90    4.40
   1   1   9   46.10    2.90
   1   1   9   41.70    4.00
   1   1   9   34.80    3.40
   1   1   9   42.20    3.80
   2  -1   9    6.80    1.60
   2  -1   9    9.30    2.60
   2  -1   9    8.70    2.20
   2  -1   9    6.60    2.30
   2  -1   9   12.60    2.40
  -2   1  -9   10.40    1.90
   2   1   9   10.10    2.20
   2   1   9   12.80    2.50
   2   1   9   11.00    2.90
   3  -1   9  199.78   10.90
   3  -1   9  190.08   13.00
   3  -1   9  201.08   10.90
   3  -1   9  197.38   10.40
   3  -1   9  171.78   12.10
   3   1   9  206.78   10.40
  -3   1  -9  225.58   13.00
   3   1   9  210.18   12.00
   3   1   9  193.88   12.90
   3   1   9  196.68   12.20
   4  -1   9    3.30    1.40
   4  -1   9    0.20    4.60
  -4  -1  -9   -0.60    2.00
   4  -1   9   -1.60    2.60
   4   1   9    1.60    2.60
  -4   1  -9    1.50    2.90
   4   1   9   -0.70    3.70
   4   1   9   -2.80    2.40
   4   1   9    5.40    2.00
   4   1   9    2.40    1.90
   5  -1   9   62.89    9.60
   5  -1   9   50.79    7.00
   5  -1   9   71.99    4.90
   5  -1   9   50.59    5.90
   5   1   9   61.19    5.20
  -5   1  -9   67.09    7.20
   5   1   9   54.59    6.40
   5   1   9   74.79    6.60
   5   1   9   65.09    5.30
   5   1   9   71.89   10.50
  -5   1  -9   70.69    5.20
   6  -1   9    6.90    4.50
   6  -1   9    6.10    3.50
  -6  -1  -9    3.00    3.00
   6  -1   9    8.00    6.90
   6   1   9    7.00    4.20
  -6   1  -9    2.00    3.10
   6   1   9    5.00    2.80
   6   1   9   15.60    6.90
   6   1   9    5.60    2.90
  -6   1  -9    6.40    4.60
   7  -1   9   -0.10    3.60
  -7  -1  -9   12.50    4.00
   7  -1   9    1.40    8.50
   7  -1   9   -3.30    4.80
   7   1   9    5.10    4.60
  -7   1  -9    2.00    5.20
   7   1   9    4.00    3.20
  -7   1  -9    9.60    3.60
   7   1   9   21.10    9.00
   8  -1   9   -2.40    4.80
   8  -1   9    6.50    5.90
  -8  -1  -9    1.80    4.50
   8  -1   9   -3.30   10.10
   8   1   9    0.10    5.30
  -8   1  -9   -1.90    4.60
  10  -2  -9   15.90    7.00
 -10  -2   9    8.10    9.90
  10   2  -9   30.50    6.90
   9  -2  -9    8.50    6.30
  -9  -2   9   12.60    7.90
   9  -2  -9   12.30    5.80
  -9   2   9   -6.20    8.30
   9   2  -9   11.30    3.90
   8  -2  -9    6.30    5.30
   8  -2  -9   18.30    4.90
  -8  -2   9   10.90    6.10
   8   2  -9    8.50    4.20
  -8   2   9    9.90    3.40
   8   2  -9   10.60    2.90
   7  -2  -9   17.60    4.30
   7  -2  -9    8.30    4.00
  -7  -2   9    9.00    4.20
  -7  -2   9   10.60    4.70
   7  -2  -9    2.10    3.20
  -7  -2   9   21.70    7.90
   7   2  -9   10.30    3.70
  -7   2   9    4.00    5.70
  -7   2   9    9.00    2.80
   6  -2  -9    6.40    3.40
  -6  -2   9    1.90    3.20
   6  -2  -9    0.30    2.70
   6  -2  -9   -0.40    2.80
  -6   2   9    1.20    4.00
  -6   2   9    3.10    2.20
   6   2  -9    1.90    2.70
   6   2  -9   -0.40    1.60
   6   2  -9   -3.20    4.90
  -6   2   9    4.20    5.50
  -5  -2   9    6.10    3.20
   5  -2  -9    6.60    2.40
  -5  -2   9    7.50    7.00
   5  -2  -9    7.00    2.00
   5  -2  -9    4.70    3.10
  -5  -2   9    4.10    3.10
   5   2  -9    7.10    3.00
  -5   2   9    6.60    4.20
  -5   2   9    4.30    3.80
  -5   2   9   10.50    1.90
   5   2  -9    0.30    4.80
   5   2  -9    4.70    1.70
  -4  -2   9    0.50    2.60
  -4  -2   9    4.40    6.20
   4  -2  -9    3.90    2.50
   4  -2  -9    4.00    2.30
   4   2  -9    8.60    4.00
   4   2  -9    6.10    2.30
  -4   2   9    5.80    3.50
  -4   2   9    6.30    3.50
   3  -2  -9    2.00    2.30
  -3  -2   9    4.80    5.40
  -3  -2   9    4.50    2.20
  -3  -2   9    3.30    2.50
  -3   2   9    4.80    2.90
   3   2  -9    9.60    3.20
  -3   2   9    6.30    3.60
   3   2  -9    9.50    2.20
  -2  -2   9   86.09    6.10
  -2  -2   9   78.59    6.00
  -2  -2   9   73.69    6.00
  -2  -2   9   77.19    9.00
   2   2  -9   89.29    5.90
   2   2  -9   85.19    5.20
  -2   2   9   82.99    6.90
  -2   2   9   72.29    7.30
  -1  -2   9    7.80    2.60
  -1  -2   9    9.20    4.00
  -1  -2   9   11.70    2.50
  -1   2   9    8.00    3.30
   1   2  -9   11.00    1.80
   1   2  -9   10.90    2.10
  -1   2   9   16.60    3.50
   0  -2  -9   15.10    3.00
   0  -2   9   10.70    2.50
   0  -2   9   10.30    2.30
   0   2   9    8.90    1.60
   0   2   9    9.60    2.30
   0   2   9    9.60    3.00
   0   2   9   13.50    2.70
   0   2  -9   13.30    2.10
   1  -2   9   10.20    2.40
  -1  -2  -9    9.00    1.90
   1  -2   9   12.70    2.90
   1  -2   9   10.00    2.60
   1   2   9   10.00    3.00
   1   2   9    9.70    2.80
   1   2   9   10.10    1.70
   1   2   9   13.90    2.80
   1   2   9    8.70    2.30
  -1   2  -9   15.10    2.20
   2  -2   9   91.39    8.10
   2  -2   9  101.49    6.60
   2   2   9   94.59    7.40
   2   2   9  109.59    7.10
   2   2   9  106.29    8.30
  -2   2  -9  114.89    8.50
   2   2   9  105.59    5.90
   2   2   9  117.59    7.60
  -2   2  -9  101.19    6.10
   3  -2   9    4.60    2.90
   3  -2   9    8.60    2.40
   3   2   9    9.80    3.70
   3   2   9    6.40    2.10
  -3   2  -9    4.40    3.40
   3   2   9    8.60    3.10
  -3   2  -9    7.90    1.70
   4  -2   9    0.00    3.30
  -4  -2  -9    5.10    2.40
  -4  -2  -9   -1.90    2.20
   4  -2   9    2.40    1.70
   4  -2   9    2.10    2.30
   4   2   9    0.20    2.20
  -4   2  -9    2.10    3.60
   4   2   9    9.80    4.30
   4   2   9   -0.30    2.40
  -5  -2  -9    9.70    3.00
   5  -2   9    9.10    3.80
   5  -2   9   14.90    3.40
  -5  -2  -9    9.40    3.20
   5  -2   9    9.10    2.20
   5  -2   9    6.50    4.30
   5   2   9    3.10    3.20
  -5   2  -9    7.30    4.50
   5   2   9    6.10    2.90
   5   2   9   12.80    4.90
   6  -2   9    9.30    4.90
  -6  -2  -9   11.00    3.50
   6  -2   9    2.20    5.40
  -6  -2  -9    8.10    3.90
   6  -2   9    5.20    3.90
  -6   2  -9   13.30    2.70
   6   2   9   19.40    5.10
   6   2   9    8.60    3.90
   7  -2   9    4.80    4.10
   7  -2   9   -6.10    6.40
  -7  -2  -9    2.10    4.10
  -7   2  -9    4.80    3.30
  -8  -2  -9    1.30    5.10
   8  -2   9   -4.20    6.90
   8   2   9    3.00    6.70
   8  -3  -9    8.50    6.00
  -8  -3   9    0.20    6.20
  -7  -3   9    1.90    4.90
   7  -3  -9    6.70    1.60
   7  -3  -9   12.60    5.40
   7  -3  -9    6.90    3.30
   7   3  -9   -4.60    8.00
   7   3  -9    0.80    3.00
  -7   3   9    2.80    7.00
  -6  -3   9   29.40    3.90
   6  -3  -9   38.30    7.60
   6   3  -9   21.30    4.30
  -5  -3   9   11.10    3.90
  -5  -3   9   11.10    4.80
   5   3  -9   12.50    6.80
  -5   3   9   10.40    5.00
   5   3  -9   17.00    3.10
  -5   3   9   17.10    6.20
  -4  -3   9    2.80    2.20
   4  -3  -9    5.50    2.80
   4  -3  -9    5.40    3.30
  -4  -3   9   -0.80    3.70
   4   3  -9    5.50    2.20
  -4   3   9    3.10    5.10
   4   3  -9    0.50    5.70
  -3  -3   9   21.10    5.10
   3  -3  -9   21.90    4.60
  -3  -3   9   16.90    3.70
  -3  -3   9   15.30    4.20
  -3  -3   9   25.00    3.60
   3   3  -9   13.40    5.20
   3   3  -9   24.20    3.30
  -3   3   9   21.00    4.70
  -3   3   9   17.10    5.80
  -2  -3   9    5.60    2.70
  -2  -3   9   10.70    2.80
  -2  -3   9    3.30    3.00
  -2  -3   9    7.00    3.60
   2   3  -9    6.50    2.00
   2   3  -9    8.10    3.40
  -2   3   9    9.80    4.30
  -2   3   9    2.00    4.50
  -1  -3   9    6.70    2.60
  -1  -3   9    2.70    2.80
   1  -3  -9   12.40    3.10
  -1  -3   9    8.10    2.50
  -1   3   9   11.20    4.60
  -1   3   9    9.10    2.80
   1   3  -9   11.30    2.20
  -1   3   9    4.40    3.80
   0  -3  -9    2.00    2.50
   0  -3   9    2.10    2.40
   0   3   9    7.60    3.60
   0   3   9    0.40    3.80
   0   3  -9    3.50    1.50
   0   3   9    2.80    2.50
   1  -3   9   13.10    3.80
   1  -3   9   10.10    2.80
  -1  -3  -9   15.70    3.00
   1   3   9   11.60    3.10
   1   3   9   16.00    4.40
   1   3   9   16.10    2.00
   2  -3   9    9.60    2.50
  -2  -3  -9   12.20    2.40
   2   3   9    6.80    2.10
   2   3   9    8.10    3.80
   2   3   9    8.10    4.00
  -2   3  -9    9.40    3.70
   2   3   9    7.80    3.10
   3  -3   9   29.90    4.00
  -3  -3  -9   24.50    4.00
   3   3   9   34.50    5.50
  -3   3  -9   28.80    6.10
  -3   3  -9   21.70    3.40
   4  -3   9   -1.10    3.90
  -4  -3  -9   -1.00    3.00
   4   3   9    4.70    4.10
   4   3   9    8.60    5.20
  -4   3  -9    1.40    2.10
   5  -3   9   -6.80    4.30
   5  -3   9    0.90    3.30
  -5  -3  -9   -0.80    3.10
   5   3   9    1.80    4.60
  -6  -3  -9    3.00    4.00
   6  -3   9    0.80    5.30
   6  -3   9   -0.60    4.50
   6   3   9   -2.50    5.50
  -7  -3  -9   -1.70    4.50
   7  -3   9    2.70    4.80
   7  -3   9   -9.30    6.20
   7   3   9    2.80    6.90
  -7  -4   9   16.80    8.50
   7  -4  -9   -1.00    6.80
  -7   4   9   -7.00    8.80
   7   4  -9   -0.10    3.60
  -6  -4   9    4.60    4.60
   6  -4  -9    8.50    5.80
  -6  -4   9    8.70    6.40
   6   4  -9   -1.00   11.40
   6   4  -9    6.20    3.30
  -6   4   9   -7.60    6.10
   5  -4  -9   11.10    5.10
   5   4  -9   -1.80    9.50
   5   4  -9    2.70    2.80
  -4  -4   9   -1.90    3.70
   4  -4  -9    0.80    4.10
  -4   4   9   -1.90    6.70
   4   4  -9   -1.30    8.10
   4   4  -9    1.10    2.70
  -3  -4   9   -3.60    2.90
  -3  -4   9    4.70    2.70
   3  -4  -9   -5.70    3.80
  -3  -4   9    0.00    2.90
  -3   4   9   -3.30    6.10
   3   4  -9   -0.20    2.10
   3   4  -9   -3.30    6.80
  -3   4   9   -7.20    4.50
  -2  -4   9    1.10    2.00
  -2  -4   9   -3.90    3.20
   2  -4  -9    3.60    3.70
   2   4  -9    2.80    1.90
  -2   4   9   -5.60    5.60
  -2   4   9   10.10    6.20
   2   4  -9   -6.40    5.00
   1  -4  -9    8.50    3.50
  -1  -4   9    6.40    3.20
  -1   4   9    0.10    5.80
   1   4  -9    9.10    2.10
  -1   4   9    1.40    5.80
   0  -4   9    3.70    3.40
   0   4   9   19.80    6.60
   0   4   9    4.90    5.70
   0   4  -9   10.40    2.50
   1  -4   9    0.70    3.70
  -1  -4  -9    4.20    2.80
  -1   4  -9    3.00    2.00
   1   4   9   -2.40    2.50
   1   4   9   -0.80    1.30
   2  -4   9    3.20    3.80
  -2  -4  -9    8.90    2.80
   2   4   9    9.60    4.60
   3  -4   9    8.00    4.50
  -3   4  -9   -2.10    2.30
   3   4   9   -5.30    4.80
  -4  -4  -9   -3.20    4.20
   4  -4   9    2.80    5.00
  -4   4  -9    2.90    2.90
   4   4   9   -6.00    5.10
   4   4   9   -0.60    5.90
   5  -4   9   -1.70    4.20
   5  -4   9    0.50    6.40
  -5  -4  -9   -7.40    5.00
   5   4   9   -0.40    6.50
   5   4   9   -9.40    6.70
   4  -5  -9    0.00    5.70
  -4  -5   9   -3.60    3.50
   4   5  -9    5.80    3.50
  -3  -5   9   -6.10    4.40
   3  -5  -9   -6.20    5.00
  -3  -5   9    6.50    4.60
  -3   5   9  -12.10    7.20
  -2  -5   9    2.80    4.70
   2  -5  -9   -1.00    4.30
  -2   5   9  -12.50    8.90
  -2   5   9    1.00    8.90
   2   5  -9   -0.90    2.80
  -1   5   9    3.90    8.30
  -1   5   9   15.20    9.10
   0   5   9   25.20    8.90
   1  -5   9   16.70    6.00
   2  -5   9   -0.30    5.80
   2   5   9  -10.30    6.30
   3  -5   9   -6.50    6.90
 -10   0  10    0.90    8.00
  10   0 -10   11.50    6.80
  -9   0  10    1.00    7.30
   9   0 -10    3.70    5.20
  -8   0  10    5.80    7.10
   8   0 -10    7.10    4.60
  -8   0  10    1.80    6.30
   7   0 -10    5.10    3.70
  -7   0  10    3.50    5.00
  -7   0  10   -4.90    3.40
   7   0 -10   -1.70    3.50
  -7   0  10   -0.80    6.30
  -6   0  10    3.10    3.30
  -6   0  10    5.50    7.10
   6   0 -10    8.20    3.40
   6   0 -10    6.30    2.60
  -6   0  10    3.20    3.40
  -5   0  10    0.50    2.90
  -5   0  10    2.00    6.20
   5   0 -10    5.80    2.70
  -5   0  10    2.50    2.90
  -4   0  10   68.79    9.20
   4   0 -10   53.29    5.00
   4   0 -10   63.09    4.50
  -4   0  10   49.99    5.50
  -4   0  10   51.49    5.70
  -3   0  10    3.30    2.60
   3   0 -10   -1.80    1.80
   3   0 -10    1.90    1.40
  -3   0  10    0.30    2.50
  -3   0  10    3.00    3.80
   3   0 -10    5.70    2.40
  -2   0  10  140.19    8.40
   2   0 -10  153.78    7.60
   2   0 -10  145.59    9.00
   2   0 -10  154.88    9.10
  -2   0  10  136.29    9.60
  -2   0  10  151.38    9.70
  -1   0  10   11.60    2.20
  -1   0  10    8.60    2.50
   1   0 -10   10.50    2.10
  -1   0  10   13.30    2.60
   1   0 -10    7.40    1.50
   0   0  10  160.38    9.50
   0   0 -10  154.38    7.90
   0   0 -10  150.48    9.10
   0   0  10  150.68    9.50
   1   0  10   -0.60    1.60
   1   0  10    1.20    1.30
   1   0  10    1.50    1.60
   1   0  10    0.40    1.70
   1   0  10    3.60    1.80
  -1   0 -10    1.40    1.00
   2   0  10   55.19    5.50
   2   0  10   64.49    4.30
   2   0  10   58.89    5.50
   2   0  10   66.39    4.80
   2   0  10   66.19    5.00
   2   0  10   66.29    4.70
   3   0  10    3.20    2.40
   3   0  10    4.00    1.80
   3   0  10    3.50    3.20
   3   0  10    4.60    2.40
   3   0  10    3.20    2.10
   4   0  10   40.00    3.70
   4   0  10   29.30    5.60
   4   0  10   38.10    5.60
   4   0  10   30.00    4.20
   5   0  10    0.00    2.00
  -5   0 -10    0.60    2.30
   5   0  10    8.70    5.90
   5   0  10    1.10    2.50
   5   0  10    4.90    3.30
   6   0  10    7.80    3.20
   6   0  10    9.90    7.60
   6   0  10   11.20    4.00
   6   0  10    1.30    4.30
  -6   0 -10    5.30    3.10
   7   0  10   -1.80    4.40
  -7   0 -10   -0.10    3.70
   7   0  10    0.70    5.70
   7   0  10    9.90    9.50
   8   0  10   -5.40    5.80
   8   0  10    9.10   12.50
  -8   0 -10    5.70    4.60
   8   0  10   -0.50    6.60
  10   1 -10   26.90    7.20
   9  -1 -10   14.10    6.50
  -9  -1  10   30.60    9.20
   9  -1 -10   21.40    5.30
  -9   1  10    5.30    8.20
  -9   1  10   11.10    4.30
   9   1 -10    4.60    5.00
  -8  -1  10   -1.80    5.60
  -8  -1  10   -0.20    7.50
  -8  -1  10   -6.00    4.40
   8  -1 -10    5.80    4.80
   8  -1 -10    7.60    3.90
   8   1 -10   -1.90    4.30
  -8   1  10   -3.50    6.70
  -8   1  10    2.00    3.70
   8   1 -10    8.20    4.60
   7  -1 -10   15.30    4.30
  -7  -1  10   27.20    8.90
   7  -1 -10   11.90    3.60
  -7  -1  10   12.60    4.40
  -7  -1  10   13.90    4.90
  -7   1  10    6.00    6.50
  -7   1  10    9.70    3.90
  -7   1  10   19.20    5.40
   7   1 -10   13.70    4.50
   7   1 -10   19.80    4.60
   6  -1 -10    0.60    2.40
   6  -1 -10    1.20    2.90
  -6  -1  10    0.30    3.50
  -6  -1  10    1.80    3.70
   6   1 -10   -1.10    3.00
   6   1 -10    2.80    2.90
  -6   1  10   -1.50    5.90
  -6   1  10    5.80    4.00
   6   1 -10   -0.60    3.60
  -5  -1  10    0.90    3.10
   5  -1 -10   -0.50    2.20
  -5  -1  10    3.00    7.40
   5  -1 -10    2.90    2.20
  -5  -1  10    2.00    2.90
   5   1 -10    0.70    3.00
  -5   1  10    4.50    3.60
  -5   1  10   -0.10    2.40
   5   1 -10    4.90    2.50
   5   1 -10    3.60    2.70
   4  -1 -10    1.60    2.00
  -4  -1  10   -0.20    2.80
   4  -1 -10    6.00    2.70
  -4  -1  10    0.20    2.80
   4  -1 -10    1.80    1.50
   4   1 -10   -0.50    2.10
  -4   1  10    0.80    2.40
   4   1 -10    7.30    2.60
  -4   1  10   -1.30    3.20
  -4   1  10    4.20    2.90
  -3  -1  10  126.99   11.40
   3  -1 -10  113.09    7.50
  -3  -1  10   98.99    7.80
  -3  -1  10   99.39    7.50
   3  -1 -10  106.89    5.70
  -3   1  10  111.79    8.50
   3   1 -10  117.89    6.50
   3   1 -10  114.39    7.10
  -3   1  10  104.99    6.80
  -3   1  10  101.79    8.20
   3   1 -10  111.59    7.40
   2  -1 -10    4.70    2.10
   2  -1 -10    3.40    1.00
   2  -1 -10    2.30    2.20
  -2  -1  10    1.40    1.80
  -2  -1  10    7.30    4.20
  -2  -1  10    3.80    2.60
  -2   1  10    4.30    2.10
   2   1 -10    0.90    1.70
   2   1 -10    6.20    1.80
  -2   1  10    5.10    2.70
  -2   1  10    4.90    2.50
  -1  -1  10   37.80    3.80
   1  -1 -10   40.90    2.60
  -1  -1  10   50.49    6.00
  -1  -1  10   43.50    4.00
   1  -1 -10   34.20    4.00
  -1   1  10   43.20    4.90
  -1   1  10   42.00    3.30
   1   1 -10   36.90    3.70
   0  -1  10    7.60    2.30
   0  -1  10    3.00    1.70
   0  -1 -10    2.30    1.50
   0  -1  10    1.40    1.60
   0  -1  10    3.10    1.60
   0   1 -10    4.80    1.50
   0   1  10    2.80    1.80
   0   1  10    4.40    1.60
   0   1 -10    3.10    1.20
   0   1  10    3.00    2.40
   0   1  10    4.10    1.30
  -1  -1 -10    2.90    1.70
   1  -1  10    2.50    1.40
   1  -1  10    2.10    1.40
   1  -1  10    3.30    2.10
   1  -1  10    5.70    1.80
   1   1  10   -1.00    2.30
   1   1  10    0.70    1.60
  -1   1 -10    4.50    1.40
   1   1  10    3.20    1.40
   1   1  10    2.80    2.10
   2  -1  10   24.40    2.70
   2  -1  10   18.00    4.00
   2  -1  10   27.80    3.40
   2  -1  10   25.70    3.90
   2  -1  10   21.90    3.40
   2   1  10   30.40    3.80
   2   1  10   27.90    3.50
   2   1  10   22.00    4.00
   2   1  10   24.00    2.70
  -2   1 -10   27.70    2.70
   2   1  10   23.00    3.70
   3  -1  10   31.80    5.00
   3  -1  10   33.30    3.20
   3  -1  10   31.90    4.00
   3  -1  10   35.50    3.20
   3  -1  10   27.40    5.80
   3  -1  10   42.50    4.00
   3   1  10   29.30    4.60
   3   1  10   31.50    4.40
   3   1  10   33.50    4.20
   3   1  10   33.00    6.30
   3   1  10   24.10    4.10
   3   1  10   31.90    3.40
   4  -1  10    2.70    1.80
   4  -1  10    0.10    1.90
   4  -1  10    0.60    5.00
   4  -1  10    3.20    2.70
   4  -1  10    9.20    3.70
   4   1  10    3.60    2.20
   4   1  10    5.40    2.10
   4   1  10    0.40    4.10
   4   1  10    7.70    2.90
  -5  -1 -10    5.90    2.90
   5  -1  10    4.80    4.10
  -5   1 -10    8.20    3.80
  -5   1 -10    8.80    2.50
   5   1  10   11.30    6.50
   5   1  10   12.50    2.80
   5   1  10   14.00    3.80
   6  -1  10    2.90    7.50
   6  -1  10    3.50    4.70
  -6  -1 -10    3.50    3.10
   6  -1  10    4.20    3.50
   6   1  10   -4.60    4.00
   6   1  10   22.20    8.10
  -6   1 -10   -4.40    4.30
   6   1  10   -3.50    4.20
   6   1  10    5.50    3.10
   6   1  10    1.20    3.00
   7  -1  10    3.60    9.20
   7  -1  10   -5.60    4.20
  -7  -1 -10    1.50    3.90
   7  -1  10   -8.60    5.60
   7   1  10    1.90    3.60
  -7   1 -10   -0.50    3.70
   7   1  10    9.70    5.20
   7   1  10   -1.80    5.40
   8  -1  10  -11.40    7.30
   8  -1  10    5.90    5.60
  -8  -1 -10   -0.90    4.90
  -8   1 -10    3.90    4.80
   8   1  10    6.10    7.10
   9  -2 -10   -1.10    6.00
   9  -2 -10    0.50    6.10
  -9  -2  10    7.50    8.00
  -9   2  10   11.50    4.00
  -9   2  10   -4.50    8.70
   9   2 -10    7.40    3.30
  -8  -2  10   15.10    6.60
   8  -2 -10   19.20    5.30
  -8   2  10   14.50    3.80
   8   2 -10   14.00    4.80
   8   2 -10    8.40    3.00
  -7  -2  10    4.10    4.50
   7  -2 -10    5.10    4.10
   7  -2 -10    1.20    3.50
   7   2 -10   -4.90    5.80
   7   2 -10   -0.70    3.50
   7   2 -10   -1.80    1.90
  -7   2  10   -8.80    6.00
  -7   2  10    4.30    2.90
   6  -2 -10   10.80    3.40
  -6  -2  10   15.60    4.70
   6  -2 -10   15.30    2.90
   6  -2 -10   24.10    5.50
  -6  -2  10    9.80    4.20
   6   2 -10   13.50    2.80
  -6   2  10   14.30    6.20
   6   2 -10   18.10    3.90
  -6   2  10   14.00    4.50
   6   2 -10   15.50    6.00
  -5  -2  10    5.10    3.40
   5  -2 -10    0.30    1.40
  -5  -2  10   -4.50    3.10
   5  -2 -10    5.10    2.90
  -5  -2  10   -9.70    7.10
  -5   2  10   -0.10    2.00
   5   2 -10    0.90    2.50
  -5   2  10    5.40    4.00
  -5   2  10   -0.40    3.70
   5   2 -10   -4.30    4.10
   5   2 -10   -0.40    1.70
  -4  -2  10    3.50    3.30
  -4  -2  10    2.80    2.80
   4  -2 -10    1.80    2.60
  -4   2  10   10.10    4.00
  -4   2  10    4.80    3.50
   3  -2 -10    4.30    2.70
  -3  -2  10    6.90    6.40
  -3  -2  10   12.40    2.70
  -3   2  10   12.20    4.10
   3   2 -10    9.60    2.20
  -3   2  10    6.00    3.20
   3   2 -10    8.20    3.00
  -2  -2  10  137.09   11.90
  -2  -2  10  147.09    9.40
  -2  -2  10  140.29    9.10
  -2  -2  10  127.19    8.70
   2  -2 -10  150.68    9.10
   2   2 -10  136.99    8.30
  -2   2  10  139.19    9.90
  -2   2  10  114.99   10.10
   2   2 -10  148.39    7.80
   1  -2 -10    6.30    2.80
  -1  -2  10    4.00    2.00
   1  -2 -10    3.70    2.00
  -1  -2  10    0.20    2.10
  -1  -2  10    2.30    2.00
  -1  -2  10    4.70    4.40
  -1   2  10    4.80    3.40
  -1   2  10    2.70    1.40
   1   2 -10    4.30    1.60
  -1   2  10    4.60    3.10
   1   2 -10    0.40    1.50
  -1   2  10    6.40    1.80
   0  -2  10    6.10    2.00
   0  -2 -10    3.80    2.20
   0  -2  10    5.60    2.20
   0  -2  10    2.90    1.90
   0   2  10    3.90    2.10
   0   2  10    6.80    2.80
   0   2  10    3.70    1.30
   0   2  10    3.60    2.90
   0   2  10    4.80    2.10
   1  -2  10    3.20    2.00
   1  -2  10    2.50    2.30
  -1  -2 -10    5.20    1.90
   1  -2  10    6.70    2.80
   1   2  10    5.70    2.70
   1   2  10    1.70    2.50
   1   2  10    4.50    1.40
  -1   2 -10    5.10    1.60
   1   2  10   -0.90    2.50
   1   2  10    9.70    2.40
   2  -2  10   87.59    7.80
   2  -2  10  104.99    6.30
   2  -2  10   88.29    6.90
  -2   2 -10  102.09    5.90
   2   2  10   81.19    7.40
   2   2  10   83.89    6.70
   2   2  10  102.49    8.50
   3  -2  10    7.20    2.50
   3  -2  10    1.70    2.60
   3   2  10   10.40    4.00
  -3   2 -10    6.40    3.30
   3   2  10   11.30    3.50
   3   2  10    7.30    2.10
  -3   2 -10    7.40    1.80
   4  -2  10   12.30    3.20
   4  -2  10   15.20    4.40
   4  -2  10   11.30    2.50
   4   2  10   22.10    5.60
   4   2  10   24.20    4.40
   4   2  10   15.00    3.10
  -4   2 -10   11.10    4.00
   4   2  10   15.90    3.60
  -5  -2 -10    3.90    3.20
   5  -2  10    3.20    4.50
   5  -2  10    5.70    4.20
   5  -2  10    7.90    3.30
   5   2  10   11.80    3.50
   5   2  10   10.30    5.50
   5   2  10   13.10    3.60
   6  -2  10   -7.70    4.90
  -6  -2 -10    4.70    3.70
   6  -2  10   -2.90    5.70
   6   2  10   -5.00    3.40
   6   2  10    2.50    4.30
   6   2  10   -1.40    4.20
  -7  -2 -10    4.10    4.20
   7  -2  10    6.90    4.80
   7  -2  10   -6.10    6.50
   7   2  10   -2.80    5.90
   8  -3 -10   10.90    6.30
   7  -3 -10   21.60    5.60
  -7  -3  10   26.40    8.20
  -7  -3  10   10.50    5.30
   7   3 -10   13.60    3.90
  -6  -3  10   16.70    6.70
  -6  -3  10    9.60    4.50
  -6  -3  10    8.00    2.70
   6  -3 -10    9.40    4.60
   6   3 -10    6.30    2.90
   5  -3 -10   29.90    6.40
  -5  -3  10   25.20    5.00
  -5   3  10   19.30    7.00
   5   3 -10   21.40    7.10
  -5   3  10   22.00    6.30
   4  -3 -10   -2.60    3.20
  -4  -3  10   -2.10    3.80
  -4  -3  10   -2.80    3.00
   4   3 -10    3.50    5.20
  -4   3  10    2.30    5.20
   4   3 -10    3.90    2.10
   3  -3 -10    4.00    3.30
  -3  -3  10   10.40    4.60
  -3  -3  10    2.40    3.60
  -3  -3  10    8.50    2.60
   3   3 -10   11.00    4.40
  -3   3  10    3.80    3.70
  -3   3  10    4.50    4.70
  -2  -3  10    5.10    3.40
  -2  -3  10    6.50    3.60
   2  -3 -10    5.70    2.30
   2   3 -10    6.80    2.70
  -2   3  10   -3.30    4.40
  -2   3  10    3.60    4.90
   2   3 -10    7.10    1.80
  -1  -3  10    4.80    3.30
  -1  -3  10    4.30    2.50
  -1  -3  10    7.70    2.70
  -1   3  10    1.50    2.80
   1   3 -10    6.60    1.80
  -1   3  10    5.10    5.00
  -1   3  10    7.90    4.70
   0  -3  10    7.00    2.70
   0  -3  10    8.60    3.10
   0  -3  10    4.10    2.70
   0   3 -10    3.20    1.50
   0   3  10    3.60    4.10
   0   3  10    6.50    3.10
   0   3  10   10.90    4.60
   1  -3  10   41.30    4.80
   1  -3  10   37.30    5.90
   1  -3  10   34.10    4.40
   1   3  10   35.70    6.40
  -1   3 -10   45.90    3.70
   1   3  10   47.70    4.70
   1   3  10   36.10    2.80
  -2  -3 -10   16.10    2.60
   2  -3  10   22.50    3.90
   2  -3  10   11.20    3.40
   2   3  10   16.10    2.80
  -2   3 -10   12.20    3.50
   2   3  10   21.70    4.10
  -2   3 -10   20.40    3.20
   2   3  10   10.50    4.30
   3  -3  10    1.80    3.60
   3   3  10    7.20    2.70
   3   3  10    8.30    4.10
  -3   3 -10    8.30    2.30
   3   3  10   15.60    4.80
  -4   3 -10    3.40    2.30
   4   3  10   -4.50    4.20
   4   3  10    3.50    4.60
  -5  -3 -10   -2.50    3.70
   5  -3  10    6.30    3.90
   5  -3  10   -1.70    4.80
   5   3  10   -1.30    5.00
   6  -3  10   -0.50    5.70
  -6  -3 -10    0.10    4.10
   6  -3  10   -1.50    4.90
   6   3  10    7.50    6.10
   7  -4 -10    5.80    6.90
  -7  -4  10    6.90    9.00
   7   4 -10   -1.00    3.90
  -6  -4  10    9.90    7.30
  -6  -4  10    6.60    5.20
  -6  -4  10    5.30    3.70
   6  -4 -10   11.70    6.00
   6   4 -10   -8.20   11.60
   6   4 -10    4.80    3.30
   5  -4 -10    6.60    5.00
  -5  -4  10   -7.30    5.00
  -5  -4  10   -4.30    3.10
   5   4 -10    3.10    2.80
   5   4 -10   -7.60    9.70
   4  -4 -10   -2.50    4.30
  -4  -4  10    1.50    4.00
  -4  -4  10   -1.10    3.00
   4   4 -10    2.70    2.60
   4   4 -10   -7.50    8.00
   3  -4 -10    7.20    4.10
  -3  -4  10    2.30    2.90
  -3  -4  10    1.60    3.20
  -3  -4  10    1.10    3.30
   3   4 -10    0.90    6.30
  -3   4  10    2.10    7.20
  -3   4  10   -7.20    4.70
   3   4 -10    2.70    2.50
  -2  -4  10    4.30    2.20
   2  -4 -10   12.10    4.00
  -2  -4  10    7.40    3.60
  -2   4  10    6.40    6.80
   2   4 -10    6.20    3.90
  -2   4  10    8.20    7.40
  -1  -4  10    5.70    3.30
   1  -4 -10    5.30    3.90
  -1  -4  10    1.80    3.70
   1   4 -10    5.50    2.20
  -1   4  10    7.90    6.60
  -1   4  10    4.20    6.50
   0  -4  10    8.70    3.70
   0  -4 -10    8.00    4.20
   0   4  10    5.40    6.20
   0   4 -10    5.80    2.30
   1  -4  10   10.10    4.30
  -1   4 -10   11.50    2.60
   1   4  10    9.30    5.90
   2  -4  10   -4.30    4.30
   2   4  10    0.40    2.10
   2   4  10    5.20    4.80
   3  -4  10    2.10    4.70
   3   4  10    3.10    5.30
  -4  -4 -10    2.20    4.10
   4  -4  10   -8.50    5.40
  -4   4 -10    3.70    3.20
   4   4  10    4.00    6.40
   5  -4  10    3.10    4.60
   5   4  10    5.60    7.20
   4  -5 -10    1.80    6.10
   4   5 -10    9.90    3.90
   3  -5 -10    1.00    5.10
  -3   5  10   -9.80    7.40
   3   5 -10   -4.70    2.80
  -2  -5  10    6.80    5.00
   2   5 -10    3.50    3.20
  -2   5  10    2.80    9.90
  -2   5  10  -11.10   10.30
   1  -5 -10    2.60    5.30
  -1  -5  10   -5.40    4.90
   1   5 -10    6.40    3.00
  -1   5  10   -6.30   10.60
  -1   5  10   -0.40    9.10
   0  -5 -10    9.10    5.10
   0   5 -10    3.80    2.90
  -2   5 -10    4.50    3.70
 -10   0  11   12.50    9.60
  10   0 -11   11.40    7.40
  10   0 -11    1.20    7.00
  -9   0  11   12.80    5.30
  -9   0  11   -8.90    8.10
   9   0 -11    0.50    5.60
   9   0 -11   -4.70    5.60
   8   0 -11    7.60    4.70
  -8   0  11   13.00    8.10
  -8   0  11    7.10    4.50
  -7   0  11   -2.30    3.90
  -7   0  11   -3.30    6.50
  -7   0  11    6.30    5.30
   6   0 -11    0.50    2.60
   6   0 -11    2.00    3.10
  -6   0  11    1.40    7.60
  -6   0  11    3.40    4.00
  -6   0  11    0.80    3.30
  -5   0  11    4.90    3.10
  -5   0  11    4.60    6.60
   5   0 -11   -0.20    2.30
  -5   0  11   -1.20    3.10
   5   0 -11    8.20    3.80
   5   0 -11    0.10    2.20
  -4   0  11    7.60    3.20
   4   0 -11   10.50    3.20
   4   0 -11    6.80    2.50
  -4   0  11    9.50    5.70
  -4   0  11    6.80    3.00
   4   0 -11    7.50    2.30
   3   0 -11    2.90    2.40
   3   0 -11    0.20    1.90
  -3   0  11   -1.80    2.80
  -3   0  11    4.60    4.40
  -3   0  11    3.90    2.80
   2   0 -11    8.10    2.50
  -2   0  11   12.30    3.60
   2   0 -11    9.80    1.70
  -2   0  11    9.10    2.80
  -2   0  11   12.20    2.90
  -1   0  11    4.50    2.10
  -1   0  11    6.60    2.60
   1   0 -11    4.40    1.20
   1   0 -11    2.90    1.80
   0   0  11   39.50    3.70
   0   0  11   37.30    4.30
   0   0  11   42.90    5.00
   0   0 -11   47.60    3.20
   1   0  11    6.40    2.40
   1   0  11   11.90    3.00
   1   0  11    8.00    2.00
   1   0  11   10.00    2.50
  -1   0 -11    9.60    1.80
   2   0  11    0.90    1.60
   2   0  11   -0.60    2.30
   2   0  11    3.70    2.10
   2   0  11    2.50    2.60
   2   0  11    4.50    2.20
   3   0  11    1.50    2.30
   3   0  11    0.40    2.40
   3   0  11   -0.40    1.70
   3   0  11   -1.50    3.50
   3   0  11    0.50    2.40
   4   0  11    5.50    2.80
   4   0  11   -0.80    2.90
   4   0  11   -1.60    2.40
   4   0  11    5.60    2.30
   4   0  11    2.50    4.60
   4   0  11    5.40    2.80
   5   0  11    4.80    4.00
   5   0  11    4.80    6.60
   5   0  11    0.70    3.00
   5   0  11    2.90    2.40
   6   0  11   10.30    4.50
   6   0  11    6.70    8.50
  -7   0 -11    3.00    4.00
   7   0  11    5.60   10.80
   7   0  11    3.60    6.60
   7   0  11   -3.20    4.90
   7   0  11    0.70    4.10
  -8   0 -11   10.90    5.20
   8   0  11    0.40    7.10
  10  -1 -11    2.40    7.50
  10   1 -11   17.60    8.00
  -9  -1  11   34.60    9.80
   9  -1 -11    6.60    6.00
   9   1 -11   29.40    7.60
   9   1 -11    6.60    5.60
  -8  -1  11    7.70    6.10
   8  -1 -11   -8.40    4.50
  -8  -1  11    8.40    8.40
  -8  -1  11   -5.00    5.30
   8  -1 -11   10.10    4.80
   8   1 -11    0.40    4.30
   8   1 -11   -6.80    4.50
  -8   1  11    1.50    4.30
  -7  -1  11    3.90    8.50
   7  -1 -11    3.10    3.80
   7  -1 -11   13.60    4.40
  -7  -1  11    5.30    4.50
  -7  -1  11    0.60    4.30
   7   1 -11   -1.40    3.70
   7   1 -11   -1.60    4.40
   7   1 -11    4.70    3.90
   6  -1 -11    5.00    2.80
  -6  -1  11    6.30    8.10
  -6  -1  11    2.70    3.60
  -6  -1  11    1.10    4.00
  -6   1  11    6.20    4.40
   6   1 -11    5.80    3.20
  -6   1  11    7.00    3.00
   6   1 -11    4.20    3.10
  -6   1  11    2.00    5.90
   5  -1 -11    0.00    2.60
  -5  -1  11    3.70    3.10
  -5  -1  11   -0.20    7.90
   5  -1 -11    1.80    3.50
   5  -1 -11    3.90    2.10
  -5  -1  11    0.70    3.40
  -5   1  11    0.90    3.00
   5   1 -11    2.20    2.60
  -5   1  11    1.30    3.60
  -5   1  11    3.40    5.50
  -4  -1  11    4.90    6.40
  -4  -1  11    2.40    3.30
   4  -1 -11    0.90    2.00
  -4  -1  11   -3.20    2.80
   4  -1 -11   -0.60    1.30
  -4   1  11    1.10    2.90
   4   1 -11    0.20    2.40
   4   1 -11   -1.30    2.00
  -4   1  11    2.90    2.70
  -4   1  11   -0.40    3.70
   4   1 -11   -2.60    1.60
  -3  -1  11   43.70    5.30
   3  -1 -11   42.00    5.10
   3  -1 -11   49.00    3.10
  -3  -1  11   53.69   10.40
  -3   1  11   50.29    5.70
   3   1 -11   51.79    4.80
   3   1 -11   50.59    4.00
  -3   1  11   45.50    5.00
   3   1 -11   50.79    4.20
  -3   1  11   51.29    6.60
   2  -1 -11    3.40    1.00
   2  -1 -11    6.40    2.80
  -2  -1  11    2.20    2.80
  -2  -1  11   -0.10    2.20
   2  -1 -11    3.90    2.20
  -2  -1  11    5.80    5.00
  -2   1  11    2.90    2.40
  -2   1  11    2.60    2.70
   2   1 -11    3.40    1.80
   2   1 -11    3.50    1.80
  -2   1  11    5.10    2.80
   2   1 -11    1.50    1.50
  -1  -1  11   88.79    8.10
  -1  -1  11   74.49    5.80
  -1  -1  11   84.09    6.10
   1  -1 -11   77.59    5.90
   1  -1 -11   78.69    5.90
   1  -1 -11   77.89    4.60
  -1   1  11   91.19    7.20
   1   1 -11   88.39    5.10
   1   1 -11   84.79    5.80
  -1   1  11   75.99    7.00
  -1   1  11   79.29    5.10
   0  -1  11    4.20    2.00
   0  -1 -11    3.80    2.00
   0  -1  11    9.70    2.80
   0  -1  11    5.70    2.10
   0  -1  11    1.40    2.10
   0   1  11    8.60    3.20
   0   1  11    3.50    2.80
   0   1 -11    7.20    1.60
   0   1  11    6.60    2.30
   0   1  11    9.00    2.10
   0   1  11    4.80    1.60
   1  -1  11   53.39    5.40
   1  -1  11   60.99    4.80
   1  -1  11   50.79    4.40
   1  -1  11   61.29    5.00
   1  -1  11   63.89    4.50
   1   1  11   52.59    5.50
   1   1  11   46.40    5.60
   1   1  11   58.79    4.00
  -1   1 -11   63.79    4.10
   1   1  11   55.39    4.60
   2  -1  11    2.40    2.10
   2  -1  11    1.80    2.60
   2  -1  11    5.20    2.30
   2  -1  11    4.10    1.90
   2  -1  11    0.70    2.50
   2   1  11    4.60    1.60
   2   1  11    0.50    2.00
   2   1  11    0.00    2.50
  -2   1 -11    5.20    1.70
   2   1  11    4.00    2.50
   2   1  11    3.40    3.10
   2   1  11    4.90    2.30
   3  -1  11   20.60    3.70
   3  -1  11   28.30    4.00
   3  -1  11   26.60    4.90
   3  -1  11   28.70    3.10
   3  -1  11   17.60    4.40
   3   1  11   23.60    3.70
   3   1  11   33.50    4.20
   3   1  11   23.10    5.00
   3   1  11   28.20    4.30
   3   1  11   22.50    3.20
   3   1  11   23.10    3.60
   4  -1  11    5.40    2.90
   4  -1  11    9.40    5.40
   4  -1  11    2.50    3.50
   4  -1  11    8.90    2.10
   4  -1  11   10.60    3.10
   4   1  11    1.30    2.30
   4   1  11    4.70    4.70
   4   1  11    5.10    3.10
   4   1  11    3.10    3.30
   5  -1  11    5.20    6.60
   5  -1  11    7.40    4.40
   5   1  11    6.30    2.80
   5   1  11    5.00    3.80
   5   1  11    1.70    3.80
   5   1  11    9.30    3.20
   5   1  11    3.50    6.40
  -6  -1 -11   -0.90    3.50
   6  -1  11    2.40    5.30
   6  -1  11    7.40    8.30
   6  -1  11    0.80    3.80
   6   1  11   -1.40    4.80
   6   1  11   16.10    9.30
   6   1  11   -6.70    4.70
   7  -1  11    7.10   10.30
   7  -1  11   -4.50    4.70
  -7  -1 -11    1.90    4.40
   7  -1  11   -0.80    6.30
  -7   1 -11    1.40    3.70
   7   1  11    9.30    6.00
   9  -2 -11   -1.90    5.70
   9  -2 -11   -6.90    5.70
   9   2 -11   -5.00    4.80
  -8  -2  11    5.30    6.60
   8  -2 -11    6.60    4.90
  -8   2  11    5.20    3.70
   8   2 -11    0.10    4.20
  -7  -2  11   16.70    8.80
   7  -2 -11    0.80    3.10
  -7  -2  11    1.40    4.80
  -7   2  11   -9.90    6.30
   7   2 -11    1.90    3.40
   7   2 -11   -2.20    2.10
  -6  -2  11   17.50    5.20
  -6  -2  11   24.00    5.60
   6  -2 -11   30.50    3.40
  -6  -2  11   45.10    9.50
   6   2 -11   27.10    6.20
   6   2 -11   28.60    5.10
   6   2 -11   28.30    3.60
  -6   2  11   24.70    4.60
   5  -2 -11   -0.50    1.10
  -5  -2  11   -0.80    4.00
  -5  -2  11    0.80    3.20
   5  -2 -11    2.70    2.70
  -5  -2  11   -0.30    7.40
  -5   2  11   -0.60    2.40
   5   2 -11   -0.20    4.10
  -5   2  11    0.10    4.10
   5   2 -11    0.30    2.60
   5   2 -11    2.40    1.90
  -4  -2  11   10.50    7.90
   4  -2 -11   13.00    3.50
  -4  -2  11   14.20    4.00
  -4  -2  11   12.70    4.30
   4   2 -11   19.40    4.20
  -4   2  11   20.80    5.20
  -4   2  11   15.50    4.60
   4   2 -11   19.00    3.70
  -3  -2  11    4.10    6.90
  -3  -2  11    1.40    2.50
   3  -2 -11    7.80    2.80
  -3  -2  11    2.00    2.90
  -3   2  11    6.00    3.70
  -3   2  11    6.00    4.40
   3   2 -11    5.50    2.10
  -2  -2  11   63.29    5.30
  -2  -2  11   50.69   10.40
  -2  -2  11   56.39    5.60
   2  -2 -11   45.90    5.60
   2   2 -11   58.59    4.90
  -2   2  11   53.79    6.80
   1  -2 -11    5.30    2.40
  -1  -2  11    3.20    5.00
  -1  -2  11    3.90    2.30
   1  -2 -11   12.40    3.10
  -1  -2  11    3.70    2.60
  -1   2  11    7.00    3.80
  -1   2  11    7.10    1.80
  -1   2  11    6.40    2.20
   0  -2  11    0.30    2.10
   0  -2  11    5.20    2.20
   0  -2  11    3.60    1.30
   0  -2  11    8.10    2.20
   0   2  11    2.10    3.20
   0   2  11    1.60    2.20
   0   2  11    8.30    2.50
   0   2  11    5.70    1.50
   1  -2  11   29.40    4.60
   1  -2  11   27.10    4.10
   1  -2  11   28.90    3.50
  -1  -2 -11   31.90    3.70
   1   2  11   25.70    4.90
   1   2  11   28.60    4.30
   1   2  11   32.40    5.40
  -1   2 -11   29.50    3.10
   1   2  11   23.30    2.70
   2  -2  11    1.80    1.90
   2  -2  11   -1.20    2.80
   2  -2  11   -0.50    2.10
   2   2  11    6.30    2.60
   2   2  11   -2.50    3.20
   2   2  11    1.70    1.70
   2   2  11    5.40    3.80
   2   2  11    3.10    3.30
   3  -2  11    6.50    2.70
   3   2  11    5.00    3.80
   3   2  11    3.80    2.00
  -3   2 -11    3.10    1.70
   3   2  11    8.60    4.20
   3   2  11   -1.90    2.80
   4  -2  11    0.20    2.70
   4  -2  11    0.70    3.70
   4   2  11   -1.50    2.50
   4   2  11   -3.60    3.00
   4   2  11   10.40    5.50
   4   2  11   -4.10    3.30
   4   2  11   10.00    4.30
   5  -2  11   -2.20    4.70
   5  -2  11    8.10    3.70
   5   2  11    5.30    3.80
   5   2  11    6.50    3.50
   5   2  11   -2.20    5.90
  -6  -2 -11    0.80    4.00
   6  -2  11    5.80    6.00
   6   2  11   14.30    5.50
   7  -2  11    1.60    5.00
   7  -2  11   -6.20    7.50
  -7  -2 -11   -3.90    4.60
   7   2  11   14.80    6.80
   8  -3 -11   -4.20    6.70
  -8  -3  11    3.20    7.00
  -8  -3  11   20.20    9.20
   7  -3 -11   12.20    5.70
  -7  -3  11   25.20    8.20
  -7  -3  11   11.10    6.00
   7   3 -11   11.50    3.90
  -6  -3  11    4.30    3.00
  -6  -3  11    3.80    4.60
  -6  -3  11   14.90    7.00
   6  -3 -11    1.10    4.60
   6   3 -11   -3.70    7.40
   6   3 -11    6.40    2.80
  -5  -3  11   49.10   10.60
   5  -3 -11   48.00    6.80
  -5  -3  11   43.20    5.20
   5   3 -11   33.90    4.70
  -4  -3  11   10.80    5.30
  -4  -3  11    4.80    2.80
  -4   3  11   -0.30    5.60
   4   3 -11    6.70    4.70
   4   3 -11    5.80    2.20
  -3  -3  11    3.20    4.40
  -3  -3  11   -0.80    2.70
   3  -3 -11   -2.50    2.90
  -3  -3  11   -5.20    3.40
   3   3 -11    2.50    1.80
  -3   3  11    4.00    5.20
  -2  -3  11    2.50    3.40
  -2  -3  11   -1.80    2.80
   2  -3 -11    3.50    2.90
  -2  -3  11   -0.20    3.50
  -2  -3  11   -3.30    2.20
  -2   3  11   -7.60    5.00
   2   3 -11   -2.40    1.50
   2   3 -11    1.60    2.20
  -2   3  11    0.30    4.70
  -1  -3  11    6.70    2.80
   1  -3 -11    6.40    4.20
  -1  -3  11    0.20    3.00
  -1  -3  11    2.50    3.20
  -1   3  11   -1.20    4.30
  -1   3  11   -1.20    2.80
   1   3 -11    3.20    1.80
  -1   3  11   -4.40    5.10
   0  -3  11    1.80    3.10
   0  -3  11    4.00    2.70
   0  -3 -11    3.70    3.20
   0  -3  11    4.50    3.00
   0   3  11    5.10    3.20
   0   3  11    6.20    4.30
   0   3  11    0.50    4.70
   1   3  11    3.50    4.40
  -1   3 -11   15.10    3.00
   1   3  11   10.70    3.40
   2  -3  11   12.80    4.20
   2   3  11    0.80    4.20
   2   3  11    9.50    4.00
   2   3  11    1.20    3.50
  -2   3 -11    6.80    2.30
   3  -3  11   11.30    4.50
  -3   3 -11    4.20    2.20
   3   3  11    7.30    4.40
   3   3  11    2.30    2.50
   4  -3  11    5.80    3.40
   4  -3  11   -3.20    4.30
   4   3  11   -2.00    3.30
   4   3  11    2.70    4.90
   5  -3  11    4.90    4.20
   5  -3  11    7.90    5.80
   5   3  11    3.80    4.20
   5   3  11    8.40    6.10
   6  -3  11    5.20    5.30
   6  -3  11    2.30    7.40
   6   3  11   -1.30    8.70
   6   3  11    1.90    6.90
  -6  -4  11   -2.60    3.60
  -6  -4  11   10.90    7.40
   6  -4 -11   -1.90    6.10
  -6  -4  11    5.80    5.60
   6   4 -11  -14.50   11.30
   6   4 -11    1.10    3.40
  -5  -4  11   -8.10    5.60
  -5  -4  11   -3.40    3.20
   5  -4 -11   -3.00    5.00
   5   4 -11    5.40    3.00
  -4  -4  11   -1.10    3.40
  -4  -4  11   -0.60    4.30
   4  -4 -11    7.30    4.90
   4   4 -11    1.90    2.60
   4   4 -11    2.70    7.50
  -3  -4  11   -0.10    3.00
  -3  -4  11    5.90    3.40
   3  -4 -11   13.10    5.10
  -3   4  11    5.80    7.50
   2  -4 -11   12.10    5.20
  -2  -4  11    1.00    3.30
  -2  -4  11   -0.40    3.80
  -2  -4  11    2.20    2.10
  -2   4  11    0.30    7.40
   2   4 -11    4.60    2.30
  -1  -4  11   -1.00    3.60
  -1   4  11   -7.00    7.40
  -1   4  11    2.10    6.90
   0  -4 -11   -1.00    3.80
   0   4  11    4.70    6.60
   0   4  11    3.60    6.30
   1   4  11   10.00    6.60
  -1   4 -11   22.20    4.10
   2   4  11   -3.40    5.00
  -2   4 -11    1.30    3.00
   2   4  11    7.40    4.70
   2   4  11    2.30    2.20
   3  -4  11   -5.10    5.60
   3   4  11   -2.40    5.70
  -3   4 -11    0.40    2.80
   4  -4  11   14.10    6.50
  -4   4 -11    6.40    3.60
  -2  -5  11    8.10    5.90
  -2   5  11    3.50   11.50
  -1  -5  11   -2.70    5.50
   1   5 -11    6.50    3.40
   0  -5  11   -8.60    5.60
  10   0 -12  -10.20    7.00
  -9   0  12   -1.60    8.60
   9   0 -12    2.90    5.80
  -8   0  12    1.40    8.60
   8   0 -12    8.80    4.90
  -8   0  12   16.20    5.10
  -7   0  12    0.10    7.10
  -7   0  12   -1.30    4.70
   6   0 -12    6.70    3.10
  -6   0  12    5.50    7.40
  -6   0  12    6.60    4.10
  -6   0  12   15.90    5.00
   6   0 -12   11.70    3.10
   5   0 -12    4.10    2.70
   5   0 -12    0.70    2.30
  -5   0  12    4.20    7.40
  -5   0  12    3.50    3.40
  -5   0  12    3.50    3.50
   5   0 -12   -1.50    3.40
  -4   0  12   17.80    6.40
   4   0 -12   14.80    3.80
  -4   0  12    9.40    3.70
   4   0 -12    4.40    2.90
  -4   0  12    4.80    3.50
  -3   0  12    0.90    4.60
  -3   0  12    3.30    3.20
  -3   0  12   -1.00    3.00
   3   0 -12   -2.40    1.30
  -2   0  12    6.70    3.70
  -2   0  12    5.90    2.80
  -2   0  12    6.60    2.80
   2   0 -12    4.80    1.50
   1   0 -12    0.30    1.80
  -1   0  12   -1.20    2.30
  -1   0  12    2.60    3.10
  -1   0  12    0.80    2.20
   1   0 -12    4.10    1.70
   1   0 -12    1.50    1.20
   0   0  12   27.10    3.50
   0   0  12   22.00    4.60
   0   0  12   20.20    3.80
   0   0  12   19.30    3.30
   1   0  12   14.50    3.10
  -1   0 -12   13.20    2.50
   1   0  12   20.00    3.10
   1   0  12   19.90    3.70
   1   0  12   19.70    3.70
   1   0  12   10.10    2.70
   2   0  12   20.00    4.00
   2   0  12   15.10    3.80
   2   0  12   15.90    3.20
   2   0  12   14.40    3.50
   2   0  12   21.00    3.80
   3   0  12    5.00    3.00
   3   0  12    3.00    2.10
   3   0  12    3.20    2.70
   3   0  12    2.80    3.80
   3   0  12    5.00    2.50
   4   0  12   34.00    5.30
   4   0  12   31.90    4.00
   4   0  12   17.50    5.50
   4   0  12   27.50    5.10
   4   0  12   22.40    5.10
   5   0  12   -4.90    4.00
   5   0  12    0.70    6.90
   5   0  12    0.80    3.30
   6   0  12    3.40    5.70
   6   0  12   24.20    6.60
   6   0  12   10.90    4.40
   6   0  12   12.50    4.90
   6   0  12   16.30    9.90
   7   0  12    5.90   12.00
   7   0  12    4.10    5.70
   7   0  12   -6.90    7.00
  -7   0 -12    1.90    4.60
   9  -1 -12    4.00    5.80
  -9  -1  12   18.50   10.50
  -9   1  12   14.30    5.30
  -9   1  12   -4.20    8.60
   9   1 -12   -1.10    5.50
   8  -1 -12   -0.70    4.70
  -8  -1  12    7.60    9.20
   8   1 -12   -0.90    4.30
  -8   1  12   -3.10    5.00
   8   1 -12   -3.00    4.30
   7  -1 -12    8.40    3.60
  -7  -1  12    5.80    5.00
  -7  -1  12    4.00    8.80
  -7  -1  12    0.20    4.90
   7   1 -12    1.50    4.60
   7   1 -12   10.50    4.10
   7   1 -12   16.50    4.30
  -7   1  12    3.90    4.20
   6  -1 -12    1.40    2.50
  -6  -1  12    2.90    4.20
   6  -1 -12    3.90    4.40
  -6  -1  12    6.60    4.20
  -6  -1  12    1.00    8.40
   6   1 -12    8.30    3.70
  -6   1  12   -3.50    3.30
  -6   1  12    5.50    4.40
   6   1 -12    4.50    3.10
   6   1 -12    0.70    2.70
   5  -1 -12    4.60    1.90
  -5  -1  12    2.30    3.50
   5  -1 -12    3.70    2.80
  -5  -1  12    4.20    4.00
  -5  -1  12    7.00    8.40
  -5   1  12   -0.90    5.80
  -5   1  12    3.80    3.40
  -5   1  12    5.40    3.80
   5   1 -12   -0.20    2.20
   5   1 -12    3.50    3.20
  -4  -1  12    0.40    3.00
  -4  -1  12    5.30    7.40
   4  -1 -12    4.10    2.60
  -4  -1  12    3.40    3.70
   4  -1 -12   -0.10    1.30
   4  -1 -12   10.80    4.40
  -4   1  12    2.70    3.10
   4   1 -12    0.40    1.90
  -4   1  12   -0.50    4.40
   4   1 -12    2.10    2.10
   4   1 -12    2.30    2.60
  -3  -1  12    9.90    3.70
   3  -1 -12    8.40    1.40
  -3  -1  12    3.80    3.40
   3   1 -12   10.90    2.10
  -3   1  12   10.00    3.80
  -3   1  12   13.00    4.20
  -3   1  12   13.80    3.40
   2  -1 -12   15.80    1.90
  -2  -1  12   18.90    5.90
   2  -1 -12   18.80    3.70
  -2  -1  12   12.40    3.20
  -2  -1  12   13.10    3.70
   2   1 -12   17.40    2.60
  -2   1  12   11.30    3.40
   2   1 -12   13.90    2.90
  -2   1  12   16.70    3.90
  -2   1  12   11.60    3.00
   1  -1 -12   12.60    1.90
  -1  -1  12   10.30    3.00
   1  -1 -12   13.00    2.90
  -1  -1  12   11.30    4.80
  -1  -1  12   11.60    3.00
  -1   1  12   13.30    2.60
  -1   1  12    9.10    3.60
   1   1 -12   17.80    2.30
  -1   1  12    9.50    3.70
   0  -1 -12   22.90    3.50
   0  -1  12   18.50    3.60
   0  -1  12   19.00    3.00
   0   1 -12   18.50    2.60
   0   1  12   25.80    4.70
   0   1  12   15.40    3.20
   0   1  12   14.00    3.70
   0   1  12   21.30    3.20
   1  -1  12   25.00    4.70
   1  -1  12   20.50    3.40
   1  -1  12   28.10    4.50
   1  -1  12   22.20    3.60
   1  -1  12   28.10    3.60
   1   1  12   32.80    5.50
   1   1  12   21.30    3.10
   1   1  12   23.00    4.70
   1   1  12   20.60    4.80
  -1   1 -12   20.40    2.80
   1   1  12   20.00    3.90
   2  -1  12    5.80    2.60
   2  -1  12    5.60    2.20
   2  -1  12    0.30    2.90
   2  -1  12    8.60    2.90
   2   1  12    4.50    2.80
   2   1  12    5.40    2.90
   2   1  12    0.50    3.30
   2   1  12    1.60    1.90
   3  -1  12    3.40    2.20
   3  -1  12    3.70    2.90
   3  -1  12    8.70    2.90
   3  -1  12    3.10    2.60
   3  -1  12   -0.70    3.20
   3   1  12   -3.40    2.90
   3   1  12    1.70    2.20
   3   1  12   -0.40    2.90
   3   1  12    7.70    4.50
   3   1  12    2.60    3.00
   4  -1  12    9.50    3.40
   4  -1  12   -1.40    3.60
   4  -1  12   -2.20    2.90
   4  -1  12    6.00    6.20
   4  -1  12    2.70    2.40
   4   1  12    4.70    2.70
   4   1  12   11.60    5.80
   4   1  12    3.50    3.30
   4   1  12    1.30    3.30
   4   1  12   10.10    3.90
   5  -1  12   13.60    5.30
   5  -1  12    4.80    7.30
   5   1  12    5.10    7.40
   5   1  12    3.70    4.00
   5   1  12   -4.00    4.00
   5   1  12   10.70    4.80
   5   1  12    0.20    3.10
   6  -1  12    4.70    4.50
   6  -1  12    3.10    9.20
   6   1  12    3.70    4.00
   7  -1  12   -0.40    7.60
   7  -1  12   11.30    6.90
   7   1  12    2.40    7.10
   7   1  12   14.30    5.10
   7   1  12    8.40    6.20
  -9  -2  12   30.30   12.70
   8  -2 -12   50.79    9.60
  -8  -2  12   77.39   16.20
  -7  -2  12    2.20    5.00
  -7  -2  12   17.20    9.70
  -7   2  12   10.70    3.70
   7   2 -12    3.10    3.80
  -6  -2  12   37.70   10.00
  -6  -2  12   17.30    5.40
   6  -2 -12   25.70    3.00
  -6   2  12   26.70    3.90
   6   2 -12   20.10    3.60
   6   2 -12   17.70    6.00
   5  -2 -12    2.30    3.40
  -5  -2  12    0.20    3.80
  -5  -2  12    5.40    8.10
   5  -2 -12    5.90    1.20
  -5  -2  12    2.10    4.20
  -5   2  12    5.30    5.00
   5   2 -12    2.60    4.20
   5   2 -12    6.10    2.90
  -4  -2  12    0.40    3.70
  -4  -2  12    6.10    7.60
  -4  -2  12    5.20    3.70
   4  -2 -12    1.60    2.90
  -4   2  12    8.50    4.70
   4   2 -12    4.70    2.30
   4   2 -12    7.20    3.50
  -4   2  12    1.90    4.20
  -3  -2  12   -2.00    3.10
  -3  -2  12   -1.30    2.90
   3  -2 -12    8.20    3.00
  -3  -2  12   -9.10    7.10
  -3  -2  12    2.70    2.60
  -3   2  12   -1.80    3.80
   3   2 -12    0.30    1.60
   3   2 -12    1.80    2.50
  -3   2  12   -4.20    3.30
   2  -2 -12   19.50    4.00
  -2  -2  12   19.20    3.80
  -2  -2  12   12.60    3.70
  -2  -2  12    4.60    6.70
  -2   2  12   23.20    4.10
   2   2 -12   12.10    2.70
  -2   2  12   21.80    4.20
  -2   2  12   15.60    2.60
  -2   2  12   10.40    4.60
   2   2 -12   14.90    2.50
  -1  -2  12    4.60    2.40
   1  -2 -12   13.60    3.70
  -1  -2  12    9.50    5.80
  -1  -2  12    4.90    2.60
  -1  -2  12    6.10    2.70
  -1   2  12    8.70    3.00
  -1   2  12    8.80    4.00
  -1   2  12    7.10    2.20
   0  -2  12    1.90    1.40
   0  -2 -12   -2.00    2.30
   0  -2  12    5.60    2.40
   0  -2  12   -0.40    2.40
   0   2  12    1.10    3.80
   0   2 -12    5.10    1.70
   0   2  12   -0.30    2.80
   0   2  12    3.20    1.70
   0   2  12    6.00    4.00
   1  -2  12    9.60    2.40
   1  -2  12    7.20    3.30
   1  -2  12    7.20    2.80
   1   2  12    9.50    2.30
   1   2  12   10.90    4.10
   1   2  12    7.70    3.60
   1   2  12   13.00    3.20
   2  -2  12   18.10    3.40
   2  -2  12   21.70    4.10
   2  -2  12   10.80    3.70
   2   2  12   15.50    2.90
   2   2  12   11.90    4.20
   2   2  12    9.20    3.50
   2   2  12   13.50    4.80
  -2   2 -12   14.80    2.90
   3  -2  12   -3.70    3.30
  -3   2 -12    1.30    2.10
   3   2  12   -5.00    3.80
   3   2  12    8.10    4.60
   3   2  12   -3.30    3.20
   3   2  12    1.20    2.20
   4  -2  12    1.40    3.00
   4  -2  12    6.60    4.60
   4   2  12   16.30    4.80
   4   2  12   11.20    4.70
   5  -2  12   12.00    4.30
   5   2  12    8.50    3.50
   5   2  12    9.00    5.30
   5   2  12    9.70    4.80
   5   2  12    0.50    4.40
   6  -2  12   11.50    6.30
   6   2  12   -4.90    5.70
  -8  -3  12   18.90    9.70
   8   3 -12   -4.10    4.80
   7  -3 -12   25.30    7.00
  -7  -3  12   28.90    9.40
  -6  -3  12    9.20    7.90
   6  -3 -12    4.80    5.10
  -6  -3  12    5.00    5.30
  -6  -3  12    3.00    3.00
   6   3 -12   -1.70    7.30
   6   3 -12    5.20    3.30
  -5  -3  12   12.70    7.40
   5   3 -12    7.00    6.10
   5   3 -12   14.00    3.30
  -4  -3  12    5.90    3.00
  -4  -3  12    2.70    5.90
   4   3 -12   -3.00    4.50
   4   3 -12    3.20    2.20
  -4   3  12   -0.90    6.10
   3  -3 -12   11.50    5.00
  -3  -3  12    8.40    5.00
  -3   3  12    9.30    6.10
   3   3 -12    7.10    2.10
  -2  -3  12    3.70    3.80
  -2  -3  12   -4.60    3.60
  -2  -3  12   -1.90    2.60
  -2   3  12    2.70    5.60
   2   3 -12    2.50    1.90
  -1  -3  12    3.10    3.00
  -1  -3  12    3.90    3.30
  -1   3  12    5.40    5.00
   1   3 -12    5.50    1.90
   0   3 -12    2.90    2.00
   0   3  12    7.60    5.10
  -1  -3 -12   -0.90    2.60
   1  -3  12    1.20    4.00
   1   3  12   14.80    5.30
   1   3  12    2.50    1.90
  -1   3 -12    4.10    2.00
   1   3  12    0.30    4.60
   1   3  12    7.70    3.60
   2  -3  12   -1.30    3.40
   2   3  12    7.80    3.80
   2   3  12    3.50    4.90
   2   3  12   11.20    4.40
   2   3  12   -0.20    2.10
  -2   3 -12    2.70    1.90
   3  -3  12    4.00    4.70
   3   3  12   -2.90    4.80
  -3   3 -12    2.60    2.40
   3   3  12   12.10    4.60
   3   3  12   -2.10    2.60
   4  -3  12   12.60    3.80
   4   3  12   10.30    5.50
   5  -3  12    9.80    4.80
   5  -3  12   -6.30    6.10
   5   3  12   14.50    4.90
   5   3  12   -1.10    6.10
   5   3  12   -0.50    5.40
   6  -4 -12   16.20    6.90
  -6  -4  12    9.50    7.80
   5   4 -12    7.90    3.20
   4  -4 -12    5.80    6.10
  -4  -4  12   -2.60    4.90
  -4  -4  12   -4.20    3.60
   4   4 -12    8.10    3.00
  -2   4  12    6.30    8.00
   2   4 -12    8.80    2.30
   1  -4 -12    4.90    5.70
  -1   4  12    3.40    7.40
   0  -4 -12    6.40    4.40
   0   4  12   -2.20    7.30
  -3   4 -12    8.70    3.10
   9   0 -13   -5.60    5.70
   9   0 -13   25.00    8.10
  -9   0  13    8.10    9.40
   8   0 -13    3.60    4.70
   8   0 -13   16.40    7.70
  -8   0  13    0.00    5.50
  -7   0  13   -4.60    4.60
   7   0 -13   10.50    6.00
   7   0 -13    3.30    3.30
  -7   0  13    8.20    9.00
  -6   0  13    1.90    4.30
   6   0 -13   -0.50    4.30
   6   0 -13    8.60    3.60
  -6   0  13    1.30    8.30
   6   0 -13    7.40    3.00
   5   0 -13    6.20    2.40
  -5   0  13    2.40    7.30
  -5   0  13    4.40    4.10
  -5   0  13    8.20    3.90
   5   0 -13    1.30    3.10
   4   0 -13   21.60    2.80
   4   0 -13   14.20    3.80
  -4   0  13   14.40    4.30
  -4   0  13   15.90    4.60
   3   0 -13    0.00    1.50
  -3   0  13    1.60    3.40
  -3   0  13   -1.30    3.40
  -3   0  13    6.00    5.50
  -2   0  13   26.60    4.90
   2   0 -13   38.10    5.40
   2   0 -13   31.90    2.90
  -2   0  13   45.30    7.80
  -2   0  13   27.50    5.00
   1   0 -13    2.00    1.90
   1   0 -13    1.10    2.10
  -1   0  13   -3.30    3.20
  -1   0  13    2.90    2.80
  -1   0  13   -2.00    2.50
   1   0 -13   -0.90    1.30
   0   0  13   29.10    4.30
   0   0  13   42.80    4.80
   0   0  13   35.10    5.50
   0   0 -13   37.90    3.30
   1   0  13    5.10    2.60
   1   0  13    6.40    2.70
  -1   0 -13    4.80    1.80
   1   0  13    2.10    2.50
   1   0  13    1.10    2.10
   2   0  13    9.80    3.70
   2   0  13   16.60    3.70
   2   0  13   12.70    2.80
   3   0  13    0.10    3.40
   3   0  13   -0.10    4.40
   4   0  13   12.10    3.80
   4   0  13    8.10    5.60
   4   0  13    7.70    3.00
   4   0  13    1.70    4.20
   5   0  13    2.10    8.10
   5   0  13   -7.50    4.70
   5   0  13    5.10    4.30
   6   0  13    5.40    5.40
   6   0  13   22.60   11.50
   9  -1 -13   -2.70    5.70
   9  -1 -13    6.90    8.60
  -9  -1  13   16.30   11.60
   9   1 -13    3.50    6.10
  -9   1  13    5.30    6.10
   9   1 -13   -0.50    5.50
   8  -1 -13   -2.50    6.70
   8  -1 -13    4.10    4.30
  -8  -1  13   16.50   10.90
   8   1 -13    5.60    5.20
   8   1 -13    4.60    4.60
  -8   1  13   -4.40    5.10
  -7  -1  13    7.80    9.40
   7  -1 -13    9.20    3.50
  -7  -1  13    0.30    5.30
   7   1 -13   12.30    4.10
   7   1 -13   15.60    4.20
  -6  -1  13    4.00    5.00
  -6  -1  13   -2.80    8.80
   6  -1 -13    7.20    5.20
  -6  -1  13   -3.50    4.70
   6   1 -13   -5.10    3.60
  -6   1  13   -3.20    3.90
   6   1 -13   -1.20    2.80
  -5  -1  13   -0.70    4.40
  -5  -1  13  -10.50    8.00
   5  -1 -13   12.40    5.30
  -5  -1  13    4.00    4.00
   5  -1 -13    2.50    3.20
   5  -1 -13    1.40    1.70
   5   1 -13    3.00    2.70
   5   1 -13    1.20    3.10
  -5   1  13   -8.40    5.80
  -5   1  13   -0.50    3.70
  -5   1  13    5.20    4.20
   4  -1 -13    7.20    1.60
  -4  -1  13    5.70    3.60
  -4  -1  13    9.70    4.40
  -4  -1  13    4.00    8.30
   4  -1 -13   -1.30    3.20
   4  -1 -13    0.90    3.90
  -4   1  13    1.40    4.90
   4   1 -13    4.60    2.20
  -4   1  13    2.80    3.70
  -4   1  13    5.80    3.70
   4   1 -13    6.40    3.20
  -3  -1  13   -3.30    3.30
   3  -1 -13    8.70    3.80
  -3  -1  13    6.10    7.60
  -3  -1  13    2.20    3.70
   3  -1 -13   -1.40    2.80
  -3   1  13    8.00    3.40
   3   1 -13    0.10    2.40
   3   1 -13    2.80    2.00
  -3   1  13    1.60    3.40
  -3   1  13    0.10    4.20
  -2  -1  13    9.20    4.00
  -2  -1  13   15.80    6.30
  -2  -1  13    4.70    3.10
   2  -1 -13   11.30    2.00
   2   1 -13   11.40    2.20
  -2   1  13    9.50    3.30
   2   1 -13    5.80    2.50
  -2   1  13    8.70    3.90
  -1  -1  13    5.20    3.10
  -1  -1  13   16.20    3.60
   1  -1 -13   11.40    2.10
  -1  -1  13   13.00    5.80
  -1  -1  13    7.80    3.20
  -1   1  13    2.50    3.70
   1   1 -13    9.80    2.10
  -1   1  13   17.50    4.30
   0  -1  13    6.20    2.90
   0  -1  13   -0.50    2.60
   0  -1  13    2.50    2.10
   0  -1  13    4.70    4.00
   0   1  13   10.10    4.70
   0   1  13   -1.30    3.30
   0   1  13    1.50    2.70
   0   1  13    0.80    2.10
   0   1  13    8.20    2.60
   1  -1  13   15.40    3.10
   1  -1  13   21.70    4.00
   1  -1  13   16.30    3.50
   1  -1  13   18.10    3.70
   1  -1  13   15.70    3.70
   1   1  13   14.30    3.70
   1   1  13   24.30    3.30
   1   1  13   14.30    4.20
   1   1  13   16.60    3.30
   2  -1  13    4.10    2.50
   2  -1  13    3.70    3.10
   2  -1  13    5.30    3.50
   2  -1  13   -2.80    3.00
   2   1  13    6.90    3.10
  -2   1 -13    1.20    2.00
   2   1  13   -1.20    3.50
   2   1  13    3.80    2.20
   2   1  13    6.60    4.10
   2   1  13    9.60    3.60
   3  -1  13   -4.30    4.30
   3  -1  13   -0.70    2.70
   3  -1  13   -5.20    3.50
   3  -1  13    4.70    3.00
   3  -1  13    3.30    3.30
   3  -1  13    0.80    2.50
   3   1  13   -1.70    3.70
   3   1  13   -2.90    3.30
   3   1  13   -2.80    2.30
   3   1  13    9.40    5.30
   4  -1  13    3.60    6.40
   4  -1  13   10.50    3.90
   4   1  13   10.10    6.20
   4   1  13   13.40    4.30
   4   1  13    7.80    3.80
   4   1  13    2.30    3.00
   5  -1  13    9.60    5.10
   5  -1  13   10.20    8.20
   5   1  13    7.70    4.60
   5   1  13    6.30    5.10
   5   1  13   14.30    8.60
   5   1  13    3.20    4.50
   6  -1  13    3.50    5.10
   6   1  13   -2.10    5.40
   6   1  13  -10.20    6.40
   8  -2 -13   16.20    8.50
  -8  -2  13   33.70   12.10
  -7  -2  13   17.50   10.50
   7  -2 -13    0.60    2.40
   7   2 -13    4.30    3.80
  -7   2  13   -3.40    4.50
   7   2 -13    2.10    2.60
   6  -2 -13   26.20    6.50
  -6  -2  13   14.10   10.30
   6   2 -13   10.50    5.70
  -6   2  13   13.50    3.80
   6   2 -13   17.10    4.10
   5  -2 -13    2.40    1.10
  -5  -2  13   -1.30    4.10
   5   2 -13   -2.10    4.10
   5   2 -13    4.40    2.20
   5   2 -13    2.90    2.70
  -5   2  13   -1.70    3.50
  -4  -2  13    1.40    4.00
  -4  -2  13    1.90    8.10
   4  -2 -13    1.10    3.50
  -4  -2  13   -6.00    4.20
   4   2 -13    1.80    3.10
   4   2 -13    2.90    2.30
  -4   2  13    5.90    5.10
  -3  -2  13    0.90    7.50
   3  -2 -13   14.50    5.30
  -3  -2  13    3.40    3.70
  -3  -2  13   -3.30    3.00
  -3   2  13   -3.30    4.00
   3   2 -13   -0.10    2.80
  -3   2  13   -1.00    4.80
   3   2 -13    0.80    1.90
   2  -2 -13    1.10    2.50
   2  -2 -13    3.90    4.00
  -2  -2  13    1.60    6.60
  -2  -2  13    1.60    3.70
  -2  -2  13    0.80    2.30
  -2   2  13   -0.40    3.60
   2   2 -13    1.20    1.80
  -2   2  13    1.50    3.00
   2   2 -13   -0.40    2.60
  -2   2  13   -2.70    4.10
  -1  -2  13    2.40    2.60
  -1  -2  13    2.80    6.00
  -1  -2  13   -0.40    2.90
  -1   2  13    9.10    4.40
  -1   2  13    4.90    2.50
   1   2 -13    6.30    1.90
  -1   2  13   13.10    5.40
  -1   2  13    6.00    3.10
   0  -2  13    2.00    5.00
   0  -2  13    5.50    2.70
   0  -2  13   -3.10    2.80
   0  -2  13    0.90    1.70
   0  -2  13    2.40    2.40
   0  -2 -13    1.80    2.50
   0   2  13    1.20    3.20
   0   2  13    1.50    4.20
   0   2  13   -0.80    4.90
   0   2  13    1.10    3.10
   0   2  13    0.70    2.00
   1  -2  13    1.90    3.10
   1  -2  13    4.90    2.30
  -1  -2 -13   -2.10    2.60
   1   2  13    4.70    4.30
   1   2  13    1.70    2.10
  -1   2 -13    4.20    1.90
   1   2  13    2.50    3.40
   1   2  13    0.00    4.50
   1   2  13    1.70    3.90
   2   2  13    3.00    2.30
   2   2  13    8.90    3.70
   2   2  13    7.60    4.70
   2   2  13   -0.30    4.20
   2   2  13    4.90    4.60
   3  -2  13   -5.50    3.60
   3   2  13   -5.50    3.50
  -3   2 -13    6.00    2.40
   3   2  13   -1.80    2.60
   4  -2  13   -1.90    4.40
   4  -2  13    3.70    3.80
   4   2  13   13.50    5.40
   4   2  13   -4.90    5.40
   4   2  13   -3.90    4.20
   4   2  13    1.70    3.20
   5  -2  13    9.90    4.80
   5   2  13    6.10    5.50
   5   2  13    8.70    5.30
   6  -2  13    1.10    7.40
  -7  -3  13   11.70   10.20
  -6  -3  13    5.00    3.40
   6  -3 -13   10.90    7.10
  -6  -3  13    6.70    8.80
   6   3 -13   -2.30    7.30
   6   3 -13    6.10    3.60
  -5  -3  13   10.30    3.70
   5   3 -13    1.70    5.80
   5   3 -13    5.00    3.00
  -4  -3  13   -0.10    6.50
  -4  -3  13    5.10    3.10
   4  -3 -13    9.10    6.10
   4   3 -13    3.60    2.60
   4   3 -13    2.40    4.40
  -3  -3  13    3.60    5.60
   3   3 -13   11.10    3.50
  -3   3  13    5.40    6.40
  -2  -3  13    4.00    4.30
  -2  -3  13   -3.00    2.90
   2  -3 -13   -0.60    5.30
   2   3 -13   -3.30    2.50
  -2   3  13   -0.10    5.80
   2   3 -13    4.90    2.00
   1  -3 -13    4.50    4.50
  -1  -3  13    1.60    3.70
  -1   3  13   17.90    7.10
   1   3 -13    3.20    2.00
  -1   3  13    2.60    5.70
   0  -3  13    0.90    4.10
   0   3  13   -0.80    5.50
  -1  -3 -13   10.30    3.20
   1  -3  13    5.30    4.50
   1   3  13    2.00    5.70
   1   3  13    4.00    2.20
  -1   3 -13    7.20    2.30
   1   3  13   10.60    6.50
   3  -3  13    6.50    4.90
   3   3  13   14.40    5.10
   3   3  13   -3.10    5.50
  -3   3 -13    8.90    2.80
   4  -3  13    4.10    4.00
   5  -4 -13   10.60    8.40
  -2   4  13    0.50    8.80
   1  -4 -13    2.40    5.50
  -1   4  13   -2.20    7.90
  -1   4  13   16.70   10.50
   1   4 -13    4.20    2.60
   0  -4  13   -4.00    4.60
   0   4  13   -7.00    7.80
  -1  -4 -13   -3.70    3.30
   1   4  13  -11.00    8.00
  -1   4 -13    1.40    2.90
   2  -4  13   -0.10    6.10
   2   4  13   20.70    8.80
  -9   0  14    8.20   12.50
   9   0 -14    6.50    6.00
   9   0 -14   20.00    9.90
   8   0 -14   -1.00    6.40
   8   0 -14   -0.90    4.10
  -8   0  14   -7.30   10.50
   7   0 -14    4.30    3.60
  -7   0  14    0.50    5.30
  -7   0  14   -8.50    8.80
   6   0 -14    2.90    4.70
  -6   0  14  -12.80    8.50
  -6   0  14   -5.70    4.60
   5   0 -14    4.80    3.70
  -5   0  14   -6.90    7.40
  -5   0  14    1.90    4.50
   5   0 -14   -0.50    2.20
   4   0 -14   18.10    4.30
  -4   0  14   29.60    8.00
  -4   0  14   20.90    5.50
   4   0 -14   23.50    4.30
   4   0 -14   23.40    3.20
  -4   0  14   29.00    5.40
  -3   0  14   -4.20    6.30
   3   0 -14    3.30    1.70
  -3   0  14    4.00    3.90
  -3   0  14   -0.40    3.70
  -2   0  14   12.50    4.00
  -2   0  14    6.00    3.70
   2   0 -14    8.10    2.80
  -2   0  14   17.50    5.70
   2   0 -14   12.30    2.10
   1   0 -14   15.20    3.30
  -1   0  14   10.70    3.40
   1   0 -14    8.20    2.90
  -1   0  14    9.30    3.60
  -1   0  14    5.80    4.40
   0   0 -14   10.00    2.20
   0   0  14    0.70    3.60
   0   0  14    3.60    2.70
   0   0  14    5.80    2.70
   0   0  14    0.20    3.20
   1   0  14    1.30    2.50
   1   0  14    5.40    3.40
   1   0  14    0.10    4.20
   1   0  14   -0.10    2.80
   2   0  14    4.20    2.60
   2   0  14   -0.50    3.70
   2   0  14    8.90    3.30
   2   0  14    3.30    3.50
   2   0  14   -0.50    4.40
   2   0  14    1.30    3.40
   3   0  14   -3.90    3.90
   3   0  14   -1.10    2.70
   3   0  14    0.70    3.50
   3   0  14   12.60    5.30
   3   0  14    6.50    5.30
   4   0  14   16.00    4.50
   4   0  14    6.70    4.50
   4   0  14    8.40    6.60
   5   0  14    0.80    9.00
   5   0  14    6.70    5.60
   6   0  14    7.20    6.00
   6   0  14   16.60   12.20
   8  -1 -14   19.80    8.00
  -8  -1  14   -4.50   11.80
  -8   1  14   14.90    5.50
   8   1 -14   -0.30    4.60
   8   1 -14    6.20    4.50
  -7  -1  14    2.90   10.70
   7  -1 -14    3.60    3.30
   7   1 -14    7.50    4.20
  -7   1  14   16.80    4.90
   7   1 -14   -2.00    3.80
  -6  -1  14  -13.30    9.90
  -6  -1  14    0.70    5.10
   6  -1 -14   11.10    6.60
   6  -1 -14    1.30    2.30
   6   1 -14   -0.30    3.80
   6   1 -14    2.00    3.20
  -6   1  14    1.20    4.70
  -5  -1  14    4.80    9.00
  -5  -1  14   -3.90    4.70
   5  -1 -14   -1.90    1.70
   5   1 -14    2.90    2.60
   5   1 -14   -1.70    3.60
  -5   1  14    1.30    4.10
   5   1 -14    0.10    2.60
   4  -1 -14    7.90    3.90
  -4  -1  14    6.70    4.60
  -4  -1  14   -3.80    8.50
  -4  -1  14    1.60    4.00
   4  -1 -14    5.80    1.60
   4  -1 -14   -2.50    3.30
   4   1 -14   -1.20    2.50
   4   1 -14    3.20    2.00
  -4   1  14    0.20    3.90
   4   1 -14    4.50    3.20
  -4   1  14    5.30    4.30
  -3  -1  14   14.50    8.20
   3  -1 -14   23.60    4.30
  -3  -1  14    5.80    4.60
   3  -1 -14   16.20    2.20
  -3  -1  14   10.70    4.60
  -3   1  14    8.20    4.40
  -3   1  14    9.40    5.20
   3   1 -14   12.30    3.80
   3   1 -14   21.00    3.80
   3   1 -14   17.40    3.10
  -3   1  14   14.50    4.40
   2  -1 -14    0.20    1.30
  -2  -1  14    0.70    6.50
  -2  -1  14    4.30    4.00
   2  -1 -14   -3.50    2.90
  -2   1  14    4.00    3.30
  -2   1  14    4.00    3.80
   2   1 -14    0.40    3.20
   2   1 -14    3.50    1.90
  -2   1  14   -5.40    4.00
  -1  -1  14    5.00    3.40
  -1  -1  14   12.10    3.70
  -1  -1  14    4.70    6.10
   1  -1 -14    6.50    2.90
   1  -1 -14    8.10    1.90
   1  -1 -14    2.10    3.10
   1   1 -14   11.10    2.60
  -1   1  14    7.50    4.00
  -1   1  14    8.10    3.00
  -1   1  14   10.70    4.80
   0  -1  14   -0.50    2.70
   0  -1  14   -1.80    2.10
   0  -1  14   -2.40    2.80
   0  -1  14   -1.50    4.40
   0  -1  14    5.10    3.30
   0   1  14    6.30    5.00
   0   1  14   -3.20    2.70
   0   1  14    0.10    2.30
   0   1  14    6.80    2.80
   0   1 -14    2.30    1.90
   0   1  14   -5.80    4.00
   1  -1  14   -2.10    2.90
   1  -1  14    1.70    2.70
   1  -1  14   -1.30    3.10
   1   1  14   -1.00    2.20
   1   1  14   -2.10    4.90
   1   1  14   -0.50    2.70
   1   1  14    1.10    3.60
   1   1  14   -3.20    4.00
   2  -1  14    3.50    3.40
   2  -1  14    3.30    3.80
   2  -1  14   10.60    2.90
   2   1  14    3.90    2.80
   2   1  14    4.20    4.50
  -2   1 -14    6.00    2.30
   2   1  14    5.60    4.00
   2   1  14   12.10    5.30
   2   1  14    7.40    3.90
   3  -1  14   12.20    4.70
   3   1  14    5.80    5.90
   4  -1  14   16.90    5.00
   4  -1  14   13.20    4.60
   4  -1  14    2.00    7.10
   4   1  14   12.60    5.00
   4   1  14    8.40    7.10
   5  -1  14    8.80    5.50
   5  -1  14   -8.40    5.10
   5   1  14   -6.40    5.00
   5   1  14   -0.80    5.60
   6  -1  14    6.50    6.10
   6   1  14   27.40    7.70
  -8  -2  14   35.60   13.30
   8   2 -14   10.50    4.90
  -7  -2  14   14.90   11.50
   7  -2 -14   -2.80    8.20
   7   2 -14    4.00    3.80
  -6  -2  14    9.30   11.10
   6   2 -14    4.70    3.50
   6   2 -14    7.90    3.10
   6   2 -14   -2.10    5.40
  -6   2  14   12.40    4.70
  -5  -2  14    7.10   10.50
   5  -2 -14   20.30    6.90
   5   2 -14    1.10    2.70
   5   2 -14    1.40    4.00
  -4  -2  14   -2.40    9.20
   4  -2 -14   12.70    6.60
   4   2 -14    4.30    2.40
   4   2 -14    2.60    3.90
  -3  -2  14    5.90    4.40
  -3  -2  14    1.60    2.90
   3   2 -14    4.10    3.30
   3   2 -14    1.30    2.10
  -3   2  14    5.70    5.10
  -3   2  14    3.50    3.50
  -2  -2  14    7.40    4.50
   2  -2 -14    7.70    4.70
  -2  -2  14   -4.10    7.60
  -2  -2  14    7.40    3.40
   2  -2 -14    8.40    3.60
  -2   2  14    1.00    5.30
  -2   2  14    0.50    3.50
  -2   2  14    1.80    4.40
  -1  -2  14   -3.10    3.60
  -1  -2  14    1.80    6.50
  -1   2  14   -7.20    5.70
  -1   2  14   -2.10    2.90
  -1   2  14    7.40    4.90
   1   2 -14    4.30    2.00
  -1   2  14    1.90    3.40
   0  -2 -14   -1.30    3.00
   0  -2  14    0.60    2.10
   0  -2  14    3.90    5.70
   0  -2  14   -4.70    2.90
   0   2  14   -3.30    3.50
   0   2  14   -1.20    6.30
   0   2  14    2.30    3.60
   0   2 -14    3.30    2.00
   0   2  14    1.40    4.70
   1  -2  14    2.30    3.70
   1   2  14    4.10    5.10
  -1   2 -14   -0.80    2.10
   1   2  14    3.30    2.20
   2   2  14    5.50    5.40
   2   2  14   10.60    4.90
  -2   2 -14    9.30    2.40
   2   2  14    5.20    2.90
   3   2  14   -3.80    3.00
   3   2  14   -5.70    5.30
   3   2  14   -8.70    5.60
  -3   2 -14    3.40    2.80
   3   2  14    9.50    4.70
   4  -2  14   -4.10    4.90
   4  -2  14    7.80    4.50
   4   2  14   12.90    6.00
   4   2  14    4.70    4.00
   4   2  14   -0.10    5.80
   5  -2  14   20.20    5.50
   5   2  14   14.50    6.60
  -6  -3  14    1.50   10.10
  -6  -3  14    5.20    3.80
   6   3 -14    5.50    3.80
   6   3 -14   12.10    7.80
  -5  -3  14    4.40    3.80
   5   3 -14    2.40    3.10
   5   3 -14    2.30    5.90
  -4  -3  14    7.40    3.70
  -4  -3  14   -4.30    7.30
   4   3 -14    0.00    4.00
   4   3 -14    6.10    2.80
  -3  -3  14    4.70    6.20
   3   3 -14    2.50    2.50
   3   3 -14    3.50    3.60
   2  -3 -14   -5.00    5.20
  -2  -3  14   -1.80    3.40
  -2   3  14    3.30    6.70
   2   3 -14    2.30    2.20
  -1  -3  14    5.20    4.50
  -1   3  14   -1.40    7.00
  -1   3  14    2.70    6.60
   0  -3  14    1.60    4.40
   0   3  14    0.90    2.50
   0   3  14   -7.00    7.10
   0   3  14   -1.20    6.00
   1  -3  14    2.00    4.70
  -1  -3 -14    8.70    3.70
   1   3  14   12.40    7.20
   1   3  14    5.40    2.40
   1   3  14    4.70    6.40
   2   3  14   18.70    8.30
   2   3  14    1.50    4.80
   2   3  14   -1.70    3.20
  -2   3 -14    5.30    2.50
   3  -3  14    2.40    5.10
   3   3  14   -3.20    4.70
  -3   3 -14    7.00    3.30
   3   3  14   16.30    6.10
   3   3  14    3.30    5.50
   3  -4 -14   35.50   10.60
  -2  -4  14   -4.50    4.90
   1  -4 -14    9.30    6.80
  -1  -4  14    1.90    4.80
  -1   4  14   -2.60    9.00
  -1   4  14   25.50   10.60
   0   4  14  -10.00    8.90
   0   4 -14    5.90    3.30
   8   0 -15    0.20    4.50
  -8   0  15   -3.40    7.00
   8   0 -15  -10.90    6.70
  -8   0  15   -0.40   11.60
  -7   0  15  -13.50   10.20
  -7   0  15   -1.50    6.00
   7   0 -15    5.50    6.00
   7   0 -15   -0.70    3.70
  -6   0  15   -3.80    5.60
  -6   0  15  -15.60    9.60
   6   0 -15   -0.60    2.80
   6   0 -15    5.60    4.60
  -5   0  15   -4.10    8.40
  -5   0  15   -0.30    5.10
   5   0 -15   -5.80    3.80
   5   0 -15    1.80    3.70
  -4   0  15   12.80    5.30
   4   0 -15    7.80    3.60
  -4   0  15   20.00    8.20
   4   0 -15    4.60    4.40
   3   0 -15   -3.30    3.60
  -3   0  15   -0.90    4.20
   3   0 -15   -0.30    1.70
  -2   0  15   -2.60    3.80
   2   0 -15    2.60    1.70
  -2   0  15    2.60    4.00
   2   0 -15    6.20    2.80
  -1   0  15    2.30    3.30
   1   0 -15    4.70    3.30
   1   0 -15   -1.00    2.80
  -1   0  15   -0.30    4.90
   1   0 -15   -0.10    1.80
   0   0  15    3.70    3.10
   0   0  15    1.20    3.00
   0   0  15   -5.10    4.10
   1   0  15    4.70    3.20
   1   0  15    0.00    3.60
   1   0  15    5.30    3.60
   1   0  15    4.90    3.10
   2   0  15    3.80    3.10
   2   0  15    0.30    3.80
   2   0  15   -1.20    4.50
   2   0  15    3.00    5.60
   3   0  15    4.00    6.00
   3   0  15    5.40    4.70
   4   0  15   -1.70    7.10
   4   0  15    5.30    4.90
   5   0  15   18.30    6.90
  -8  -1  15   -5.20   12.90
   8  -1 -15   -5.60    4.00
   8   1 -15   -0.80    4.90
  -7  -1  15   16.10   12.40
   7  -1 -15    3.20    3.20
   7   1 -15    1.10    3.90
  -7   1  15    9.10    5.30
   6  -1 -15   -1.00    2.20
  -6  -1  15   -7.00   11.40
  -6   1  15   -0.30    4.90
   6   1 -15   -0.10    3.20
  -5  -1  15   -5.20    5.20
  -5  -1  15    9.50   10.60
   5  -1 -15    3.00    2.20
   5  -1 -15   -3.90    4.80
   5   1 -15   -6.50    4.40
   5   1 -15    1.60    2.50
   5   1 -15    3.40    3.20
  -5   1  15   -1.70    4.60
   4  -1 -15    1.30    1.70
   4  -1 -15    6.00    4.70
  -4  -1  15    5.00    5.30
  -4  -1  15   -1.00    9.30
   4   1 -15   -3.00    2.00
  -4   1  15   -6.50    6.20
  -4   1  15   -2.80    4.50
   4   1 -15    1.80    3.70
   4   1 -15    1.90    2.90
  -3  -1  15    0.40    8.90
  -3  -1  15    9.40    4.90
   3  -1 -15    7.60    1.90
   3   1 -15    8.50    2.50
  -3   1  15    8.10    4.60
   3   1 -15   -0.50    3.90
  -3   1  15   -3.70    5.20
  -2  -1  15    6.70    3.00
  -2  -1  15   -1.40    4.30
  -2  -1  15   -4.60    7.60
   2  -1 -15    5.10    2.90
   2   1 -15    4.10    2.10
  -2   1  15   -2.20    3.70
  -2   1  15    3.60    4.70
  -1  -1  15    3.80    6.70
  -1  -1  15    5.20    4.10
   1  -1 -15    9.70    3.40
  -1   1  15   -0.10    4.70
  -1   1  15    7.10    5.20
   1   1 -15    7.80    2.00
  -1   1  15    3.50    3.40
  -1   1  15    7.10    3.70
   1   1 -15   11.00    3.20
   0  -1  15   -1.60    2.50
   0  -1 -15   -2.40    3.00
   0  -1  15    5.00    3.70
   0  -1  15   -2.10    3.40
   0   1 -15   -0.40    2.00
   0   1  15    1.00    3.00
   0   1  15   -3.80    5.70
   0   1  15   -3.60    3.30
   1  -1  15    2.40    3.20
   1  -1  15    4.80    4.10
   1  -1  15    5.70    3.60
   1  -1  15    1.60    4.60
   1   1  15    1.30    4.00
  -1   1 -15    5.50    2.30
   1   1  15   -8.30    5.30
   1   1  15   -4.10    6.00
   1   1  15    2.10    2.80
   2  -1  15    2.50    4.60
   2  -1  15    6.80    3.50
   2   1  15    2.50    5.00
   2   1  15    7.00    4.20
   2   1  15    3.30    3.10
  -2   1 -15    5.30    2.50
   2   1  15   -1.20    5.30
   3  -1  15    7.40    4.00
   3  -1  15   -2.40    5.80
   3   1  15    4.50    3.70
   3   1  15   10.10    6.80
   4  -1  15   20.30    5.50
   4   1  15   16.30    5.80
   5  -1  15   -6.70    5.30
   5  -1  15    8.90    7.10
   5   1  15   -6.90    5.60
  -7  -2  15    3.60   13.10
  -6  -2  15    0.30   12.10
   6   2 -15    7.10    3.10
   6   2 -15    3.80    3.50
   6   2 -15    4.00    5.50
   5  -2 -15    2.10    1.40
  -5  -2  15   12.80   11.50
   5  -2 -15   12.60    7.90
   5   2 -15    6.10    4.60
   5   2 -15    2.80    3.10
  -4  -2  15    4.80    3.30
  -4  -2  15   -5.80   10.90
   4   2 -15   -4.20    2.40
   4   2 -15    3.00    4.10
  -4   2  15   -2.40    3.80
  -4   2  15   -9.10    5.50
  -3  -2  15    6.80    3.20
  -3  -2  15   -2.80    9.50
   3  -2 -15    6.60    5.90
   3   2 -15    1.70    2.40
   3   2 -15    1.10    3.80
  -3   2  15    5.70    4.30
  -2  -2  15    8.10    8.40
  -2  -2  15   11.30    3.90
   2   2 -15    7.40    2.50
  -1  -2  15    2.40    7.70
   1   2 -15    2.70    2.30
  -1   2  15    8.50    5.90
  -1   2  15    0.00    3.40
   0  -2  15    0.90    6.50
   0  -2  15   -4.80    3.80
   0  -2 -15    9.00    3.80
   0  -2  15   -0.10    2.40
   0   2  15   -7.60    4.10
   0   2  15    2.40    2.90
   0   2 -15    1.80    2.20
   0   2  15   10.90    7.70
   0   2  15    2.00    5.60
   1  -2  15    2.00    4.50
   1   2  15    7.20    5.90
  -1   2 -15    1.30    2.10
   1   2  15   10.80    4.50
   1   2  15    9.80    4.10
   1   2  15    3.30    2.70
   2  -2  15   -1.50    5.00
  -2   2 -15    6.80    2.60
   2   2  15    4.90    3.30
   2   2  15   10.80    7.10
   2   2  15   16.00    5.60
   2   2  15    8.00    5.20
   2   2  15    7.80    6.40
   3  -2  15    1.00    5.40
   3  -2  15    9.20    4.20
   3   2  15   -4.50    6.80
   4  -2  15   -7.50    6.20
   4  -2  15    8.10    4.90
   4   2  15    1.70    6.30
   4   2  15   -7.80    5.30
  -5  -3  15   14.10    9.70
   4  -3 -15   18.50    8.80
  -4  -3  15    9.40    5.20
  -4  -3  15    3.40    8.30
  -3  -3  15    7.20    7.10
   3   3 -15    7.80    3.00
  -2  -3  15   -5.90    3.80
   2  -3 -15    9.60    6.20
  -2  -3  15    0.40    4.90
  -1  -3  15    3.00    4.70
  -1   3  15   -4.40    7.80
   0  -3 -15   -1.80    4.20
   0  -3  15    4.00    5.00
   0   3 -15    5.50    2.70
   0   3  15   -9.30    6.60
  -1  -3 -15   -4.30    4.00
   1  -3  15    2.90    6.00
   1   3  15    3.10    7.70
   1   3  15   15.50    8.80
   2   3  15   26.20    9.50
   2   3  15   -1.40    7.90
   2   3  15    9.20    5.60
   7   0 -16    2.00    5.80
  -7   0  16   -2.60    6.70
   7   0 -16    5.60    3.90
  -6   0  16    6.00    6.70
   6   0 -16    1.20    2.70
  -5   0  16    2.50    5.80
   5   0 -16   -1.20    2.40
  -5   0  16   -5.50    9.70
   4   0 -16   -4.80    3.50
  -4   0  16   12.10    8.90
   4   0 -16    6.60    2.30
  -4   0  16    1.90    5.90
  -3   0  16    0.10    5.00
   3   0 -16   11.90    4.40
   2   0 -16    1.50    3.20
  -2   0  16    4.30    4.70
  -1   0  16    2.40    3.20
  -1   0  16   -3.30    4.00
   1   0 -16    1.60    2.00
   0   0  16    5.50    3.70
   0   0  16    3.10    3.80
   0   0 -16    9.40    2.40
   1   0  16    3.20    4.60
   1   0  16    3.30    4.30
   1   0  16    4.30    3.60
   1   0  16    1.40    3.60
   3   0  16    7.20    7.20
   3   0  16   10.30    6.90
   4   0  16   -0.90    8.40
   4   0  16    0.60    6.50
   4   0  16    3.20    5.60
   7  -1 -16    2.50    2.70
  -7  -1  16   22.70   15.20
   7   1 -16    6.40    4.10
  -6  -1  16  -13.50   13.00
   6  -1 -16   -2.00    2.40
   6   1 -16   -1.60    4.00
  -6   1  16   -2.20    5.80
   6   1 -16    2.60    3.40
  -5  -1  16    2.90   11.50
   5  -1 -16   -0.80    5.80
   5  -1 -16    2.40    2.10
  -5   1  16   -0.90    5.50
   5   1 -16    0.90    3.60
   5   1 -16   -2.60    4.70
   4  -1 -16    2.10    1.90
  -4  -1  16    7.80    6.00
  -4  -1  16  -14.90   10.10
  -4   1  16   -5.80    7.50
   4   1 -16   -0.50    4.70
   4   1 -16    1.90    2.40
  -4   1  16    1.30    5.50
   3  -1 -16    2.40    1.80
  -3  -1  16    5.10    5.30
  -3   1  16   -3.80    6.50
   3   1 -16    6.20    2.50
  -3   1  16    4.70    5.30
  -2  -1  16   -9.10    8.20
  -2  -1  16   -1.20    5.10
   2  -1 -16    9.80    4.10
  -2  -1  16    5.80    3.90
   2  -1 -16    2.20    1.90
   2  -1 -16   -3.40    3.60
  -2   1  16    0.40    4.40
   2   1 -16    2.30    2.10
  -1  -1  16   -2.40    8.10
  -1  -1  16    2.80    3.90
  -1  -1  16   -3.90    4.50
   1   1 -16    2.90    2.30
  -1   1  16    3.70    4.00
  -1   1  16    9.50    3.50
  -1   1  16   -1.00    3.90
   0  -1  16    3.90    3.30
   0  -1  16    2.70    6.50
   0  -1  16   -3.50    3.90
   0   1  16    1.50    3.70
   0   1  16    0.50    4.00
   0   1  16    5.50    3.50
   1  -1  16    0.40    4.00
   1   1  16   10.40    4.70
   1   1  16    9.20    4.70
  -1   1 -16    6.50    2.60
   1   1  16    2.80    3.50
   2  -1  16    0.20    5.30
   2  -1  16    0.30    4.60
   2  -1  16    9.80    4.00
   2   1  16    5.80    3.50
   2   1  16    1.90    6.30
   2   1  16   -3.10    4.40
   2   1  16    2.40    7.20
   3  -1  16   -8.80    5.30
   3   1  16    1.50    5.50
   3   1  16   -1.10    7.40
   4   1  16   20.70    6.80
   6  -2 -16    7.00    9.80
  -6  -2  16    6.90   14.30
   6   2 -16   -0.30    3.70
   6   2 -16    2.40    3.70
  -5  -2  16    1.00   13.00
   5   2 -16    2.80    3.10
   4  -2 -16    6.50    7.20
  -4  -2  16    2.30    3.70
   4   2 -16   -1.00    4.70
   4   2 -16    0.30    2.90
  -3  -2  16    7.20    4.40
  -3  -2  16    3.30   10.60
   3  -2 -16   -1.30    5.40
  -3   2  16    4.90    4.10
  -2  -2  16   12.20    4.20
   1  -2 -16   -5.40    3.90
  -1  -2  16    0.60    8.60
   1   2 -16    5.40    2.60
  -1   2  16    2.80    6.40
   0  -2  16    2.00    7.30
   0  -2 -16   -1.10    3.90
   0   2  16    1.40    3.60
   0   2  16    3.20    8.10
   1  -2  16    3.50    5.30
   1   2  16    8.10    5.30
   1   2  16    5.10    4.70
   1   2  16    0.10    6.70
   1   2  16    6.40    8.70
  -1   2 -16    7.10    2.70
   1   2  16    1.30    3.50
   2   2  16    8.70    5.70
  -2   2 -16   10.50    3.20
   2   2  16    2.50    7.10
   2   2  16    9.50    6.10
   2   2  16    9.40    3.60
   3  -2  16    4.30    4.80
   3   2  16   -3.90    8.20
  -4  -3  16   -1.50    4.40
   4   3 -16   -1.10    3.30
  -3  -3  16    0.60    5.10
   3  -3 -16   13.80    8.60
   3   3 -16    2.40    3.30
  -2  -3  16   -4.20    4.40
   2   3 -16    4.40    2.90
  -2   3  16   -8.70    6.80
  -1  -3  16   -5.10    5.50
   1   3 -16    7.40    3.10
   0  -3  16    0.70    6.30
   0  -3 -16   13.40    4.90
   1   3  16   -6.00   10.60
   1   3  16   -2.70    8.90
  -6   0  17   10.70    7.70
  -5   0  17   -5.80    6.60
   5   0 -17    2.00    2.70
  -4   0  17   -2.30    6.60
   4   0 -17    3.00    2.30
  -4   0  17   -8.00   10.00
  -2   0  17    4.10    5.60
   2   0 -17    7.90    2.50
   2   0 -17    5.30    4.50
  -1   0  17   -2.10    6.90
  -1   0  17   -2.50    4.80
  -1   0  17    0.90    4.00
   0   0  17    2.50    4.30
   0   0 -17    9.20    3.00
   0   0  17   11.00    5.10
   0   0  17    8.50    4.90
   1   0  17    7.90    4.30
   1   0  17   -5.80    5.20
   2   0  17    0.90    6.70
   3   0  17    3.40    8.90
   6  -1 -17   -0.10    2.60
   6  -1 -17   -4.00    7.40
  -6  -1  17  -12.60   14.80
   6   1 -17   -4.40    4.50
   6   1 -17    3.70    3.70
   5  -1 -17   -4.90    5.50
   5  -1 -17   -1.00    2.30
  -5  -1  17    8.70   13.90
  -5   1  17  -16.20   10.20
   5   1 -17    7.50    4.40
   5   1 -17    0.70    3.10
  -4  -1  17  -10.50   12.40
   4  -1 -17    0.40    2.10
  -4   1  17    0.20    6.20
  -4   1  17  -12.00    8.50
   4   1 -17    1.90    2.80
  -3  -1  17   -6.50   11.80
   3   1 -17    8.90    2.70
  -3   1  17    8.50    6.10
  -2  -1  17   -5.50    4.00
  -2  -1  17  -10.20   10.70
   2  -1 -17   -3.50    4.30
   2  -1 -17   -1.30    2.20
  -2   1  17    1.60    5.20
  -2   1  17   -7.50    7.00
   2   1 -17    7.80    2.70
   2   1 -17    8.50    3.50
  -1  -1  17   17.00    9.30
  -1  -1  17   -0.50    3.70
  -1  -1  17   -1.10    5.10
  -1   1  17   -0.20    4.80
  -1   1  17   -7.90    6.20
  -1   1  17    2.60    4.30
   1   1 -17    7.10    2.70
   0  -1  17    0.40    3.80
   0  -1  17    8.00    8.00
   0   1  17    3.80    4.50
   0   1 -17    3.10    2.80
   0   1  17   -3.50    5.80
   0   1  17    9.30    4.70
   1  -1  17    0.50    7.30
   1  -1  17   -2.90    4.90
   1  -1  17   -8.10    5.40
   1   1  17   -5.20    8.30
  -1   1 -17    0.20    2.90
   1   1  17   -1.80    5.20
   1   1  17    1.30    4.20
   2  -1  17    1.00    4.50
   2  -1  17    0.80    5.30
   2   1  17   -9.90    8.80
   2   1  17    4.70    4.30
   2   1  17   -8.60    6.10
   2   1  17   -3.50    5.30
   3  -1  17   -9.80    6.10
   3   1  17   15.40    9.00
   3   1  17   -0.90    5.70
  -5  -2  17   12.20    4.70
   5  -2 -17   10.00    8.20
  -5  -2  17    7.40   14.70
  -4  -2  17   -5.90   13.50
  -4  -2  17   -3.50    4.60
   4  -2 -17   10.30    7.60
   4   2 -17    3.60    3.30
  -3  -2  17   -7.90   12.10
  -3  -2  17   -1.70    4.90
   3   2 -17    7.40    3.30
  -2  -2  17   -0.30   11.00
  -2  -2  17    7.00    5.10
   2   2 -17   -3.10    2.80
   1  -2 -17    9.20    4.90
  -1  -2  17    3.50    5.30
  -1  -2  17   -1.20    9.90
   1   2 -17    5.40    3.10
   0  -2 -17   -6.90    4.60
   0   2 -17   -3.90    3.10
   0   2  17   -1.80    5.80
   0   2  17  -14.00    9.60
   1  -2  17    4.70    5.90
   1   2  17    3.30   10.60
   1   2  17    0.90    6.10
  -2   2 -17    3.60    3.80
   5   0 -18    4.30    3.20
  -5   0  18   -2.90   13.50
  -5   0  18   -2.20    7.80
   5   0 -18   -4.60    5.00
  -4   0  18  -18.60   11.70
  -4   0  18   -1.00    7.80
   4   0 -18   -3.70    2.60
  -3   0  18   -7.30    7.00
  -3   0  18   -7.00   10.80
   3   0 -18   -0.10    2.60
   3   0 -18    5.10    4.30
   2   0 -18    4.90    5.40
   2   0 -18   -0.80    2.60
  -2   0  18   -9.10    9.30
  -2   0  18   -7.50    6.20
  -1   0  18   -4.70    8.90
   1   0 -18    3.80    2.90
  -1   0  18    0.00    6.20
  -1   0  18   -4.40    4.40
  -1   0  18   -2.80    4.50
   0   0  18   11.50    6.10
   0   0  18   17.20    5.00
   1   0  18    7.50    5.00
   1   0  18    6.60    6.60
   2   0  18   17.70    6.80
  -5  -1  18   12.20   16.00
   5   1 -18    5.70    3.60
  -5   1  18   -3.40   11.60
  -4  -1  18  -14.00   14.80
   4  -1 -18    4.00    2.50
   4   1 -18    5.80    3.40
  -3  -1  18  -13.10   13.80
   3  -1 -18   -3.20    5.00
  -3  -1  18    7.20    5.10
  -2  -1  18    0.10   12.30
   2   1 -18   14.60    5.40
  -2   1  18    4.50    6.40
  -1  -1  18   21.60   11.50
  -1  -1  18   14.60    6.00
  -1   1  18    1.60    6.00
  -1   1  18   13.90    4.90
   0   1  18   -9.20    7.60
   0   1 -18   -4.40    3.30
   0   1  18   -0.30    5.30
   0   1  18   -4.00    4.70
   0   1  18    8.80    6.10
   1   1  18    0.40    5.20
  -1   1 -18    1.90    3.70
   1   1  18    8.10    7.20
   2  -2 -18   -1.90    5.60
   2   2 -18    2.40    3.40
   1  -2 -18   23.60    6.00
   3   0 -19    9.10    3.20
  -3   0  19    5.50   14.00
  -2   0  19   -1.60   11.90
   2   0 -19    7.50    3.50
  -2   0  19   14.40    6.60
;
_shelx_hkl_checksum              74117
loop_
_space_group_symop_operation_xyz
'x, y, z'
'-x, y+1/2, -z'
loop_
_atom_site_label
_atom_site_type_symbol
_atom_site_fract_x
_atom_site_fract_y
_atom_site_fract_z
_atom_site_U_iso_or_equiv
_atom_site_adp_type
_atom_site_occupancy
_atom_site_site_symmetry_order
_atom_site_calc_flag
_atom_site_refinement_flags_posn
_atom_site_refinement_flags_adp
_atom_site_refinement_flags_occupancy
_atom_site_disorder_assembly
_atom_site_disorder_group
O1A O 0.1542(5) 0.249(3) 0.5780(4) 0.070(2) Uani 1 1 d . U . . .
O2A O 0.2429(6) -0.120(3) 0.6253(5) 0.089(3) Uani 1 1 d . U . . .
N1A N 0.4012(7) 0.465(3) 0.5735(5) 0.065(2) Uani 1 1 d . U . . .
H1A H 0.4195 0.4199 0.5231 0.097 Uiso 1 1 calc R U . A 1
H2A H 0.4710 0.5642 0.5995 0.097 Uiso 1 1 calc R U . A 1
H3A H 0.3201 0.5520 0.5671 0.097 Uiso 1 1 calc R U . A 1
C1A C 0.2536(8) 0.111(3) 0.6062(6) 0.058(2) Uani 1 1 d . U . . .
C21A C 0.390(4) 0.238(10) 0.6234(17) 0.057(3) Uani 0.28(2) 1 d D U P B 1
H21A H 0.4469 0.1172 0.5963 0.068 Uiso 0.28(2) 1 calc R U P B 1
C31A C 0.490(3) 0.288(7) 0.7042(15) 0.066(5) Uani 0.28(2) 1 d D U P B 1
H31A H 0.5819 0.3330 0.6916 0.079 Uiso 0.28(2) 1 calc R U P B 1
H32A H 0.4552 0.4323 0.7328 0.079 Uiso 0.28(2) 1 calc R U P B 1
C41A C 0.504(5) 0.062(7) 0.760(2) 0.146(8) Uani 0.28(2) 1 d D U P B 1
H41A H 0.5329 -0.0842 0.7302 0.175 Uiso 0.28(2) 1 calc R U P B 1
H42A H 0.4126 0.0234 0.7751 0.175 Uiso 0.28(2) 1 calc R U P B 1
S11A S 0.628(3) 0.104(6) 0.8546(16) 0.188(11) Uani 0.28(2) 1 d D U P B 1
C51A C 0.522(7) 0.24(2) 0.915(3) 0.300 Uiso 0.28(2) 1 d D U P B 1
H51A H 0.5752 0.2695 0.9705 0.450 Uiso 0.28(2) 1 calc R U P B 1
H52A H 0.4445 0.1268 0.9187 0.450 Uiso 0.28(2) 1 calc R U P B 1
H53A H 0.4871 0.4001 0.8905 0.450 Uiso 0.28(2) 1 calc R U P B 1
C22A C 0.412(2) 0.238(6) 0.6249(10) 0.057(3) Uani 0.50(2) 1 d D U P B 2
H22A H 0.4841 0.1196 0.6108 0.068 Uiso 0.50(2) 1 calc R U P B 2
C32A C 0.441(2) 0.311(4) 0.7163(10) 0.066(5) Uani 0.50(2) 1 d D U P B 2
H33A H 0.5159 0.4383 0.7255 0.079 Uiso 0.50(2) 1 calc R U P B 2
H34A H 0.3565 0.3882 0.7313 0.079 Uiso 0.50(2) 1 calc R U P B 2
C42A C 0.482(3) 0.088(5) 0.7712(12) 0.146(8) Uani 0.50(2) 1 d D U P B 2
H43A H 0.5599 0.0000 0.7516 0.175 Uiso 0.50(2) 1 calc R U P B 2
H44A H 0.4033 -0.0305 0.7658 0.175 Uiso 0.50(2) 1 calc R U P B 2
S12A S 0.535(3) 0.165(5) 0.8792(9) 0.246(10) Uani 0.50(2) 1 d D U P B 2
C52A C 0.577(5) -0.129(7) 0.918(2) 0.300 Uiso 0.50(2) 1 d D U P B 2
H54A H 0.6196 -0.1164 0.9759 0.450 Uiso 0.50(2) 1 calc R U P B 2
H55A H 0.6429 -0.2076 0.8865 0.450 Uiso 0.50(2) 1 calc R U P B 2
H56A H 0.4930 -0.2321 0.9124 0.450 Uiso 0.50(2) 1 calc R U P B 2
C23A C 0.386(6) 0.236(17) 0.635(3) 0.057(3) Uani 0.130(13) 1 d D U P B 3
H23A H 0.4546 0.1108 0.6205 0.068 Uiso 0.130(13) 1 calc R U P B 3
C33A C 0.418(4) 0.238(9) 0.729(3) 0.066(5) Uani 0.130(13) 1 d D U P B 3
H35A H 0.3442 0.3305 0.7508 0.079 Uiso 0.130(13) 1 calc R U P B 3
H36A H 0.4193 0.0629 0.7500 0.079 Uiso 0.130(13) 1 calc R U P B 3
C43A C 0.556(5) 0.360(16) 0.761(3) 0.14(4) Uiso 0.130(13) 1 d D . P B 3
H45A H 0.5533 0.5356 0.7413 0.174 Uiso 0.130(13) 1 calc R U P B 3
H46A H 0.6288 0.2699 0.7381 0.174 Uiso 0.130(13) 1 calc R U P B 3
S13A S 0.603(7) 0.362(13) 0.873(3) 0.246(10) Uani 0.130(13) 1 d D . P B 3
C53A C 0.485(12) 0.58(2) 0.896(5) 0.300 Uiso 0.130(13) 1 d D U P B 3
H57A H 0.4927 0.5892 0.9560 0.450 Uiso 0.130(13) 1 calc R U P B 3
H58A H 0.3912 0.5221 0.8717 0.450 Uiso 0.130(13) 1 calc R U P B 3
H59A H 0.5039 0.7412 0.8733 0.450 Uiso 0.130(13) 1 calc R U P B 3
C24A C 0.374(10) 0.203(17) 0.613(3) 0.057(3) Uani 0.093(13) 1 d D U P B 4
H24A H 0.4233 0.0808 0.5817 0.068 Uiso 0.093(13) 1 calc R U P B 4
C34A C 0.451(7) 0.180(11) 0.702(3) 0.066(5) Uani 0.093(13) 1 d D U P B 4
H37A H 0.4450 0.0048 0.7207 0.079 Uiso 0.093(13) 1 calc R U P B 4
H38A H 0.5505 0.2201 0.7029 0.079 Uiso 0.093(13) 1 calc R U P B 4
C44A C 0.393(5) 0.355(10) 0.759(3) 0.05(3) Uiso 0.093(13) 1 d D . P B 4
H47A H 0.2943 0.3135 0.7576 0.061 Uiso 0.093(13) 1 calc R U P B 4
H48A H 0.3983 0.5295 0.7390 0.061 Uiso 0.093(13) 1 calc R U P B 4
S14A S 0.482(8) 0.341(17) 0.865(2) 0.246(10) Uani 0.093(13) 1 d D . P B 4
C54A C 0.635(9) 0.48(3) 0.855(5) 0.300 Uiso 0.093(13) 1 d D U P B 4
H60A H 0.7040 0.4484 0.9040 0.450 Uiso 0.093(13) 1 calc R U P B 4
H61A H 0.6204 0.6636 0.8481 0.450 Uiso 0.093(13) 1 calc R U P B 4
H62A H 0.6670 0.4134 0.8059 0.450 Uiso 0.093(13) 1 calc R U P B 4
O1B O 0.6633(5) 0.696(3) 0.5801(4) 0.070(2) Uani 1 1 d . U . . .
O2B O 0.7439(7) 0.307(3) 0.6116(5) 0.096(3) Uani 1 1 d . U . . .
N1B N 0.9217(7) 0.892(3) 0.5891(5) 0.073(3) Uani 1 1 d . U . . .
H1B H 0.9574 1.0259 0.6203 0.110 Uiso 1 1 calc R U . C 1
H2B H 0.8323 0.9253 0.5662 0.110 Uiso 1 1 calc R U . C 1
H3B H 0.9723 0.8650 0.5485 0.110 Uiso 1 1 calc R U . C 1
C1B C 0.7611(9) 0.541(3) 0.6050(6) 0.066(3) Uani 1 1 d . U . . .
C21B C 0.926(7) 0.68(2) 0.638(3) 0.064(4) Uani 0.098(12) 1 d D U P D 1
H21B H 1.0081 0.5702 0.6376 0.077 Uiso 0.098(12) 1 calc R U P D 1
C31B C 0.911(7) 0.795(12) 0.724(4) 0.069(7) Uiso 0.098(12) 1 d D . P D 1
H31B H 0.9872 0.9172 0.7414 0.082 Uiso 0.098(12) 1 calc R U P D 1
H32B H 0.8222 0.8866 0.7189 0.082 Uiso 0.098(12) 1 calc R U P D 1
C41B C 0.917(6) 0.588(16) 0.789(4) 0.153(13) Uiso 0.098(12) 1 d D . P D 1
H41B H 0.8435 0.4631 0.7691 0.184 Uiso 0.098(12) 1 calc R U P D 1
H42B H 0.8941 0.6643 0.8401 0.184 Uiso 0.098(12) 1 calc R U P D 1
S11B S 1.081(6) 0.423(13) 0.815(3) 0.220(11) Uani 0.098(12) 1 d D . P D 1
C51B C 1.197(10) 0.65(2) 0.859(10) 0.300 Uiso 0.098(12) 1 d D U P D 1
H51B H 1.2847 0.5667 0.8824 0.450 Uiso 0.098(12) 1 calc R U P D 1
H52B H 1.1589 0.7332 0.9032 0.450 Uiso 0.098(12) 1 calc R U P D 1
H53B H 1.2119 0.7697 0.8171 0.450 Uiso 0.098(12) 1 calc R U P D 1
C22B C 0.898(7) 0.620(8) 0.663(3) 0.064(4) Uani 0.153(15) 1 d D U P D 2
H22B H 0.9729 0.4894 0.6662 0.077 Uiso 0.153(15) 1 calc R U P D 2
C32B C 0.888(5) 0.741(11) 0.748(3) 0.069(7) Uiso 0.153(15) 1 d D . P D 2
H33B H 0.8324 0.8977 0.7390 0.082 Uiso 0.153(15) 1 calc R U P D 2
H34B H 0.8391 0.6235 0.7801 0.082 Uiso 0.153(15) 1 calc R U P D 2
C42B C 1.031(6) 0.801(8) 0.797(3) 0.153(13) Uiso 0.153(15) 1 d D . P D 2
H43B H 1.0207 0.9279 0.8395 0.184 Uiso 0.153(15) 1 calc R U P D 2
H44B H 1.0876 0.8787 0.7590 0.184 Uiso 0.153(15) 1 calc R U P D 2
S12B S 1.127(5) 0.534(11) 0.848(3) 0.220(11) Uani 0.153(15) 1 d D . P D 2
C52B C 1.026(10) 0.42(2) 0.915(6) 0.300 Uiso 0.153(15) 1 d D U P D 2
H54B H 1.0634 0.2622 0.9384 0.450 Uiso 0.153(15) 1 calc R U P D 2
H55B H 0.9310 0.3995 0.8864 0.450 Uiso 0.153(15) 1 calc R U P D 2
H56B H 1.0267 0.5453 0.9602 0.450 Uiso 0.153(15) 1 calc R U P D 2
C23B C 0.902(11) 0.608(18) 0.625(2) 0.064(4) Uani 0.139(12) 1 d D U P D 3
H23B H 0.9567 0.4877 0.5959 0.077 Uiso 0.139(12) 1 calc R U P D 3
C33B C 0.962(8) 0.600(11) 0.719(3) 0.069(7) Uiso 0.139(12) 1 d D . P D 3
H35B H 0.9349 0.4398 0.7429 0.082 Uiso 0.139(12) 1 calc R U P D 3
H36B H 1.0650 0.6046 0.7272 0.082 Uiso 0.139(12) 1 calc R U P D 3
C43B C 0.910(9) 0.822(12) 0.764(3) 0.153(13) Uiso 0.139(12) 1 d D . P D 3
H45B H 0.8073 0.8144 0.7554 0.184 Uiso 0.139(12) 1 calc R U P D 3
H46B H 0.9359 0.9796 0.7388 0.184 Uiso 0.139(12) 1 calc R U P D 3
S13B S 0.973(6) 0.838(11) 0.875(2) 0.220(11) Uani 0.139(12) 1 d D . P D 3
C53B C 0.917(19) 0.57(2) 0.914(5) 0.300 Uiso 0.139(12) 1 d D U P D 3
H57B H 0.9386 0.5693 0.9744 0.450 Uiso 0.139(12) 1 calc R U P D 3
H58B H 0.9635 0.4211 0.8935 0.450 Uiso 0.139(12) 1 calc R U P D 3
H59B H 0.8165 0.5494 0.8964 0.450 Uiso 0.139(12) 1 calc R U P D 3
C24B C 0.900(7) 0.690(12) 0.6410(19) 0.064(4) Uani 0.239(13) 1 d D U P D 4
H24B H 0.9710 0.5680 0.6277 0.077 Uiso 0.239(13) 1 calc R U P D 4
C34B C 0.916(4) 0.650(8) 0.7363(19) 0.069(7) Uiso 0.239(13) 1 d D . P D 4
H37B H 0.8335 0.7195 0.7560 0.082 Uiso 0.239(13) 1 calc R U P D 4
H38B H 0.9208 0.4677 0.7487 0.082 Uiso 0.239(13) 1 calc R U P D 4
C44B C 1.047(5) 0.779(10) 0.7821(19) 0.153(13) Uiso 0.239(13) 1 d D . P D 4
H47B H 1.0474 0.9554 0.7622 0.184 Uiso 0.239(13) 1 calc R U P D 4
H48B H 1.1285 0.6936 0.7671 0.184 Uiso 0.239(13) 1 calc R U P D 4
S14B S 1.065(4) 0.784(8) 0.8942(16) 0.220(11) Uani 0.239(13) 1 d D . P D 4
C54B C 1.065(14) 0.474(11) 0.923(4) 0.300 Uiso 0.239(13) 1 d D U P D 4
H60B H 0.9954 0.4468 0.9578 0.450 Uiso 0.239(13) 1 calc R U P D 4
H61B H 1.1570 0.4286 0.9530 0.450 Uiso 0.239(13) 1 calc R U P D 4
H62B H 1.0437 0.3687 0.8730 0.450 Uiso 0.239(13) 1 calc R U P D 4
C25B C 0.914(8) 0.65(2) 0.630(2) 0.064(4) Uani 0.174(19) 1 d D U P D 5
H25B H 0.9776 0.5328 0.6068 0.077 Uiso 0.174(19) 1 calc R U P D 5
C35B C 0.992(4) 0.734(12) 0.717(2) 0.069(7) Uiso 0.174(19) 1 d D . P D 5
H39B H 1.0852 0.7966 0.7121 0.082 Uiso 0.174(19) 1 calc R U P D 5
H40B H 0.9400 0.8729 0.7378 0.082 Uiso 0.174(19) 1 calc R U P D 5
C45B C 1.006(7) 0.515(11) 0.778(3) 0.153(13) Uiso 0.174(19) 1 d D . P D 5
H49B H 1.0557 0.3761 0.7561 0.184 Uiso 0.174(19) 1 calc R U P D 5
H50B H 0.9114 0.4527 0.7819 0.184 Uiso 0.174(19) 1 calc R U P D 5
S15B S 1.095(6) 0.585(14) 0.883(2) 0.220(11) Uani 0.174(19) 1 d D . P D 5
C55B C 1.254(7) 0.70(3) 0.870(5) 0.300 Uiso 0.174(19) 1 d D U P D 5
H63B H 1.3101 0.7294 0.9244 0.450 Uiso 0.174(19) 1 calc R U P D 5
H64B H 1.2430 0.8509 0.8376 0.450 Uiso 0.174(19) 1 calc R U P D 5
H65B H 1.3009 0.5687 0.8413 0.450 Uiso 0.174(19) 1 calc R U P D 5
C26B C 0.902(8) 0.649(18) 0.627(2) 0.064(4) Uani 0.224(17) 1 d D U P D 6
H26B H 0.9713 0.5264 0.6127 0.077 Uiso 0.224(17) 1 calc R U P D 6
C36B C 0.947(3) 0.734(11) 0.719(2) 0.069(7) Uiso 0.224(17) 1 d D . P D 6
H36C H 1.0418 0.8037 0.7266 0.082 Uiso 0.224(17) 1 calc R U P D 6
H36D H 0.8837 0.8688 0.7317 0.082 Uiso 0.224(17) 1 calc R U P D 6
C46B C 0.943(7) 0.514(10) 0.778(2) 0.153(13) Uiso 0.224(17) 1 d D . P D 6
H46C H 1.0033 0.3784 0.7636 0.184 Uiso 0.224(17) 1 calc R U P D 6
H46D H 0.8468 0.4468 0.7702 0.184 Uiso 0.224(17) 1 calc R U P D 6
S16B S 0.996(5) 0.586(10) 0.8876(17) 0.220(11) Uani 0.224(17) 1 d D . P D 6
C56B C 1.167(6) 0.67(3) 0.897(4) 0.300 Uiso 0.224(17) 1 d D U P D 6
H56C H 1.2000 0.7286 0.9538 0.450 Uiso 0.224(17) 1 calc R U P D 6
H56D H 1.1761 0.8062 0.8584 0.450 Uiso 0.224(17) 1 calc R U P D 6
H56E H 1.2214 0.5248 0.8854 0.450 Uiso 0.224(17) 1 calc R U P D 6
loop_
_atom_site_aniso_label
_atom_site_aniso_U_11
_atom_site_aniso_U_22
_atom_site_aniso_U_33
_atom_site_aniso_U_23
_atom_site_aniso_U_13
_atom_site_aniso_U_12
O1A 0.028(3) 0.067(5) 0.119(5) 0.000(4) 0.019(3) -0.006(3)
O2A 0.054(4) 0.057(5) 0.158(7) 0.012(4) 0.023(4) -0.010(3)
N1A 0.040(4) 0.062(5) 0.095(5) -0.009(3) 0.021(3) -0.014(3)
C1A 0.028(4) 0.058(5) 0.093(6) -0.009(4) 0.020(3) -0.007(3)
C21A 0.026(5) 0.057(5) 0.090(5) -0.009(4) 0.017(3) -0.010(3)
C31A 0.031(9) 0.082(9) 0.087(5) -0.009(5) 0.018(5) -0.019(7)
C41A 0.157(18) 0.136(12) 0.136(10) 0.036(8) -0.002(10) -0.017(11)
S11A 0.177(17) 0.196(19) 0.173(14) 0.029(12) -0.021(12) 0.032(14)
C22A 0.026(5) 0.057(5) 0.090(5) -0.009(4) 0.017(3) -0.010(3)
C32A 0.031(9) 0.082(9) 0.087(5) -0.009(5) 0.018(5) -0.019(7)
C42A 0.157(18) 0.136(12) 0.136(10) 0.036(8) -0.002(10) -0.017(11)
S12A 0.31(2) 0.27(2) 0.129(7) 0.016(10) -0.043(10) 0.004(17)
C23A 0.026(5) 0.057(5) 0.090(5) -0.009(4) 0.017(3) -0.010(3)
C33A 0.031(9) 0.082(9) 0.087(5) -0.009(5) 0.018(5) -0.019(7)
S13A 0.31(2) 0.27(2) 0.129(7) 0.016(10) -0.043(10) 0.004(17)
C24A 0.026(5) 0.057(5) 0.090(5) -0.009(4) 0.017(3) -0.010(3)
C34A 0.031(9) 0.082(9) 0.087(5) -0.009(5) 0.018(5) -0.019(7)
S14A 0.31(2) 0.27(2) 0.129(7) 0.016(10) -0.043(10) 0.004(17)
O1B 0.037(3) 0.056(4) 0.115(5) 0.007(3) 0.008(3) -0.014(3)
O2B 0.069(4) 0.055(5) 0.163(7) 0.007(4) 0.020(4) -0.010(3)
N1B 0.042(4) 0.071(6) 0.110(6) -0.013(4) 0.020(4) -0.018(4)
C1B 0.041(4) 0.056(6) 0.103(6) -0.002(4) 0.015(4) -0.006(3)
C21B 0.037(4) 0.061(7) 0.097(9) -0.012(5) 0.018(5) -0.008(4)
S11B 0.187(18) 0.33(3) 0.124(9) 0.005(16) -0.037(11) 0.03(2)
C22B 0.037(4) 0.061(7) 0.097(9) -0.012(5) 0.018(5) -0.008(4)
S12B 0.187(18) 0.33(3) 0.124(9) 0.005(16) -0.037(11) 0.03(2)
C23B 0.037(4) 0.061(7) 0.097(9) -0.012(5) 0.018(5) -0.008(4)
S13B 0.187(18) 0.33(3) 0.124(9) 0.005(16) -0.037(11) 0.03(2)
C24B 0.037(4) 0.061(7) 0.097(9) -0.012(5) 0.018(5) -0.008(4)
S14B 0.187(18) 0.33(3) 0.124(9) 0.005(16) -0.037(11) 0.03(2)
C25B 0.037(4) 0.061(7) 0.097(9) -0.012(5) 0.018(5) -0.008(4)
S15B 0.187(18) 0.33(3) 0.124(9) 0.005(16) -0.037(11) 0.03(2)
C26B 0.037(4) 0.061(7) 0.097(9) -0.012(5) 0.018(5) -0.008(4)
S16B 0.187(18) 0.33(3) 0.124(9) 0.005(16) -0.037(11) 0.03(2)
loop_
_atom_type_symbol
_atom_type_description
_atom_type_scat_dispersion_real
_atom_type_scat_dispersion_imag
_atom_type_scat_source
C C 0.0033 0.0016 'International Tables Vol C Tables 4.2.6.8 and 6.1.1.4'
H H 0.0000 0.0000 'International Tables Vol C Tables 4.2.6.8 and 6.1.1.4'
N N 0.0061 0.0033 'International Tables Vol C Tables 4.2.6.8 and 6.1.1.4'
O O 0.0106 0.0060 'International Tables Vol C Tables 4.2.6.8 and 6.1.1.4'
S S 0.1246 0.1234 'International Tables Vol C Tables 4.2.6.8 and 6.1.1.4'
loop_
_geom_angle_atom_site_label_1
_geom_angle_atom_site_label_2
_geom_angle_atom_site_label_3
_geom_angle
C21A N1A H1A 109.5
C21A N1A H2A 109.5
H1A N1A H2A 109.5
C21A N1A H3A 109.5
H1A N1A H3A 109.5
H2A N1A H3A 109.5
O1A C1A C24A 118(5)
O1A C1A O2A 124.5(8)
C24A C1A O2A 118(5)
O1A C1A C23A 117(3)
O2A C1A C23A 117(3)
O1A C1A C21A 115(2)
O2A C1A C21A 120(2)
O1A C1A C22A 118.3(13)
O2A C1A C22A 117.1(12)
N1A C21A C1A 115(2)
N1A C21A C31A 104(2)
C1A C21A C31A 132(3)
N1A C21A H21A 100.2
C1A C21A H21A 100.2
C31A C21A H21A 100.2
C41A C31A C21A 112.1(14)
C41A C31A H31A 109.2
C21A C31A H31A 109.2
C41A C31A H32A 109.2
C21A C31A H32A 109.2
H31A C31A H32A 107.9
C31A C41A S11A 114.1(13)
C31A C41A H41A 108.7
S11A C41A H41A 108.7
C31A C41A H42A 108.7
S11A C41A H42A 108.7
H41A C41A H42A 107.6
C51A S11A C41A 99.5(14)
S11A C51A H51A 109.5
S11A C51A H52A 109.5
H51A C51A H52A 109.5
S11A C51A H53A 109.5
H51A C51A H53A 109.5
H52A C51A H53A 109.5
N1A C22A C32A 110.0(17)
N1A C22A C1A 104.5(13)
C32A C22A C1A 106.9(14)
N1A C22A H22A 111.7
C32A C22A H22A 111.7
C1A C22A H22A 111.7
C42A C32A C22A 112.1(14)
C42A C32A H33A 109.2
C22A C32A H33A 109.2
C42A C32A H34A 109.2
C22A C32A H34A 109.2
H33A C32A H34A 107.9
C32A C42A S12A 114.4(13)
C32A C42A H43A 108.7
S12A C42A H43A 108.7
C32A C42A H44A 108.7
S12A C42A H44A 108.7
H43A C42A H44A 107.6
C52A S12A C42A 99.6(14)
S12A C52A H54A 109.5
S12A C52A H55A 109.5
H54A C52A H55A 109.5
S12A C52A H56A 109.5
H54A C52A H56A 109.5
H55A C52A H56A 109.5
C1A C23A C33A 110(4)
C1A C23A N1A 108(3)
C33A C23A N1A 127(4)
C1A C23A H23A 102.5
C33A C23A H23A 102.5
N1A C23A H23A 102.5
C43A C33A C23A 112.1(15)
C43A C33A H35A 109.2
C23A C33A H35A 109.2
C43A C33A H36A 109.2
C23A C33A H36A 109.2
H35A C33A H36A 107.9
C33A C43A S13A 114.5(14)
C33A C43A H45A 108.6
S13A C43A H45A 108.6
C33A C43A H46A 108.6
S13A C43A H46A 108.6
H45A C43A H46A 107.6
C53A S13A C43A 99.6(15)
S13A C53A H57A 109.5
S13A C53A H58A 109.5
H57A C53A H58A 109.5
S13A C53A H59A 109.5
H57A C53A H59A 109.5
H58A C53A H59A 109.5
C1A C24A C34A 111(4)
C1A C24A N1A 122(7)
C34A C24A N1A 112(3)
C1A C24A H24A 103.4
C34A C24A H24A 103.4
N1A C24A H24A 103.4
C44A C34A C24A 112.0(15)
C44A C34A H37A 109.2
C24A C34A H37A 109.2
C44A C34A H38A 109.2
C24A C34A H38A 109.2
H37A C34A H38A 107.9
C34A C44A S14A 114.4(14)
C34A C44A H47A 108.7
S14A C44A H47A 108.7
C34A C44A H48A 108.7
S14A C44A H48A 108.7
H47A C44A H48A 107.6
C54A S14A C44A 99.5(15)
S14A C54A H60A 109.5
S14A C54A H61A 109.5
H60A C54A H61A 109.5
S14A C54A H62A 109.5
H60A C54A H62A 109.5
H61A C54A H62A 109.5
C21B N1B H1B 109.5
C21B N1B H2B 109.5
H1B N1B H2B 109.5
C21B N1B H3B 109.5
H1B N1B H3B 109.5
H2B N1B H3B 109.5
O2B C1B O1B 123.8(9)
O2B C1B C23B 111(4)
O1B C1B C23B 125(4)
O2B C1B C26B 120(3)
O1B C1B C26B 117(3)
O2B C1B C22B 108.9(17)
O1B C1B C22B 123.0(19)
O2B C1B C25B 118(4)
O1B C1B C25B 118(4)
O2B C1B C24B 125.0(19)
O1B C1B C24B 110.4(19)
O2B C1B C21B 121(3)
O1B C1B C21B 115(3)
N1B C21B C31B 103(6)
N1B C21B C1B 103(4)
C31B C21B C1B 102(5)
N1B C21B H21B 115.5
C31B C21B H21B 115.5
C1B C21B H21B 115.5
C41B C31B C21B 111(2)
C41B C31B H31B 109.4
C21B C31B H31B 109.4
C41B C31B H32B 109.4
C21B C31B H32B 109.4
H31B C31B H32B 108.0
C31B C41B S11B 115.7(16)
C31B C41B H41B 108.4
S11B C41B H41B 108.4
C31B C41B H42B 108.4
S11B C41B H42B 108.4
H41B C41B H42B 107.4
C51B S11B C41B 104.8(19)
S11B C51B H51B 109.5
S11B C51B H52B 109.5
H51B C51B H52B 109.5
S11B C51B H53B 109.5
H51B C51B H53B 109.5
H52B C51B H53B 109.5
C32B C22B C1B 118(4)
C32B C22B N1B 107(3)
C1B C22B N1B 90(2)
C32B C22B H22B 113.2
C1B C22B H22B 113.2
N1B C22B H22B 113.2
C42B C32B C22B 111(2)
C42B C32B H33B 109.4
C22B C32B H33B 109.4
C42B C32B H34B 109.4
C22B C32B H34B 109.4
H33B C32B H34B 108.0
C32B C42B S12B 115.7(16)
C32B C42B H43B 108.4
S12B C42B H43B 108.4
C32B C42B H44B 108.4
S12B C42B H44B 108.4
H43B C42B H44B 107.4
C52B S12B C42B 104.8(18)
S12B C52B H54B 109.5
S12B C52B H55B 109.5
H54B C52B H55B 109.5
S12B C52B H56B 109.5
H54B C52B H56B 109.5
H55B C52B H56B 109.5
C1B C23B C33B 114(5)
C1B C23B N1B 108(6)
C33B C23B N1B 109(4)
C1B C23B H23B 108.2
C33B C23B H23B 108.2
N1B C23B H23B 108.2
C43B C33B C23B 111(2)
C43B C33B H35B 109.4
C23B C33B H35B 109.4
C43B C33B H36B 109.4
C23B C33B H36B 109.4
H35B C33B H36B 108.0
C33B C43B S13B 115.9(16)
C33B C43B H45B 108.3
S13B C43B H45B 108.3
C33B C43B H46B 108.3
S13B C43B H46B 108.3
H45B C43B H46B 107.4
C53B S13B C43B 104.9(19)
S13B C53B H57B 109.5
S13B C53B H58B 109.5
H57B C53B H58B 109.5
S13B C53B H59B 109.5
H57B C53B H59B 109.5
H58B C53B H59B 109.5
N1B C24B C34B 135(4)
N1B C24B C1B 111(2)
C34B C24B C1B 104(4)
N1B C24B H24B 100.3
C34B C24B H24B 100.3
C1B C24B H24B 100.3
C44B C34B C24B 111(2)
C44B C34B H37B 109.4
C24B C34B H37B 109.4
C44B C34B H38B 109.4
C24B C34B H38B 109.4
H37B C34B H38B 108.0
C34B C44B S14B 115.7(16)
C34B C44B H47B 108.3
S14B C44B H47B 108.3
C34B C44B H48B 108.3
S14B C44B H48B 108.3
H47B C44B H48B 107.4
C54B S14B C44B 104.8(19)
S14B C54B H60B 109.5
S14B C54B H61B 109.5
H60B C54B H61B 109.5
S14B C54B H62B 109.5
H60B C54B H62B 109.5
H61B C54B H62B 109.5
N1B C25B C35B 97(4)
N1B C25B C1B 109(4)
C35B C25B C1B 129(5)
N1B C25B H25B 106.9
C35B C25B H25B 106.9
C1B C25B H25B 106.9
C45B C35B C25B 111(2)
C45B C35B H39B 109.4
C25B C35B H39B 109.4
C45B C35B H40B 109.4
C25B C35B H40B 109.4
H39B C35B H40B 108.0
C35B C45B S15B 116.1(16)
C35B C45B H49B 108.3
S15B C45B H49B 108.3
C35B C45B H50B 108.3
S15B C45B H50B 108.3
H49B C45B H50B 107.4
C55B S15B C45B 104.9(19)
S15B C55B H63B 109.5
S15B C55B H64B 109.5
H63B C55B H64B 109.5
S15B C55B H65B 109.5
H63B C55B H65B 109.5
H64B C55B H65B 109.5
N1B C26B C1B 115(4)
N1B C26B C36B 97(4)
C1B C26B C36B 116(4)
N1B C26B H26B 109.2
C1B C26B H26B 109.2
C36B C26B H26B 109.2
C46B C36B C26B 111(2)
C46B C36B H36C 109.4
C26B C36B H36C 109.4
C46B C36B H36D 109.4
C26B C36B H36D 109.4
H36C C36B H36D 108.0
C36B C46B S16B 115.8(16)
C36B C46B H46C 108.3
S16B C46B H46C 108.3
C36B C46B H46D 108.3
S16B C46B H46D 108.3
H46C C46B H46D 107.4
C56B S16B C46B 104.8(19)
S16B C56B H56C 109.5
S16B C56B H56D 109.5
H56C C56B H56D 109.5
S16B C56B H56E 109.5
H56C C56B H56E 109.5
H56D C56B H56E 109.5
loop_
_geom_bond_atom_site_label_1
_geom_bond_atom_site_label_2
_geom_bond_distance
O1A C1A 1.215(10)
O2A C1A 1.249(11)
N1A C22A 1.44(3)
N1A C21A 1.45(4)
N1A C24A 1.55(9)
N1A C23A 1.57(8)
N1A H1A 0.8900
N1A H2A 0.8900
N1A H3A 0.8900
C1A C24A 1.24(9)
C1A C23A 1.43(6)
C1A C21A 1.45(4)
C1A C22A 1.64(2)
C21A C31A 1.498(14)
C21A H21A 0.9800
C31A C41A 1.473(18)
C31A H31A 0.9700
C31A H32A 0.9700
C41A S11A 1.772(16)
C41A H41A 0.9700
C41A H42A 0.9700
S11A C51A 1.67(2)
C51A H51A 0.9600
C51A H52A 0.9600
C51A H53A 0.9600
C22A C32A 1.498(14)
C22A H22A 0.9800
C32A C42A 1.472(18)
C32A H33A 0.9700
C32A H34A 0.9700
C42A S12A 1.771(17)
C42A H43A 0.9700
C42A H44A 0.9700
S12A C52A 1.67(3)
C52A H54A 0.9600
C52A H55A 0.9600
C52A H56A 0.9600
C23A C33A 1.499(14)
C23A H23A 0.9800
C33A C43A 1.472(18)
C33A H35A 0.9700
C33A H36A 0.9700
C43A S13A 1.771(17)
C43A H45A 0.9700
C43A H46A 0.9700
S13A C53A 1.67(3)
C53A H57A 0.9600
C53A H58A 0.9600
C53A H59A 0.9600
C24A C34A 1.498(14)
C24A H24A 0.9800
C34A C44A 1.472(18)
C34A H37A 0.9700
C34A H38A 0.9700
C44A S14A 1.771(17)
C44A H47A 0.9700
C44A H48A 0.9700
S14A C54A 1.67(3)
C54A H60A 0.9600
C54A H61A 0.9600
C54A H62A 0.9600
O1B C1B 1.247(10)
O2B C1B 1.236(11)
N1B C21B 1.34(8)
N1B C24B 1.38(6)
N1B C25B 1.43(10)
N1B C26B 1.43(9)
N1B C23B 1.61(9)
N1B C22B 1.88(4)
N1B H1B 0.8900
N1B H2B 0.8900
N1B H3B 0.8900
C1B C23B 1.38(10)
C1B C26B 1.45(8)
C1B C22B 1.53(5)
C1B C25B 1.56(8)
C1B C24B 1.56(7)
C1B C21B 1.75(7)
C21B C31B 1.530(16)
C21B H21B 0.9800
C31B C41B 1.50(2)
C31B H31B 0.9700
C31B H32B 0.9700
C41B S11B 1.78(2)
C41B H41B 0.9700
C41B H42B 0.9700
S11B C51B 1.68(3)
C51B H51B 0.9600
C51B H52B 0.9600
C51B H53B 0.9600
C22B C32B 1.529(16)
C22B H22B 0.9800
C32B C42B 1.500(19)
C32B H33B 0.9700
C32B H34B 0.9700
C42B S12B 1.784(19)
C42B H43B 0.9700
C42B H44B 0.9700
S12B C52B 1.68(3)
C52B H54B 0.9600
C52B H55B 0.9600
C52B H56B 0.9600
C23B C33B 1.530(16)
C23B H23B 0.9800
C33B C43B 1.50(2)
C33B H35B 0.9700
C33B H36B 0.9700
C43B S13B 1.78(2)
C43B H45B 0.9700
C43B H46B 0.9700
S13B C53B 1.68(3)
C53B H57B 0.9600
C53B H58B 0.9600
C53B H59B 0.9600
C24B C34B 1.529(16)
C24B H24B 0.9800
C34B C44B 1.50(2)
C34B H37B 0.9700
C34B H38B 0.9700
C44B S14B 1.78(2)
C44B H47B 0.9700
C44B H48B 0.9700
S14B C54B 1.68(3)
C54B H60B 0.9600
C54B H61B 0.9600
C54B H62B 0.9600
C25B C35B 1.530(16)
C25B H25B 0.9800
C35B C45B 1.50(2)
C35B H39B 0.9700
C35B H40B 0.9700
C45B S15B 1.78(2)
C45B H49B 0.9700
C45B H50B 0.9700
S15B C55B 1.68(3)
C55B H63B 0.9600
C55B H64B 0.9600
C55B H65B 0.9600
C26B C36B 1.529(16)
C26B H26B 0.9800
C36B C46B 1.50(2)
C36B H36C 0.9700
C36B H36D 0.9700
C46B S16B 1.78(2)
C46B H46C 0.9700
C46B H46D 0.9700
S16B C56B 1.68(3)
C56B H56C 0.9600
C56B H56D 0.9600
C56B H56E 0.9600
loop_
_geom_torsion_atom_site_label_1
_geom_torsion_atom_site_label_2
_geom_torsion_atom_site_label_3
_geom_torsion_atom_site_label_4
_geom_torsion
O1A C1A C21A N1A -26(4)
O2A C1A C21A N1A 159(2)
O1A C1A C21A C31A 114(4)
O2A C1A C21A C31A -61(5)
N1A C21A C31A C41A -174.0(18)
C1A C21A C31A C41A 43(7)
C21A C31A C41A S11A 176.8(16)
C31A C41A S11A C51A 87(5)
O1A C1A C22A N1A -21.2(18)
O2A C1A C22A N1A 161.7(12)
O1A C1A C22A C32A 95.4(15)
O2A C1A C22A C32A -81.7(18)
N1A C22A C32A C42A -168.1(13)
C1A C22A C32A C42A 79(2)
C22A C32A C42A S12A 173.8(13)
C32A C42A S12A C52A -178.4(14)
O1A C1A C23A C33A 106(5)
O2A C1A C23A C33A -62(5)
O1A C1A C23A N1A -38(4)
O2A C1A C23A N1A 155(3)
C1A C23A C33A C43A 179(2)
N1A C23A C33A C43A -47(8)
C23A C33A C43A S13A -178.5(17)
C33A C43A S13A C53A -70(6)
O1A C1A C24A C34A 124(4)
O2A C1A C24A C34A -59(5)
O1A C1A C24A N1A -10(6)
O2A C1A C24A N1A 167(3)
C1A C24A C34A C44A -71(6)
N1A C24A C34A C44A 69(6)
C24A C34A C44A S14A -179.3(17)
C34A C44A S14A C54A 71(6)
O2B C1B C21B N1B 153(3)
O1B C1B C21B N1B -31(5)
O2B C1B C21B C31B -101(4)
O1B C1B C21B C31B 75(4)
N1B C21B C31B C41B -179.0(15)
C1B C21B C31B C41B 74(5)
C21B C31B C41B S11B 66(5)
C31B C41B S11B C51B 65(6)
O2B C1B C22B C32B -100(4)
O1B C1B C22B C32B 58(5)
O2B C1B C22B N1B 150.9(13)
O1B C1B C22B N1B -51(3)
C1B C22B C32B C42B 178.8(14)
N1B C22B C32B C42B -82(4)
C22B C32B C42B S12B -78(4)
C32B C42B S12B C52B -61(5)
O2B C1B C23B C33B -74(5)
O1B C1B C23B C33B 109(5)
O2B C1B C23B N1B 163(2)
O1B C1B C23B N1B -14(4)
C1B C23B C33B C43B -73(9)
N1B C23B C33B C43B 48(9)
C23B C33B C43B S13B -179.4(12)
C33B C43B S13B C53B -61(10)
O2B C1B C24B N1B 146(2)
O1B C1B C24B N1B -44(3)
O2B C1B C24B C34B -63(4)
O1B C1B C24B C34B 107(3)
N1B C24B C34B C44B -40(7)
C1B C24B C34B C44B 179.5(12)
C24B C34B C44B S14B 172(4)
C34B C44B S14B C54B 59(5)
O2B C1B C25B N1B 158(3)
O1B C1B C25B N1B -22(5)
O2B C1B C25B C35B -86(7)
O1B C1B C25B C35B 93(6)
N1B C25B C35B C45B -179.1(13)
C1B C25B C35B C45B 60(9)
C25B C35B C45B S15B 179.8(12)
C35B C45B S15B C55B -57(6)
O2B C1B C26B N1B 157(3)
O1B C1B C26B N1B -23(4)
O2B C1B C26B C36B -90(4)
O1B C1B C26B C36B 90(4)
N1B C26B C36B C46B -178.2(13)
C1B C26B C36B C46B 59(7)
C26B C36B C46B S16B 178.9(12)
C36B C46B S16B C56B -64(5)
