#------------------------------------------------------------------------------
#$Date: 2016-12-21 04:23:27 +0200 (Wed, 21 Dec 2016) $
#$Revision: 189282 $
#$URL: file:///home/coder/svn-repositories/cod/cif/1/54/48/1544819.cif $
#------------------------------------------------------------------------------
#
# This file is available in the Crystallography Open Database (COD),
# http://www.crystallography.net/. The original data for this entry
# were provided by IUCr Journals, http://journals.iucr.org/.
#
# The file may be used within the scientific community so long as
# proper attribution is given to the journal article from which the
# data were obtained.
#
data_1544819
loop_
_publ_author_name
'Ravi, A. J.'
'Vinayaka, A. C.'
'Kumar, Shamantha'
'Sadashiva, M. P.'
'Devarajegowda, H. C.'
_publ_section_title
;
 (2<i>E</i>)-3-Anilino-1-(2-chlorophenyl)-3-(methylsulfanyl)prop-2-en-1-one
;
_journal_coeditor_code           HB4098
_journal_issue                   12
_journal_name_full               IUCrData
_journal_page_first              x161994
_journal_paper_doi               10.1107/S2414314616019945
_journal_volume                  1
_journal_year                    2016
_chemical_formula_iupac          'C16 H14 Cl N O S'
_chemical_formula_moiety         'C16 H14 Cl N O S'
_chemical_formula_sum            'C16 H14 Cl N O S'
_chemical_formula_weight         303.79
_chemical_melting_point          461
_chemical_name_systematic
;
(2<i>E</i>)-3-Anilino-1-(2-chlorophenyl)-3-(methylsulfanyl)prop-2-en-1-one
;
_space_group_crystal_system      orthorhombic
_space_group_IT_number           56
_space_group_name_Hall           '-P 2ab 2ac'
_space_group_name_H-M_alt        'P c c n'
_symmetry_space_group_name_Hall  '-P 2ab 2ac'
_symmetry_space_group_name_H-M   'P c c n'
_atom_sites_solution_hydrogens   geom
_atom_sites_solution_primary     direct
_audit_creation_method           SHELXL-2014/7
_cell_angle_alpha                90
_cell_angle_beta                 90
_cell_angle_gamma                90
_cell_formula_units_Z            8
_cell_length_a                   15.9745(6)
_cell_length_b                   25.7276(10)
_cell_length_c                   7.4153(3)
_cell_measurement_reflns_used    2521
_cell_measurement_temperature    293(2)
_cell_measurement_theta_max      64.521
_cell_measurement_theta_min      5.539
_cell_volume                     3047.6(2)
_computing_cell_refinement
;
SAINT (Bruker, 2009)
;
_computing_data_collection
;
SMART (Bruker, 2009)
;
_computing_data_reduction
;
SAINT (Bruker, 2009)
;
_computing_molecular_graphics
;
ORTEP-3 for Windows (Farrugia, 2012)
;
_computing_publication_material
;
SHELXL2014 (Sheldrick, 2015)
;
_computing_structure_refinement
;
SHELXL2014 (Sheldrick, 2015)
;
_computing_structure_solution
;
SHELXS97 (Sheldrick, 2008)
;
_diffrn_ambient_temperature      293(2)
_diffrn_measured_fraction_theta_full 0.980
_diffrn_measured_fraction_theta_max 0.980
_diffrn_measurement_device_type  'Bruker SMART CCD'
_diffrn_measurement_method       '\w and \f scans'
_diffrn_radiation_monochromator  graphite
_diffrn_radiation_source         'fine-focus sealed tube'
_diffrn_radiation_type           CuK\a
_diffrn_radiation_wavelength     1.54178
_diffrn_reflns_av_R_equivalents  0.0504
_diffrn_reflns_limit_h_max       17
_diffrn_reflns_limit_h_min       -17
_diffrn_reflns_limit_k_max       29
_diffrn_reflns_limit_k_min       -29
_diffrn_reflns_limit_l_max       8
_diffrn_reflns_limit_l_min       -8
_diffrn_reflns_number            19433
_diffrn_reflns_theta_full        64.521
_diffrn_reflns_theta_max         64.521
_diffrn_reflns_theta_min         5.539
_exptl_absorpt_coefficient_mu    3.448
_exptl_absorpt_correction_T_max  1.0000
_exptl_absorpt_correction_T_min  0.7700
_exptl_absorpt_correction_type   multi-scan
_exptl_absorpt_process_details
;
(SADABS; Sheldrick, 2007)
;
_exptl_crystal_colour            colourless
_exptl_crystal_density_diffrn    1.324
_exptl_crystal_description       prism
_exptl_crystal_F_000             1264
_exptl_crystal_size_max          0.24
_exptl_crystal_size_mid          0.20
_exptl_crystal_size_min          0.12
_refine_diff_density_max         0.488
_refine_diff_density_min         -0.456
_refine_ls_extinction_method     none
_refine_ls_goodness_of_fit_ref   1.062
_refine_ls_hydrogen_treatment    constr
_refine_ls_matrix_type           full
_refine_ls_number_parameters     181
_refine_ls_number_reflns         2521
_refine_ls_number_restraints     0
_refine_ls_restrained_S_all      1.062
_refine_ls_R_factor_all          0.0497
_refine_ls_R_factor_gt           0.0478
_refine_ls_shift/su_max          0.001
_refine_ls_shift/su_mean         0.000
_refine_ls_structure_factor_coef Fsqd
_refine_ls_weighting_details
'w=1/[\s^2^(Fo^2^)+(0.0790P)^2^+1.4469P] where P=(Fo^2^+2Fc^2^)/3'
_refine_ls_weighting_scheme      calc
_refine_ls_wR_factor_gt          0.1309
_refine_ls_wR_factor_ref         0.1331
_reflns_number_gt                2372
_reflns_number_total             2521
_reflns_threshold_expression     'I > 2\s(I)'
_cod_data_source_file            hb4098sup1.cif
_cod_data_source_block           I
_cod_database_code               1544819
_shelx_space_group_comment
;
The symmetry employed for this shelxl refinement is uniquely defined
by the following loop, which should always be used as a source of
symmetry information in preference to the above space-group names.
They are only intended as comments.
;
_shelx_hkl_file
;
   0   0  -1  -12.20    0.10
   0   0   1  -11.50    0.20
   0   0  -1  -12.10    0.10
   0   0   2 7521.85  485.35
   0   0  -2 8726.63  485.25
   0   0   4 3153.18  186.98
   0   0  -4 3138.39  186.18
   0   0  -4 3009.10  184.98
   0   0  -5    0.00    0.30
   0   0  -5    0.10    0.30
   0   0  -5    0.30    0.30
   0   0   5    0.20    0.20
   0   0  -5    0.10    1.00
   0   0  -6  215.78   13.30
   0   0  -6  222.28   13.40
   0   0  -7    0.20    0.40
   0   0   7   -0.10    0.30
   0   0   8    4.10    0.60
   1   0   0   -2.70    0.10
  -1   0   0   -2.70    0.10
   1   0   1   -4.80    0.20
  -1   0  -1   -4.80    0.10
   1   0   1   -4.80    0.10
  -1   0   1   -4.80    0.20
  -1   0  -1   -4.70    0.20
   1   0  -1   -4.80    0.20
   1   0  -2 4676.13  267.97
  -1   0  -2 4738.23  267.87
   1   0   2 4216.48  267.97
  -1   0   2 4302.67  268.07
  -1   0   3    0.30    0.60
   1   0   3    2.10    0.80
  -1   0  -3    1.60    0.70
   1   0  -4  208.68   13.20
   1   0  -4  192.98   12.00
  -1   0  -4  216.48   13.30
   1   0   4  193.08   13.70
  -1   0  -4  196.08   12.00
   1   0  -4  200.68   12.10
  -1   0   4  196.88   13.90
  -1   0  -4  179.08   12.00
  -1   0  -5    2.20    1.30
   1   0  -5    0.10    0.30
  -1   0  -5    0.00    0.30
  -1   0   5    0.20    0.30
  -1   0  -5    0.20    0.30
   1   0  -5    0.20    1.00
   1   0  -5    0.20    0.30
   1   0  -5    0.00    0.30
  -1   0  -6  580.64   34.50
   1   0  -6  598.94   34.60
  -1   0   6  595.04   34.50
  -1   0  -6  572.14   34.60
   1   0  -6  523.05   34.50
   1   0  -7   -0.10    0.40
   1   0   7    0.30    0.30
  -1   0  -7   -0.30    0.40
  -1   0  -7   -0.50    0.30
  -1   0   7    0.40    0.30
  -1   0   8   19.80    1.60
   1   0   8   21.70    1.60
   2   0   0 1800.52  108.99
  -2   0   0 1840.32  108.99
   2   0   1   -3.40    0.10
   2   0  -1   -3.10    0.20
   2   0   1   -3.10    0.20
  -2   0  -1   -3.40    0.20
  -2   0   1   -3.50    0.20
   2   0   2 3282.27  193.78
   2   0  -2 3337.67  193.88
  -2   0   2 3099.69  193.98
   2   0   3    0.20    0.60
  -2   0  -3    0.30    0.50
  -2   0   3    0.30    0.60
  -2   0  -4  239.28   15.00
   2   0   4  216.78   15.40
   2   0  -4  221.88   13.70
   2   0  -4  228.38   13.80
  -2   0   4  209.88   15.60
  -2   0   4  224.78   13.70
   2   0  -4  241.48   14.90
  -2   0  -4  228.18   13.70
   2   0  -5   -0.10    0.30
   2   0  -5    0.20    0.30
  -2   0   5    0.30    0.30
  -2   0  -5    0.80    1.20
  -2   0  -5   -0.30    0.30
   2   0  -5    0.70    1.10
  -2   0  -5    0.50    0.40
  -2   0   6   59.79    3.70
  -2   0  -6   56.49    3.70
   2   0  -6   54.69    3.70
  -2   0  -6   58.89    3.70
   2   0  -6   57.29    3.80
   2   0   6   48.20    3.60
  -2   0   7    0.10    0.40
   2   0  -7   -0.20    0.40
   2   0   7    0.20    0.30
  -2   0  -7    0.00    0.40
   2   0   8    3.50    0.50
  -2   0  -8    2.50    0.80
   2   0  -8    3.60    0.60
  -2   0   8    3.90    0.60
   3   0   0   -1.30    0.20
  -3   0   0   -0.90    0.20
  -3   0  -2  331.37   21.00
   3   0   2  345.37   20.90
  -3   0   2  342.37   21.20
   3   0   3    2.50    0.90
  -3   0  -3    0.00    0.40
  -3   0   3    0.30    0.70
   3   0  -3    0.40    0.20
  -3   0  -4  124.59    7.50
  -3   0  -4  126.99    8.80
  -3   0   4  115.69    9.50
   3   0  -4  122.99    7.60
   3   0  -4  125.79    7.60
   3   0  -4  125.99    8.70
   3   0   4  116.79    9.10
  -3   0   4  119.29    7.50
   3   0  -5    0.50    0.30
   3   0  -5    0.00    0.30
  -3   0   5   -0.20    0.30
  -3   0  -5    2.10    0.50
  -3   0  -5   -0.10    0.30
   3   0  -5    2.30    1.30
   3   0   6   39.90    2.90
  -3   0  -6   45.40    3.00
   3   0  -6   41.40    3.00
  -3   0   6   48.10    3.00
   3   0  -6   48.00    3.10
   3   0   7    0.10    0.30
  -3   0   7    0.30    0.40
   3   0  -7    0.20    0.40
   3   0  -7    0.10    0.40
  -3   0  -7   -0.20    0.30
   3   0   8   34.50    2.20
  -3   0  -8   29.80    2.10
   3   0  -8   31.00    2.20
  -4   0   0 1865.81  122.09
   4   0   0 2212.48  121.79
  -4   0   1    0.80    0.40
   4   0  -1    0.50    0.40
  -4   0  -1    0.10    0.30
   4   0   2 2351.36  136.79
  -4   0  -2 2200.88  136.89
  -4   0   2 2297.47  137.19
   4   0  -3    0.30    0.20
  -4   0   3   -0.10    0.70
  -4   0  -3    0.90    0.70
  -4   0   4   76.79    4.70
  -4   0   4   63.79    6.50
   4   0  -4   80.49    4.80
  -4   0  -4   77.59    6.00
  -4   0  -4   81.49    4.80
   4   0  -4   80.09    5.90
   4   0   4   62.79    6.10
   4   0  -4   82.39    4.80
  -4   0   4   66.89    4.70
   4   0  -5    1.70    0.40
   4   0  -5    0.10    0.30
  -4   0  -5    0.40    0.30
  -4   0   5    0.20    0.30
  -4   0   6   30.60    2.20
   4   0  -6   30.80    2.20
   4   0   6   30.70    2.20
  -4   0  -6   32.00    2.20
   4   0  -6   32.40    2.30
   4   0   7    0.20    0.30
   4   0  -7    0.20    0.40
  -4   0   7   -0.20    0.30
   4   0  -7    0.10    0.40
  -4   0  -7   -0.20    0.30
  -4   0   7    0.60    0.40
  -4   0   8    6.40    0.80
  -4   0  -8    8.20    0.80
   4   0  -8    7.30    0.80
   4   0   8    7.10    0.70
  -5   0   0   -0.30    0.40
  -5   0  -1    0.00    0.30
   5   0  -1    0.30    0.40
  -5   0  -2 1011.90   60.69
   5   0   2  994.50   60.49
  -5   0   2 1002.70   60.89
   5   0  -3   -0.10    0.20
  -5   0  -3    0.80    0.60
  -5   0   3   -0.10    0.90
  -5   0  -3    0.10    0.20
   5   0   3   -0.10    0.70
   5   0  -4   93.29    5.70
  -5   0  -4   94.19    5.60
  -5   0  -4   93.89    6.80
  -5   0   4   90.89    5.50
   5   0   4   80.09    7.20
  -5   0   4   73.09    7.40
  -5   0   4   81.69    5.50
   5   0  -4  100.69    5.60
  -5   0   5    0.10    0.30
  -5   0  -5    0.30    0.30
   5   0  -5    0.10    0.40
   5   0   6    1.00    0.40
   5   0  -6    2.30    0.50
  -5   0   6    2.00    0.50
  -5   0  -6    0.80    0.40
   5   0  -6    0.40    0.40
  -5   0   7    0.50    0.40
   5   0  -7    0.20    0.40
   5   0   7   -0.20    0.30
   5   0  -7    0.40    0.40
  -5   0  -7   -0.10    0.30
  -5   0  -8    3.80    0.50
   5   0  -8    4.20    0.60
  -5   0   8    3.50    0.60
   6   0   0  814.42   48.90
   6   0  -1    0.20    0.40
  -6   0  -1   -0.50    0.30
   6   0   2  841.92   50.99
  -6   0   2  811.92   51.19
  -6   0  -2  878.91   51.29
   6   0  -3   -0.10    0.20
  -6   0  -3   -0.10    0.50
  -6   0   3    0.00    1.00
  -6   0  -3    0.10    0.20
  -6   0   3    0.10    0.20
   6   0  -3    0.80    0.30
  -6   0  -4   33.80    2.30
   6   0  -4   36.70    2.40
   6   0  -4   35.40    2.40
  -6   0   4   32.40    2.30
  -6   0  -5   -0.40    0.30
   6   0  -5    0.40    0.40
   6   0  -5    0.10    0.30
   6   0  -6    1.70    0.50
   6   0   6    2.40    0.50
   6   0  -6    2.10    0.50
  -6   0  -6    1.80    0.50
  -6   0  -7    0.30    0.40
   6   0   7   -0.20    0.30
   6   0  -7   -0.10    0.40
   6   0  -7    0.40    0.40
  -6   0   7    0.00    0.40
  -6   0  -8    0.30    0.30
  -6   0   8    0.80    0.40
   6   0  -8   -0.30    0.30
  -7   0   0    0.00    0.20
   7   0   0    0.10    0.40
  -7   0  -1   -0.10    0.20
  -7   0  -1    0.30    0.40
  -7   0   1    0.50    0.20
  -7   0   2   13.20    1.00
   7   0  -2   10.50    0.90
  -7   0   2   11.50    1.00
  -7   0  -2   12.50    1.00
  -7   0  -2   14.30    1.70
  -7   0  -3   -0.60    0.30
   7   0  -3   -0.50    0.20
  -7   0  -3    0.40    0.70
  -7   0   3    0.20    0.30
  -7   0  -3    1.30    0.30
  -7   0   3   -0.20    0.20
   7   0  -4  786.72   43.10
  -7   0   4  699.53   43.10
  -7   0  -4  702.83   43.00
  -7   0   4  671.63   43.00
   7   0  -4  725.53   43.10
  -7   0  -5    0.20    0.40
   7   0  -5    0.20    0.40
   7   0  -5   -0.20    0.30
  -7   0   5   -0.20    0.30
   7   0  -6   85.19    5.10
  -7   0   6   91.69    5.20
  -7   0  -6   69.79    5.10
   7   0   6   77.29    5.00
   7   0  -6   73.69    5.10
  -7   0   7   -0.30    0.40
   7   0   7    0.40    0.30
   7   0  -7   -0.20    0.40
  -7   0  -7   -0.10    0.30
   7   0  -7    0.30    0.40
  -8   0   0  448.76   27.00
  -8   0  -1    0.00    0.20
  -8   0  -1   -0.40    0.40
  -8   0   1    0.30    0.30
  -8   0  -2  184.68   11.10
  -8   0   2  158.98   10.10
  -8   0   2  159.08   10.10
  -8   0  -2  152.48   10.10
   8   0  -2  162.88   10.00
  -8   0  -2  168.68   10.10
  -8   0   2  169.78   10.10
  -8   0   3    0.40    0.30
  -8   0   3    0.10    0.30
  -8   0  -3    0.30    0.80
   8   0  -3    0.30    0.30
  -8   0   3    0.20    0.30
  -8   0  -3    0.00    0.20
  -8   0  -3    0.20    0.30
  -8   0  -4  175.88   11.00
   8   0  -4  190.08   11.00
  -8   0   4  178.18   11.00
   8   0  -4  171.88   11.00
  -8   0  -5   -0.30    0.40
  -8   0   5    0.20    0.40
   8   0  -5   -0.20    0.30
   8   0  -5    0.30    0.40
   8   0   5    0.60    0.30
  -8   0  -6   12.70    1.20
   8   0  -6   13.40    1.20
  -8   0   6   14.10    1.30
   8   0   6   11.30    1.10
   8   0  -6   13.00    1.30
   8   0  -7    0.20    0.40
  -8   0   7   -0.10    0.30
  -8   0  -7   -0.10    0.30
   8   0  -7   -0.30    0.30
   8   0   7   -0.30    0.40
  -9   0   0   -0.30    0.20
  -9   0   1    0.10    0.30
  -9   0  -1    0.20    0.60
  -9   0   1    0.20    0.30
  -9   0  -1    0.90    0.30
  -9   0   2    1.00    0.40
  -9   0  -2    1.00    0.30
  -9   0  -2    0.90    0.80
  -9   0  -2    0.60    0.40
  -9   0   2    2.50    0.40
  -9   0   3   -0.10    0.30
   9   0  -3    0.20    0.40
  -9   0  -3   -0.10    0.20
  -9   0  -3    1.60    0.40
  -9   0   3   -0.10    0.30
   9   0  -3    0.10    0.30
  -9   0   4   87.49    5.20
  -9   0  -4   77.19    5.10
   9   0  -4   79.29    5.10
   9   0  -4   78.49    5.20
  -9   0   5   -0.20    0.40
  -9   0  -5   -0.10    0.40
   9   0  -5    0.10    0.40
   9   0  -5   -0.10    0.30
   9   0  -6  109.19    7.40
  -9   0  -6  121.59    7.40
  -9   0   6  122.69    7.50
   9   0  -6  118.29    7.50
   9   0  -7   -0.20    0.30
  -9   0   7    0.00    0.40
   9   0  -7    0.20    0.30
  -9   0  -7   -0.30    0.30
 -10   0   0  746.13   47.50
 -10   0   0  841.82   47.60
 -10   0  -1   -0.10    0.30
 -10   0  -1    0.80    0.30
 -10   0   1    0.50    0.30
 -10   0   1    0.10    0.30
 -10   0  -2   41.90    3.90
 -10   0   2   43.80    2.80
  10   0  -2   39.30    2.70
 -10   0   2   40.50    2.80
 -10   0  -2   44.10    2.80
  10   0  -3   -0.20    0.40
  10   0  -3    0.30    0.30
 -10   0  -3    0.00    0.30
 -10   0   3    0.40    0.30
 -10   0  -3   -0.10    0.30
 -10   0   3   -0.20    0.40
  10   0  -4  815.02   47.60
  10   0  -4  817.72   47.50
 -10   0  -4  802.62   47.50
 -10   0   4  725.73   47.50
 -10   0   5    0.10    0.40
  10   0  -5   -0.10    0.30
 -10   0  -5    0.20    0.40
  10   0  -5    0.10    0.40
  10   0  -6   17.50    1.40
 -10   0   6   19.10    1.50
 -10   0  -6   16.80    1.40
  10   0  -6   16.10    1.50
  10   0  -7    0.30    0.30
 -10   0   7    0.00    0.40
 -10   0  -7    0.50    0.30
 -11   0   0    0.10    0.30
 -11   0   0   -0.20    0.30
 -11   0  -1    0.80    0.30
 -11   0  -1    0.20    0.30
 -11   0   1   -0.30    0.20
 -11   0   1    0.90    0.40
 -11   0   2   31.00    2.20
 -11   0   2   29.10    2.20
 -11   0  -2   31.70    2.20
 -11   0   3    0.20    0.40
  11   0  -3    0.50    0.50
 -11   0  -3    0.10    0.30
  11   0  -3   -0.20    0.30
 -11   0  -3   -0.10    0.40
 -11   0   3   -0.50    0.30
 -11   0   4   11.30    1.30
  11   0  -4   13.80    1.30
 -11   0  -4   13.10    1.20
  11   0  -4   12.50    1.20
 -11   0   5   -0.10    0.40
 -11   0  -5   -0.40    0.40
  11   0  -5    0.30    0.40
  11   0  -5    0.30    0.40
  11   0  -6  100.19    6.50
 -11   0   6  116.49    6.60
 -11   0  -6   99.59    6.40
  11   0  -6   96.69    6.40
 -11   0   7    0.60    0.50
 -12   0   0  825.02   48.70
 -12   0   0  800.52   48.80
 -12   0   1    0.30    0.30
 -12   0  -1    0.00    0.30
 -12   0   1    0.70    0.40
 -12   0  -1   -0.50    0.30
 -12   0  -2  319.17   19.00
 -12   0   2  315.27   19.00
 -12   0   2  301.47   19.00
 -12   0  -3    0.00    0.30
  12   0  -3    0.00    0.50
  12   0  -3    1.50    0.50
 -12   0   3    0.20    0.40
 -12   0   3    0.00    0.40
  12   0  -4   75.09    4.80
  12   0  -4   79.59    4.70
 -12   0   4   62.69    4.70
 -12   0  -4   73.49    4.70
 -12   0  -5    0.60    0.40
 -12   0   5    0.10    0.40
  12   0  -5    0.00    0.40
  12   0  -5    0.10    0.40
  12   0  -6   33.00    2.40
 -12   0  -6   32.10    2.40
  12   0  -6   34.10    2.40
 -12   0   6   39.30    2.50
 -13   0   0   -0.50    0.30
 -13   0   0    0.20    0.30
 -13   0   1   -0.10    0.40
 -13   0  -1    0.60    0.40
  13   0  -2  143.49    9.70
 -13   0   2  159.88    9.70
 -13   0   2  156.58    9.80
 -13   0  -2  166.48    9.70
 -13   0   3   -0.10    0.40
  13   0  -3    1.20    0.50
 -13   0   3   -0.30    0.40
 -13   0  -3    0.20    0.40
 -13   0   4   33.20    2.30
  13   0  -4   28.10    2.20
  13   0  -4   28.50    2.10
  13   0  -5    0.10    0.40
  13   0  -5   -0.30    0.40
 -13   0   5    0.10    0.40
 -13   0  -5    0.50    0.50
 -13   0   6   49.99    3.10
  13   0  -6   41.90    3.00
 -14   0   0    8.20    1.00
 -14   0   0    8.80    0.90
 -14   0  -1   -0.20    0.30
 -14   0   1   -0.50    0.40
 -14   0   1    0.20    0.40
 -14   0  -2   36.60    2.60
 -14   0   2   36.90    2.60
 -14   0   2   34.20    2.60
 -14   0   3   -0.60    0.40
 -14   0  -3    0.30    0.40
  14   0  -3    0.40    0.50
  14   0  -4   33.90    2.80
  14   0  -4   41.40    2.90
 -14   0   4   50.19    3.00
 -14   0   5   -0.20    0.40
  14   0  -5    0.10    0.40
 -15   0   0    0.00    0.40
 -15   0   0   -0.40    0.40
 -15   0   1    0.00    0.40
 -15   0   1    0.10    0.40
 -15   0  -1    0.60    0.40
 -15   0   2   18.40    1.50
 -15   0   2   16.10    1.50
 -15   0  -2   18.10    1.50
 -15   0   3    0.10    0.40
 -15   0   4   48.10    2.90
  15   0  -4   36.30    2.80
 -15   0   5   -1.10    0.30
 -16   0   0    6.70    0.90
 -16   0   1    0.30    0.40
 -16   0   1    0.50    0.40
 -16   0  -1    0.10    0.40
 -16   0  -2  196.48   11.90
 -16   0   2  183.48   11.90
 -16   0   2  202.08   11.90
 -16   0   3    0.60    0.40
 -16   0   4   27.50    2.00
 -17   0   0    0.10    0.40
 -17   0  -1    0.40    0.40
 -17   0   1   -0.40    0.40
 -17   0   2    5.20    0.80
 -17   0   2    5.40    0.70
 -17   0   3   -0.30    0.40
   0   1   0    0.00    0.10
   0  -1   0    0.00    0.10
   0   1   0    0.00    0.10
   0  -1   0    0.00    0.10
   0   1  -1  -12.70    0.20
   0   1   1  -12.40    0.30
   0   1   2  762.12   43.90
   0  -1   2  703.23   43.90
   0  -1  -2  701.53   43.60
   0  -1  -3    0.20    0.40
   0   1   3   -0.10    0.50
   0  -1   3    0.60    0.70
   0   1  -3    0.90    0.60
   0   1  -4   22.60    2.50
   0  -1  -4   16.20    1.40
   0   1   4   18.00    2.90
   0  -1  -4   17.90    1.40
   0  -1   4   19.90    3.00
   0   1  -4   18.50    1.40
   0   1  -5    1.20    0.30
   0   1  -5    0.40    0.30
   0   1   5    0.30    0.20
   0   1  -5   -0.20    0.30
   0  -1  -5    0.30    0.30
   0  -1  -5   -0.30    1.00
   0  -1  -5    0.20    0.30
   0   1  -5    0.30    1.10
   0  -1  -5    0.60    0.30
   0   1  -6    1.90    0.60
   0  -1   6    2.30    0.50
   0  -1  -6    2.00    0.50
   0   1  -6    1.70    0.50
   0  -1  -6    3.10    0.60
   0   1   6    2.00    0.40
   0  -1   7    0.00    0.30
   0  -1  -7    0.50    0.40
   0  -1  -7    0.60    0.50
   0   1   7    0.00    0.30
   0   1  -7   -0.30    0.40
   0  -1   8    0.10    0.40
   0   1   8    0.40    0.40
  -1  -1  -1  157.38   10.70
   1   1  -1  186.38   10.90
  -1   1   1  170.28   10.80
   1  -1   1  186.78   10.80
   1  -1   1  174.28   10.80
   1  -1  -1  194.08   10.80
   1   1   1  172.28   10.70
  -1  -1   1  150.08   10.80
  -1   1  -1  151.38   10.80
  -1   1  -1  194.18   10.80
   1   1   1  189.58   10.80
   1   1  -2  192.78   11.70
  -1  -1  -2  156.68   11.50
   1  -1   2  194.48   11.80
  -1   1   2  169.08   11.80
   1   1   2  187.88   11.70
   1  -1  -2  201.48   11.70
  -1  -1   2  177.58   11.90
  -1   1  -2  205.28   11.70
  -1  -1  -3   16.20    1.80
  -1   1   3   17.40    2.10
   1   1  -3   14.60    1.70
   1  -1   3   17.40    2.10
   1  -1  -3   16.40    1.70
  -1   1  -3   17.00    1.90
   1   1   3   15.90    2.00
  -1  -1   3   17.60    2.20
   1  -1   4   10.80    2.40
  -1  -1  -4    8.80    0.90
  -1  -1  -4   10.30    0.90
  -1   1   4   11.60    0.90
   1   1  -4   10.80    0.90
   1   1  -4   12.20    1.90
  -1   1   4   10.70    2.30
  -1  -1  -4   13.70    1.90
   1  -1  -4    9.00    0.90
  -1   1  -4   10.30    1.90
  -1   1  -4    9.40    0.90
  -1  -1   4    9.90    2.30
  -1   1  -4    9.90    0.90
   1   1   4   10.40    2.20
   1  -1  -4   13.50    1.90
  -1   1   5   32.80    2.20
   1   1  -5   29.40    3.60
  -1  -1  -5   32.40    2.20
  -1  -1  -5   31.10    2.20
  -1  -1  -5   35.30    3.70
   1   1  -5   30.50    2.20
   1   1  -5   33.20    2.30
   1   1  -5   28.90    2.20
  -1   1  -5   32.50    2.20
  -1  -1   5   34.50    2.20
  -1   1  -5   32.60    3.70
   1  -1  -5   30.90    2.20
   1  -1  -5   31.40    2.20
  -1   1  -5   31.30    2.20
   1   1   5   35.70    2.20
   1  -1  -5   32.60    3.60
   1  -1  -5   33.90    2.30
  -1   1   6   41.50    2.70
   1   1  -6   39.50    2.70
  -1  -1  -6   40.70    2.70
  -1  -1  -6   37.30    2.70
   1   1  -6   34.60    2.70
   1  -1  -6   36.10    2.60
  -1  -1   6   45.90    2.70
  -1   1  -6   37.40    2.70
   1  -1  -6   41.80    2.80
  -1   1  -6   41.50    2.70
   1  -1  -6   34.50    2.70
   1   1  -7   11.20    1.10
   1  -1   7   10.20    1.00
  -1  -1  -7    8.00    1.00
  -1   1   7   11.30    1.10
  -1  -1  -7   11.00    1.20
  -1   1  -7    9.70    1.00
  -1  -1   7   11.50    1.10
   1   1   7   11.50    1.10
   1  -1  -7   12.30    1.20
  -1   1   8    5.50    0.70
   1  -1   8    4.80    0.70
  -1  -1   8    5.30    0.70
   1   1   8    5.00    0.70
   1  -1  -8    3.30    0.70
   2   1   0   -0.10    0.10
   2  -1   0    0.00    0.10
   2  -1   0    0.10    0.20
   2  -1   0    0.10    0.10
  -2   1   0    0.00    0.10
   2  -1   1 3191.58  196.98
  -2   1   1 3319.97  196.98
   2   1   1 3105.09  196.78
  -2  -1   1 3389.46  196.98
  -2   1  -1 3476.75  196.98
  -2  -1  -2  891.21   63.29
  -2   1   2 1058.39   63.59
   2  -1   2 1030.20   63.49
   2   1  -2 1052.99   63.49
   2  -1  -2 1097.69   63.49
   2   1   2 1075.59   63.39
  -2   1  -2 1180.28   63.29
  -2  -1   2 1042.10   63.69
  -2  -1  -3   74.29    5.60
   2  -1   3   83.19    6.00
   2   1  -3   74.99    5.60
  -2   1   3   91.89    6.20
  -2  -1   3   78.69    6.10
  -2   1  -3   73.69    5.70
   2   1   3   87.29    5.90
  -2   1   4  484.65   29.10
  -2   1   4  460.55   31.00
  -2  -1  -4  522.65   30.40
  -2  -1  -4  491.75   29.20
   2  -1   4  461.75   30.90
   2   1  -4  466.35   30.30
   2   1  -4  464.85   29.20
   2   1  -4  498.25   29.20
   2  -1  -4  516.75   30.40
   2   1   4  464.65   30.80
  -2   1  -4  522.85   30.60
   2  -1  -4  487.35   29.20
  -2  -1   4  449.26   31.10
  -2   1  -4  500.95   29.20
   2  -1  -4  483.65   29.20
   2   1  -5   81.29    7.00
  -2   1   5   90.59    5.50
   2   1  -5   85.89    5.60
  -2  -1  -5   86.09    5.60
   2   1  -5   91.09    5.60
  -2  -1  -5   92.99    5.60
  -2   1  -5   85.79    5.60
   2  -1  -5   89.69    5.60
  -2   1  -5   85.89    7.20
   2  -1  -5   85.99    5.60
  -2   1  -5   92.69    5.60
   2   1   5   88.09    5.50
  -2  -1   5   89.89    5.50
   2  -1  -5   90.79    7.10
   2   1  -6   42.60    2.80
   2  -1   6   31.60    2.60
  -2  -1  -6   39.40    2.80
   2   1  -6   38.80    2.70
  -2  -1  -6   40.30    2.70
  -2   1   6   42.10    2.70
   2  -1  -6   42.90    2.80
   2  -1  -6   39.20    2.70
  -2   1  -6   42.60    2.70
  -2  -1   6   44.40    2.70
   2   1   6   31.20    2.60
   2   1  -7    0.90    0.40
  -2   1   7    0.70    0.40
   2  -1   7    1.10    0.40
  -2  -1  -7    0.40    0.40
   2  -1  -7    0.80    0.50
   2   1   7    0.70    0.40
  -2  -1   7    0.70    0.40
  -2   1  -7    0.70    0.40
   2   1  -8   -0.40    0.50
  -2   1   8    0.20    0.40
  -2  -1  -8   -0.30    0.40
   2  -1   8    0.20    0.30
   2  -1  -8   -0.10    0.40
  -2  -1   8   -0.20    0.40
  -2  -1   8    0.30    0.40
   2   1   8    0.00    0.30
   3   1   0  207.98   14.30
   3  -1   0  241.38   14.10
   3  -1   0  254.87   14.10
  -3  -1   0  225.68   14.30
  -3  -1  -1 1164.48   69.29
   3   1  -1 1165.38   69.39
  -3   1   1 1162.18   69.39
   3  -1   1 1188.88   69.19
   3  -1  -1 1193.88   69.39
   3   1   1 1148.49   69.39
  -3   1  -1 1105.59   69.49
  -3  -1   1 1121.49   69.39
  -3  -1  -2 3110.99  193.08
  -3   1   2 3347.96  193.38
   3  -1   2 3305.97  193.08
  -3   1  -2 2926.81  193.18
   3   1   2 3387.86  193.08
  -3  -1   2 3286.67  193.38
  -3   1   3  173.68   11.70
   3  -1   3  173.78   11.40
  -3  -1  -3  173.78   11.10
   3   1   3  175.28   11.30
   3  -1  -3  163.48   10.30
  -3  -1   3  172.98   11.70
  -3   1  -3  164.18   11.30
  -3  -1  -4   33.50    3.20
   3   1  -4   30.00    2.10
   3   1  -4   32.70    2.10
  -3  -1  -4   28.90    2.00
  -3   1   4   27.20    3.80
  -3   1   4   30.50    2.00
   3   1  -4   31.80    3.10
  -3   1  -4   30.70    2.10
  -3  -1   4   27.20    3.80
  -3   1  -4   28.40    3.20
   3   1   4   27.50    3.40
   3  -1  -4   33.20    3.10
   3  -1  -4   31.40    2.10
   3  -1  -4   31.10    2.10
  -3  -1   4   29.50    2.00
  -3   1   5   64.49    3.90
   3   1  -5   57.39    5.40
   3   1  -5   59.79    3.90
  -3  -1  -5   65.19    4.00
   3   1  -5   62.79    4.00
  -3  -1  -5   62.29    3.90
  -3   1  -5   60.39    3.90
   3  -1  -5   62.19    4.00
  -3   1  -5   57.39    5.60
  -3  -1   5   62.19    3.90
   3  -1  -5   56.89    5.30
   3  -1  -5   57.69    3.90
   3   1  -6   37.60    2.50
  -3  -1  -6   33.90    2.40
   3  -1   6   33.30    2.40
  -3  -1  -6   35.70    2.50
  -3   1   6   36.40    2.40
   3   1  -6   32.70    2.40
   3   1   6   34.60    2.40
  -3  -1   6   37.40    2.40
  -3   1  -6   36.10    2.40
   3  -1  -6   34.50    2.50
   3  -1  -6   31.60    2.40
   3   1  -7   23.40    2.00
   3   1  -7   29.10    2.10
  -3   1   7   28.50    2.10
   3  -1   7   29.20    2.00
  -3   1   7   28.00    2.10
  -3  -1  -7   29.70    2.10
  -3   1  -7   30.00    2.10
   3  -1  -7   29.00    2.10
   3   1   7   30.40    2.00
   3  -1  -7   24.50    2.00
  -3  -1   7   31.50    2.10
   3   1  -8    3.10    0.60
  -3  -1  -8    1.50    0.40
   3  -1   8    2.00    0.50
  -3   1  -8    2.20    0.50
   3   1   8    1.50    0.40
  -3  -1   8    2.00    0.50
   3  -1  -8    2.00    0.50
  -4   1   0   -0.60    0.20
   4  -1   0   -0.40    0.20
  -4  -1  -1  161.38   10.50
   4  -1   1  173.18   10.30
   4   1  -1  162.28   10.50
  -4   1   1  171.18   10.50
  -4   1   1  179.58   10.40
   4  -1  -1  169.18   10.50
  -4   1  -1  162.08   10.60
  -4  -1   1  163.78   10.50
  -4  -1  -2  631.44   36.10
   4  -1   2  593.04   36.00
  -4   1   2  581.24   36.30
   4   1   2  599.84   36.00
  -4   1  -2  583.44   36.20
  -4  -1   2  568.74   36.40
  -4  -1  -3   68.99    4.80
   4   1  -3   59.89    4.00
   4  -1   3   67.19    5.00
  -4   1   3   63.79    5.30
  -4  -1   3   63.49    5.30
  -4   1  -3   60.59    4.90
   4  -1  -3   62.49    4.00
   4   1   3   68.59    5.00
  -4  -1  -4    1.70    0.50
  -4   1   4    1.10    1.40
  -4  -1  -4    2.50    0.40
  -4  -1  -4    2.10    1.10
   4   1  -4    2.30    0.50
  -4   1   4    2.30    0.40
   4  -1   4    2.10    1.40
  -4   1   4    2.10    0.40
   4   1  -4    3.00    0.40
   4   1  -4    2.90    1.10
  -4   1  -4    2.50    0.40
  -4  -1   4    2.40    0.40
   4  -1  -4    2.10    0.40
   4  -1  -4    2.20    0.50
  -4  -1   4    2.40    0.40
  -4  -1   4    2.60    1.70
   4   1   4    2.90    1.40
  -4   1  -4    2.30    1.20
   4   1  -5    1.90    0.50
  -4  -1  -5    1.40    0.40
  -4   1   5    0.70    0.30
   4   1  -5    1.00    0.40
  -4  -1   5    0.80    0.40
   4  -1  -5    1.80    0.50
  -4   1  -5    1.40    0.40
   4  -1  -5    1.50    0.40
  -4   1   6    2.60    0.50
   4   1  -6    2.10    0.50
  -4  -1  -6    3.00    0.50
   4   1  -6    1.40    0.50
   4  -1   6    2.00    0.40
   4  -1  -6    3.00    0.60
   4   1   6    2.00    0.40
   4  -1  -6    2.20    0.60
  -4   1  -6    1.20    0.50
  -4  -1   6    1.70    0.50
  -4  -1  -7    4.20    0.60
   4   1  -7    4.70    0.70
   4   1  -7    3.60    0.60
  -4   1   7    4.60    0.70
  -4   1   7    4.80    0.70
   4  -1   7    5.00    0.70
  -4   1  -7    3.90    0.70
   4  -1  -7    4.40    0.70
  -4  -1   7    4.00    0.60
   4   1   7    4.20    0.60
   4  -1  -7    3.70    0.60
  -4  -1  -8    0.70    0.40
   4  -1   8    0.60    0.40
   4   1  -8    0.80    0.40
   4  -1  -8    1.00    0.40
  -4  -1   8    1.00    0.40
  -4   1  -8    0.70    0.40
   4   1   8    1.30    0.40
   5  -1   0 1311.07   74.39
  -5   1   0 1133.09   74.79
   5  -1   0 1288.37   74.49
  -5  -1  -1  170.38   10.70
  -5   1   1  166.78   10.40
   5   1  -1  174.68   10.70
  -5   1   1  164.98   10.30
   5  -1   1  172.48   10.40
   5  -1  -1  169.98   10.60
  -5   1  -1  164.78   10.80
  -5  -1  -2  230.48   13.60
   5  -1   2  220.38   13.60
  -5   1   2  204.28   13.80
  -5  -1   2  201.98   13.80
  -5   1  -2  220.68   13.80
   5   1   2  213.98   13.40
  -5  -1  -3   29.70    2.50
   5   1  -3   25.20    1.70
   5  -1   3   26.50    2.80
  -5  -1  -3   24.50    1.70
  -5   1   3   26.40    3.00
  -5   1  -3   20.90    1.60
   5   1   3   24.20    2.50
   5  -1  -3   24.70    1.70
  -5   1  -3   24.90    1.70
  -5  -1   3   23.30    3.00
  -5   1  -3   26.30    2.60
   5  -1   4  160.68   12.80
  -5  -1  -4  197.48   11.20
  -5   1   4  168.68   11.10
   5   1  -4  196.58   11.30
   5   1  -4  209.58   11.30
  -5   1   4  153.08   13.00
  -5   1   4  182.48   11.10
  -5  -1   4  177.58   11.10
  -5  -1   4  177.58   11.20
   5  -1  -4  211.78   11.20
  -5   1  -4  198.88   11.20
   5   1   4  158.18   12.70
  -5   1  -4  182.18   12.50
  -5  -1   4  154.78   13.10
   5  -1  -4  203.98   11.30
  -5  -1  -5   82.99    5.00
   5   1  -5   77.09    5.10
   5   1  -5   73.19    5.00
  -5   1   5   79.89    5.00
   5  -1  -5   83.19    5.10
  -5   1  -5   83.79    5.00
  -5  -1   5   83.19    5.00
  -5  -1   5   68.69    5.00
   5  -1   6    6.00    0.70
   5   1  -6    5.90    0.80
  -5  -1  -6    4.90    0.70
  -5   1   6    6.40    0.80
  -5   1   6    5.90    0.80
   5   1  -6    5.20    0.80
  -5   1  -6    5.50    0.80
   5   1   6    6.20    0.70
   5  -1  -6    6.20    0.90
   5  -1  -6    6.40    0.80
   5   1  -7    2.20    0.60
  -5   1   7    3.40    0.60
   5  -1   7    2.90    0.50
  -5  -1  -7    3.60    0.60
   5   1  -7    3.50    0.60
  -5   1  -7    3.20    0.60
   5  -1  -7    4.40    0.60
   5   1   7    3.10    0.50
  -5  -1   7    3.40    0.60
   5  -1  -7    3.00    0.60
  -5   1   8    4.40    0.60
  -5  -1  -8    4.30    0.60
   5   1  -8    4.50    0.60
   5  -1  -8    4.40    0.60
  -5   1  -8    4.00    0.60
  -5  -1   8    4.90    0.70
   6   1   0    4.70    0.60
  -6  -1  -1   18.70    1.60
   6   1  -1   13.80    1.50
   6  -1   1   13.50    1.30
  -6   1  -1   14.70    1.60
   6  -1  -1   14.90    1.50
  -6  -1  -2   46.50    3.30
   6  -1   2   42.80    3.30
  -6   1   2   40.20    3.40
   6   1   2   43.90    3.10
  -6  -1   2   41.60    3.30
  -6   1  -2   43.30    3.40
  -6   1  -2   34.50    2.70
  -6  -1  -3   75.39    4.60
  -6  -1  -3   65.99    4.50
  -6   1   3   67.19    4.60
  -6   1   3   70.89    4.60
   6  -1   3   73.59    5.80
  -6  -1  -3   86.29    5.50
  -6   1   3   71.49    5.90
   6   1  -3   78.89    4.60
  -6  -1   3   71.79    5.90
  -6   1  -3   68.99    4.50
   6  -1  -3   80.39    4.60
  -6  -1   3   71.89    4.60
  -6   1  -3   75.89    4.60
  -6   1  -3   78.29    5.70
  -6  -1   3   59.49    4.50
   6  -1  -3   76.09    4.60
   6   1  -4   13.70    1.10
  -6  -1  -4   13.20    1.00
   6   1  -4   14.10    1.10
  -6   1   4   11.00    1.00
  -6   1  -4   11.50    1.10
  -6   1  -4   13.90    1.10
   6  -1  -4   14.70    1.10
   6  -1  -4   12.70    1.10
  -6   1  -4   10.50    2.10
  -6  -1   4   12.30    1.00
   6   1  -5   85.09    5.20
  -6  -1  -5   81.39    5.10
   6   1  -5   68.29    5.00
  -6   1   5   84.89    5.10
   6   1   5   79.59    4.90
  -6   1  -5   83.09    5.10
   6  -1  -5   70.29    5.00
   6  -1  -5   87.39    5.10
  -6  -1   5   74.19    5.00
   6  -1   6   10.60    1.00
  -6  -1  -6   10.60    1.00
   6   1  -6    8.90    1.10
  -6   1   6   12.10    1.10
   6   1  -6   11.60    1.10
  -6   1  -6   10.10    1.10
   6   1   6   11.60    1.00
  -6  -1   6   10.40    1.10
   6  -1  -6   11.90    1.10
   6   1  -7   10.30    1.10
  -6   1   7   12.10    1.10
   6  -1   7   10.10    1.00
   6   1  -7   10.00    1.10
  -6  -1  -7   11.70    1.10
   6  -1  -7   12.00    1.10
  -6   1  -7   10.70    1.10
  -6  -1   7   11.70    1.20
   6   1   7   11.90    1.00
   6  -1  -7   12.40    1.20
  -6  -1  -8   -0.10    0.30
   6   1  -8    0.30    0.30
  -6   1  -8    0.00    0.30
   6  -1  -8    0.20    0.30
  -6  -1   8    0.40    0.40
  -7   1   0    2.30    0.40
  -7  -1  -1  122.79    7.20
  -7   1   1   95.89    6.70
  -7  -1  -1   95.49    6.40
   7   1  -1  109.29    7.00
  -7   1  -1   96.59    6.40
  -7  -1   1   94.99    6.50
  -7   1  -1  119.09    7.30
  -7   1   2  922.81   60.19
  -7  -1  -2 1020.30   60.19
   7   1  -2  991.70   60.19
  -7   1   2  977.00   60.19
  -7   1  -2 1019.30   60.19
  -7   1  -2 1183.28   61.29
   7  -1  -2  980.80   60.19
  -7  -1   2  969.10   60.19
  -7  -1   2  995.10   60.19
  -7  -1  -3  488.65   30.60
  -7   1   3  489.45   30.70
  -7   1   3  512.15   30.70
  -7  -1  -3  548.05   31.60
   7   1  -3  540.55   30.70
  -7  -1  -3  522.25   30.70
  -7  -1   3  502.15   30.70
   7  -1  -3  541.15   30.70
   7  -1  -3  529.35   30.70
  -7   1  -3  505.05   30.60
  -7   1  -3  536.35   30.70
  -7  -1   3  432.36   30.60
  -7  -1   3  487.85   30.70
  -7   1  -3  509.95   31.80
   7   1  -4    7.10    0.80
  -7   1   4    5.70    0.70
  -7  -1  -4    5.70    0.70
   7  -1  -4    6.80    0.80
  -7   1  -4    6.00    0.70
  -7  -1   4    6.70    0.70
  -7  -1   4    5.20    0.70
   7  -1  -4    5.40    0.70
  -7   1   5   50.89    3.30
   7   1  -5   47.30    3.30
   7   1  -5   47.90    3.20
  -7  -1  -5   42.60    3.20
  -7   1  -5   46.60    3.20
   7   1   5   47.60    3.10
   7  -1  -5   47.00    3.30
  -7  -1   5   51.19    3.30
   7  -1  -5   49.50    3.20
   7  -1   6   32.10    2.10
   7   1  -6   25.50    2.20
   7   1  -6   30.40    2.20
  -7  -1  -6   28.00    2.20
  -7   1   6   34.50    2.30
   7   1   6   31.60    2.10
   7  -1  -6   33.00    2.30
  -7  -1   6   36.70    2.30
   7  -1  -6   30.90    2.30
  -7   1  -6   26.70    2.20
   7  -1   7    1.50    0.40
  -7  -1  -7    0.50    0.40
  -7   1   7    0.80    0.40
   7   1  -7    0.40    0.40
   7   1  -7    0.90    0.40
   7   1   7    0.90    0.40
   7  -1  -7    1.80    0.50
  -7   1  -7    0.50    0.40
  -7  -1   7    0.90    0.40
   7  -1  -7    0.30    0.40
  -8  -1   0   -0.20    0.20
  -8   1   0   -0.20    0.20
  -8  -1  -1   14.20    1.20
  -8  -1  -1   18.60    1.90
  -8   1   1   15.60    1.20
  -8   1  -1   16.00    1.90
  -8  -1   1   15.30    1.20
  -8   1  -1   16.00    1.20
  -8  -1   1   13.90    1.10
  -8  -1  -2    6.10    1.20
  -8   1   2    5.20    0.60
   8   1  -2    4.20    0.50
  -8  -1  -2    5.30    0.60
  -8   1   2    6.00    0.60
  -8  -1   2    4.50    0.50
  -8   1  -2    7.20    1.40
  -8  -1   2    3.90    0.50
  -8  -1   2    4.00    0.60
  -8   1  -2    4.90    0.60
  -8   1  -2    4.20    0.50
   8  -1  -2    5.20    0.50
  -8   1   3   10.60    1.00
   8   1  -3   11.00    0.90
  -8  -1  -3   10.30    0.90
  -8  -1  -3   10.40    0.90
  -8  -1   3    9.50    0.90
   8  -1  -3   10.90    0.90
  -8  -1   3    9.90    0.90
   8  -1  -3    9.90    1.00
  -8   1  -3   10.90    0.90
  -8   1  -3   10.70    1.80
  -8   1  -3   10.50    0.90
  -8   1  -3    9.60    0.90
  -8  -1   3   11.30    0.90
  -8   1   4    2.10    0.50
  -8  -1  -4    6.00    0.70
   8   1  -4    2.30    0.60
   8   1  -4    3.00    0.50
  -8  -1   4    3.00    0.60
  -8  -1   4    2.40    0.50
  -8   1  -4    4.90    0.60
   8  -1  -4    2.60    0.50
   8  -1  -4    1.50    0.50
   8   1  -5  118.49    7.00
  -8  -1  -5  114.09    7.00
  -8   1   5  111.49    7.00
  -8   1  -5  111.99    7.00
   8  -1  -5  116.59    7.00
   8   1   5  106.89    6.90
   8  -1  -5   97.79    7.00
  -8  -1   5  112.89    7.10
   8  -1   6    3.20    0.50
   8   1  -6    2.90    0.60
  -8   1   6    2.50    0.60
   8   1  -6    2.40    0.60
  -8  -1  -6    2.70    0.60
   8   1   6    1.90    0.40
  -8   1  -6    2.00    0.50
   8  -1  -6    3.40    0.60
  -8  -1   6    2.90    0.60
   8  -1  -6    3.40    0.60
   8   1  -7    2.40    0.50
  -8   1   7    2.60    0.50
  -8  -1  -7    2.20    0.50
   8   1  -7    2.20    0.50
   8  -1   7    2.10    0.50
  -8   1  -7    2.20    0.50
   8   1   7    2.70    0.50
  -8  -1   7    2.60    0.50
   8  -1  -7    1.50    0.50
   8  -1  -7    2.10    0.50
  -9  -1   0  158.88    9.30
  -9   1   0  156.38    9.30
  -9   1   0  139.09    9.30
  -9   1   1   25.20    1.70
  -9   1   1   22.30    1.70
  -9  -1  -1   25.30    1.70
  -9   1  -1   27.70    2.70
  -9  -1   1   27.10    1.80
  -9  -1   1   21.10    1.70
  -9   1  -1   24.70    1.70
  -9   1  -1   22.20    1.80
  -9  -1  -2   75.39    5.30
  -9   1   2   69.19    4.30
  -9  -1  -2   67.99    4.20
  -9  -1  -2   57.29    4.40
  -9   1   2   67.29    4.30
   9   1  -2   67.19    4.20
  -9  -1   2   71.29    4.30
  -9  -1   2   64.39    4.20
  -9  -1   2   66.89    4.30
  -9   1  -2   69.49    4.20
  -9   1  -2   58.79    4.20
   9  -1  -2   66.19    4.20
  -9   1  -2   65.59    4.20
   9   1  -3   47.80    2.90
  -9  -1  -3   42.70    2.80
  -9   1   3   42.40    2.90
  -9  -1  -3   42.30    2.80
  -9   1  -3   42.60    2.90
  -9  -1   3   38.00    2.90
  -9  -1   3   43.20    2.90
  -9   1  -3   43.30    2.80
   9  -1  -3   43.50    2.90
   9  -1  -3   44.30    2.80
  -9  -1   3   43.40    2.90
   9   1  -4  131.09    8.30
   9   1  -4  135.69    8.20
  -9   1   4  138.19    8.20
  -9  -1  -4  122.99    8.10
  -9  -1   4  129.09    8.20
   9  -1  -4  129.39    8.20
   9  -1  -4  134.99    8.20
  -9   1  -4  129.49    8.20
   9   1  -5    5.20    0.80
  -9   1   5    4.50    0.70
  -9  -1  -5    5.10    0.70
   9   1  -5    5.30    0.70
  -9   1  -5    6.20    0.80
  -9  -1   5    5.40    0.80
   9  -1  -5    5.40    0.80
   9  -1  -5    7.00    0.80
   9   1  -6   17.60    1.50
  -9  -1  -6   17.10    1.50
   9   1  -6   17.90    1.60
  -9   1   6   19.30    1.60
  -9   1  -6   17.80    1.50
  -9  -1   6   19.30    1.60
   9  -1  -6   17.80    1.50
   9  -1  -6   18.30    1.50
  -9   1   7    5.90    0.70
   9   1  -7    5.60    0.70
  -9  -1  -7    5.40    0.70
   9   1  -7    5.60    0.70
  -9   1  -7    5.20    0.70
   9  -1  -7    5.60    0.70
  -9  -1   7    6.30    0.80
   9  -1  -7    5.70    0.70
 -10  -1   0   -0.20    0.30
 -10  -1   0   -0.20    0.20
 -10   1   0    0.30    0.30
 -10   1   0    0.00    0.30
 -10  -1  -1  183.98   10.40
 -10   1   1  183.28   10.40
 -10   1   1  164.08   10.30
 -10  -1  -1  141.19   10.20
 -10  -1   1  181.08   10.40
 -10  -1   1  161.18   10.30
 -10   1  -1  155.18   10.30
 -10   1  -1  185.48   10.40
 -10   1   2   23.00    1.70
 -10   1   2   25.10    1.70
 -10  -1  -2   24.50    1.70
  10   1  -2   22.20    1.60
 -10   1  -2   21.30    1.60
  10  -1  -2   23.80    1.60
 -10  -1   2   22.40    1.70
 -10   1  -2   25.10    1.70
 -10  -1   2   22.00    1.70
 -10   1  -2   21.50    2.70
 -10   1   3    2.20    0.50
  10   1  -3    2.70    0.50
 -10  -1  -3    3.10    0.50
 -10   1   3    1.50    0.70
 -10  -1  -3    3.70    0.60
 -10  -1   3    2.90    0.60
  10  -1  -3    2.60    0.50
 -10   1  -3    2.40    0.50
 -10   1  -3    2.90    0.50
 -10  -1   3    5.30    0.70
  10  -1  -3    2.30    0.60
 -10   1   4   47.80    3.20
 -10  -1  -4   46.00    3.10
  10   1  -4   46.30    3.20
  10   1  -4   46.70    3.10
 -10   1  -4   45.60    3.20
  10  -1  -4   51.89    3.30
  10  -1  -4   47.30    3.10
 -10  -1   4   40.50    3.20
 -10  -1  -5    4.80    0.70
  10   1  -5    3.40    0.70
 -10   1   5    5.30    0.80
  10   1  -5    3.90    0.70
 -10  -1   5    3.40    0.70
  10  -1  -5    3.60    0.70
  10  -1  -5    4.70    0.70
 -10   1  -5    4.00    0.70
  10   1  -6   11.10    1.20
  10   1  -6   10.40    1.10
 -10  -1  -6   10.10    1.10
 -10   1   6   10.90    1.20
 -10   1  -6   11.50    1.10
  10  -1  -6   11.60    1.10
  10  -1  -6   10.70    1.10
 -10  -1   6   14.00    1.20
  10   1  -7    1.80    0.50
 -10  -1  -7    0.80    0.40
 -10   1   7    1.80    0.50
 -10  -1   7    1.70    0.40
  10  -1  -7    1.60    0.40
 -10   1  -7    1.60    0.40
 -11   1   0   95.59    5.70
 -11   1   0   86.79    5.60
 -11  -1   0   98.79    5.80
 -11  -1   0   81.79    5.60
 -11   1   1   37.40    2.60
 -11  -1  -1   43.40    2.70
 -11   1   1   42.80    2.70
 -11  -1   1   41.70    2.80
 -11   1  -1   40.70    2.70
 -11   1  -1   37.10    2.60
 -11  -1   1   35.20    2.60
 -11   1   2   49.30    3.20
 -11   1   2   46.80    3.20
 -11  -1  -2   48.70    3.20
 -11   1  -2   49.70    3.20
 -11  -1   2   49.40    3.30
 -11  -1   2   46.50    3.20
 -11   1  -2   44.20    3.10
 -11   1   3  275.67   18.70
  11   1  -3  316.67   18.80
 -11   1   3  335.07   18.80
  11   1  -3  317.47   18.60
 -11  -1  -3  305.77   18.60
  11  -1  -3  312.27   18.60
 -11  -1   3  277.47   18.70
  11  -1  -3  301.87   18.70
 -11   1  -3  319.17   18.70
 -11   1  -3  293.87   18.60
 -11  -1   3  328.47   18.70
  11   1  -4    0.40    0.40
 -11  -1  -4    0.20    0.40
 -11   1   4    0.60    0.40
  11   1  -4    0.70    0.40
 -11  -1   4    0.40    0.40
  11  -1  -4    0.30    0.40
  11  -1  -4    0.60    0.40
 -11   1  -4   -0.10    0.40
 -11   1   5   80.69    5.00
 -11  -1  -5   74.29    4.90
  11   1  -5   77.59    4.90
  11   1  -5   76.79    5.00
 -11   1  -5   75.89    4.90
  11  -1  -5   76.49    4.90
  11  -1  -5   74.99    4.90
 -11  -1   5   69.29    5.00
  11   1  -6    0.60    0.40
  11   1  -6    0.20    0.30
 -11  -1  -6   -0.10    0.40
 -11   1   6    0.10    0.40
  11  -1  -6   -0.20    0.30
 -11  -1   6    0.40    0.40
 -11   1  -6   -0.50    0.40
  11  -1  -6    0.60    0.40
 -11  -1   7   34.20    2.60
 -12  -1   0    0.50    0.30
 -12   1   0    0.60    0.30
 -12   1   0    0.10    0.40
 -12  -1   0    0.20    0.40
 -12  -1  -1   36.00    2.90
 -12   1   1   47.00    3.00
 -12   1   1   43.70    2.90
 -12   1  -1   41.60    2.80
 -12  -1   1   42.70    2.90
 -12  -1   1   48.00    3.00
 -12   1   2   11.20    1.10
 -12  -1  -2   10.80    1.00
 -12   1   2   11.00    1.10
 -12  -1   2   10.60    1.20
 -12   1  -2    9.40    1.00
 -12  -1   2   11.70    1.10
  12  -1  -2    9.70    1.10
 -12  -1  -3    0.90    0.40
 -12   1   3    1.70    0.50
  12   1  -3    1.10    0.50
  12   1  -3    1.10    0.50
  12  -1  -3    1.60    0.40
 -12  -1   3    2.70    0.60
 -12   1  -3    1.10    0.40
 -12  -1   3    1.50    0.50
  12  -1  -3    1.30    0.50
  12   1  -4   18.20    1.70
  12   1  -4   20.70    1.60
 -12  -1  -4   18.60    1.60
 -12   1   4   17.80    1.60
 -12  -1   4   20.70    1.70
 -12   1  -4   18.60    1.60
  12  -1  -4   19.00    1.50
  12  -1  -4   20.20    1.60
  12   1  -5   34.90    2.60
  12   1  -5   35.80    2.60
 -12   1   5   40.40    2.70
 -12  -1  -5   34.70    2.50
 -12   1  -5   36.20    2.60
  12  -1  -5   35.90    2.60
  12  -1  -5   37.00    2.60
 -12  -1   5   40.30    2.70
  12   1  -6   15.90    1.30
 -12  -1  -6   14.60    1.30
  12   1  -6   16.20    1.30
 -12   1   6   18.10    1.40
  12  -1  -6   14.80    1.30
 -12   1  -6   14.00    1.30
 -12  -1   6   16.40    1.30
  12  -1  -6   14.50    1.30
 -13  -1   0   22.20    1.60
 -13   1   0   20.10    1.60
 -13  -1   0   19.40    1.70
 -13   1   0   20.00    1.60
 -13   1   1   25.30    2.00
 -13   1   1   28.90    2.10
 -13   1  -1   27.20    1.90
 -13   1  -1   24.20    2.00
 -13  -1   1   28.80    2.00
 -13  -1   1   29.20    2.10
 -13   1   2   49.90    3.60
 -13  -1  -2   54.79    3.60
 -13   1   2   55.29    3.60
 -13   1  -2   53.29    3.60
 -13  -1   2   52.89    3.50
 -13  -1   2   59.79    3.70
  13  -1  -2   43.30    3.80
 -13   1   3   70.29    4.30
  13   1  -3   61.59    4.30
 -13  -1  -3   65.69    4.20
 -13  -1   3   72.89    4.30
  13  -1  -3   57.29    4.50
 -13   1  -3   67.49    4.20
  13  -1  -3   61.49    4.30
 -13  -1   3   59.29    4.20
 -13   1   4   14.30    1.30
  13   1  -4   10.30    1.10
  13   1  -4   11.60    1.20
  13  -1  -4   11.30    1.20
 -13  -1   4   13.80    1.30
  13  -1  -4   11.50    1.10
  13   1  -5   11.10    1.10
 -13   1   5   15.10    1.20
  13   1  -5   11.00    1.10
  13  -1  -5    9.80    1.10
 -13  -1   5   12.90    1.20
 -13   1  -5   10.30    1.10
  13  -1  -5   12.80    1.10
 -13   1   6    0.40    0.30
  13   1  -6    0.10    0.40
  13  -1  -6    0.40    0.30
 -13  -1   6    0.80    0.40
 -14  -1   0   -0.30    0.40
 -14   1   0    1.40    0.40
 -14   1   0   -0.50    0.40
 -14  -1   0    0.40    0.40
 -14   1   1   64.19    4.20
 -14  -1  -1   63.79    4.20
 -14   1   1   62.49    4.10
 -14   1  -1   61.69    4.20
 -14  -1   1   61.49    4.10
 -14  -1   1   68.59    4.30
 -14   1  -1   59.59    4.10
 -14   1   2   -0.50    0.40
 -14   1   2   -0.50    0.40
  14   1  -2    0.00    0.50
 -14  -1   2   -0.20    0.40
 -14   1  -2   -0.10    0.40
 -14  -1   2    0.10    0.40
 -14  -1  -3    1.80    0.50
  14   1  -3    1.00    0.50
 -14   1   3    1.20    0.50
 -14  -1   3    0.40    0.50
 -14   1  -3    1.40    0.50
  14  -1  -3    1.00    0.50
 -14  -1   3    0.70    0.50
  14   1  -4   19.90    1.70
 -14   1   4   23.70    1.70
 -14  -1   4   23.60    1.70
  14  -1  -4   15.20    1.50
  14  -1  -4   20.20    1.60
 -14   1   5    0.00    0.40
  14   1  -5   -0.10    0.40
 -14  -1   5    0.80    0.40
  14  -1  -5    0.10    0.40
 -15  -1   0    0.90    0.40
 -15   1   0    0.20    0.40
 -15   1   0    0.40    0.40
 -15   1   1    2.50    0.60
 -15   1   1    3.30    0.60
 -15  -1  -1    3.20    0.60
 -15  -1   1    2.20    0.50
 -15   1  -1    3.20    0.60
 -15  -1   1    2.60    0.60
 -15   1   2    0.80    0.40
 -15  -1  -2    1.40    0.50
 -15   1   2    1.70    0.50
 -15  -1   2    1.10    0.50
 -15   1  -2    2.00    0.50
 -15  -1   2    1.10    0.50
  15   1  -3    4.30    0.80
 -15   1   3    5.10    0.80
 -15  -1   3    5.50    0.80
  15   1  -4    1.30    0.50
 -15   1   4    1.10    0.50
 -15  -1   4    1.20    0.50
 -15   1   5   12.10    1.10
 -15  -1   5   11.70    1.10
 -16   1   0    0.50    0.40
 -16   1   0    0.00    0.40
 -16  -1   0    0.40    0.40
 -16   1   1    6.90    0.80
 -16  -1  -1    7.50    0.90
 -16   1   1    6.10    0.80
 -16  -1   1    5.50    0.80
 -16  -1   1    6.00    0.90
 -16   1  -1    6.70    0.90
 -16   1   2    0.80    0.40
 -16   1   2    0.80    0.40
 -16  -1  -2    0.40    0.40
 -16   1  -2    0.60    0.40
 -16  -1   2    0.40    0.50
 -16  -1   2    0.90    0.40
 -16   1   3   14.90    1.30
 -16  -1   3   15.50    1.30
 -16   1   4    3.30    0.50
 -16  -1   4    3.10    0.50
 -17   1   0   15.70    1.40
 -17  -1   0   16.90    1.40
 -17   1   1   14.20    1.30
 -17   1   1   13.50    1.20
 -17  -1  -1   14.20    1.30
 -17  -1   1   13.30    1.30
 -17   1  -1   13.80    1.30
 -17  -1  -2   10.10    1.00
 -17   1   2   11.20    1.00
 -17  -1   2   10.00    1.10
 -17  -1   2    9.50    1.00
 -17   1   3    1.30    0.40
 -17  -1   3    1.60    0.50
   0  -2   1   -6.70    0.20
   0   2   1   -6.60    0.20
   0  -2   1   -6.80    0.20
   0   2  -1   -6.70    0.20
   0   2  -1   -6.60    0.20
   0   2  -2 9999.00  528.65
   0   2   2 8267.87  528.55
   0  -2   2 8295.07  528.65
   0  -2  -4  546.75   29.80
   0  -2   4  465.25   30.40
   0   2  -4  449.56   28.50
   0   2   4  500.05   28.50
   0  -2  -4  475.05   28.50
   0   2  -4  492.75   29.80
   0  -2  -4  445.76   28.50
   0   2   4  438.36   30.10
   0  -2  -4  453.85   28.50
   0   2  -5    1.10    1.10
   0  -2  -5    0.30    0.30
   0  -2  -5    0.00    0.30
   0  -2  -5    0.70    1.10
   0   2  -5    0.40    0.30
   0  -2  -5    0.50    0.30
   0   2  -5    0.30    0.30
   0   2   5    0.20    0.20
   0   2  -5   -0.40    0.30
   0   2   6    2.00    0.50
   0  -2   6    4.60    0.60
   0  -2  -6    3.40    0.50
   0  -2  -6    3.40    0.70
   0   2  -6    3.00    0.60
   0   2  -6    3.20    0.60
   0  -2   7    0.10    0.40
   0  -2  -7    3.40    0.60
   0  -2  -7    0.20    0.30
   0   2   7    0.00    0.30
   0  -2   8   12.70    1.20
   0  -2  -8   11.60    1.20
   0   2   8   13.70    1.20
   1  -2   0    0.00    0.10
   1   2   0   -0.20    0.10
  -1   2   0    0.10    0.20
   1  -2   0    0.00    0.10
  -1  -2   0   -0.10    0.10
  -1   2   0   -0.10    0.10
  -1  -2  -1  934.81   64.19
   1  -2   1 1079.59   64.49
   1   2  -1 1240.18   64.59
   1  -2   1 1052.39   64.49
  -1   2  -1 1005.20   64.39
  -1  -2   1 1131.69   64.59
   1   2  -2  647.74   38.30
   1  -2   2  652.03   38.40
  -1  -2  -2  529.65   38.00
  -1   2   2  580.44   38.30
  -1   2  -2  688.93   38.30
   1   2   2  688.23   38.30
  -1  -2  -3   40.30    3.20
   1  -2   3   40.60    3.60
   1   2  -3   36.20    3.20
  -1   2   3   42.60    3.60
   1   2   3   40.40    3.40
  -1  -2   3   41.50    3.70
   1  -2  -3   39.40    3.10
  -1   2  -3   37.70    3.30
  -1  -2  -4 1125.89   74.99
  -1  -2  -4 1413.46   76.19
  -1  -2  -4 1288.07   74.99
  -1  -2  -4 1240.18   74.99
   1   2  -4 1228.38   74.99
   1  -2   4 1240.58   76.89
  -1   2   4 1198.68   76.79
  -1   2   4 1353.46   74.99
   1   2  -4 1250.57   76.19
   1  -2  -4 1244.48   74.99
  -1   2  -4 1113.09   74.99
  -1   2  -4 1279.07   74.99
  -1  -2   4 1216.48   76.99
   1  -2  -4 1363.76   76.19
  -1   2  -4 1244.48   76.29
   1   2   4 1204.18   76.59
   1  -2  -4 1310.27   74.99
   1   2  -5  132.89    8.30
  -1  -2  -5  135.89    8.30
  -1   2   5  144.49    8.30
   1   2  -5  131.69    9.90
   1   2  -5  129.59    8.30
   1   2  -5  125.89    8.20
  -1  -2  -5  130.09    8.30
   1   2   5  139.19    8.20
   1  -2  -5  132.89    8.30
  -1   2  -5  128.99    8.30
   1  -2  -5  136.09    8.20
   1  -2  -5  137.39    9.80
   1  -2  -5  138.39    8.30
  -1   2  -5  132.29   10.00
  -1   2  -5  135.09    8.30
  -1  -2  -6  283.17   16.90
   1   2  -6  247.28   16.80
  -1  -2  -6  286.77   16.80
  -1   2   6  279.17   16.80
   1   2  -6  279.97   16.80
   1   2   6  237.58   16.70
  -1   2  -6  284.47   16.80
  -1  -2   6  287.67   16.80
   1  -2  -6  290.27   16.90
   1  -2  -6  273.07   16.80
  -1   2  -6  290.27   17.20
   1   2  -7   10.60    1.10
   1  -2   7   10.50    1.00
  -1  -2  -7    9.40    1.00
  -1  -2  -7   10.00    1.10
  -1   2   7   10.70    1.10
  -1   2  -7   11.10    1.00
   1   2   7   11.40    1.00
   1  -2  -7   10.10    1.10
  -1  -2   7   11.00    1.10
   1  -2   8   55.69    3.60
  -1   2   8   54.39    3.60
   1   2   8   55.59    3.60
   1  -2  -8   53.19    3.60
  -1  -2   8   58.59    3.60
   2   2   0 1538.25   81.69
   2  -2   0 1374.96   81.79
  -2   2   0 1459.45   81.79
   2  -2   0 1257.47   81.79
  -2   2   0 1209.48   81.79
  -2   2   0 1360.16   81.69
   2  -2   1  966.60   58.79
  -2  -2  -1 1036.00   58.69
   2   2  -1 1051.69   58.99
  -2   2   1  854.11   58.79
   2   2   1  906.41   58.59
  -2   2  -1 1056.29   58.69
  -2   2  -1  947.41   58.89
   2  -2  -1 1083.09   58.79
  -2  -2   1  914.01   58.89
   2   2  -2  250.47   15.10
   2  -2   2  222.08   14.10
  -2  -2  -2  199.28   13.80
  -2   2   2  221.78   14.20
   2   2   2  221.18   14.00
  -2  -2   2  211.48   14.20
  -2   2  -2  246.28   13.90
  -2   2   3    7.70    1.50
   2  -2   3    5.70    1.30
   2   2  -3    6.50    1.10
  -2  -2  -3    6.80    1.10
   2   2   3    5.80    1.20
  -2  -2   3    9.90    1.80
  -2   2  -3    6.40    1.30
   2   2  -4   69.09    4.30
  -2  -2  -4   78.89    5.40
   2   2  -4   67.79    4.30
  -2   2   4   62.49    5.90
   2  -2   4   61.19    5.80
   2   2  -4   63.79    5.30
  -2  -2  -4   61.89    4.30
  -2  -2  -4   75.79    4.30
  -2   2   4   71.39    4.20
  -2  -2   4   60.99    6.10
  -2   2  -4   65.39    4.30
  -2   2  -4   67.69    5.60
   2  -2  -4   68.99    4.30
   2  -2  -4   67.59    4.30
   2  -2  -4   71.99    5.30
   2   2   4   58.29    5.60
  -2  -2  -5    0.10    0.30
  -2   2   5    0.50    0.30
   2   2  -5    0.90    1.10
   2   2  -5    0.50    0.40
  -2  -2  -5    0.70    0.40
   2   2  -5    0.80    0.40
  -2   2  -5    0.80    1.20
   2   2   5    1.00    0.30
  -2  -2   5    1.00    0.30
   2  -2  -5    0.50    1.10
   2  -2  -5    0.20    0.40
   2  -2  -5    0.00    0.30
   2  -2  -5    0.30    0.40
  -2   2  -5    0.10    0.30
   2   2  -6   -0.10    0.40
  -2  -2  -6    0.20    0.30
  -2  -2  -6    0.70    0.50
   2   2  -6    0.00    0.50
  -2   2   6    0.10    0.30
   2  -2   6   -0.10    0.30
   2  -2  -6    0.00    0.40
  -2  -2   6    0.30    0.30
  -2   2  -6   -0.50    0.30
   2  -2  -6    0.50    0.40
   2   2   6    0.10    0.30
   2   2  -7   24.80    2.00
   2  -2   7   27.40    1.90
  -2  -2  -7   25.90    1.90
  -2  -2  -7   24.20    2.00
  -2   2   7   25.30    1.90
   2  -2  -7   28.70    2.00
   2   2   7   25.00    1.90
  -2   2  -7   25.60    1.90
  -2  -2   7   28.60    2.00
  -2  -2  -8    0.80    0.40
   2  -2   8    0.10    0.40
  -2   2   8    0.80    0.40
  -2  -2   8    0.90    0.40
   2  -2  -8   -0.10    0.40
   2   2   8    0.80    0.40
  -2  -2   8    0.70    0.40
   3  -2   0   -0.80    0.20
   3   2   0   -0.50    0.20
   3   2   0   -0.90    0.20
  -3   2   0   -0.80    0.20
  -3  -2  -1  308.57   18.40
   3  -2   1  304.27   18.50
   3   2  -1  318.07   18.60
  -3   2   1  289.67   18.50
   3   2   1  295.97   18.40
  -3  -2   1  291.07   18.60
   3  -2  -1  312.97   18.50
  -3   2   2  368.26   23.40
   3  -2   2  376.56   23.30
  -3  -2  -2  391.96   23.10
   3   2   2  364.76   23.10
  -3   2  -2  408.26   23.00
  -3  -2   2  357.86   23.50
  -3  -2  -3   74.99    5.10
   3   2  -3   63.99    4.40
  -3   2   3   68.99    5.50
   3  -2   3   71.89    5.50
   3  -2  -3   68.49    4.40
  -3   2  -3   68.29    5.30
  -3   2  -3   76.79    4.90
   3   2   3   71.99    5.30
  -3  -2   3   69.59    5.70
   3   2  -4   37.60    3.50
  -3  -2  -4   39.10    3.40
   3  -2   4   32.70    4.00
  -3  -2  -4   37.60    2.40
  -3   2   4   36.50    2.40
   3   2  -4   36.90    2.40
  -3  -2  -4   33.10    2.40
  -3   2   4   30.30    4.00
   3   2  -4   38.20    2.50
  -3   2  -4   34.00    3.60
   3  -2  -4   37.00    2.50
  -3  -2   4   31.50    4.10
   3   2   4   32.30    3.80
   3  -2  -4   37.30    3.40
   3  -2  -4   36.40    2.40
  -3   2  -4   41.70    2.40
   3   2  -5   63.29    6.20
  -3   2   5   68.89    4.50
   3   2  -5   71.79    4.50
   3   2  -5   75.79    4.60
  -3  -2  -5   75.49    4.50
  -3  -2  -5   66.79    4.50
   3  -2  -5   65.39    5.90
  -3  -2   5   72.09    4.50
  -3   2  -5   68.29    6.30
   3  -2  -5   75.59    4.60
  -3   2  -5   69.39    4.50
   3   2   5   71.59    4.50
   3  -2  -5   73.29    4.50
   3   2  -6    0.80    0.40
  -3  -2  -6    1.00    0.50
  -3   2   6    0.50    0.40
  -3  -2  -6    1.20    0.40
   3   2  -6    1.10    0.40
  -3   2  -6    1.30    0.40
   3   2   6    1.00    0.40
   3  -2  -6    0.00    0.40
   3  -2  -6    0.60    0.40
  -3  -2   6    4.00    0.60
  -3  -2  -7    0.50    0.40
   3   2  -7   -0.30    0.40
  -3   2   7    0.20    0.40
   3  -2   7   -0.20    0.30
   3   2  -7    0.30    0.40
  -3   2   7    0.00    0.40
   3  -2  -7    0.40    0.50
   3   2   7    0.00    0.30
  -3  -2   7    0.30    0.40
   3  -2  -7    0.10    0.40
  -3   2  -7   -0.20    0.40
  -3  -2  -8    2.50    0.50
   3  -2   8    2.60    0.50
   3   2  -8    2.30    0.50
  -3   2  -8    2.70    0.50
   3  -2  -8    2.60    0.50
   3   2   8    2.70    0.50
  -3  -2   8    3.40    0.50
   4  -2   0   66.99    4.40
   4   2   0   68.29    4.30
   4   2  -1 3190.68  185.08
  -4   2   1 3414.16  184.88
   4  -2   1 3047.20  184.88
  -4  -2  -1 2854.31  184.88
  -4   2   1 2999.10  184.88
  -4  -2   1 2997.30  184.88
   4  -2  -1 3154.48  184.98
   4  -2   2   27.90    2.50
  -4  -2  -2   32.20    2.40
  -4   2   2   33.20    2.70
  -4  -2   2   28.40    2.70
   4   2   2   30.10    2.30
  -4   2  -2   27.30    2.60
  -4   2   3  180.28   12.20
  -4  -2  -3  203.68   11.70
   4   2  -3  174.58   10.90
   4  -2   3  185.18   12.10
   4  -2  -3  171.88   10.90
  -4   2  -3  180.08   12.00
  -4  -2   3  168.58   12.30
   4   2   3  173.58   11.80
  -4  -2  -4    0.20    0.30
   4   2  -4    0.30    0.30
   4   2  -4    0.50    0.70
  -4   2   4    0.10    0.30
   4  -2   4    0.20    1.20
  -4   2   4    0.10    1.20
  -4  -2  -4    1.90    0.30
   4   2  -4    0.70    0.30
  -4  -2   4    0.40    0.20
  -4  -2   4    0.90    0.30
   4   2   4    0.20    1.10
  -4   2  -4    0.60    0.30
  -4  -2   4   -0.70    1.40
   4  -2  -4    0.10    0.30
  -4   2  -4    0.20    0.90
  -4  -2  -5   78.39    5.00
   4   2  -5   82.39    5.00
  -4   2   5   74.69    4.90
   4   2  -5   82.39    5.00
  -4  -2  -5   82.39    4.90
   4   2   5   75.49    4.80
  -4  -2   5   75.49    4.90
   4  -2  -5   78.29    5.00
  -4   2  -5   79.39    4.90
   4  -2  -5   75.59    4.90
  -4   2  -5   63.29    6.50
   4   2  -6    1.00    0.50
  -4  -2  -6    0.20    0.30
   4   2  -6    0.30    0.40
  -4   2   6    0.80    0.40
  -4   2  -6    1.00    0.40
   4   2   6    0.60    0.30
  -4  -2   6    0.40    0.40
   4  -2  -6    0.60    0.40
   4  -2  -6    0.20    0.40
  -4   2   7   57.29    3.80
   4   2  -7   52.89    3.80
  -4   2   7   57.89    3.80
   4  -2   7   60.99    3.80
  -4  -2  -7   60.79    3.80
   4   2  -7   60.49    3.90
  -4  -2   7   57.79    3.80
   4  -2  -7   51.09    3.80
   4  -2  -7   61.09    3.90
  -4   2  -7   61.09    3.80
   4   2   7   60.39    3.80
   4  -2   8    3.20    0.50
  -4  -2  -8    3.70    0.50
   4   2  -8    3.00    0.60
   4  -2  -8    3.10    0.50
   4   2   8    3.30    0.50
  -4   2  -8    2.30    0.50
  -4  -2   8    4.10    0.60
  -5   2   0   -0.10    0.30
   5   2   0    0.00    0.20
   5  -2   0   -0.10    0.20
   5   2  -1   13.10    1.40
   5  -2   1   12.30    1.20
  -5   2   1   13.20    1.20
  -5  -2  -1   14.20    1.30
  -5   2  -1    9.70    1.30
   5  -2  -1   12.60    1.30
   5  -2   2   42.40    3.30
  -5  -2  -2   43.10    3.20
  -5   2   2   42.20    3.50
  -5  -2   2   40.50    3.50
  -5   2  -2   40.60    3.40
   5   2   2   43.70    3.10
  -5  -2  -3 1045.60   64.39
   5  -2   3 1087.79   65.59
  -5   2   3 1042.50   65.79
   5   2  -3 1074.09   64.39
  -5   2  -3 1076.69   64.39
   5   2   3 1121.89   65.39
  -5   2  -3 1072.89   65.49
  -5  -2   3 1049.30   65.89
   5  -2  -3 1114.29   64.39
   5   2  -4   82.09    4.70
   5   2  -4   75.99    5.90
  -5   2   4   76.09    4.70
   5  -2   4   61.59    6.40
  -5  -2  -4   78.49    4.80
  -5   2   4   68.39    7.50
  -5   2  -4   80.49    4.70
   5  -2  -4   81.89    4.70
  -5  -2   4   73.09    4.70
  -5  -2   4   73.99    4.60
  -5  -2   4   61.89    6.70
  -5   2  -4   68.39    6.00
   5  -2  -4   79.59    4.80
  -5   2  -4   73.59    4.70
   5   2   4   64.19    6.20
   5   2  -5   45.00    3.20
  -5  -2  -5   52.49    3.30
  -5   2   5   48.80    3.20
  -5   2  -5   52.49    3.30
   5  -2  -5   39.50    3.20
  -5  -2   5   49.80    3.20
   5   2   5   52.59    3.20
   5  -2  -5   52.29    3.30
  -5  -2   5   47.60    3.20
  -5   2   6   25.20    1.90
   5   2  -6   26.70    1.90
  -5   2   6   28.40    1.90
  -5  -2  -6   19.70    1.80
   5   2  -6   28.70    2.00
   5  -2  -6   20.60    1.90
   5   2   6   25.60    1.80
   5  -2  -6   26.30    1.90
  -5   2  -6   27.10    1.90
  -5   2   7   70.69    4.60
   5  -2   7   69.59    4.50
  -5  -2  -7   73.29    4.60
   5   2  -7   70.29    4.60
   5   2  -7   67.39    4.50
   5  -2  -7   70.99    4.60
   5   2   7   68.99    4.50
  -5  -2   7   72.89    4.60
  -5   2  -7   74.39    4.60
   5  -2  -7   65.59    4.50
  -5  -2  -8    0.20    0.30
   5   2  -8    0.10    0.40
  -5  -2   8    0.00    0.40
  -5   2  -8   -0.70    0.30
   5  -2  -8    0.20    0.30
   6  -2   0  548.45   30.40
   6   2   0  532.25   30.30
  -6   2   0  426.06   30.70
   6  -2   1  902.61   54.09
  -6  -2  -1  947.71   54.19
   6   2  -1  872.91   54.19
  -6   2  -1  896.41   54.39
   6  -2  -1  864.41   54.09
   6  -2   2  154.18    9.70
  -6   2   2  150.38    9.70
   6  -2  -2  129.89    8.90
   6   2   2  160.08    9.40
  -6   2  -2  127.19    8.90
  -6   2  -2  159.48    9.90
  -6  -2   2  148.19    9.60
  -6  -2  -3   38.20    2.90
   6   2  -3   46.80    2.90
  -6   2   3   41.20    2.90
   6  -2   3   43.00    4.10
  -6  -2  -3   43.80    2.90
  -6  -2  -3   54.79    3.80
  -6   2   3   40.60    4.20
  -6   2  -3   44.40    2.90
   6  -2  -3   44.10    3.00
  -6  -2   3   47.80    4.60
  -6   2  -3   47.50    4.00
  -6  -2   3   53.59    3.00
  -6   2  -3   48.50    3.00
   6  -2  -3   51.29    2.90
  -6  -2   3   36.20    2.90
   6   2  -4    4.50    0.70
  -6  -2  -4    4.80    0.60
  -6   2   4    4.40    0.60
   6   2  -4    4.80    0.60
  -6   2  -4    4.70    0.60
  -6   2  -4    3.80    1.40
  -6   2  -4    5.10    0.60
   6  -2  -4    6.20    0.70
   6  -2  -4    5.20    0.60
  -6  -2   4    4.10    0.60
  -6   2   5  126.59    7.20
  -6  -2  -5  105.49    7.20
   6   2  -5  133.19    7.30
   6  -2  -5   93.39    7.20
   6   2   5  117.39    7.10
   6  -2  -5  126.19    7.30
  -6  -2   5  114.39    7.20
  -6   2  -5  109.39    7.20
   6   2  -6    1.10    0.50
   6  -2   6    0.50    0.30
  -6  -2  -6    0.60    0.40
  -6   2   6    0.60    0.40
   6   2  -6    0.40    0.40
  -6   2  -6    0.90    0.40
   6  -2  -6    0.50    0.40
   6   2   6    0.80    0.40
   6  -2  -6    0.80    0.40
   6   2  -7   16.50    1.30
   6  -2   7   12.50    1.10
  -6  -2  -7   13.10    1.20
  -6   2   7   12.10    1.20
   6   2  -7   15.00    1.20
   6  -2  -7   11.70    1.20
  -6  -2   7   15.40    1.30
   6  -2  -7   13.10    1.20
   6   2   7   13.10    1.10
  -6   2  -7   14.00    1.20
  -6  -2  -8    3.70    0.50
   6   2  -8    3.80    0.60
  -6   2  -8    3.40    0.60
   6  -2  -8    3.20    0.50
  -6  -2   8    4.60    0.60
  -7   2   0    0.20    0.50
  -7   2   0    0.50    0.20
  -7  -2   0    2.80    0.40
   7  -2   1  332.07   18.90
  -7  -2  -1  279.17   18.40
   7   2  -1  324.37   19.60
  -7  -2   1  276.67   18.40
  -7   2  -1  339.07   19.30
  -7   2  -1  284.37   18.40
  -7  -2  -2  179.18   10.90
  -7   2   2  163.48   10.90
   7   2  -2  179.48   10.90
  -7  -2   2  180.68   10.90
  -7  -2   2  177.38   10.90
  -7   2  -2  177.88   10.90
   7  -2  -2  175.78   10.80
  -7   2  -2  201.08   12.00
  -7  -2  -3   98.59    6.20
  -7   2   3  102.39    6.20
  -7  -2  -3   94.09    6.10
   7   2  -3  112.79    6.20
  -7   2  -3   90.79    6.20
   7  -2  -3  112.79    6.20
  -7   2  -3  104.19    6.20
  -7  -2   3   87.49    6.20
  -7   2  -3   99.09    7.40
  -7  -2   3   96.99    6.20
  -7   2  -3   99.49    6.20
   7  -2  -3  104.89    6.30
   7   2  -4   73.89    4.60
   7   2  -4   77.79    4.50
  -7   2   4   68.19    4.50
  -7  -2  -4   72.89    4.40
  -7   2  -4   69.99    4.50
  -7  -2   4   66.19    4.40
   7  -2  -4   70.49    4.50
   7   2   4   58.59    4.30
  -7   2  -4   64.99    4.40
   7  -2  -4   76.39    4.50
  -7  -2  -5    2.30    0.50
  -7   2   5    1.90    0.50
   7   2  -5    2.00    0.50
   7   2  -5    3.00    0.50
   7  -2  -5    2.30    0.50
  -7   2  -5    1.60    0.50
  -7  -2   5    1.70    0.40
   7   2   5    2.20    0.40
   7  -2  -5    1.50    0.40
  -7   2   6   66.89    4.10
   7   2  -6   62.29    4.20
   7  -2   6   63.29    4.00
  -7  -2  -6   59.39    4.10
   7   2  -6   64.89    4.10
  -7   2  -6   59.39    4.10
   7  -2  -6   54.29    4.10
  -7  -2   6   69.29    4.20
   7   2   6   58.99    4.00
   7  -2  -6   66.09    4.10
   7   2  -7   14.10    1.30
   7  -2   7   14.40    1.20
  -7  -2  -7   16.30    1.30
  -7   2   7   16.70    1.40
   7   2  -7   16.20    1.40
   7  -2  -7   15.90    1.30
   7  -2  -7   14.50    1.30
   7   2   7   15.10    1.30
  -7   2  -7   14.60    1.30
  -7  -2   7   18.20    1.40
  -8   2   0  422.96   25.90
  -8  -2   0  437.56   25.90
  -8  -2  -1  176.48   10.90
  -8   2   1  175.08   10.90
  -8   2  -1  198.68   12.00
  -8   2  -1  180.38   10.90
  -8  -2   1  169.38   10.90
  -8  -2   1  176.98   11.00
   8   2  -2  376.76   23.20
  -8  -2  -2  388.06   23.30
  -8  -2  -2  444.96   24.10
  -8   2   2  374.86   23.30
  -8   2   2  361.96   23.30
  -8  -2   2  397.26   23.30
  -8  -2   2  355.56   23.30
  -8   2  -2  379.36   23.30
   8  -2  -2  386.96   23.20
  -8   2  -2  392.66   24.40
  -8   2  -2  404.36   23.30
  -8   2  -2  380.26   23.30
  -8  -2   2  381.06   23.30
  -8   2   3    8.80    0.90
   8   2  -3    9.20    0.80
  -8  -2  -3    8.10    0.80
  -8  -2  -3    8.90    0.80
  -8  -2   3    9.10    0.90
  -8   2  -3    9.30    0.90
  -8   2  -3    7.90    1.70
  -8   2  -3    8.10    0.80
  -8  -2   3    8.50    0.80
  -8   2  -3    9.30    0.80
   8  -2  -3    8.90    0.90
  -8  -2   3    6.90    0.80
   8  -2  -3    9.80    0.80
   8   2  -4  110.79    6.80
  -8  -2  -4  103.89    6.60
   8   2  -4  108.69    6.70
  -8   2   4  106.89    6.70
  -8   2  -4   94.49    6.60
   8  -2  -4  104.49    6.70
  -8  -2   4  108.89    6.70
   8  -2  -4  109.49    6.60
  -8  -2   4  103.59    6.60
  -8   2  -4  110.79    6.70
  -8  -2  -5   85.89    5.20
  -8   2   5   92.19    5.30
   8   2  -5   78.29    5.20
  -8   2  -5   81.79    5.20
   8  -2  -5   81.69    5.20
   8  -2  -5   70.29    5.20
   8   2   5   75.09    5.10
   8   2  -6    6.40    0.90
   8   2  -6    5.30    0.70
  -8   2   6    5.30    0.80
   8  -2   6    5.40    0.70
  -8  -2  -6    4.60    0.70
   8  -2  -6    4.90    0.70
  -8  -2   6    5.70    0.80
   8   2   6    4.70    0.60
  -8   2  -6    5.00    0.80
   8  -2  -6    4.80    0.80
  -8   2   7    6.30    0.80
  -8  -2  -7    5.90    0.70
   8  -2   7    4.40    0.70
   8   2  -7    5.80    0.80
   8   2  -7    5.70    0.70
  -8   2  -7    5.20    0.70
   8  -2  -7    5.80    0.70
   8   2   7    6.00    0.70
   8  -2  -7    6.10    0.70
  -8  -2   7    6.90    0.80
  -9   2   0    0.00    0.20
  -9  -2   0    1.60    0.30
  -9  -2  -1   88.39    5.30
  -9   2   1   78.39    5.20
  -9   2   1   86.69    5.30
  -9  -2   1   87.69    5.30
  -9   2  -1   86.49    5.30
  -9  -2   1   91.39    5.30
  -9  -2   1   74.69    5.20
  -9   2  -1   89.49    6.40
  -9   2  -1   75.29    5.20
  -9   2   2   22.10    1.60
  -9  -2  -2   23.30    1.60
   9   2  -2   20.40    1.50
  -9   2   2   21.30    1.60
  -9  -2   2   21.40    1.60
  -9   2  -2   23.10    1.60
  -9  -2   2   23.00    1.60
  -9   2  -2   21.50    2.50
  -9  -2   2   20.20    1.60
   9  -2  -2   21.70    1.50
  -9   2  -2   21.90    1.60
  -9   2  -2   20.30    1.50
  -9  -2  -3   11.10    1.00
  -9   2   3   11.70    1.00
   9   2  -3   12.20    1.00
  -9  -2  -3   11.70    1.00
  -9  -2   3    8.40    1.00
  -9  -2   3   10.60    1.00
  -9   2  -3   11.70    1.00
   9  -2  -3   12.10    1.00
  -9  -2   3   12.40    1.00
  -9   2  -3   12.50    1.00
  -9   2  -3    8.90    1.90
  -9   2  -3    9.80    0.90
   9  -2  -3   10.60    1.00
   9   2  -4   54.69    3.80
  -9  -2  -4   55.99    3.70
  -9   2   4   54.79    3.70
   9   2  -4   57.99    3.70
   9  -2  -4   56.99    3.70
  -9  -2   4   53.19    3.70
  -9   2  -4   57.69    3.70
  -9  -2   4   56.69    3.80
   9  -2  -4   55.09    3.70
  -9  -2  -5   31.30    2.20
   9   2  -5   32.50    2.40
   9   2  -5   33.00    2.30
  -9   2   5   29.20    2.30
  -9   2  -5   32.40    2.30
   9  -2  -5   29.50    2.30
  -9  -2   5   33.10    2.40
   9  -2  -5   28.80    2.20
   9   2  -6   13.50    1.20
  -9  -2  -6   12.10    1.10
  -9   2   6   12.70    1.20
   9   2  -6   12.30    1.20
  -9   2  -6   11.60    1.20
   9  -2  -6   10.90    1.10
   9  -2  -6   12.80    1.20
  -9  -2   6   11.40    1.30
  -9  -2  -7   -0.10    0.40
  -9   2   7    0.70    0.40
   9   2  -7    0.80    0.40
   9   2  -7    0.60    0.40
  -9  -2   7    1.00    0.40
   9  -2  -7    0.60    0.40
   9  -2  -7    0.50    0.40
  -9   2  -7    0.70    0.40
 -10   2   0  124.59    7.10
 -10  -2   0   97.59    7.00
 -10   2   0  108.79    7.00
 -10  -2   0  127.29    7.20
 -10   2   1   19.20    1.40
 -10  -2  -1   18.80    1.40
 -10   2   1   17.50    1.40
 -10  -2   1   15.70    1.30
 -10   2  -1   19.20    1.30
 -10   2  -1   17.40    2.40
 -10   2  -1   19.30    1.40
 -10  -2   1   19.60    1.50
 -10   2   2  192.28   11.50
 -10   2   2  194.28   11.50
  10   2  -2  184.68   11.40
 -10  -2  -2  194.28   11.50
 -10  -2   2  191.48   11.60
 -10   2  -2  178.38   11.40
 -10  -2   2  188.78   11.50
  10  -2  -2  189.88   11.40
 -10   2  -2  166.38   12.60
 -10   2  -2  197.48   11.50
 -10   2   3   21.10    1.60
 -10  -2  -3   19.70    1.50
  10   2  -3   22.60    1.60
 -10  -2  -3   19.40    1.50
 -10  -2   3   22.60    1.60
 -10   2  -3   19.30    1.50
 -10   2  -3   18.60    1.50
 -10   2  -3   19.60    1.60
  10  -2  -3   19.30    1.60
 -10  -2   3   18.20    1.60
  10  -2  -3   21.00    1.50
  10   2  -4   14.80    1.40
 -10   2   4   15.50    1.40
 -10  -2  -4   15.80    1.30
  10   2  -4   17.30    1.40
  10  -2  -4   14.50    1.30
  10  -2  -4   15.60    1.40
 -10   2  -4   16.80    1.40
 -10  -2   4   13.00    1.30
 -10   2   5    6.50    0.90
  10   2  -5   10.30    1.00
  10   2  -5    6.90    1.00
 -10  -2  -5    9.60    1.00
  10  -2  -5    8.30    0.90
 -10  -2   5    6.10    0.90
 -10   2  -5    8.60    1.00
  10  -2  -5    9.10    1.00
  10   2  -6   44.30    3.20
  10   2  -6   45.60    3.10
 -10   2   6   46.70    3.20
 -10  -2  -6   46.90    3.10
  10  -2  -6   46.50    3.20
  10  -2  -6   44.10    3.10
 -10   2  -6   44.90    3.10
 -10  -2   6   51.89    3.30
 -10   2   7    2.00    0.50
 -10  -2  -7    2.40    0.50
  10   2  -7    2.20    0.50
  10  -2  -7    2.30    0.50
 -10  -2   7    2.50    0.50
 -10   2  -7    2.40    0.50
 -11   2   0    0.20    0.30
 -11  -2   0    0.50    0.30
 -11   2   0    0.00    0.30
 -11  -2   0    0.10    0.30
 -11   2   1   11.70    1.10
 -11  -2  -1   13.20    1.10
 -11   2   1   13.30    1.10
 -11   2  -1   12.90    1.10
 -11  -2   1   12.20    1.10
 -11  -2   1   13.30    1.20
 -11   2  -1   12.30    1.10
 -11  -2  -2   29.70    2.00
 -11   2   2   28.90    2.00
 -11   2   2   28.30    2.00
 -11  -2   2   27.50    2.00
  11  -2  -2   25.40    2.00
 -11  -2   2   30.20    2.10
 -11   2  -2   25.70    1.90
 -11   2  -2   28.10    2.00
  11   2  -3   87.09    5.50
 -11  -2  -3   88.69    5.50
 -11   2   3   84.39    5.50
 -11  -2   3   92.59    5.60
  11  -2  -3   87.29    5.50
 -11   2  -3   87.49    5.50
  11  -2  -3   79.99    5.50
 -11  -2   3   80.79    5.60
 -11   2  -3   90.59    5.50
  11   2  -4  129.09    8.10
  11   2  -4  129.29    8.00
 -11   2   4  132.39    8.00
 -11  -2  -4  130.89    7.90
  11  -2  -4  124.69    8.00
 -11   2  -4  127.99    8.00
  11  -2  -4  123.09    7.90
 -11  -2   4  120.89    8.00
  11   2  -5   43.40    3.10
 -11   2   5   38.40    3.00
  11   2  -5   44.30    3.00
 -11  -2  -5   43.90    3.00
 -11   2  -5   45.20    3.00
 -11  -2   5   46.00    3.10
  11  -2  -5   44.20    3.00
  11  -2  -5   44.00    3.00
  11   2  -6   56.19    3.80
 -11   2   6   63.19    3.90
  11   2  -6   51.69    3.70
 -11  -2  -6   55.89    3.80
 -11   2  -6   57.39    3.80
 -11  -2   6   67.39    3.90
  11  -2  -6   55.59    3.80
  11  -2  -6   56.29    3.80
 -11  -2   7    0.30    0.50
 -12   2   0  128.59    8.10
 -12   2   0  136.69    8.10
 -12  -2   0  126.29    8.00
 -12  -2  -1   13.10    1.20
 -12   2   1   14.80    1.20
 -12   2   1   14.80    1.20
 -12  -2   1   15.20    1.30
 -12   2  -1   13.70    1.10
 -12   2  -1    9.90    1.10
 -12  -2   1   13.80    1.20
 -12   2   2  155.48   10.00
 -12  -2  -2  171.78   10.00
 -12   2   2  169.88   10.00
 -12   2  -2  152.18    9.90
 -12   2  -2  167.78   10.00
  12  -2  -2  141.49   10.00
 -12  -2   2  169.78   10.10
 -12  -2   2  164.98   10.00
 -12   2   3   77.09    5.40
  12   2  -3   84.09    5.30
  12   2  -3   86.79    5.50
 -12  -2  -3   84.09    5.30
 -12  -2   3   92.29    5.50
  12  -2  -3   83.39    5.30
 -12   2  -3   86.09    5.30
  12  -2  -3   80.89    5.40
 -12  -2   3   79.99    5.40
  12   2  -4   23.10    1.90
 -12  -2  -4   22.20    1.80
 -12   2   4   21.20    1.80
  12   2  -4   24.90    1.80
  12  -2  -4   22.60    1.70
 -12   2  -4   21.20    1.80
 -12  -2   4   25.20    1.90
  12  -2  -4   22.80    1.80
  12   2  -5   27.30    2.10
 -12  -2  -5   27.20    2.00
  12   2  -5   26.40    2.10
 -12   2   5   29.70    2.10
 -12   2  -5   27.40    2.10
  12  -2  -5   28.10    2.00
 -12  -2   5   31.40    2.20
  12  -2  -5   26.60    2.10
 -12   2   6    1.60    0.50
 -12  -2  -6    0.50    0.40
  12   2  -6    1.60    0.40
  12   2  -6    1.20    0.40
 -12  -2   6    1.60    0.50
  12  -2  -6    0.80    0.40
 -12   2  -6    1.50    0.40
  12  -2  -6    1.30    0.40
 -13   2   0   -0.20    0.30
 -13  -2   0    0.20    0.40
 -13   2   0    0.20    0.30
 -13   2   1   77.59    4.70
 -13  -2  -1   59.99    4.60
 -13   2   1   74.69    4.70
 -13   2  -1   69.79    4.60
 -13  -2   1   74.59    4.80
 -13   2  -1   74.39    4.70
 -13  -2   1   71.39    4.60
 -13  -2  -2    5.30    0.80
 -13   2   2    6.20    0.80
 -13   2   2    4.30    0.70
 -13   2  -2    5.70    0.80
 -13   2  -2    7.50    0.80
 -13  -2   2    5.10    0.70
 -13  -2   2    5.00    0.80
  13   2  -3    9.10    1.10
 -13  -2  -3    9.90    1.00
 -13   2   3    8.60    1.00
  13  -2  -3    9.10    1.00
  13  -2  -3    9.30    1.10
 -13   2  -3   10.10    1.00
 -13  -2   3    9.40    1.10
 -13  -2   3    9.30    1.10
 -13   2   4   46.40    3.00
  13   2  -4   40.90    3.00
  13   2  -4   40.30    2.90
  13  -2  -4   39.10    2.90
  13  -2  -4   40.00    2.90
 -13  -2   4   47.30    3.00
 -13   2   5    0.00    0.40
  13   2  -5    0.30    0.40
  13   2  -5   -0.10    0.40
  13  -2  -5    0.40    0.40
 -13   2  -5    0.20    0.40
 -13  -2   5    0.50    0.40
  13  -2  -5   -0.20    0.40
 -13   2   6    1.80    0.50
  13   2  -6    2.50    0.50
 -13  -2   6    2.00    0.50
  13  -2  -6    1.30    0.60
 -14   2   0   61.89    3.80
 -14   2   0   62.79    3.90
 -14  -2   0   48.30    3.80
 -14  -2  -1   54.89    3.90
 -14   2   1   62.79    3.90
 -14   2   1   59.59    3.90
 -14   2  -1   52.59    3.90
 -14  -2   1   63.49    4.00
 -14   2  -1   57.89    3.80
 -14  -2   1   59.49    3.80
 -14   2   2    9.10    1.00
 -14   2   2    7.70    0.90
 -14  -2  -2    7.80    0.90
 -14   2  -2    6.80    0.90
 -14  -2   2    7.20    0.90
 -14  -2   2    8.30    1.00
 -14   2   3    0.30    0.40
  14   2  -3   -0.20    0.40
 -14  -2  -3   -0.10    0.40
 -14  -2   3    0.30    0.50
 -14  -2   3    0.20    0.40
 -14   2   4    3.70    0.70
  14   2  -4    3.80    0.70
  14  -2  -4    3.60    0.70
  14  -2  -4    3.30    0.60
 -14  -2   4    4.50    0.70
 -14   2   5   73.79    4.20
  14   2  -5   56.19    4.10
  14  -2  -5   56.39    4.10
 -14  -2   5   68.69    4.10
 -15   2   0    0.30    0.40
 -15   2   0    0.00    0.40
 -15  -2   0    0.20    0.40
 -15   2   1   28.40    2.00
 -15  -2  -1   26.90    2.10
 -15   2   1   27.50    2.10
 -15   2  -1   25.60    2.00
 -15  -2   1   27.80    2.20
 -15   2  -1   29.20    2.10
 -15   2   2   29.60    2.00
 -15   2   2   24.60    2.00
 -15  -2  -2   26.80    2.00
 -15  -2   2   27.00    2.10
 -15  -2   2   25.90    2.00
 -15   2  -2   26.30    2.00
 -15   2   3    2.20    0.60
  15   2  -3    3.00    0.70
 -15  -2  -3    2.20    0.50
 -15  -2   3    2.10    0.60
 -15  -2   3    2.70    0.60
  15   2  -4    4.60    0.80
 -15   2   4    6.20    0.80
 -15  -2   4    6.40    0.80
 -15   2   5    0.50    0.40
 -15  -2   5    0.90    0.40
 -16   2   0   59.39    4.10
 -16   2   0   66.59    4.20
 -16  -2   0   63.09    4.20
 -16  -2  -1    0.60    0.50
 -16   2   1    1.00    0.40
 -16   2   1    0.80    0.50
 -16  -2   1    1.10    0.50
 -16   2  -1    1.20    0.50
 -16   2   2   13.40    1.40
 -16  -2  -2   16.90    1.40
 -16   2   2   16.30    1.40
 -16  -2   2   17.20    1.50
 -16   2  -2   14.70    1.40
 -16  -2   2   17.70    1.40
 -16   2   3   15.20    1.30
 -16  -2   3   15.20    1.30
 -16   2   4   12.00    1.00
 -16  -2   4    9.90    1.00
 -17   2   0   -0.20    0.40
 -17  -2   0    0.10    0.40
 -17   2   1    0.30    0.40
 -17   2   1    0.20    0.40
 -17  -2  -1    0.70    0.40
 -17  -2   1    0.30    0.40
 -17   2  -1   -0.10    0.40
 -17   2   2   18.40    1.40
 -17  -2  -2   16.30    1.40
 -17  -2   2   18.70    1.50
 -17   2   3    0.30    0.40
   0  -3   0   -7.60    0.10
   0   3   0   -7.50    0.10
   0  -3   0   -7.50    0.10
   0   3   0   -7.30    0.20
   0   3  -1    0.20    0.30
   0   3  -1    0.40    0.30
   0  -3   1    0.00    0.20
   0   3  -2    3.90    0.90
   0  -3   2    6.30    1.10
   0   3   2    6.60    1.10
   0   3  -2    7.10    1.10
   0  -3   3    4.10    1.20
   0   3   3    0.20    0.60
   0  -3  -3    0.40    0.50
   0   3  -4  187.58   11.90
   0  -3  -4  228.28   13.10
   0  -3  -4  188.58   11.90
   0  -3   4  187.18   13.80
   0  -3  -4  199.38   12.00
   0   3  -4  197.68   13.30
   0   3   4  195.18   11.90
   0  -3  -4  186.98   11.90
   0  -3  -5   -0.10    0.30
   0   3  -5    0.30    0.30
   0   3   5    0.70    0.30
   0  -3  -5    0.10    0.30
   0   3  -5    0.30    0.30
   0   3  -5    0.90    0.40
   0   3  -5   -0.20    1.10
   0  -3  -5    0.20    0.30
   0  -3   6   34.20    2.50
   0  -3  -6   37.90    2.60
   0   3  -6   34.50    2.40
   0   3  -6   36.80    2.50
   0  -3  -6   36.10    2.50
   0  -3   7    0.00    0.30
   0  -3  -7    0.30    0.50
   0  -3  -7   -0.20    0.30
   0   3   7    0.50    0.40
   0  -3  -8    2.60    0.60
   0   3   8    2.10    0.50
   0  -3   8    3.00    0.50
  -1   3   0  309.57   18.00
   1   3   0  332.77   18.00
   1  -3   0  302.97   17.90
  -1   3   0  292.47   17.90
   1  -3   0  275.47   17.90
   1   3   0  258.47   17.70
  -1  -3   0  278.27   17.80
   1   3  -1    0.00    0.20
   1  -3   1    0.10    0.30
  -1  -3  -1    0.50    0.20
  -1   3   1    0.10    0.20
   1   3  -1    0.30    0.30
  -1   3  -1    0.40    0.30
   1  -3  -1    0.50    0.20
  -1  -3   1    0.20    0.30
  -1   3  -1    0.30    0.30
  -1   3   2  138.09    9.30
   1  -3   2  144.89    9.40
  -1  -3  -2  129.49    9.00
   1   3  -2  151.58    9.40
  -1  -3   2  131.89    9.40
  -1   3  -2  158.48    9.30
   1   3   2  150.98    9.30
   1  -3   3  152.18   10.30
  -1  -3  -3  150.78    9.70
  -1   3   3  150.68   10.20
   1   3  -3  140.19    9.90
  -1  -3   3  154.98   10.40
  -1   3  -3  138.29    9.90
   1  -3  -3  149.39    9.70
   1   3   3  156.48   10.10
  -1   3   4    0.40    1.10
   1  -3   4    1.10    1.30
  -1   3   4    0.50    0.30
  -1  -3  -4    0.30    0.30
   1   3  -4    0.70    0.30
  -1  -3  -4    1.30    0.80
   1   3  -4    0.90    0.90
  -1  -3  -4    3.00    0.50
   1  -3  -4    1.00    0.30
  -1   3  -4    0.50    0.30
   1   3   4    0.10    1.00
   1  -3  -4    0.90    0.80
   1  -3  -4    1.00    0.30
  -1   3  -4    0.50    0.90
   1   3   4    1.00    0.30
   1  -3  -4    0.80    0.40
  -1   3  -4    0.20    0.30
  -1  -3   4    5.30    1.90
  -1   3   5    1.70    0.40
   1   3  -5    0.90    0.40
  -1  -3  -5    0.80    0.40
   1   3  -5    1.80    1.30
   1   3  -5    1.50    0.40
   1   3  -5    1.40    0.50
  -1  -3  -5    1.30    0.40
   1  -3  -5    1.00    0.30
   1  -3  -5    0.50    0.30
   1   3   5    1.80    0.40
  -1   3  -5    1.50    0.40
   1  -3  -5    1.30    0.40
   1   3  -6   43.80    3.30
   1   3  -6   49.40    3.40
  -1  -3  -6   49.90    3.30
  -1  -3  -6   51.39    3.40
  -1   3   6   51.89    3.30
   1  -3  -6   51.09    3.30
   1   3   6   48.20    3.30
  -1  -3   6   54.29    3.40
   1  -3  -6   56.99    3.50
  -1   3  -6   46.40    3.30
  -1  -3  -7    5.30    0.70
  -1   3   7    6.60    0.80
   1  -3   7    6.40    0.80
  -1  -3  -7    6.80    0.90
   1   3  -7    5.90    1.00
   1  -3  -7    6.20    0.90
   1   3   7    7.40    0.80
  -1   3  -7    6.30    0.70
  -1  -3   7    6.90    0.80
   1  -3   8   16.20    1.20
  -1   3   8   13.20    1.20
  -1  -3   8   13.80    1.30
   1   3   8   13.40    1.20
   1  -3  -8   13.50    1.30
  -2   3   0   -1.20    0.20
   2  -3   0   -1.40    0.20
   2   3   0   -1.40    0.10
   2  -3   0   -1.10    0.20
  -2   3   0   -1.30    0.20
   2   3  -1 4582.14  257.87
   2  -3   1 4256.77  257.77
  -2   3   1 4044.70  257.67
  -2   3  -1 4678.43  257.67
  -2  -3   1 4010.40  257.77
  -2  -3  -2   42.60    3.10
  -2   3   2   45.40    3.50
   2   3   2   44.00    3.30
  -2  -3   2   42.10    3.60
  -2   3  -2   48.80    3.30
   2  -3   3    1.20    0.80
  -2   3   3    0.40    0.60
   2   3  -3    1.10    0.60
  -2  -3  -3    1.10    0.50
  -2  -3   3    1.30    0.90
   2   3   3    2.20    0.90
  -2   3  -3    0.70    0.60
   2   3  -4  213.68   14.00
   2   3  -4  210.78   12.80
   2   3  -4  216.08   12.80
  -2  -3  -4  204.28   12.80
  -2  -3  -4  215.28   12.70
  -2   3   4  189.88   14.40
  -2   3   4  214.08   12.70
   2  -3   4  179.98   14.40
   2   3   4  187.88   14.20
  -2  -3   4  198.78   14.80
  -2   3  -4  203.78   14.20
   2  -3  -4  238.38   13.90
   2   3   4  218.38   12.70
   2  -3  -4  214.98   12.70
   2  -3  -4  224.38   12.80
  -2   3  -4  213.48   12.70
  -2  -3  -5  232.68   14.30
   2   3  -5  229.28   14.30
  -2   3   5  245.78   14.20
   2   3  -5  215.08   15.80
   2   3  -5  225.28   14.20
  -2  -3  -5  241.38   14.20
  -2   3  -5  213.48   16.00
   2  -3  -5  234.88   15.70
  -2   3  -5  238.78   14.20
   2  -3  -5  251.27   14.30
   2  -3  -5  233.88   14.20
   2   3   5  251.07   14.20
   2  -3  -5  223.48   14.20
  -2  -3  -6   13.30    1.20
  -2   3   6   11.80    1.10
   2   3  -6   12.00    1.20
   2   3  -6   11.50    1.10
  -2  -3  -6   12.90    1.10
  -2   3  -6   12.70    1.10
  -2  -3   6   12.30    1.10
   2  -3  -6   11.00    1.10
   2   3   6    9.20    1.00
   2  -3  -6   12.80    1.20
  -2   3   7    0.40    0.40
  -2  -3  -7   -0.30    0.40
  -2  -3  -7    0.10    0.40
   2  -3   7    0.40    0.40
   2   3  -7    0.10    0.40
  -2  -3   7    0.20    0.40
   2   3   7    1.00    0.40
  -2   3  -7    0.30    0.40
   2  -3  -7    0.80    0.50
  -2  -3  -8    1.00    0.40
   2  -3   8    2.30    0.40
  -2   3   8    1.30    0.50
  -2  -3   8    1.90    0.50
   2  -3  -8    1.70    0.50
   2   3   8    1.40    0.40
  -2  -3   8    1.10    0.40
   3   3   0   47.00    2.80
  -3   3   0   39.10    2.70
  -3   3   0   33.90    2.90
  -3   3   0   43.40    2.90
   3  -3   0   43.20    2.90
   3   3  -1 3968.00  223.98
  -3   3   1 3852.81  223.78
   3  -3   1 3812.72  223.88
  -3   3  -1 4022.00  223.58
  -3  -3   1 3624.44  223.88
   3   3   1 3189.08  223.48
  -3  -3  -2 1170.98   68.79
   3  -3   2 1151.28   69.29
  -3   3   2 1138.59   69.29
  -3   3  -2 1276.57   68.89
  -3  -3   2 1109.29   69.39
  -3   3  -2 1021.00   69.29
   3   3   2 1158.98   68.99
  -3  -3  -3   30.90    2.40
  -3   3   3   26.50    2.90
   3  -3   3   29.00    2.90
   3   3  -3   26.80    2.60
   3   3  -3   25.60    1.90
  -3  -3   3   26.60    3.10
  -3   3  -3   30.00    2.50
   3  -3  -3   27.10    1.80
  -3   3  -3   26.40    2.80
   3   3   3   29.00    2.70
   3   3  -4   54.29    3.40
   3   3  -4   55.89    3.50
   3  -3   4   46.00    5.00
  -3   3   4   54.29    3.30
  -3   3   4   41.50    4.90
   3   3  -4   53.29    4.50
  -3  -3  -4   55.89    3.40
   3  -3  -4   55.99    3.40
  -3   3  -4   55.69    3.40
  -3  -3   4   45.00    3.30
   3  -3  -4   56.29    3.40
   3   3   4   43.70    4.80
   3   3   4   53.39    3.30
  -3   3  -4   49.80    4.70
  -3  -3   4   53.99    5.50
   3  -3  -4   57.19    4.40
  -3  -3  -5   40.70    2.70
   3   3  -5   38.50    2.70
  -3   3   5   40.80    2.70
  -3  -3  -5   40.40    2.70
   3   3  -5   41.80    2.80
  -3   3  -5   35.70    4.40
  -3   3  -5   40.40    2.70
  -3  -3   5   38.90    2.70
   3  -3  -5   41.80    2.80
   3  -3  -5   39.20    4.10
   3   3   5   39.90    2.60
   3  -3  -5   41.20    2.70
   3   3  -6   12.20    1.20
  -3  -3  -6   12.90    1.10
  -3  -3  -6   13.00    1.30
   3   3  -6   13.70    1.30
  -3   3   6   11.60    1.10
   3   3   6   17.00    1.20
  -3   3  -6   12.10    1.20
  -3  -3   6   13.90    1.20
   3  -3  -6   12.80    1.20
   3  -3  -6   12.60    1.20
  -3  -3  -7   24.10    1.90
   3  -3   7   26.30    1.80
  -3   3   7   24.20    1.80
  -3  -3  -7   24.40    1.80
  -3   3   7   22.90    2.00
   3   3  -7   20.90    1.80
   3   3  -7   23.20    1.80
   3   3   7   24.20    1.80
  -3  -3   7   23.60    1.80
  -3   3  -7   25.40    1.80
   3  -3  -7   24.40    1.90
  -3  -3  -8    0.60    0.30
   3  -3   8    0.60    0.30
   3  -3  -8    0.60    0.40
   3   3   8    0.40    0.30
  -3   3  -8    0.70    0.40
  -3  -3   8    0.60    0.40
  -4   3   0   -0.20    0.20
   4   3   0   -0.30    0.20
   4  -3   0   -0.20    0.20
  -4   3   1 1723.93  103.79
   4   3  -1 1934.31  103.99
  -4  -3  -1 1696.43  103.59
   4  -3   1 1775.82  103.89
   4   3   1 1678.63  103.69
  -4  -3   1 1582.24  103.59
   4  -3   2   35.70    3.00
  -4  -3  -2   40.40    2.70
  -4   3   2   36.30    3.00
   4   3   2   38.30    2.80
  -4  -3   2   32.40    3.10
  -4   3  -2   29.70    2.90
   4   3  -3  146.79    9.70
  -4   3   3  159.78   11.00
   4  -3   3  161.38   10.90
   4   3   3  160.88   10.60
  -4   3  -3  160.58   10.90
  -4  -3   3  160.88   11.20
   4  -3  -3  165.08    9.70
  -4  -3  -4   19.00    1.40
   4   3  -4   24.70    1.50
   4   3  -4   19.10    2.40
  -4   3   4   19.20    1.40
  -4   3   4   15.80    3.00
   4   3  -4   20.20    1.40
  -4  -3  -4   19.80    1.50
   4  -3   4   15.10    2.80
   4  -3  -4   20.20    1.40
   4   3   4   18.20    1.30
   4  -3  -4   19.50    1.40
  -4   3  -4   19.30    1.40
  -4  -3   4   17.00    3.20
  -4   3  -4   16.60    2.60
   4   3   4   18.10    2.90
  -4  -3   4   16.30    1.40
  -4  -3   4   18.30    1.30
  -4   3   5   74.99    4.90
  -4  -3  -5   81.19    5.10
   4   3  -5   82.79    5.00
   4   3  -5   78.49    5.10
  -4  -3  -5   81.49    5.00
  -4  -3   5   69.99    5.20
   4   3   5   77.89    4.90
  -4   3  -5   78.89    5.00
   4  -3  -5   80.29    5.10
  -4   3  -5   70.29    7.90
  -4  -3   5   79.59    5.00
   4  -3  -5   80.79    5.00
  -4   3   6   10.10    1.00
  -4  -3  -6   11.40    1.20
  -4   3   6   10.50    1.00
   4   3  -6   10.30    1.10
  -4  -3  -6    9.60    1.00
   4   3  -6   10.80    1.10
   4   3   6   10.10    0.90
   4  -3  -6    9.30    1.00
  -4  -3   6   10.10    1.00
   4  -3  -6    8.70    1.00
  -4   3  -6   10.50    1.00
  -4  -3  -7    1.50    0.50
  -4   3   7    1.60    0.50
   4  -3   7    2.00    0.50
  -4   3   7    1.30    0.50
   4   3  -7    1.80    0.50
   4   3  -7    1.70    0.50
  -4  -3   7    2.80    0.60
   4  -3  -7    1.70    0.50
   4   3   7    1.30    0.40
   4  -3  -7    1.30    0.50
  -4   3  -7    1.50    0.50
  -4  -3  -8   15.10    1.10
   4  -3   8   14.30    1.10
   4   3  -8   12.50    1.20
  -4   3  -8   11.50    1.10
  -4  -3   8   14.40    1.20
   4   3   8   11.90    1.10
   4  -3  -8   14.00    1.20
  -5   3   0  322.57   22.70
   5  -3   0  378.66   22.50
   5   3   0  404.76   22.40
  -5   3   1    2.90    0.60
  -5  -3  -1    4.00    0.60
   5  -3   1    3.50    0.80
   5   3  -1    3.30    0.80
  -5   3   1    3.80    0.70
  -5   3  -1    2.60    0.80
   5  -3   2  573.24   35.10
  -5   3   2  547.55   35.10
  -5  -3  -2  630.24   34.70
  -5   3  -2  564.84   35.20
   5   3   2  563.34   34.70
  -5  -3   2  551.04   35.10
   5   3  -3  131.39    7.60
  -5   3   3  125.29    9.00
  -5  -3  -3  123.69    7.60
   5  -3   3  125.09    8.80
  -5   3  -3  128.59    7.60
  -5  -3   3  104.69    7.60
  -5   3  -3  123.79    8.80
   5   3   3  130.09    8.60
  -5  -3   3  109.49    7.60
  -5  -3   3  126.59    9.10
   5  -3  -3  132.69    7.60
  -5   3  -3  123.59    7.60
  -5  -3  -4    7.90    0.80
   5  -3   4    5.80    2.10
  -5  -3  -4    8.10    0.90
   5   3  -4    9.40    0.90
  -5   3   4    8.50    0.80
   5   3  -4    9.60    0.90
   5   3  -4   10.10    1.80
   5  -3  -4    8.60    0.80
  -5  -3   4    6.60    2.40
  -5  -3   4    8.90    0.80
  -5   3  -4    8.30    0.80
   5  -3  -4    9.20    0.80
   5   3   4    6.50    2.00
   5   3   4    8.40    0.70
  -5   3  -4    7.10    1.80
  -5   3  -4    7.90    0.80
  -5   3   5    6.80    0.80
   5   3  -5    6.70    0.90
  -5   3   5    8.40    0.80
   5   3  -5    8.60    0.90
  -5  -3  -5    7.10    0.80
  -5  -3  -5    7.50    0.90
  -5  -3   5    5.70    0.70
   5  -3  -5    5.40    0.70
   5  -3  -5    8.70    0.90
  -5  -3   5    8.10    0.80
  -5   3  -5    7.70    0.90
   5   3   5    6.20    0.70
  -5   3   6   21.40    1.70
   5   3  -6   24.10    1.80
   5   3  -6   22.90    1.80
  -5  -3  -6   20.00    1.70
  -5   3   6   21.90    1.70
  -5   3  -6   22.80    1.70
   5  -3  -6   21.30    1.70
   5   3   6   22.20    1.60
   5   3  -7   45.90    3.10
  -5  -3  -7   46.10    3.10
   5  -3   7   44.40    3.00
   5   3  -7   44.30    3.10
  -5   3   7   44.90    3.10
   5  -3  -7   47.20    3.10
  -5   3  -7   47.30    3.10
  -5  -3   7   47.40    3.10
   5   3   7   42.70    3.00
   5  -3  -7   41.50    3.00
  -5  -3  -8   12.50    1.00
   5   3  -8   12.10    1.10
  -5  -3   8   13.30    1.10
  -5   3  -8   10.80    1.00
   5  -3  -8   12.80    1.10
  -6   3   0    0.00    0.40
   6  -3   0   -0.30    0.30
   6   3   0   -0.30    0.40
  -6  -3  -1    6.00    0.90
   6   3  -1    8.00    1.20
   6  -3   1    5.10    1.00
  -6   3  -1    4.80    1.10
  -6  -3  -2   85.19    5.10
   6   3  -2   64.19    4.60
   6  -3   2   76.19    5.40
  -6   3   2   77.39    5.40
  -6  -3   2   63.29    4.50
  -6   3  -2   69.29    4.50
   6   3   2   78.99    5.00
   6  -3  -2   69.09    4.50
  -6  -3   2   69.79    5.10
  -6   3  -2   75.49    5.50
  -6   3   3  314.87   21.70
  -6  -3  -3  347.07   20.40
   6   3  -3  364.26   20.50
  -6   3   3  324.57   20.40
   6  -3   3  314.87   21.70
  -6  -3   3  303.47   20.40
   6  -3  -3  338.87   20.50
   6  -3  -3  377.76   20.40
  -6   3  -3  353.66   20.40
  -6   3  -3  332.77   21.70
  -6  -3   3  329.17   20.40
  -6   3  -3  360.26   20.50
  -6  -3  -4   39.50    2.60
  -6  -3  -4   38.60    2.50
  -6   3   4   37.00    2.50
   6   3  -4   36.00    3.70
   6   3  -4   40.60    2.60
   6   3  -4   40.20    2.60
  -6   3  -4   37.20    2.50
   6  -3  -4   38.30    2.60
  -6   3  -4   39.30    2.50
  -6   3  -4   29.60    3.70
   6   3   4   35.00    2.40
  -6  -3   4   36.30    2.50
   6  -3  -4   39.20    2.50
  -6   3   5   73.99    4.50
   6   3  -5   79.09    4.60
  -6  -3  -5   70.49    4.50
   6  -3  -5   61.09    4.50
  -6  -3   5   67.49    4.50
   6  -3  -5   72.39    4.60
  -6   3  -5   65.29    4.50
   6   3   5   69.39    4.40
  -6   3   6    0.40    0.40
  -6  -3  -6   -0.20    0.30
   6   3  -6    0.70    0.40
   6   3  -6    0.60    0.40
   6  -3  -6    0.40    0.40
   6  -3  -6    0.50    0.40
  -6   3  -6    0.30    0.40
   6   3   6    0.10    0.30
  -6   3   7   11.50    1.20
   6   3  -7   13.20    1.20
   6  -3   7   12.70    1.10
  -6  -3  -7   12.70    1.20
   6   3  -7   12.00    1.20
  -6   3  -7   12.80    1.20
  -6  -3   7   15.60    1.30
   6   3   7   13.00    1.10
   6  -3  -7   13.00    1.20
   6  -3  -7   12.60    1.20
  -6  -3  -8    0.30    0.30
   6  -3  -8    0.30    0.30
  -6  -3   8    0.50    0.40
  -7   3   0   63.79    4.40
  -7  -3   0   50.59    3.50
  -7   3   0   50.49    3.40
  -7  -3  -1  528.55   34.60
   7  -3   1  627.54   35.20
  -7   3  -1  553.34   34.60
  -7  -3   1  537.55   34.60
  -7   3  -1  640.04   35.60
   7   3  -2  139.89    8.70
  -7   3   2  125.49    8.80
  -7  -3  -2  141.19    8.80
  -7   3  -2  162.48   10.00
  -7  -3   2  141.39    8.80
   7  -3  -2  148.09    8.70
  -7   3  -2  149.49    8.80
  -7  -3   2  141.49    8.80
  -7  -3  -3  213.78   14.00
   7   3  -3  253.67   14.10
  -7   3   3  222.18   14.00
  -7  -3  -3  233.38   14.00
  -7  -3  -3  239.48   14.10
  -7   3  -3  248.18   14.10
  -7   3  -3  217.78   15.30
  -7   3  -3  235.38   14.00
  -7   3  -3  222.48   14.00
   7  -3  -3  249.48   14.00
  -7  -3   3  224.98   14.00
   7  -3  -3  231.68   14.10
  -7  -3   3  212.08   14.10
  -7   3  -3  235.58   14.00
  -7   3   4   20.80    1.60
   7   3  -4   24.00    1.70
   7   3  -4   23.50    1.60
  -7  -3  -4   22.20    1.60
   7   3   4   19.50    1.40
  -7  -3   4   20.20    1.60
  -7   3  -4   20.60    1.50
   7  -3  -4   21.50    1.60
  -7   3  -4   21.60    1.60
   7  -3  -4   21.10    1.60
  -7   3  -4   15.10    2.70
   7   3  -5    7.70    0.90
   7   3  -5    5.90    0.90
  -7  -3  -5    5.60    0.80
  -7   3   5    8.60    0.90
  -7  -3   5    6.80    0.80
  -7   3  -5    6.50    0.80
   7   3   5    6.80    0.70
   7  -3  -5    5.60    0.80
   7   3  -6    2.30    0.50
  -7  -3  -6    1.70    0.50
   7   3  -6    1.90    0.60
  -7   3   6    2.00    0.50
   7  -3  -6    2.20    0.50
   7   3   6    2.50    0.50
  -7  -3   6    1.80    0.50
   7  -3  -6    1.50    0.50
  -7   3  -6    1.50    0.50
  -7   3   7    1.70    0.50
  -7  -3  -7    0.80    0.40
   7   3  -7    1.60    0.50
   7  -3   7    1.10    0.40
   7   3  -7    1.10    0.50
   7   3   7    1.40    0.40
   7  -3  -7    1.00    0.40
   7  -3  -7    0.90    0.40
  -7   3  -7    1.10    0.40
  -7  -3   7    1.80    0.50
  -8  -3   0   -0.20    0.20
  -8   3   0    0.40    0.60
  -8   3   0    0.00    0.20
  -8   3   1  123.29    7.80
  -8  -3  -1  124.19    7.80
  -8   3  -1  137.89    8.90
   8  -3  -1  119.89    7.80
  -8   3  -1  129.29    7.80
  -8  -3   1  128.39    7.80
  -8  -3   1  125.29    7.80
   8   3  -2    2.30    0.40
  -8   3   2    2.60    0.40
  -8  -3  -2    2.80    0.40
  -8   3   2    3.40    0.50
  -8  -3  -2    2.70    0.60
   8  -3  -2    4.20    0.60
   8  -3  -2    4.50    0.50
  -8  -3   2    2.80    0.50
  -8  -3   2    2.20    0.40
  -8   3  -2    3.00    0.50
  -8   3  -2    4.90    0.50
  -8   3  -2    3.10    0.50
  -8   3  -2    3.30    0.50
  -8  -3   2    2.70    0.40
  -8   3   3    5.50    0.70
  -8  -3  -3    5.70    0.60
  -8  -3  -3    4.30    0.60
   8   3  -3    5.30    0.60
  -8  -3   3    4.00    0.60
  -8   3  -3    4.60    0.60
  -8   3  -3    4.90    0.60
   8  -3  -3    4.60    0.60
  -8  -3   3    5.20    0.60
  -8   3  -3    4.40    1.40
  -8  -3   3    4.50    0.60
  -8   3  -3    5.10    0.60
   8  -3  -3    4.80    0.60
  -8  -3  -4   18.10    1.40
  -8   3   4   17.40    1.40
   8   3  -4   17.80    1.40
   8   3  -4   17.30    1.50
   8  -3  -4   15.70    1.40
  -8  -3   4   21.20    1.50
  -8  -3   4   15.90    1.40
  -8   3  -4   16.40    1.40
   8  -3  -4   16.40    1.40
  -8   3  -4   17.90    1.40
  -8   3   5   53.19    3.30
  -8  -3  -5   50.29    3.20
   8   3  -5   50.49    3.30
   8  -3  -5   48.00    3.30
   8  -3  -5   47.80    3.20
  -8   3  -5   50.89    3.30
  -8  -3   5   46.50    3.20
  -8  -3   5   37.80    3.20
   8   3  -6   15.30    1.30
  -8  -3  -6   16.30    1.30
  -8   3   6   17.10    1.40
   8   3  -6   14.10    1.40
   8  -3   6   13.60    1.20
   8  -3  -6   12.40    1.30
  -8  -3   6   14.40    1.40
   8  -3  -6   15.40    1.30
  -8   3  -6   14.90    1.30
   8   3   6   14.80    1.20
   8  -3   7   21.80    1.70
  -8  -3  -7   26.30    1.80
   8   3  -7   24.80    1.80
   8   3  -7   22.00    1.80
  -8   3   7   24.40    1.80
  -8   3  -7   24.60    1.80
  -8  -3   7   27.10    1.90
   8  -3  -7   23.40    1.80
   8  -3  -7   24.30    1.80
   8   3   7   21.80    1.70
  -9   3   0   69.29    4.50
  -9   3   0   74.99    4.60
  -9   3   1  146.99    9.20
  -9   3   1  156.28    9.30
  -9  -3  -1  159.18    9.30
  -9  -3   1  149.79    9.20
  -9   3  -1  157.88   10.50
  -9  -3   1  157.48    9.40
  -9   3  -1  146.09    9.20
  -9  -3   1  128.59    9.20
  -9   3  -1  162.08    9.30
  -9  -3  -2    0.40    0.30
  -9   3   2    1.20    0.30
   9   3  -2    0.60    0.30
  -9   3   2    1.00    0.30
   9  -3  -2    0.00    0.40
  -9  -3   2    0.30    0.30
  -9  -3   2    0.90    0.40
  -9   3  -2    0.50    0.80
  -9   3  -2    0.40    0.20
  -9  -3   2    1.30    0.40
   9  -3  -2    0.70    0.30
  -9   3  -2    0.20    0.30
  -9   3  -2    1.00    0.40
   9   3  -3   30.80    2.00
  -9  -3  -3   29.40    2.00
  -9   3   3   30.30    2.00
  -9  -3  -3   29.80    1.90
  -9   3  -3   28.30    2.00
   9  -3  -3   29.40    2.00
  -9  -3   3   25.90    2.00
  -9  -3   3   26.20    2.00
  -9   3  -3   21.50    3.00
  -9  -3   3   30.00    2.00
  -9   3  -3   28.60    2.00
   9  -3  -3   27.60    2.00
  -9   3  -3   26.60    2.00
  -9  -3  -4    0.60    0.40
  -9   3   4    0.90    0.40
   9   3  -4    0.40    0.40
   9   3  -4    1.00    0.50
  -9  -3   4    0.80    0.40
  -9  -3   4    0.10    0.30
  -9   3  -4    0.50    0.40
   9  -3  -4    0.30    0.40
   9  -3  -4   -0.10    0.30
  -9   3  -4    0.80    0.50
  -9  -3  -5   13.80    1.20
   9   3  -5   14.20    1.30
   9   3  -5   12.00    1.30
  -9   3   5   14.60    1.30
  -9   3  -5   12.50    1.20
   9  -3  -5   13.60    1.30
   9  -3  -5   15.60    1.20
  -9  -3   5   11.00    1.30
   9   3  -6   11.90    1.20
  -9  -3  -6   12.70    1.10
  -9   3   6   12.80    1.20
   9   3  -6   11.90    1.20
   9  -3  -6   12.50    1.20
   9  -3  -6   11.50    1.20
  -9  -3   6   13.00    1.30
  -9   3  -6   12.80    1.20
  -9  -3  -7    2.80    0.50
   9   3  -7    2.10    0.50
  -9   3   7    2.60    0.50
   9   3  -7    2.70    0.60
  -9   3  -7    2.40    0.50
   9  -3  -7    2.80    0.50
   9  -3  -7    1.90    0.40
  -9  -3   7    2.50    0.50
 -10   3   0    0.10    0.30
 -10   3   0   -0.10    0.20
 -10  -3   0    0.30    0.30
 -10   3   1    1.40    0.40
 -10   3   1    1.70    0.40
 -10  -3  -1    1.70    0.40
 -10  -3   1    2.50    0.40
 -10   3  -1    1.70    0.40
 -10  -3   1    1.60    0.40
 -10   3  -1    1.30    0.40
 -10   3  -1    1.50    1.00
  10   3  -2   17.70    1.50
 -10   3   2   19.60    1.50
 -10  -3  -2   22.40    1.50
 -10   3   2   21.10    1.50
 -10  -3   2   21.50    1.60
  10  -3  -2   18.10    1.50
 -10  -3   2   22.10    1.50
 -10   3  -2   19.30    1.50
 -10  -3   2   20.50    1.50
 -10   3  -2   22.90    1.50
 -10   3  -2   16.70    2.60
  10  -3  -2   19.30    1.40
 -10   3  -2   19.90    1.50
 -10   3   3  149.88    8.70
 -10  -3  -3  136.99    8.60
 -10  -3  -3  137.69    8.60
  10   3  -3  143.49    8.70
  10  -3  -3  148.09    8.60
 -10   3  -3  137.09    8.70
 -10   3  -3  131.29    8.60
  10  -3  -3  137.79    8.70
 -10  -3   3  142.69    8.70
 -10  -3   3  143.79    8.70
 -10  -3   3  130.99    8.70
 -10   3  -3  143.79    8.70
  10   3  -4    0.40    0.40
 -10   3   4    0.60    0.40
  10   3  -4    0.70    0.50
 -10  -3  -4    0.50    0.40
 -10   3  -4    0.40    0.40
 -10   3  -4    0.80    0.40
  10  -3  -4    0.40    0.40
  10  -3  -4    0.90    0.40
 -10  -3   4    0.80    0.50
 -10   3   5   27.50    2.10
  10   3  -5   28.50    2.10
  10   3  -5   25.70    2.10
 -10  -3  -5   28.80    2.10
 -10   3  -5   27.60    2.10
  10  -3  -5   28.00    2.00
 -10  -3   5   26.30    2.10
  10  -3  -5   28.10    2.10
 -10   3   6    8.60    1.00
  10   3  -6   10.50    1.10
 -10  -3  -6    9.60    1.00
  10   3  -6    8.10    0.90
 -10  -3   6   11.10    1.10
  10  -3  -6    9.10    1.00
  10  -3  -6    8.70    0.90
 -10   3  -6    7.60    0.90
 -10  -3  -7    3.40    0.50
  10   3  -7    3.90    0.60
 -10   3   7    4.70    0.60
 -10   3  -7    3.80    0.50
 -10  -3   7    4.30    0.60
  10  -3  -7    4.30    0.60
 -11  -3   0   13.70    1.20
 -11   3   0   13.20    1.20
 -11   3   0   13.60    1.10
 -11   3   1    3.90    0.60
 -11   3   1    3.10    0.50
 -11  -3  -1    3.40    0.60
 -11  -3   1    2.60    0.50
 -11  -3   1    3.30    0.60
 -11   3  -1    3.10    0.50
 -11   3  -1    3.80    0.60
 -11   3   2    3.80    0.60
 -11   3   2    3.50    0.60
 -11  -3  -2    2.60    0.50
 -11  -3   2    2.60    0.50
 -11   3  -2    3.30    0.50
  11  -3  -2    4.30    0.70
 -11   3  -2    2.50    0.50
  11  -3  -2    3.00    0.50
 -11  -3   2    3.40    0.60
  11   3  -3    0.50    0.40
 -11  -3  -3    0.70    0.40
 -11   3  -3    0.80    0.40
 -11   3  -3    0.50    0.30
 -11   3  -3    0.10    0.40
  11  -3  -3    0.70    0.40
  11  -3  -3    0.00    0.30
 -11  -3   3    0.40    0.40
 -11  -3   3    1.10    0.50
 -11   3   4    3.60    0.70
  11   3  -4    3.60    0.80
 -11  -3  -4    2.80    0.60
  11   3  -4    4.50    0.70
 -11  -3   4    3.40    0.70
  11  -3  -4    3.40    0.60
 -11   3  -4    3.90    0.70
  11  -3  -4    3.00    0.60
  11   3  -5   66.79    4.40
 -11   3   5   69.39    4.40
  11   3  -5   66.59    4.40
 -11  -3  -5   64.99    4.30
  11  -3  -5   61.89    4.30
  11  -3  -5   63.19    4.30
 -11   3  -5   66.49    4.40
 -11  -3   5   71.69    4.50
 -11  -3  -6    0.80    0.50
  11   3  -6    2.20    0.50
  11   3  -6    1.70    0.50
 -11   3   6    1.80    0.50
  11  -3  -6    1.60    0.50
 -11   3  -6    2.20    0.50
 -11  -3   6    0.80    0.50
  11  -3  -6    1.20    0.40
 -12   3   0   -0.10    0.30
 -12  -3   0   -0.10    0.30
 -12   3   0    0.50    0.30
 -12   3   1   50.09    3.30
 -12   3   1   49.00    3.20
 -12  -3  -1   42.30    3.20
 -12  -3   1   50.49    3.40
 -12  -3   1   49.00    3.20
 -12   3  -1   50.99    3.20
 -12   3   2    5.80    0.70
 -12   3   2    3.80    0.70
 -12  -3  -2    6.70    0.80
 -12   3  -2    5.10    0.70
 -12  -3   2    5.80    0.80
 -12   3  -2    4.00    0.60
 -12  -3   2    4.50    0.80
 -12  -3  -3   70.39    4.50
  12   3  -3   67.99    4.50
  12  -3  -3   71.99    4.50
 -12   3  -3   65.69    4.40
 -12  -3   3   73.39    4.60
  12  -3  -3   64.89    4.50
 -12  -3   3   71.09    4.60
 -12   3  -3   71.79    4.50
 -12   3   4    0.90    0.40
  12   3  -4    1.70    0.50
  12   3  -4    0.10    0.40
 -12   3  -4    2.40    0.60
 -12  -3   4    0.60    0.40
  12  -3  -4    1.40    0.50
  12  -3  -4    0.70    0.40
 -12  -3  -5    1.00    0.40
  12   3  -5    0.70    0.50
 -12   3   5    1.10    0.50
  12   3  -5    1.70    0.60
 -12  -3   5    1.60    0.50
  12  -3  -5    1.00    0.50
  12  -3  -5    0.80    0.40
 -12   3  -5    0.50    0.50
 -12   3   6    5.50    0.70
 -12  -3  -6    4.90    0.60
  12   3  -6    5.20    0.70
  12   3  -6    5.60    0.70
  12  -3  -6    5.60    0.70
  12  -3  -6    5.70    0.70
 -12   3  -6    4.50    0.70
 -12  -3   6    6.70    0.80
 -13   3   0   47.20    3.10
 -13   3   0   46.60    3.00
 -13  -3   0   39.40    3.10
 -13   3   1    4.20    0.60
 -13  -3  -1    4.60    0.70
 -13   3   1    2.90    0.60
 -13   3  -1    2.90    0.60
 -13  -3   1    2.30    0.60
 -13   3  -1    4.20    0.60
 -13  -3   1    3.40    0.60
 -13   3   2   90.99    6.00
 -13   3   2   96.79    6.00
 -13  -3  -2   96.39    6.00
 -13  -3   2   99.99    6.20
 -13   3  -2   92.39    6.00
 -13   3  -2   91.39    6.00
 -13  -3   2   95.69    6.00
 -13  -3  -3    0.80    0.40
  13   3  -3    1.90    0.60
 -13   3   3    0.90    0.40
  13  -3  -3    1.00    0.40
 -13  -3   3    1.40    0.50
 -13  -3   3    1.50    0.60
  13  -3  -3    2.70    0.60
 -13   3   4    1.60    0.50
  13   3  -4    1.50    0.50
  13   3  -4    1.30    0.50
  13  -3  -4    0.90    0.40
 -13  -3   4    1.80    0.50
  13  -3  -4    0.80    0.50
 -13   3   5   52.39    3.30
  13   3  -5   45.90    3.20
  13   3  -5   46.50    3.20
 -13  -3   5   55.99    3.30
  13  -3  -5   46.50    3.20
  13  -3  -5   47.40    3.20
 -13   3  -5   43.00    3.20
 -13   3   6    1.60    0.40
  13   3  -6    2.10    0.50
 -13  -3   6    2.20    0.50
 -14  -3   0    0.50    0.40
 -14   3   0   -0.30    0.30
 -14   3   0    1.00    0.40
 -14   3   1   65.59    4.20
 -14  -3  -1   61.79    4.30
 -14   3   1   64.89    4.30
 -14  -3   1   69.59    4.40
 -14   3  -1   61.59    4.20
 -14   3  -1   65.39    4.20
 -14  -3   1   62.89    4.20
 -14   3   2    0.90    0.50
 -14  -3  -2    1.30    0.40
 -14   3   2    1.20    0.50
 -14   3  -2    1.20    0.50
 -14  -3   2    2.30    0.60
 -14  -3   2    1.20    0.50
 -14   3  -2    0.70    0.50
 -14  -3  -3   83.69    5.60
 -14   3   3   96.59    5.70
  14   3  -3   84.39    5.70
 -14  -3   3   92.39    5.70
 -14  -3   3   84.09    5.70
  14   3  -4   39.90    3.00
 -14   3   4   50.59    3.00
  14  -3  -4   36.50    2.80
 -14  -3   4   47.60    3.00
 -14   3   5    4.60    0.60
  14   3  -5    3.20    0.60
 -14  -3   5    3.90    0.60
  14  -3  -5    3.20    0.60
 -15   3   0    4.90    0.70
 -15  -3   0    4.40    0.80
 -15   3   0    4.60    0.70
 -15   3   1    4.10    0.70
 -15  -3  -1    4.60    0.70
 -15   3   1    4.90    0.70
 -15  -3   1    5.00    0.80
 -15   3  -1    4.10    0.70
 -15   3  -1    5.20    0.70
 -15   3   2    2.40    0.60
 -15  -3  -2    2.60    0.60
 -15   3   2    2.80    0.50
  15   3  -2    2.20    0.70
 -15  -3   2    1.90    0.50
 -15  -3   2    3.50    0.70
 -15   3  -2    2.40    0.50
 -15  -3  -3   27.90    2.10
 -15   3   3   32.50    2.20
  15   3  -3   28.30    2.20
 -15  -3   3   27.60    2.20
 -15  -3   3   31.60    2.20
 -15   3   4    1.60    0.50
  15   3  -4    1.40    0.50
 -15  -3   4    2.40    0.50
 -15   3   5   17.80    1.40
 -16   3   0    0.50    0.40
 -16  -3   0    0.10    0.40
 -16   3   0   -0.20    0.40
 -16   3   1   61.29    3.90
 -16   3   1   57.59    3.90
 -16  -3  -1   62.59    4.00
 -16  -3   1   62.59    4.00
 -16   3  -1   59.79    4.00
 -16   3  -1   55.69    3.90
 -16   3   2    1.60    0.50
 -16  -3  -2    1.70    0.50
 -16   3   2    1.80    0.50
 -16  -3   2    1.30    0.50
 -16   3   3    9.80    1.00
  16   3  -3    9.00    1.10
 -16  -3   3    9.90    1.00
 -16  -3   3    9.30    1.20
 -16   3   4    1.80    0.40
 -16  -3   4    0.30    0.40
 -17   3   0   70.79    4.80
 -17   3   0   72.19    4.70
 -17  -3   0   79.99    4.80
 -17   3   1    8.20    0.90
 -17   3   1    7.60    0.90
 -17  -3  -1    9.20    1.00
 -17  -3   1    9.40    1.00
 -17   3  -1    6.50    0.80
 -17   3   2   46.60    2.80
 -17  -3  -2   38.30    2.80
 -17  -3   2   40.40    2.90
 -17   3   3   14.70    1.20
   0   4   0   50.19    3.10
   0  -4   0   38.90    3.10
   0   4   0   54.79    3.30
   0  -4   0   46.20    3.10
   0   4  -1    0.20    0.30
   0  -4   1    0.00    0.30
   0   4  -1    0.10    0.20
   0   4   2 4286.87  268.47
   0  -4   2 4694.53  268.77
   0  -4   3    1.90    1.00
   0   4   4    1.00    0.30
   0   4   4    0.60    1.10
   0  -4   4    0.00    1.20
   0  -4  -4    0.00    0.70
   0   4  -4    0.10    0.30
   0   4  -4    1.20    0.90
   0  -4  -4    0.00    0.30
   0  -4  -4    1.00    0.30
   0   4  -4   -0.10    0.30
   0  -4  -5    0.40    0.30
   0   4   5    0.00    0.20
   0  -4  -5    0.50    0.50
   0   4  -5    0.00    0.40
   0   4  -5    0.10    0.40
   0   4  -5    0.20    0.30
   0  -4  -5    0.40    0.30
   0   4  -5   -0.10    1.10
   0   4   6    1.00    0.40
   0  -4  -6    1.70    0.40
   0   4  -6    1.40    0.50
   0  -4  -6    2.00    0.60
   0  -4  -7   -0.10    0.30
   0  -4  -7    0.10    0.40
   0   4   7   -0.10    0.30
   0  -4   7    0.00    0.40
   0  -4  -8    0.40    0.40
   0   4   8    0.20    0.40
   0  -4   8    0.90    0.40
   1  -4   0    1.10    0.30
   1   4  -1   30.90    2.40
  -1   4  -1   30.70    2.30
   1  -4  -1   26.60    1.90
  -1  -4   1   24.00    2.20
  -1  -4  -2   49.40    3.40
   1   4  -2   44.50    3.70
   1  -4   2   55.09    4.10
  -1   4  -2   57.69    3.90
  -1  -4   2   49.60    4.00
   1   4   2   53.89    3.80
   1  -4   3  316.07   20.00
  -1  -4  -3  348.57   19.30
  -1   4   3  275.97   18.70
  -1   4   3  315.87   19.80
   1   4  -3  282.37   19.50
   1   4   3  325.17   19.70
  -1  -4   3  305.67   20.00
  -1   4  -3  305.57   19.60
  -1  -4  -4 1007.70   59.19
   1   4  -4  993.30   60.59
   1   4  -4 1016.30   59.19
  -1   4   4 1088.69   59.19
  -1   4   4  878.71   60.89
  -1  -4  -4 1024.80   59.19
   1  -4   4  930.61   61.09
  -1   4  -4  935.21   59.19
   1   4   4 1042.80   59.19
   1  -4  -4 1006.70   59.19
  -1   4  -4 1014.40   59.19
  -1   4  -4  950.90   60.59
   1  -4  -4  985.70   59.19
   1   4   4  915.31   60.79
   1  -4  -4 1089.79   59.29
  -1  -4   4  930.41   61.29
   1   4  -5    4.90    1.70
  -1  -4  -5    6.90    0.80
  -1   4   5    7.30    0.80
   1   4  -5    6.40    0.80
   1   4  -5    6.70    0.80
  -1  -4  -5    7.30    0.70
   1  -4  -5    8.30    0.80
  -1   4  -5    6.40    1.90
   1   4   5    6.80    0.70
   1  -4  -5    5.50    0.70
   1  -4  -5    7.20    0.80
  -1   4  -5    7.20    0.80
   1   4  -6   74.59    4.90
  -1  -4  -6   76.79    4.80
  -1  -4  -6   78.09    4.90
   1   4  -6   67.99    4.80
  -1   4   6   75.09    4.80
   1   4   6   75.29    4.80
  -1   4  -6   73.19    4.80
  -1  -4   6   79.89    4.90
   1  -4  -6   82.19    5.00
   1  -4  -6   72.89    4.80
  -1  -4  -7   20.50    1.60
   1  -4   7   25.20    1.70
  -1   4   7   23.80    1.70
  -1  -4  -7   22.00    1.80
  -1   4  -7   17.40    1.60
   1   4   7   22.70    1.70
   1  -4  -7   22.80    1.80
  -1  -4   7   24.40    1.70
  -1  -4  -8   82.99    5.50
  -1   4   8   85.19    5.50
   1  -4   8   93.89    5.50
  -1  -4   8   90.39    5.50
   1   4   8   85.39    5.50
   1  -4  -8   84.29    5.50
  -2   4   0  138.49    8.40
   2  -4   0  120.79    8.30
   2   4   0  135.79    8.30
   2   4  -1  124.89    7.40
   2  -4   1  108.19    7.30
  -2   4  -1  121.09    7.30
  -2  -4   1  101.19    7.30
  -2   4  -1  103.49    7.30
  -2   4   2  284.97   18.40
   2  -4   2  293.17   18.50
  -2  -4  -2  298.47   17.90
  -2   4  -2  320.77   18.30
  -2  -4   2  278.57   18.50
   2   4   2  283.47   18.20
  -2   4   3    0.10    0.60
  -2  -4  -3    1.50    0.60
   2  -4   3    0.70    0.80
  -2   4   3    0.60    0.20
   2   4  -3    1.20    0.60
  -2  -4   3    1.00    0.90
   2   4   3    1.60    0.30
  -2   4  -3    0.90    0.70
   2   4   3    0.90    0.60
   2  -4  -3    0.80    0.20
  -2  -4  -4   50.89    3.30
   2   4  -4   51.59    3.30
  -2   4   4   43.90    4.80
   2  -4   4   46.90    5.00
  -2  -4  -4   52.19    3.30
   2   4  -4   53.49    3.40
   2   4  -4   50.89    4.50
  -2   4   4   52.79    3.30
  -2   4  -4   48.90    4.60
  -2  -4   4   44.40    5.20
   2  -4  -4   49.50    3.30
   2   4   4   46.70    4.80
   2  -4  -4   60.39    4.40
   2   4   4   53.59    3.30
  -2   4  -4   50.69    3.30
   2  -4  -4   51.79    3.30
   2  -4  -4   55.39    3.40
   2   4  -5    2.40    0.50
  -2  -4  -5    2.70    0.50
   2   4  -5    1.80    0.50
  -2  -4  -5    1.50    0.40
  -2   4   5    1.70    0.40
   2   4   5    1.60    0.40
   2  -4  -5    1.80    0.40
  -2   4  -5    1.90    1.50
   2  -4  -5    1.90    0.40
   2  -4  -5    2.00    0.50
  -2   4  -5    1.80    0.40
  -2   4   6    0.80    0.40
  -2  -4  -6    0.80    0.40
  -2  -4  -6    1.20    0.50
   2   4  -6    1.60    0.50
   2   4  -6    0.00    0.40
  -2  -4   6    1.60    0.50
   2  -4  -6    1.20    0.50
   2  -4  -6    1.20    0.50
   2   4   6    0.70    0.40
  -2   4  -6    0.90    0.50
  -2  -4  -7    4.30    0.60
   2   4  -7    4.10    0.70
  -2  -4  -7    3.70    0.70
   2  -4   7    5.20    0.70
  -2   4   7    4.40    0.70
   2   4   7    3.50    0.60
  -2   4  -7    3.50    0.60
  -2  -4   7    4.60    0.70
   2  -4  -7    5.50    0.80
  -2   4   8   -0.30    0.40
   2  -4   8    0.30    0.30
  -2  -4  -8   -0.20    0.30
  -2  -4   8    0.60    0.50
   2   4   8    0.50    0.40
   2  -4  -8   -0.30    0.40
   3   4   0   -0.10    0.20
   3  -4   0    0.20    0.30
  -3   4   0   -0.40    0.30
   3   4   0    0.40    0.30
  -3   4   0   -0.20    0.20
  -3   4   1    9.40    1.10
   3  -4   1    9.70    1.20
   3   4  -1   10.90    1.30
   3   4   1   10.60    0.80
  -3   4  -1    9.10    1.10
  -3   4  -1   10.90    1.10
  -3  -4   1   11.00    1.20
  -3  -4  -2   16.50    1.20
   3  -4   2   14.40    1.70
  -3   4   2   13.90    1.60
   3   4   2   13.40    1.40
  -3   4  -2   14.60    1.50
  -3  -4   2   12.60    1.80
  -3   4  -2   12.90    1.70
   3  -4   3   43.00    3.80
   3   4  -3   42.10    3.40
   3   4  -3   40.50    2.60
  -3   4   3   36.70    2.50
  -3   4   3   37.50    3.70
   3   4   3   40.20    3.50
  -3  -4   3   36.50    3.80
  -3   4  -3   41.80    3.70
   3   4   3   41.70    2.50
   3  -4  -3   40.20    2.60
   3  -4   4   39.50    4.70
  -3  -4  -4   49.50    3.00
   3   4  -4   50.39    3.10
  -3   4   4   39.30    4.70
  -3  -4  -4   47.30    3.10
  -3   4   4   49.20    3.00
   3   4  -4   50.49    3.10
   3   4  -4   46.80    4.20
   3  -4  -4   51.79    3.10
  -3   4  -4   45.80    4.50
  -3  -4   4   42.30    5.00
  -3  -4   4   40.90    3.00
   3  -4  -4   48.50    3.00
   3   4   4   49.20    3.00
  -3   4  -4   49.30    3.10
   3   4   4   40.90    4.40
  -3  -4  -5   47.20    3.20
   3   4  -5   46.80    3.20
  -3  -4  -5   47.30    3.10
  -3   4   5   50.09    3.10
   3   4  -5   47.50    3.20
  -3   4  -5   48.10    3.10
   3  -4  -5   45.90    3.10
  -3   4  -5   40.90    5.70
   3  -4  -5   49.80    3.20
   3  -4  -5   44.80    4.60
   3   4   5   47.70    3.10
   3   4  -6    3.00    0.60
  -3  -4  -6    2.70    0.50
  -3  -4  -6    2.90    0.60
  -3   4   6    3.30    0.60
   3   4  -6    2.90    0.60
  -3   4   6    3.00    0.50
  -3  -4   6    3.10    0.60
  -3   4  -6    3.50    0.60
   3  -4  -6    2.90    0.60
   3   4   6    3.30    0.50
   3  -4  -6    2.70    0.50
  -3   4   7   40.90    2.80
  -3  -4  -7   40.10    2.80
   3   4  -7   39.10    2.80
   3   4  -7   36.10    2.80
  -3  -4  -7   40.70    2.90
   3  -4   7   42.90    2.80
   3   4   7   42.40    2.80
  -3   4  -7   40.20    2.80
   3  -4  -7   45.50    2.90
  -3  -4   7   42.90    2.80
  -3  -4  -8    0.30    0.30
   3  -4   8    0.10    0.30
   3   4   8    0.00    0.30
   3  -4  -8    0.20    0.40
  -3  -4   8   -0.10    0.30
   4   4   0  253.87   14.60
  -4   4   0  217.68   14.40
  -4   4   0  244.68   14.60
   4  -4   0  233.78   14.70
  -4   4   1 1017.20   61.79
   4  -4   1 1039.20   61.99
   4   4  -1 1096.29   62.09
  -4   4  -1 1077.49   61.39
  -4  -4   1  935.31   61.59
   4   4   1  993.60   61.59
  -4   4   2   92.19    6.70
   4  -4   2   98.99    6.90
  -4  -4  -2  109.09    6.30
  -4   4  -2  100.09    6.20
   4   4   2   96.59    6.50
  -4  -4   2   88.39    6.90
   4  -4   3  123.89    8.80
  -4   4   3  119.89    8.80
   4   4  -3  128.49    7.60
   4   4  -3  135.59    8.50
  -4   4   3  106.59    7.50
   4   4   3  129.79    8.60
   4  -4  -3  132.69    7.50
   4   4   3  111.49    7.40
  -4  -4   3  120.59    9.00
  -4   4  -3  122.99    8.80
   4   4  -4   49.00    4.30
  -4  -4  -4   49.70    3.10
  -4  -4  -4   49.70    3.10
  -4   4   4   46.50    3.00
   4   4  -4   50.39    3.20
   4   4  -4   49.30    3.10
   4  -4   4   38.70    4.80
   4  -4  -4   51.69    3.10
  -4  -4   4   43.70    3.10
  -4  -4   4   38.60    5.10
  -4   4  -4   49.70    3.10
   4  -4  -4   50.39    3.10
  -4   4  -4   46.20    3.10
   4   4   4   40.00    4.60
  -4   4  -4   42.70    4.50
   4   4   4   48.70    3.00
  -4   4   5    5.50    0.70
   4   4  -5    7.10    0.90
  -4  -4  -5    6.30    0.80
  -4  -4  -5    6.60    0.80
  -4   4   5    5.80    0.70
  -4   4  -5    7.40    0.80
  -4  -4   5    6.40    0.70
   4  -4  -5    7.00    0.80
   4  -4  -5    6.90    0.80
   4   4   5    6.50    0.70
  -4  -4   5    6.10    0.70
  -4  -4  -6   31.50    2.60
  -4   4   6   37.20    2.60
  -4  -4  -6   40.60    2.80
   4   4  -6   37.20    2.70
  -4   4   6   37.80    2.60
   4   4  -6   39.60    2.70
   4  -4  -6   36.60    2.70
  -4   4  -6   40.70    2.70
   4   4   6   38.50    2.60
   4  -4  -6   41.90    2.70
  -4  -4   6   42.10    2.70
   4  -4   7   11.40    1.10
   4   4  -7   12.30    1.20
  -4  -4  -7   12.80    1.10
   4   4  -7   10.70    1.10
  -4   4   7   11.50    1.20
  -4   4  -7   12.70    1.10
   4  -4  -7   10.50    1.10
   4   4   7   12.40    1.10
   4  -4  -7   11.00    1.20
  -4  -4  -8   -0.10    0.30
   4  -4   8    0.00    0.30
  -4   4  -8   -0.40    0.30
  -4  -4   8    0.50    0.40
   4  -4  -8   -0.20    0.30
   4   4   8   -0.10    0.30
  -5   4   0   -0.10    0.30
   5  -4   0    0.40    0.30
   5   4   0    0.20    0.40
  -5   4   1 1699.13  111.09
   5  -4   1 1858.31  111.39
   5   4  -1 1867.91  111.49
  -5   4   1 1993.10  111.29
   5  -4   2   26.40    2.60
  -5   4   2   25.30    2.50
  -5  -4  -2   31.40    2.10
  -5  -4   2   24.30    2.60
   5   4   2   27.60    2.30
  -5   4  -2   26.90    2.70
  -5   4   3 1040.70   65.39
   5  -4   3 1089.89   65.49
  -5  -4  -3 1099.69   63.99
   5   4  -3 1125.69   64.09
  -5   4   3  910.21   63.99
   5  -4  -3 1101.59   64.09
  -5  -4   3  941.21   63.99
   5   4   3  959.90   63.89
  -5   4  -3 1154.08   64.09
  -5   4  -3 1026.80   65.29
  -5   4  -3 1130.39   63.99
  -5  -4   3 1123.19   65.69
  -5  -4   3 1024.90   63.99
   5   4   3 1133.29   65.09
   5  -4  -3 1196.78   63.99
   5   4  -4   57.19    3.50
   5   4  -4   52.69    4.70
  -5   4   4   50.79    3.40
   5   4  -4   56.29    3.50
  -5  -4  -4   54.09    3.40
  -5  -4  -4   55.19    3.50
  -5   4   4   48.60    3.40
   5   4   4   52.49    3.30
   5  -4  -4   54.59    3.50
  -5  -4   4   41.50    6.20
  -5  -4   4   50.69    3.40
   5  -4  -4   57.29    3.40
  -5   4  -4   44.60    4.80
  -5   4  -4   52.09    3.40
  -5   4  -4   54.99    3.40
  -5  -4  -5    1.60    0.50
   5   4  -5    1.60    0.50
   5   4  -5    1.10    0.50
  -5   4   5    1.50    0.40
  -5   4   5    1.80    0.40
  -5  -4  -5    2.10    0.40
  -5   4  -5    1.10    0.40
   5   4   5    1.70    0.40
  -5  -4   5    1.50    0.40
   5  -4  -5    1.00    0.40
   5  -4  -5    2.20    0.50
  -5  -4  -6    1.90    0.50
   5   4  -6    2.60    0.60
  -5   4   6    2.00    0.50
   5   4  -6    2.60    0.60
  -5   4   6    2.20    0.50
  -5  -4  -6    2.60    0.60
  -5   4  -6    1.80    0.50
   5  -4  -6    2.80    0.50
   5   4   6    3.00    0.50
   5  -4  -6    0.90    0.40
   5   4  -7    9.20    1.00
  -5   4   7    7.70    0.90
   5   4  -7    8.50    1.00
  -5  -4  -7    9.20    1.00
   5  -4   7    9.70    0.90
  -5   4  -7    9.40    1.00
   5  -4  -7    8.70    1.00
   5  -4  -7    7.40    0.90
   5   4   7    8.90    0.90
  -5  -4  -8    1.10    0.30
  -5   4  -8    0.10    0.30
  -5  -4   8    0.80    0.40
   5  -4  -8    1.00    0.40
   6  -4   0  585.84   36.80
   6   4   0  632.74   36.90
  -6   4   1    5.20    0.80
   6   4  -1    5.40    1.10
   6  -4   1    4.50    1.00
  -6   4   1    5.30    0.80
  -6   4  -1    3.90    1.00
  -6   4   2   67.59    4.90
   6  -4   2   69.59    5.10
   6   4  -2   60.49    4.00
   6   4   2   73.39    4.60
  -6   4  -2   61.29    4.00
   6  -4  -2   63.39    4.00
  -6   4  -2   67.79    5.10
  -6  -4   2   57.39    4.10
  -6  -4  -3  577.24   32.70
   6   4  -3  591.64   32.80
   6  -4   3  507.05   34.10
  -6   4   3  505.05   34.10
  -6   4   3  533.05   32.70
  -6  -4  -3  573.54   32.90
  -6  -4   3  491.85   32.80
  -6   4  -3  590.24   32.80
  -6  -4   3  541.55   32.80
   6  -4  -3  558.74   32.80
  -6   4  -3  581.84   32.80
   6  -4  -3  605.04   32.80
  -6   4  -3  530.25   34.10
   6   4   3  460.25   32.60
  -6   4  -3  533.85   32.70
   6   4  -4   75.59    4.70
  -6  -4  -4   74.49    4.60
   6   4  -4   70.59    6.00
  -6  -4  -4   76.59    4.70
   6   4  -4   78.59    4.70
  -6   4   4   69.99    4.60
   6  -4  -4   77.09    4.70
   6   4   4   65.59    4.50
  -6   4  -4   72.59    4.60
   6  -4  -4   78.69    4.60
  -6   4  -4   58.29    6.00
  -6   4  -4   76.09    4.70
  -6  -4   4   71.19    4.60
  -6  -4  -5  211.68   13.30
   6   4  -5  233.58   13.40
  -6   4   5  219.38   13.30
   6   4  -5  228.08   13.30
  -6  -4  -5  225.98   13.40
   6   4   5  211.88   13.20
  -6   4  -5  192.18   13.30
   6  -4  -5  213.08   13.30
   6  -4  -5  225.68   13.30
  -6  -4   5  210.78   13.30
   6   4  -6    5.60    0.80
  -6   4   6    4.60    0.70
   6   4  -6    5.40    0.80
  -6  -4  -6    3.90    0.70
   6   4   6    4.90    0.70
  -6   4  -6    5.10    0.70
   6  -4  -6    4.90    0.70
   6  -4  -6    6.10    0.70
   6   4  -7   23.30    1.80
  -6  -4  -7   24.70    1.80
  -6   4   7   22.60    1.80
   6  -4   7   23.00    1.70
   6   4  -7   23.70    1.80
  -6  -4   7   26.80    1.90
   6  -4  -7   23.70    1.80
   6   4   7   24.00    1.80
   6  -4  -7   23.00    1.80
  -6   4  -7   25.00    1.80
  -6  -4  -8    2.20    0.50
   6  -4  -8    2.30    0.50
  -6  -4   8    2.20    0.50
  -7  -4   0    0.30    0.30
  -7   4   0    0.10    0.50
  -7   4   0    0.00    0.20
  -7  -4  -1 1003.20   63.79
   7  -4   1 1129.99   64.49
  -7   4   1  974.10   63.79
  -7  -4   1 1022.50   63.79
  -7   4  -1 1062.29   63.79
  -7   4  -1 1208.78   64.99
  -7  -4  -2  202.48   12.60
  -7   4   2  179.38   12.60
   7   4  -2  212.38   12.60
  -7   4   2  217.58   12.70
  -7   4  -2  209.68   13.80
  -7  -4   2  206.08   12.60
  -7   4  -2  207.58   12.60
  -7  -4   2  208.28   12.60
  -7   4  -2  217.08   12.60
   7  -4  -2  213.68   12.50
  -7   4   3 1056.69   63.99
  -7  -4  -3 1123.59   64.09
   7   4  -3 1124.19   63.99
  -7  -4  -3 1075.49   63.99
  -7   4  -3  900.31   65.19
  -7  -4   3 1036.30   63.99
   7  -4  -3 1180.48   63.99
  -7   4  -3 1012.60   63.99
  -7   4  -3 1121.49   64.09
   7  -4  -3 1055.49   63.99
  -7  -4   3 1014.10   64.09
  -7   4  -3 1132.29   63.99
  -7  -4  -4   33.20    2.20
  -7   4   4   34.50    2.30
   7   4  -4   35.10    2.40
   7   4  -4   37.50    2.30
  -7  -4  -4   36.20    2.40
  -7   4  -4   34.40    2.30
   7   4   4   28.20    2.10
  -7  -4   4   28.50    2.30
  -7  -4   4   31.60    2.30
  -7   4  -4   23.90    3.50
   7  -4  -4   34.90    2.30
   7  -4  -4   33.40    2.30
  -7   4  -4   32.30    2.20
   7   4  -5    2.20    0.60
   7   4  -5    1.70    0.50
  -7  -4  -5    1.10    0.40
  -7   4   5    2.10    0.50
   7   4   5    1.60    0.40
   7  -4  -5    2.10    0.50
  -7   4  -5    0.60    0.40
   7  -4  -5    0.50    0.30
  -7  -4   5    2.50    0.50
  -7   4   6   60.39    3.90
   7   4  -6   61.49    3.90
  -7  -4  -6   55.49    3.80
   7   4  -6   60.89    3.90
   7  -4  -6   57.59    3.90
  -7  -4   6   58.49    3.90
   7   4   6   58.19    3.80
  -7   4  -6   51.59    3.80
   7  -4  -6   61.19    3.90
  -7   4   7    3.10    0.60
   7   4  -7    3.50    0.60
  -7  -4  -7    2.10    0.50
   7  -4   7    3.00    0.50
   7   4  -7    2.70    0.60
   7   4   7    2.50    0.50
   7  -4  -7    2.20    0.50
  -7  -4   7    2.90    0.60
   7  -4  -7    3.30    0.60
  -7   4  -7    2.60    0.50
  -8   4   0  210.78   12.80
  -8   4   0  183.88   11.50
  -8  -4   0  176.48   11.60
  -8   4   1   80.09    5.30
  -8   4   1   81.19    5.30
  -8  -4  -1   85.29    5.30
  -8   4  -1   87.99    6.40
  -8  -4   1   90.19    5.40
  -8   4  -1   88.19    5.30
  -8  -4   1   83.69    5.30
   8  -4  -1   82.39    5.20
  -8  -4  -2  115.59    7.70
  -8  -4  -2  149.79    7.90
  -8  -4  -2  131.99    7.80
  -8   4   2  127.09    7.80
   8   4  -2  125.09    7.80
  -8   4   2  116.19    7.80
  -8  -4   2  128.29    7.90
   8  -4  -2  114.49    7.80
  -8   4  -2  127.59    9.10
  -8   4  -2  127.99    7.80
  -8  -4   2  114.59    7.80
  -8   4  -2  140.09    7.80
  -8   4  -2  127.99    7.80
  -8   4  -2  123.09    7.80
  -8  -4   2  130.59    7.80
   8  -4  -2  132.09    7.80
  -8  -4  -3   64.79    4.10
   8   4  -3   64.59    4.10
  -8  -4  -3   69.79    4.20
  -8  -4  -3   59.39    4.00
  -8   4   3   66.39    4.10
  -8  -4   3   62.69    4.10
  -8   4  -3   66.69    4.20
  -8   4  -3   68.39    4.10
   8  -4  -3   69.39    4.10
  -8  -4   3   67.09    4.10
   8  -4  -3   64.29    4.10
  -8   4  -3   52.59    5.30
  -8  -4   3   63.19    4.20
  -8   4  -3   60.79    4.10
  -8  -4  -4    0.30    0.30
   8   4  -4   -0.20    0.40
  -8   4   4   -0.10    0.30
   8   4  -4    0.30    0.30
  -8  -4   4    0.20    0.40
  -8  -4   4    0.00    0.30
  -8   4  -4   -0.10    0.30
  -8  -4   4    0.30    0.30
   8  -4  -4    0.30    0.30
  -8   4  -4   -0.10    0.30
   8  -4  -4    0.40    0.30
  -8  -4  -5   98.19    5.90
  -8   4   5   96.89    6.00
   8   4  -5   86.79    6.00
   8   4  -5   90.39    6.00
  -8  -4   5   93.39    5.90
   8  -4  -5   97.99    6.00
   8  -4  -5   92.79    5.90
  -8  -4   5   97.99    6.00
  -8   4  -5   88.49    6.00
   8   4  -6    2.00    0.50
  -8   4   6    1.50    0.50
   8   4  -6    2.10    0.50
  -8  -4  -6    2.00    0.50
  -8   4  -6    2.10    0.50
   8  -4  -6    1.40    0.50
   8  -4  -6    2.00    0.50
   8   4   6    2.40    0.50
  -8  -4   6    1.70    0.50
   8   4  -7    1.30    0.40
  -8  -4  -7    1.60    0.40
  -8   4   7    1.30    0.40
   8  -4   7    1.30    0.40
   8   4  -7    1.60    0.50
   8   4   7    0.30    0.60
  -8   4  -7    1.30    0.40
  -8  -4   7    1.00    0.50
   8  -4  -7    0.90    0.40
   8  -4  -7    0.80    0.40
  -9  -4   0   -0.30    0.20
  -9   4   0    0.10    0.20
  -9   4   0    0.10    0.20
  -9  -4   0    0.20    0.20
  -9   4   1   47.80    3.10
  -9  -4  -1   49.60    3.20
  -9   4   1   47.20    3.10
  -9   4  -1   53.79    3.10
  -9   4  -1   50.29    3.10
  -9  -4   1   51.39    3.10
  -9   4  -1   42.50    3.20
  -9  -4   1   40.30    3.10
  -9   4  -1   48.10    4.20
   9  -4  -1   49.50    3.10
  -9  -4   1   51.59    3.20
  -9  -4  -2    1.70    0.50
  -9  -4  -2    2.10    0.40
  -9   4   2    1.90    0.40
   9   4  -2    2.40    0.50
  -9   4   2    0.90    0.30
  -9   4  -2    1.70    0.40
  -9  -4   2    1.90    0.50
  -9   4  -2    1.40    0.40
  -9  -4   2    1.40    0.40
   9  -4  -2    1.60    0.40
  -9  -4   2    0.90    0.40
  -9   4  -2    2.00    0.40
   9  -4  -2    1.90    0.30
  -9   4  -2    1.40    0.40
  -9   4  -2    0.80    0.90
   9   4  -3   12.40    1.10
  -9  -4  -3   11.10    1.00
  -9   4   3   12.00    1.00
  -9  -4  -3   13.50    1.00
   9  -4  -3   11.30    1.00
  -9   4  -3   12.40    1.00
  -9  -4   3   10.60    1.10
  -9  -4   3   12.30    1.10
  -9  -4   3   11.90    1.00
  -9   4  -3   11.70    1.10
  -9   4  -3    7.90    2.00
  -9   4  -3   10.50    1.00
   9   4  -4  417.46   24.20
   9   4  -4  378.76   24.20
  -9   4   4  406.96   24.20
  -9  -4  -4  399.16   24.10
   9  -4  -4  391.86   24.10
  -9  -4   4  386.06   24.10
   9  -4  -4  379.96   24.10
  -9   4  -4  412.46   24.20
  -9  -4   4  437.36   24.20
  -9   4  -4  379.06   24.10
   9   4  -5   24.20    1.80
  -9   4   5   21.80    1.70
  -9  -4  -5   25.20    1.70
   9   4  -5   19.40    1.80
   9  -4  -5   20.60    1.60
  -9  -4   5   17.60    1.70
   9  -4  -5   22.80    1.80
  -9   4  -5   22.60    1.70
   9   4  -6   48.40    3.30
   9  -4   6   43.00    3.20
  -9   4   6   47.70    3.30
   9   4  -6   46.90    3.30
  -9  -4  -6   49.99    3.30
   9  -4  -6   47.60    3.20
  -9   4  -6   49.50    3.30
  -9  -4   6   55.29    3.40
   9  -4  -6   47.80    3.30
   9   4  -7    2.80    0.50
   9   4  -7    2.80    0.50
  -9   4   7    3.50    0.50
  -9  -4  -7    3.30    0.50
   9  -4  -7    2.70    0.50
  -9  -4   7    3.50    0.60
  -9   4  -7    3.20    0.50
   9  -4  -7    3.20    0.50
 -10   4   0   95.29    6.20
 -10  -4   0  105.39    6.40
 -10   4   0  101.99    6.30
 -10   4   1   24.30    1.70
 -10   4   1   22.60    1.70
 -10  -4  -1   24.60    1.80
 -10  -4   1   21.90    1.70
 -10  -4   1   25.60    1.80
 -10   4  -1   24.00    2.90
 -10   4  -1   24.20    1.70
 -10  -4   1   24.10    1.70
 -10   4  -1   23.10    1.70
 -10  -4  -2  207.78   12.20
  10   4  -2  190.48   12.10
 -10   4   2  204.58   12.10
 -10   4   2  191.38   12.10
 -10   4  -2  199.18   12.10
 -10  -4   2  199.58   12.10
 -10  -4   2  208.78   12.30
 -10   4  -2  218.58   12.20
 -10   4  -2  191.68   12.10
 -10  -4   2  192.68   12.10
  10  -4  -2  172.98   12.10
 -10   4  -2  199.18   12.10
  10  -4  -2  205.18   12.10
 -10  -4  -3   21.90    1.60
  10   4  -3   23.70    1.70
 -10   4   3   23.10    1.70
 -10  -4  -3   20.90    1.60
 -10   4  -3   21.80    1.60
  10  -4  -3   19.00    1.60
 -10   4  -3   22.20    1.70
  10  -4  -3   23.90    1.60
 -10  -4   3   21.50    1.70
 -10  -4   3   20.50    1.70
 -10   4  -3   21.30    1.60
 -10  -4   3   20.70    1.70
 -10   4   4   16.10    1.30
  10   4  -4   12.40    1.40
 -10  -4  -4   15.20    1.30
  10   4  -4   18.10    1.40
 -10   4  -4   11.80    1.20
 -10  -4   4   16.00    1.40
  10  -4  -4   15.40    1.30
 -10  -4   4   13.40    1.40
 -10  -4   4   15.80    1.30
 -10   4  -4   14.90    1.30
  10  -4  -4   15.20    1.20
  10   4  -5    1.00    0.50
 -10  -4  -5    2.00    0.50
  10   4  -5    1.70    0.60
 -10   4   5    2.40    0.50
  10  -4  -5    1.80    0.50
 -10  -4   5    1.60    0.60
  10  -4  -5    2.20    0.50
 -10   4  -5    1.30    0.50
 -10  -4  -6   -0.30    0.40
  10   4  -6    0.40    0.40
 -10   4   6    0.00    0.40
  10   4  -6   -0.20    0.30
  10  -4  -6    1.80    0.50
 -10  -4   6    0.00    0.40
  10  -4  -6    0.40    0.40
 -10   4  -6    0.10    0.40
 -10   4   7   12.50    1.10
 -10  -4  -7   13.30    1.10
  10   4  -7   12.20    1.10
 -10   4  -7   13.00    1.10
 -10  -4   7   14.90    1.20
  10  -4  -7   12.90    1.10
 -11   4   0    0.00    0.30
 -11   4   0    0.10    0.30
 -11  -4   0    0.90    0.40
 -11   4   1  532.45   32.10
 -11  -4  -1  560.04   32.20
 -11   4   1  545.35   32.10
 -11   4  -1  545.95   32.10
 -11  -4   1  474.95   32.00
 -11  -4   1  556.54   32.20
 -11   4  -1  520.85   32.10
 -11   4   2   41.30    2.70
 -11  -4  -2   43.20    2.70
 -11   4   2   38.00    2.70
 -11   4  -2   41.00    2.70
 -11   4  -2   34.80    2.70
 -11  -4   2   43.20    2.90
 -11  -4   2   37.40    2.70
  11  -4  -2   38.90    2.60
 -11  -4  -3  119.59    7.50
  11   4  -3  122.79    7.50
 -11   4   3  119.99    7.50
  11  -4  -3  119.99    7.50
  11  -4  -3  113.39    7.50
 -11  -4   3  124.09    7.60
 -11  -4   3  117.89    7.60
 -11   4  -3  122.99    7.50
 -11   4  -3  120.29    7.50
 -11   4   4   90.19    6.00
 -11  -4  -4   94.29    5.90
  11   4  -4   96.59    6.00
  11   4  -4   95.39    6.10
 -11   4  -4   94.39    6.00
 -11  -4   4  106.99    6.10
 -11   4  -4   82.79    5.90
  11  -4  -4   95.39    5.90
  11  -4  -4   88.99    5.90
  11   4  -5   58.39    4.00
 -11   4   5   61.59    4.10
 -11  -4  -5   60.29    4.00
  11   4  -5   60.69    4.10
  11  -4  -5   61.59    4.00
  11  -4  -5   56.59    4.00
 -11  -4   5   68.09    4.20
 -11   4  -5   61.59    4.00
 -11  -4  -6    6.20    0.80
  11   4  -6    6.80    0.80
  11   4  -6    6.20    0.80
 -11   4   6    7.30    0.80
  11  -4  -6    6.90    0.80
 -11   4  -6    7.20    0.90
 -11  -4   6    7.00    0.90
  11  -4  -6    7.10    0.80
 -12   4   0  137.89    8.10
 -12   4   0  123.39    8.10
 -12   4   1   71.79    4.50
 -12  -4  -1   70.49    4.60
 -12   4   1   77.09    4.50
 -12   4  -1   73.99    4.50
 -12   4  -1   69.39    4.50
 -12  -4   1   58.99    4.60
 -12  -4   1   64.19    4.40
 -12   4   2  138.09    9.20
 -12   4   2  146.69    9.20
 -12  -4  -2  155.58    9.20
 -12  -4   2  158.98    9.40
 -12   4  -2  145.29    9.10
 -12  -4   2  145.79    9.20
 -12  -4  -3   80.99    5.10
  12   4  -3   79.09    5.10
 -12   4   3   83.39    5.20
  12  -4  -3   80.49    5.10
 -12   4  -3   74.39    5.10
  12  -4  -3   73.89    5.10
 -12  -4   3   79.79    5.30
 -12   4  -3   81.19    5.10
 -12  -4   3   86.39    5.20
 -12   4   4   34.50    2.60
  12   4  -4   37.20    2.60
  12   4  -4   37.20    2.70
 -12  -4   4   42.00    2.70
  12  -4  -4   35.20    2.60
  12  -4  -4   35.80    2.50
 -12   4  -4   35.40    2.60
  12   4  -5  116.99    7.60
 -12  -4  -5  110.49    7.50
 -12   4   5  129.69    7.60
  12   4  -5  123.79    7.60
 -12   4  -5  117.29    7.50
  12  -4  -5  117.69    7.50
  12  -4  -5  116.49    7.50
 -12  -4   5  135.99    7.70
  12   4  -6    2.00    0.50
  12   4  -6    1.70    0.50
 -12   4   6    2.20    0.50
 -12  -4  -6    1.70    0.40
 -12   4  -6    2.00    0.50
  12  -4  -6    2.10    0.40
 -12  -4   6    2.00    0.50
  12  -4  -6    2.40    0.50
 -13   4   0    0.90    0.40
 -13  -4   0    0.00    0.40
 -13   4   0    0.60    0.40
 -13  -4  -1  412.76   26.80
 -13   4   1  436.46   26.80
 -13   4   1  466.85   26.70
 -13   4  -1  456.95   26.80
 -13   4  -1  433.76   26.70
 -13  -4   1  449.26   26.90
 -13   4   2   13.90    1.20
 -13  -4  -2   13.70    1.20
 -13   4   2   12.20    1.20
 -13   4  -2   11.10    1.20
 -13  -4   2   15.00    1.40
 -13  -4   2   12.40    1.20
 -13   4  -2   13.90    1.20
 -13   4   3  116.79    8.30
 -13  -4  -3  135.59    8.30
 -13  -4   3  141.99    8.50
 -13   4  -3  133.69    8.30
 -13  -4   3  148.49    8.40
  13  -4  -3  126.39    8.20
  13   4  -4    7.50    1.00
  13   4  -4    7.00    0.90
 -13   4   4    6.60    0.90
 -13   4  -4    5.80    0.80
  13  -4  -4    4.60    0.80
 -13  -4   4    8.20    0.90
  13  -4  -4    6.10    0.80
  13   4  -5   19.10    1.60
  13   4  -5   19.60    1.60
 -13   4   5   22.10    1.60
  13  -4  -5   18.90    1.60
 -13   4  -5   20.00    1.60
  13  -4  -5   19.00    1.50
 -13  -4   5   24.30    1.70
  13   4  -6   -0.30    0.30
 -13   4   6    0.10    0.30
 -13  -4   6    0.10    0.30
 -14  -4   0    6.00    0.90
 -14   4   0    9.60    1.00
 -14   4   0    9.40    0.90
 -14  -4  -1   -0.20    0.40
 -14   4   1    0.50    0.40
 -14   4   1    1.20    0.40
 -14  -4   1    0.60    0.50
 -14   4  -1    0.60    0.40
 -14   4  -1   -0.10    0.30
 -14   4   2    1.40    0.50
 -14  -4  -2    1.10    0.40
 -14   4   2    1.50    0.40
 -14  -4   2    1.60    0.60
 -14   4  -2    0.70    0.40
 -14  -4   2    0.90    0.50
 -14   4  -2    0.70    0.50
 -14  -4  -3   80.89    5.30
  14   4  -3   78.09    5.40
 -14   4   3   84.89    5.40
 -14  -4   3   87.39    5.30
 -14  -4   3   82.79    5.40
  14   4  -4    0.90    0.50
 -14   4   4    1.70    0.50
 -14  -4   4    1.40    0.50
 -14   4   5    3.40    0.60
  14   4  -5    2.20    0.50
 -14  -4   5    2.90    0.50
 -15   4   0    0.60    0.40
 -15   4   0    0.20    0.40
 -15  -4   0    0.10    0.40
 -15   4   1    2.90    0.60
 -15   4   1    3.20    0.60
 -15  -4  -1    2.50    0.60
 -15  -4   1    2.70    0.70
 -15   4  -1    3.80    0.60
 -15   4  -1    3.00    0.60
 -15  -4  -2   19.50    1.60
 -15   4   2   22.30    1.60
 -15   4   2   18.30    1.60
 -15   4  -2   20.30    1.60
 -15   4  -2   19.50    1.60
 -15  -4   2   19.80    1.70
 -15  -4   2   17.60    1.80
 -15   4   3    2.20    0.50
 -15  -4  -3    1.50    0.50
  15   4  -3    2.30    0.60
 -15  -4   3    1.90    0.60
  15   4  -4   -0.10    0.40
 -15   4   4   -0.10    0.40
 -15  -4   4    0.10    0.40
 -15   4   5    0.90    0.40
 -16  -4   0  243.58   14.40
 -16   4   0  223.18   14.30
 -16   4   0  236.88   14.30
 -16   4   1    1.80    0.50
 -16  -4  -1    2.20    0.50
 -16   4   1    1.50    0.50
 -16   4  -1    1.30    0.50
 -16  -4   1    0.90    0.50
 -16   4  -1    2.10    0.50
 -16  -4  -2    9.30    1.00
 -16   4   2    9.80    1.00
 -16  -4   2   10.10    1.10
  16   4  -3    3.40    0.70
 -16   4   3    3.50    0.60
 -16  -4   3    3.90    0.90
 -16  -4   3    3.30    0.70
 -16   4   4   10.80    1.00
 -17  -4   0    0.30    0.40
 -17   4   0    0.30    0.40
 -17   4   0    0.10    0.40
 -17   4   1    0.00    0.40
 -17   4   1    0.00    0.30
 -17  -4  -1    0.40    0.40
 -17  -4   1    0.50    0.40
 -17   4   2   15.20    1.20
 -17  -4  -2   12.50    1.30
 -17  -4   2   12.90    1.40
 -17   4   3    0.10    0.30
   0  -5   0   -2.40    0.20
   0   5   0   -2.70    0.20
   0   5   0   -1.90    0.20
   0  -5   0   -2.40    0.20
   0   5  -1    0.50    0.40
   0  -5  -1    0.10    0.20
   0  -5   1    0.60    0.40
   0   5  -1    0.40    0.30
   0  -5   2 1042.20   62.09
   0   5   2 1098.69   61.79
   0   5  -2  924.21   61.69
   0   5  -3    0.70    0.60
   0   5   3    0.10    0.60
   0   5   3   -0.20    0.10
   0  -5  -3    0.20    0.40
   0  -5   3   -0.30    0.70
   0   5   4   29.70    2.00
   0   5  -4   26.20    2.00
   0  -5  -4   31.90    2.10
   0  -5  -4   29.30    2.00
   0  -5  -4   35.90    3.00
   0   5  -4   35.20    2.10
   0  -5   4   25.50    3.70
   0  -5  -4   28.20    2.00
   0   5  -4   28.10    3.20
   0   5   4   25.40    3.40
   0   5  -5    0.50    1.20
   0  -5  -5   -0.10    0.30
   0   5  -5    0.60    0.40
   0  -5  -5    0.50    0.30
   0   5  -5    0.20    0.30
   0   5   5    0.20    0.30
   0   5   6  129.89    8.20
   0  -5  -6  143.49    8.30
   0   5  -6  123.19    8.20
   0  -5  -6  131.29    8.20
   0   5   7    0.40    0.30
   0  -5  -7    0.00    0.30
   0  -5  -7   -0.20    0.40
   0  -5   7    0.40    0.40
   0   5   8   16.60    1.40
   0  -5  -8   15.40    1.40
   0  -5   8   18.30    1.40
  -1   5   0 1118.19   62.89
   1  -5   0 1097.09   62.89
   1  -5   0 1069.49   62.99
   1   5   0  952.70   62.69
  -1  -5   0 1000.00   62.89
   1   5  -1   45.10    3.30
   1   5  -1   56.89    3.70
   1  -5   1   43.80    3.50
  -1   5  -1   54.49    3.60
   1  -5  -1   51.79    3.20
  -1   5  -1   39.90    3.40
  -1  -5   1   40.30    3.50
   1  -5   2  271.77   17.20
  -1   5   2  262.37   17.00
  -1  -5  -2  275.07   16.50
   1   5   2  273.87   16.90
  -1  -5   2  267.27   17.30
  -1   5   3   18.00    2.30
   1   5  -3   20.70    2.20
   1   5  -3   17.30    1.40
  -1   5   3   18.20    1.30
   1  -5   3   20.30    2.50
  -1  -5  -3   23.90    1.90
  -1  -5   3   21.90    2.70
  -1   5  -3   18.40    2.20
   1   5   3   18.50    1.30
   1   5   3   20.70    2.30
   1  -5   4   22.50    3.60
  -1  -5  -4   26.70    1.70
   1   5  -4   25.50    1.80
   1   5  -4   26.40    3.00
  -1   5   4   25.40    1.80
  -1   5   4   18.60    3.20
  -1  -5  -4   25.40    1.80
  -1  -5   4   24.60    3.80
   1  -5  -4   25.10    1.80
   1  -5  -4   31.50    2.80
  -1   5  -4   22.40    1.80
   1  -5  -4   28.40    1.80
  -1   5  -4   24.80    3.00
   1   5   4   22.10    3.20
   1   5   4   27.10    1.80
   1  -5  -4   27.70    1.80
  -1   5  -4   24.40    1.80
  -1   5   5    7.30    0.70
  -1  -5  -5    6.10    0.80
   1   5  -5    6.40    0.80
  -1  -5  -5    5.70    0.70
   1   5  -5    4.80    0.70
   1  -5  -5    6.50    0.70
   1   5   5    6.70    0.70
  -1   5  -5    5.20    1.90
   1  -5  -5    6.80    0.80
   1  -5  -5    5.70    0.70
  -1   5  -5    5.20    0.70
  -1  -5  -6    9.10    0.90
   1   5  -6    8.50    1.00
  -1  -5  -6    9.60    1.10
  -1   5   6    8.80    0.90
   1  -5  -6    9.10    0.90
  -1   5  -6    7.80    0.90
   1   5   6    7.20    0.90
   1  -5  -6   10.30    1.00
  -1   5   7    0.80    0.40
  -1  -5  -7    0.40    0.30
  -1  -5  -7    0.80    0.50
   1  -5   7    2.50    0.50
  -1  -5   7    1.10    0.40
   1  -5  -7    0.60    0.50
   1   5   7    0.90    0.40
   1  -5   8   71.69    4.50
  -1   5   8   70.09    4.50
  -1  -5  -8   67.99    4.50
   1   5   8   68.59    4.50
   1  -5  -8   70.39    4.50
  -1  -5   8   72.29    4.50
  -2   5   0   -0.30    0.30
   2   5   0   -0.10    0.30
  -2  -5   0    0.70    0.30
   2  -5   0   -0.10    0.20
   2   5   0   -0.20    0.20
  -2   5   0   -0.10    0.20
  -2   5   1   13.20    1.40
   2   5  -1   15.40    1.40
   2   5  -1   19.40    1.80
   2  -5   1   16.00    1.70
  -2   5   1   20.10    1.60
  -2  -5   1   15.90    1.60
  -2   5  -1   18.00    1.70
  -2   5  -1   19.40    1.70
  -2   5   2 1631.24  109.89
   2  -5   2 1824.52  110.19
  -2  -5  -2 1987.60  109.29
   2   5   2 1796.72  109.79
  -2  -5   2 1732.33  110.19
  -2   5  -2 1997.50  109.99
  -2   5   3   91.39    5.70
  -2   5   3   92.69    6.90
   2  -5   3   93.09    7.00
   2   5  -3   90.59    5.70
   2   5   3   96.89    6.80
  -2   5  -3   92.89    6.80
   2   5   3   87.99    5.60
   2  -5  -3   94.39    5.70
  -2  -5   3   91.69    7.10
  -2   5   4    2.10    2.40
   2  -5   4    4.80    1.80
   2   5  -4    3.50    0.60
  -2   5   4    4.60    0.50
  -2  -5  -4    3.70    0.50
   2   5  -4    4.90    0.60
  -2  -5  -4    4.60    0.60
   2   5  -4    3.60    1.20
   2   5   4    3.40    1.50
  -2   5  -4    3.00    1.30
  -2   5  -4    3.60    0.50
   2  -5  -4    4.80    0.60
   2  -5  -4    3.80    0.50
   2   5   4    4.60    0.50
  -2  -5   4    4.30    1.90
  -2  -5   4    4.30    0.50
   2  -5  -4    5.00    1.20
  -2  -5  -5    2.40    0.50
   2   5  -5    3.10    0.50
  -2   5   5    1.00    0.30
   2   5  -5    0.20    0.30
  -2  -5  -5    0.30    0.30
  -2   5  -5    1.60    0.40
   2  -5  -5    0.30    0.30
   2  -5  -5    0.50    0.30
   2   5   5    0.50    0.30
   2  -5  -5    0.10    0.30
   2   5  -6  341.97   20.00
  -2  -5  -6  343.07   20.10
  -2   5   6  343.27   20.00
  -2  -5  -6  347.37   20.00
   2   5  -6  311.37   20.00
   2  -5  -6  295.67   20.00
   2   5   6  315.87   19.90
  -2   5  -6  333.47   20.00
   2  -5  -6  313.37   19.90
   2  -5  -6  325.77   20.00
  -2  -5   6  351.76   20.00
  -2  -5  -7   20.90    1.60
  -2   5   7   17.40    1.50
   2  -5   7   20.30    1.50
  -2  -5  -7   17.40    1.50
  -2   5  -7   16.90    1.50
  -2  -5   7   19.60    1.50
   2   5   7   18.50    1.50
   2  -5  -7   19.40    1.60
  -2   5   8   11.90    1.30
   2  -5   8   12.60    1.10
  -2  -5  -8   11.80    1.00
   2  -5  -8   14.00    1.20
   2   5   8   13.60    1.10
  -3   5   0 3992.50  233.48
   3   5   0 4177.88  233.28
   3  -5   0 3539.85  233.28
   3  -5   1  121.59    8.80
  -3   5   1  116.69    8.50
  -3   5   1  150.18    8.70
   3   5  -1  132.29    8.90
  -3   5  -1  135.99    8.70
  -3   5  -1  148.69    8.90
  -3   5   2  248.08   16.30
   3  -5   2  271.87   16.60
   3   5  -2  243.28   16.10
  -3  -5   2  242.38   16.60
  -3   5  -2  285.17   16.20
   3   5  -3  123.49    8.10
  -3   5   3  109.49    7.00
   3  -5   3  118.59    8.50
  -3   5   3  112.39    8.30
   3   5  -3  118.39    7.10
   3   5   3  109.09    7.00
   3   5   3  114.39    8.10
   3  -5  -3  125.19    7.10
  -3  -5   3  111.59    8.60
  -3   5  -3  114.59    8.30
  -3   5   4   75.09    4.60
   3  -5   4   64.19    6.70
   3   5  -4   76.99    4.70
  -3  -5  -4   78.19    4.60
  -3  -5  -4   75.39    4.70
   3   5  -4   78.19    4.70
   3   5   4   75.99    4.60
  -3   5  -4   70.09    6.10
  -3   5  -4   76.59    4.70
  -3   5  -4   74.29    4.60
   3  -5  -4   65.39    4.60
   3   5   4   60.89    6.10
   3  -5  -4   75.59    4.60
  -3  -5   4   72.19    9.40
  -3  -5  -5   36.30    2.40
  -3   5   5   37.40    2.40
  -3  -5  -5   35.50    2.50
   3   5  -5   35.40    2.40
   3   5  -5   35.00    2.40
  -3   5   5   30.00    2.30
   3  -5  -5   32.90    2.30
   3   5   5   36.10    2.30
  -3  -5   5   32.70    2.50
  -3   5  -5   34.40    2.40
   3  -5  -5   35.50    2.40
   3   5  -6    4.40    0.70
  -3   5   6    3.60    0.60
  -3  -5  -6    4.70    0.70
  -3  -5  -6    3.50    0.70
   3   5  -6    4.00    0.70
  -3   5  -6    4.00    0.70
   3  -5  -6    3.40    0.70
   3   5   6    5.50    0.70
  -3  -5   6    7.20    0.80
   3  -5  -6    4.10    0.60
  -3   5   7    0.30    0.40
   3   5  -7    0.60    0.40
   3   5  -7    0.70    0.50
  -3  -5  -7    0.90    0.50
   3  -5   7    0.30    0.40
  -3  -5  -7    0.50    0.40
   3  -5  -7    0.30    0.40
  -3   5  -7    0.60    0.40
  -3  -5   7    0.50    0.40
   3   5   7    0.20    0.30
   3  -5   8    1.60    0.40
  -3  -5  -8    1.60    0.40
   3   5   8    1.50    0.50
   3  -5  -8    1.60    0.50
   3   5   8    1.80    0.40
  -3  -5   8    2.80    0.50
  -4   5   0    0.20    0.40
  -4   5   0   -0.20    0.20
   4   5   0   -0.10    0.40
   4  -5   0   -0.30    0.30
  -4   5   0    0.40    0.40
   4   5  -1    2.40    0.80
  -4   5   1    1.50    0.50
  -4   5   1    1.40    0.60
   4  -5   1    1.20    0.60
  -4   5  -1    2.10    0.50
  -4  -5   1    1.60    0.50
   4   5   1    2.40    0.40
  -4   5  -1    1.50    0.60
  -4   5   2    3.00    0.90
  -4  -5  -2    3.90    0.50
   4  -5   2    3.30    1.00
  -4   5  -2    3.00    1.00
  -4   5  -2    3.60    0.70
  -4  -5   2    7.60    1.40
   4  -5   3    2.30    1.10
   4   5  -3    2.30    0.40
  -4   5   3    2.50    1.10
   4   5  -3    2.10    0.80
  -4   5   3    1.80    0.30
  -4  -5  -3    3.00    0.40
  -4   5  -3    2.40    0.40
   4   5   3    2.40    1.00
   4   5   3    2.10    0.30
   4  -5  -3    2.30    0.30
  -4  -5   3    2.10    1.20
  -4   5  -3    4.30    1.30
  -4  -5   3    2.10    0.40
   4   5  -4  153.18    8.80
  -4  -5  -4  148.89    8.80
  -4   5   4  124.69    8.60
  -4  -5  -4  148.19    8.70
   4   5  -4  138.89   10.10
   4   5  -4  150.18    8.80
  -4   5   4  140.69    8.70
   4  -5  -4  151.68    8.80
  -4  -5   4  132.09    8.70
   4   5   4  145.39    8.60
   4  -5  -4  153.28    8.70
  -4   5  -4  126.49   10.30
  -4   5  -4  141.59    8.70
  -4  -5   4  117.69    8.70
  -4   5  -4  144.29    8.70
  -4   5  -4  152.78    8.80
   4   5  -5   22.90    1.80
  -4  -5  -5   25.80    1.80
  -4  -5  -5   24.90    1.70
  -4   5   5   21.60    1.70
   4   5  -5   24.90    1.80
  -4   5   5   23.50    1.70
   4  -5  -5   21.90    1.70
  -4  -5   5   23.90    1.70
   4  -5  -5   24.30    1.80
  -4  -5   5   21.10    1.70
   4   5   5   23.20    1.70
  -4   5  -5   23.60    1.70
  -4   5   6    8.80    0.90
  -4  -5  -6    8.70    1.10
   4   5  -6    8.20    1.00
  -4  -5  -6    9.10    0.90
  -4   5   6    7.40    0.90
   4   5  -6    9.40    1.00
   4  -5  -6    8.30    0.90
   4   5   6    8.70    0.90
  -4   5  -6    7.90    0.90
   4  -5  -6    6.40    0.90
  -4  -5   6   10.50    1.00
  -4  -5  -7    5.60    0.70
  -4  -5  -7    6.00    0.80
   4   5  -7    5.40    0.80
   4  -5   7    5.70    0.70
   4   5  -7    5.70    0.80
  -4   5   7    6.80    0.80
   4   5   7    5.70    0.70
   4  -5  -7    5.10    0.70
  -4   5  -7    4.80    0.70
   4  -5  -7    6.00    0.80
  -4  -5  -8   -0.20    0.30
  -4  -5   8    0.00    0.40
  -4   5  -8    0.30    0.40
   4  -5  -8    0.30    0.30
  -5   5   0  244.78   14.70
   5   5   0  261.57   15.00
   5  -5   0  227.48   14.90
  -5   5   0  225.68   14.50
  -5   5   1   27.70    2.30
  -5   5   1   32.80    2.60
   5   5  -1   30.30    2.70
   5  -5   1   28.40    2.60
   5   5   1   30.40    2.40
  -5   5  -1   26.80    2.60
   5  -5   2  273.07   16.50
  -5   5   2  251.57   16.20
  -5  -5   2  242.68   16.20
   5  -5  -2  242.88   15.30
  -5   5  -2  244.08   15.30
  -5   5  -2  270.07   16.50
   5   5  -3    1.30    0.70
  -5   5   3    0.60    0.90
   5  -5   3    1.10    1.10
  -5   5   3    0.70    0.30
   5   5  -3    0.90    0.30
  -5  -5  -3    2.50    0.40
  -5   5  -3    1.30    0.40
  -5  -5   3    1.90    1.40
   5   5   3    1.40    0.30
  -5  -5   3    2.10    0.40
   5  -5  -3    1.60    0.30
  -5   5  -3    1.50    0.40
  -5  -5   3    1.40    0.40
  -5   5  -3    1.50    0.90
   5  -5  -3    0.90    0.40
   5   5   3    1.40    0.90
  -5   5   4    5.70    0.70
  -5   5   4    6.80    0.70
  -5  -5  -4    6.60    0.80
   5   5  -4    6.50    1.70
   5   5  -4    7.40    0.80
   5   5  -4    6.40    0.80
  -5  -5  -4    6.70    0.70
  -5   5  -4    5.50    1.80
   5  -5  -4    9.70    0.70
  -5  -5   4    5.10    0.70
  -5   5  -4    6.30    0.70
  -5  -5   4    5.40    0.70
   5  -5  -4    6.60    0.80
  -5   5  -4    6.20    0.70
   5   5  -5    9.90    1.10
   5   5  -5   13.40    1.20
  -5   5   5   12.30    1.10
  -5  -5  -5   14.50    1.30
  -5  -5  -5   13.00    1.10
  -5   5   5   12.20    1.10
   5   5   5   12.50    1.00
  -5  -5   5   11.20    1.10
   5  -5  -5   12.20    1.10
   5  -5  -5   12.00    1.10
  -5   5  -5   12.60    1.10
   5   5  -6   51.69    3.30
  -5  -5  -6   47.80    3.20
  -5  -5  -6   49.50    3.40
  -5   5   6   47.20    3.20
   5   5  -6   50.99    3.30
  -5   5   6   48.00    3.30
   5  -5  -6   49.30    3.30
   5   5   6   50.29    3.20
  -5   5  -6   51.29    3.30
   5  -5  -6   39.60    3.20
   5   5  -7    2.20    0.50
   5  -5   7    2.30    0.40
  -5  -5  -7    2.10    0.50
   5   5  -7    1.40    0.50
   5  -5  -7    1.90    0.50
   5   5   7    2.90    0.50
  -5   5  -7    1.70    0.50
   5  -5  -7    2.00    0.50
  -5  -5  -8    0.30    0.30
   5  -5  -8    0.10    0.30
  -5  -5   8    0.30    0.30
  -6   5   0   -0.20    0.40
   6  -5   0    0.00    0.40
   6   5   0   -0.10    0.60
  -6   5   1   49.00    3.30
   6  -5   1   50.09    3.70
  -6  -5   1   40.00    2.90
  -6   5  -1   43.00    2.90
  -6   5  -1   49.20    3.80
   6   5  -2   16.90    1.30
   6  -5   2   18.40    2.40
  -6  -5   2   17.70    1.40
  -6   5  -2   17.60    2.20
   6  -5  -2   18.60    1.30
  -6   5  -2   18.00    1.30
   6   5   2   23.80    2.00
  -6   5   3    0.20    0.30
   6   5  -3    0.50    0.30
  -6  -5  -3    0.60    0.30
  -6   5   3    0.30    1.00
  -6  -5  -3    0.50    0.30
   6  -5   3    0.60    1.30
  -6   5  -3    0.70    0.80
  -6   5  -3    1.30    0.30
  -6   5  -3    1.80    0.40
   6   5   3    0.00    0.20
   6  -5  -3    1.10    0.40
  -6   5  -3    0.50    0.30
  -6  -5   3    0.50    0.30
   6  -5  -3    0.30    0.30
  -6   5   4  232.98   14.80
   6   5  -4  262.97   14.80
   6   5  -4  229.98   16.20
  -6  -5  -4  240.68   14.80
  -6  -5  -4  249.88   14.90
   6   5  -4  259.37   14.90
  -6  -5   4  203.88   14.80
   6  -5  -4  262.97   14.80
   6  -5  -4  255.77   14.80
  -6  -5   4  236.88   14.80
  -6   5  -4  257.47   14.80
  -6   5  -4  245.78   14.80
   6   5   4  223.58   14.70
   6   5  -5   12.30    1.10
  -6   5   5   11.70    1.00
  -6  -5  -5    8.80    1.00
  -6  -5  -5   11.30    1.20
   6   5  -5    8.70    1.00
   6   5   5    9.80    0.90
   6  -5  -5   11.30    1.10
   6  -5  -5   10.10    1.00
  -6  -5   5    9.30    1.00
  -6   5  -5   10.80    1.00
   6   5  -6   92.99    5.80
   6   5  -6   93.59    5.80
  -6  -5  -6   80.89    5.70
  -6   5   6   88.19    5.70
   6  -5  -6   85.39    5.70
   6  -5  -6   92.89    5.70
  -6   5  -6   91.79    5.70
   6   5   6   90.69    5.60
  -6   5   7    3.20    0.60
   6  -5   7    3.10    0.50
  -6  -5  -7    3.20    0.50
   6   5  -7    3.20    0.60
   6   5  -7    3.90    0.70
   6  -5  -7    4.10    0.70
  -6   5  -7    4.20    0.60
   6   5   7    2.80    0.50
  -6  -5   7    4.40    0.70
   6  -5  -7    3.30    0.60
   6  -5  -8    2.50    0.50
  -6  -5   8    2.60    0.50
  -7   5   0  157.38    9.80
  -7  -5   0  134.79    8.70
  -7   5   0  137.19    8.70
  -7   5   1    0.60    0.30
  -7  -5  -1    0.20    0.20
   7  -5   1    0.00    0.60
   7  -5  -1    1.70    0.30
  -7  -5   1    0.00    0.30
  -7   5  -1    0.20    0.20
  -7   5  -1    0.30    0.50
  -7   5   2  137.09    9.00
   7   5  -2  144.29    9.00
  -7  -5  -2  136.89    8.90
  -7   5  -2  152.08    9.00
  -7   5  -2  159.38    9.00
  -7   5  -2  143.29    9.00
  -7  -5   2  146.69    9.00
   7  -5  -2  152.08    8.90
  -7  -5   2  149.59    9.10
  -7   5  -2  146.69   10.20
  -7   5   3    8.30    0.80
  -7  -5  -3    9.60    0.90
  -7  -5  -3    7.80    0.80
   7   5  -3    8.10    0.80
  -7   5  -3    8.70    0.90
  -7  -5   3    8.40    0.80
   7  -5  -3    8.30    0.80
  -7   5  -3   10.60    0.90
  -7   5  -3    8.50    0.80
   7  -5  -3    9.80    0.90
  -7   5  -3    7.50    1.80
   7   5  -4   44.20    2.70
  -7   5   4   38.60    2.60
  -7  -5  -4   39.80    2.60
  -7  -5  -4   40.90    2.70
  -7   5  -4   38.90    2.60
   7   5   4   34.20    2.50
  -7  -5   4   33.40    2.70
  -7  -5   4   40.40    2.70
  -7   5  -4   40.70    2.70
   7  -5  -4   43.30    2.60
   7  -5  -4   37.70    2.70
   7   5  -5   44.10    3.40
   7   5  -5   50.39    3.50
  -7  -5  -5   52.19    3.40
  -7  -5  -5   52.99    3.50
  -7   5   5   51.99    3.40
   7  -5  -5   52.29    3.40
   7  -5  -5   49.99    3.40
   7   5   5   49.80    3.30
  -7  -5   5   53.49    3.40
   7   5  -6   21.40    1.60
   7   5  -6   19.60    1.60
  -7  -5  -6   20.30    1.50
  -7   5   6   19.80    1.60
  -7   5  -6   18.20    1.50
   7  -5  -6   18.90    1.60
  -7  -5   6   17.00    1.60
   7  -5  -6   19.20    1.50
   7   5   6   19.20    1.50
  -7  -5  -7    0.90    0.40
   7   5  -7    0.90    0.50
   7   5  -7    1.20    0.50
  -7   5   7    0.60    0.40
   7  -5   7    0.60    0.30
   7  -5  -7    1.40    0.40
  -7  -5   7    0.70    0.50
   7   5   7    1.00    0.40
  -7   5  -7    1.10    0.40
   7  -5  -7    0.90    0.40
  -8  -5   0   -0.10    0.20
  -8   5   0    0.70    0.70
  -8   5   0    0.40    0.20
  -8   5   1   38.90    2.60
  -8   5   1   36.80    2.60
  -8  -5  -1   40.10    2.60
  -8   5  -1   42.10    3.70
  -8   5  -1   42.00    2.60
  -8  -5   1   42.90    2.70
   8  -5  -1   39.20    2.50
  -8  -5   1   40.00    2.60
  -8   5  -1   38.90    2.60
  -8  -5  -2   23.90    1.80
  -8   5   2   26.10    1.80
  -8  -5  -2   27.10    1.80
  -8   5   2   24.10    1.80
   8   5  -2   26.50    1.80
  -8   5  -2   25.90    3.00
  -8   5  -2   27.90    1.90
  -8   5  -2   29.30    1.80
  -8   5  -2   28.00    1.90
  -8  -5   2   28.90    1.90
   8  -5  -2   23.00    1.80
  -8  -5   2   24.00    1.80
   8  -5  -2   28.50    1.80
  -8  -5   2   27.70    1.90
  -8   5  -2   27.60    1.80
  -8   5   3    5.80    0.70
  -8  -5  -3    6.60    0.90
  -8  -5  -3    6.60    0.70
   8   5  -3    7.10    0.80
  -8  -5   3    6.20    0.80
  -8  -5   3    7.10    0.80
  -8   5  -3    6.60    0.80
  -8  -5   3    6.60    0.80
   8  -5  -3    6.40    0.80
   8  -5  -3    7.50    0.70
  -8   5  -3    5.40    1.70
  -8   5  -3    7.10    0.80
  -8   5  -3    6.20    0.70
  -8  -5  -4    3.60    0.70
  -8   5   4    5.30    0.70
  -8  -5  -4    3.70    0.60
   8   5  -4    2.70    0.60
  -8  -5   4    2.70    0.50
  -8   5  -4    2.00    0.50
   8  -5  -4    3.10    0.60
  -8  -5   4    2.20    0.60
  -8   5  -4    2.80    0.60
   8  -5  -4    2.60    0.50
   8   5  -5   16.60    1.50
   8   5  -5   20.50    1.60
  -8   5   5   19.70    1.50
  -8  -5  -5   21.00    1.50
  -8  -5   5   18.30    1.50
   8  -5  -5   18.40    1.50
   8  -5  -5   20.10    1.50
  -8  -5   5   16.30    1.50
  -8   5  -5   14.20    1.50
  -8  -5  -6   52.49    3.40
   8   5  -6   51.49    3.50
   8   5  -6   51.29    3.50
  -8   5   6   49.99    3.40
  -8  -5   6   56.79    3.50
   8  -5  -6   52.89    3.40
   8   5   6   45.50    3.30
  -8   5  -6   49.99    3.40
   8  -5  -6   51.39    3.50
   8   5  -7    0.20    0.40
  -8   5   7    0.60    0.40
  -8  -5  -7    0.10    0.30
   8  -5   7    0.80    0.40
   8   5  -7    0.40    0.40
   8  -5  -7    0.10    0.30
   8  -5  -7    0.50    0.40
  -8  -5   7    0.60    0.40
  -8   5  -7   -0.10    0.30
  -9   5   0    9.70    0.80
  -9  -5   0    9.50    0.80
  -9   5   0    9.00    0.80
  -9  -5   0    9.60    0.90
  -9   5   1    6.20    0.70
  -9   5   1    6.10    0.70
  -9  -5  -1    7.10    0.70
  -9   5  -1    5.70    0.60
  -9  -5   1    7.10    0.70
  -9  -5   1    5.80    0.70
  -9  -5   1    8.30    0.80
  -9   5  -1    7.10    0.70
  -9   5  -1    7.60    0.70
  -9   5  -1    7.20    1.60
   9  -5  -1    6.20    0.60
  -9  -5  -2   41.40    2.60
  -9  -5  -2   45.00    2.70
  -9   5   2   35.30    2.50
  -9   5   2   37.80    2.50
   9   5  -2   37.30    2.50
  -9   5  -2   34.20    3.70
  -9  -5   2   37.60    2.70
  -9  -5   2   40.60    2.60
  -9   5  -2   37.30    2.60
  -9   5  -2   40.50    2.50
  -9  -5   2   35.40    2.50
   9  -5  -2   32.20    2.50
  -9   5  -2   38.10    2.60
   9  -5  -2   40.50    2.50
  -9   5  -2   37.70    2.50
  -9   5   3    0.50    0.30
  -9  -5  -3    0.90    0.40
  -9  -5  -3    0.50    0.30
  -9  -5  -3    1.50    0.50
   9   5  -3    0.50    0.30
  -9   5  -3    1.50    0.40
  -9   5  -3    1.40    0.40
  -9  -5   3    1.10    0.40
  -9   5  -3    1.10    0.40
  -9  -5   3    0.40    0.30
  -9  -5   3    0.50    0.40
   9  -5  -3    0.40    0.30
   9  -5  -3    0.60    0.40
  -9  -5  -4   17.60    1.40
   9   5  -4   16.80    1.60
   9   5  -4   18.30    1.50
  -9   5   4   16.30    1.40
  -9  -5   4   17.10    1.40
  -9   5  -4   18.10    1.50
   9  -5  -4   17.80    1.40
   9  -5  -4   16.50    1.40
  -9  -5   4   13.30    1.50
  -9   5  -4   15.00    1.40
  -9  -5   4   18.40    1.50
   9   5  -5    0.30    0.40
   9   5  -5    0.40    0.40
  -9  -5  -5    0.20    0.40
  -9   5   5    1.10    0.40
  -9   5  -5    0.40    0.40
  -9  -5   5    0.20    0.40
  -9  -5   5    0.70    0.40
   9  -5  -5    0.30    0.40
   9  -5  -5    0.20    0.30
   9   5  -6    7.80    1.00
  -9   5   6    8.40    0.90
   9   5  -6    7.60    0.90
   9  -5   6    8.60    0.90
  -9  -5  -6    8.20    0.90
  -9   5  -6    8.10    0.90
   9  -5  -6    7.90    0.90
  -9  -5   6   10.70    1.10
   9  -5  -6    8.10    0.90
  -9  -5  -7    0.90    0.40
   9   5  -7    1.50    0.40
   9   5  -7    0.60    0.40
  -9   5   7    1.40    0.40
  -9   5  -7    0.80    0.40
   9  -5  -7    1.00    0.40
  -9  -5   7    1.00    0.40
   9  -5  -7    0.50    0.40
 -10  -5   0    0.20    0.30
 -10   5   0    0.20    0.20
 -10   5   0    0.10    0.30
 -10  -5  -1   64.59    4.00
 -10   5   1   60.79    3.90
 -10   5   1   62.09    3.90
 -10  -5   1   63.79    3.90
 -10   5  -1   54.89    5.20
 -10  -5   1   52.59    3.80
 -10  -5   1   64.69    4.00
 -10   5  -1   64.09    3.90
 -10   5  -1   58.59    3.90
  10  -5  -1   59.99    3.90
 -10  -5  -2   20.70    1.50
  10   5  -2   18.50    1.50
 -10   5   2   23.30    1.60
 -10   5   2   19.90    1.50
 -10   5  -2   20.60    1.50
 -10  -5   2   20.10    1.60
 -10  -5   2   21.70    1.60
 -10   5  -2   15.90    2.70
 -10  -5   2   22.10    1.70
  10  -5  -2   19.60    1.50
 -10   5  -2   22.20    1.60
 -10   5  -2   21.00    1.50
 -10   5  -2   21.90    1.60
 -10  -5  -3    9.30    0.90
 -10  -5  -3    9.00    0.90
  10   5  -3   10.80    1.00
 -10   5   3   10.90    1.00
 -10  -5   3    9.40    1.00
  10  -5  -3   10.60    0.90
 -10  -5   3    9.70    1.10
 -10   5  -3    9.60    1.00
  10  -5  -3    9.50    1.00
 -10   5  -3   11.00    1.00
 -10  -5   3   10.20    1.10
  10   5  -4    7.40    0.90
  10   5  -4    6.40    1.00
 -10  -5  -4    8.40    0.80
 -10   5   4    6.50    0.80
 -10  -5   4    6.20    0.90
  10  -5  -4    6.80    0.80
 -10  -5   4    8.80    1.00
 -10   5  -4    7.30    0.90
 -10  -5   4    7.90    0.90
 -10   5  -4    6.80    0.90
  10  -5  -4    6.40    0.90
  10   5  -5   11.40    1.20
  10   5  -5    9.10    1.20
 -10  -5  -5   13.70    1.20
 -10   5   5   11.70    1.20
  10  -5  -5   12.90    1.10
  10  -5  -5   12.50    1.20
 -10  -5   5   12.00    1.20
 -10   5  -5   12.60    1.20
  10   5  -6   34.80    2.60
  10   5  -6   34.70    2.60
 -10   5   6   39.10    2.60
 -10  -5  -6   36.10    2.50
  10  -5  -6   36.00    2.60
 -10   5  -6   38.80    2.60
  10  -5  -6   34.10    2.50
 -10  -5   6   42.30    2.70
 -10  -5  -7    3.00    0.60
  10   5  -7    2.50    0.50
 -10   5   7    2.70    0.70
 -10  -5   7    2.80    0.50
  10  -5  -7    2.60    0.50
 -10   5  -7    2.90    0.50
 -11  -5   0   81.99    5.50
 -11   5   0   88.49    5.40
 -11   5   0   83.69    5.30
 -11  -5  -1   14.10    1.20
 -11   5   1   14.10    1.20
 -11   5   1   13.90    1.20
 -11  -5   1   12.70    1.30
 -11   5  -1   13.30    1.20
 -11   5  -1   12.20    1.10
 -11   5   2   77.79    5.30
 -11   5   2   85.49    5.40
 -11  -5  -2   87.99    5.40
 -11   5  -2   86.29    5.30
 -11   5  -2   76.99    5.30
 -11  -5   2   93.79    5.40
 -11  -5   2   89.19    5.50
 -11  -5   2   80.89    5.40
  11  -5  -2   84.49    5.30
 -11   5   3    0.30    0.30
 -11  -5  -3    0.80    0.30
  11   5  -3    0.50    0.40
  11  -5  -3    0.10    0.30
 -11   5  -3    0.60    0.40
 -11  -5   3    0.80    0.40
  11  -5  -3   -0.20    0.40
 -11  -5   3    0.70    0.50
 -11  -5   3    0.50    0.40
 -11   5  -3    0.40    0.40
 -11  -5  -4    0.80    0.50
  11   5  -4    1.90    0.50
  11   5  -4    1.90    0.60
 -11   5   4    1.40    0.50
 -11   5  -4    1.20    0.50
 -11  -5   4    1.60    0.50
 -11  -5   4    1.20    0.60
  11  -5  -4    1.80    0.50
  11  -5  -4    1.70    0.40
 -11   5  -4    1.40    0.50
  11   5  -5    1.50    0.50
 -11   5   5    1.80    0.50
  11   5  -5    1.00    0.50
 -11  -5  -5    0.90    0.50
  11  -5  -5    1.00    0.40
  11  -5  -5    1.20    0.50
 -11  -5   5    1.30    0.50
 -11   5  -5    0.90    0.50
  11   5  -6    0.40    0.40
  11   5  -6   -0.10    0.40
 -11  -5  -6    0.40    0.40
 -11   5   6    0.10    0.40
 -11  -5   6    0.60    0.40
 -11   5  -6    0.00    0.40
  11  -5  -6    0.00    0.30
  11  -5  -6    0.10    0.40
 -12   5   0    0.20    0.30
 -12   5   0    0.70    0.40
 -12  -5   0    0.30    0.40
 -12   5   1   75.69    4.70
 -12  -5  -1   75.59    4.80
 -12   5   1   80.49    4.70
 -12   5  -1   63.69    4.70
 -12  -5   1   68.89    4.80
 -12   5  -1   75.89    4.70
 -12   5   2   25.20    1.90
 -12  -5  -2   27.50    2.00
 -12   5   2   25.00    2.00
 -12  -5   2   26.70    2.00
 -12   5  -2   28.20    2.00
 -12  -5   2   29.20    2.10
  12  -5  -2   25.20    1.90
 -12   5   3    0.90    0.40
 -12  -5  -3    0.90    0.40
  12   5  -3    1.20    0.50
 -12   5  -3    0.80    0.50
  12  -5  -3    1.00    0.40
 -12  -5   3    1.40    0.50
 -12   5  -3    0.90    0.40
 -12  -5   3    0.80    0.50
  12   5  -4    7.20    1.00
 -12   5   4    5.20    0.80
  12   5  -4    6.30    0.80
 -12   5  -4    4.90    0.70
 -12   5  -4    5.50    0.80
 -12  -5   4    6.50    0.90
 -12  -5   4    5.80    0.90
  12  -5  -4    5.30    0.70
  12  -5  -4    5.60    0.80
 -12  -5  -5   11.00    1.10
 -12   5   5   12.20    1.20
  12   5  -5   13.40    1.20
  12   5  -5   11.70    1.20
 -12  -5   5   12.80    1.20
 -12   5  -5   10.60    1.20
  12  -5  -5   12.80    1.10
  12  -5  -5   10.50    1.10
 -12   5   6   47.00    3.00
 -12  -5  -6   39.50    2.90
  12   5  -6   45.10    3.00
 -12  -5   6   50.39    3.00
  12  -5  -6   41.80    2.90
 -12   5  -6   44.40    3.00
 -13   5   0  131.09    7.60
 -13   5   0  127.99    7.60
 -13  -5   0  102.49    7.60
 -13  -5  -1    0.30    0.40
 -13   5   1    1.50    0.50
 -13   5   1    1.10    0.40
 -13   5  -1    0.60    0.40
 -13   5  -1    0.90    0.40
 -13  -5   1    0.40    0.50
 -13   5   2    7.20    0.90
 -13   5   2    9.00    0.90
 -13  -5  -2    9.50    0.90
 -13   5  -2    5.90    0.80
 -13  -5   2    7.30    0.90
 -13   5  -2    7.90    0.90
 -13  -5   2    8.50    1.10
 -13  -5  -3    6.30    0.80
 -13   5   3    5.20    0.80
 -13  -5   3    6.50    1.00
 -13   5  -3    7.10    0.80
  13  -5  -3    6.80    0.80
 -13  -5   3    7.50    0.90
  13   5  -4   23.50    1.90
  13   5  -4   22.10    1.90
 -13   5   4   27.20    1.90
  13  -5  -4   22.70    1.70
 -13   5  -4   22.10    1.80
 -13  -5   4   25.90    1.90
 -13   5   5    4.90    0.70
  13   5  -5    5.10    0.70
  13   5  -5    4.80    0.70
  13  -5  -5    4.70    0.70
 -13  -5   5    6.10    0.70
 -13   5  -5    3.60    0.70
 -13   5   6    0.10    0.30
  13   5  -6    1.00    0.50
 -13  -5   6    0.30    0.50
 -14  -5   0    0.70    0.40
 -14   5   0    0.10    0.40
 -14   5   0   -0.50    0.30
 -14   5   1    2.30    0.50
 -14  -5  -1    2.10    0.60
 -14   5   1    2.10    0.50
 -14   5  -1    2.20    0.50
 -14  -5   1    3.80    0.70
 -14   5  -1    2.20    0.50
 -14   5   2   72.19    4.80
 -14   5   2   67.29    4.80
 -14  -5  -2   77.59    4.90
 -14   5  -2   77.59    4.90
 -14   5  -2   76.29    4.80
 -14  -5   2   75.29    5.00
 -14  -5   2   79.09    5.00
  14   5  -3    0.60    0.60
 -14  -5  -3    0.50    0.40
 -14   5   3    0.70    0.40
 -14  -5   3    1.40    0.50
 -14  -5   3    0.10    0.50
 -14   5  -3    1.00    0.50
 -14   5   4    1.60    0.50
  14   5  -4    1.20    0.50
 -14  -5   4    2.30    0.60
 -14   5   5    1.60    0.40
  14   5  -5    2.00    0.50
 -14  -5   5    1.20    0.40
 -15  -5   0  118.39    7.40
 -15   5   0  112.19    7.30
 -15   5   0  116.09    7.20
 -15  -5  -1    1.70    0.50
 -15   5   1    1.30    0.50
 -15   5   1    1.60    0.50
 -15   5  -1    1.40    0.50
 -15   5  -1    1.40    0.50
 -15  -5   1    1.20    0.50
 -15   5   2   12.90    1.20
 -15  -5  -2   12.40    1.20
 -15   5  -2   11.50    1.20
 -15  -5   2   12.60    1.30
  15   5  -3    9.60    1.20
 -15   5   3   12.20    1.10
 -15  -5  -3    9.80    1.00
 -15  -5   3   11.30    1.10
 -15  -5   3   10.70    1.20
 -15   5   4    3.10    0.50
  15   5  -4    2.40    0.60
 -15  -5   4    1.80    0.50
 -16  -5   0    0.00    0.40
 -16   5   0   -0.10    0.40
 -16   5   0    0.10    0.40
 -16  -5  -1    0.70    0.40
 -16   5   1   -0.10    0.40
 -16   5   1    0.40    0.40
 -16  -5   1   -0.10    0.40
 -16   5  -1    0.70    0.40
 -16   5  -1    0.20    0.40
  16   5  -2    7.60    1.10
 -16  -5  -2    8.00    0.90
 -16   5   2    8.70    0.90
 -16  -5   2    8.30    1.00
 -16   5  -2    8.60    1.10
 -16   5   3   -0.10    0.30
  16   5  -3   -0.30    0.50
 -16  -5   3    0.10    0.60
 -16   5   4   37.00    2.50
 -17   5   0   41.10    2.80
 -17  -5   0   41.20    2.90
 -17   5   1    4.00    0.60
 -17  -5  -1    3.10    0.60
 -17  -5   1    3.30    0.60
 -17   5  -1    3.60    0.60
 -17   5   2   32.60    2.30
 -17   5   3    4.80    0.60
   0  -6   0 4963.70  305.67
   0  -6   0 5265.97  305.47
   0   6  -1   -2.40    0.30
   0   6   1   -2.60    0.30
   0  -6  -1   -2.70    0.20
   0   6  -1   -2.60    0.50
   0  -6   1   -2.80    0.30
   0  -6   2   44.80    3.70
   0   6  -2   37.00    3.30
   0  -6  -2   43.40    2.90
   0   6   2   48.60    3.50
   0  -6  -3    0.20    0.40
   0  -6   3   -0.20    0.80
   0   6   3    0.80    0.70
   0   6  -3    0.00    0.50
   0   6   3    0.20    0.20
   0  -6  -4  505.95   32.10
   0   6  -4  507.55   32.10
   0   6   4  568.24   32.10
   0   6  -4  539.05   33.60
   0   6  -4  507.55   32.10
   0  -6  -4  565.84   32.20
   0  -6  -4  549.45   32.10
   0  -6  -5    0.30    0.30
   0   6  -5   -0.20    0.30
   0  -6  -5    0.00    0.30
   0   6   5    0.40    0.30
   0   6  -5   -0.20    0.30
   0   6   6   23.60    1.80
   0  -6  -6   25.90    2.00
   0  -6  -6   24.80    1.80
   0  -6  -7   -0.20    0.30
   0  -6  -7    0.00    0.40
   0  -6   7    0.00    0.40
   0   6   7    0.00    0.40
   0   6   8    1.30    0.40
   0  -6  -8    2.00    0.50
   0  -6   8    1.50    0.50
   1   6   0   -0.20    0.30
  -1  -6   0    0.00    0.20
   1  -6   0    0.10    0.20
  -1   6   0   -0.10    0.40
  -1   6   0    0.00    0.20
   1   6  -1  322.67   21.20
   1   6  -1  398.86   21.70
  -1   6  -1  312.77   21.30
   1  -6  -1  359.26   21.00
  -1  -6   1  296.87   21.40
  -1   6  -1  388.46   21.60
   1  -6   2  673.63   40.50
   1   6  -2  548.95   39.90
  -1   6   2  661.03   40.10
  -1  -6  -2  624.14   39.40
  -1  -6  -2  720.83   39.50
  -1  -6   2  671.13   40.50
   1   6   2  699.03   40.10
  -1   6   3  193.98   13.20
   1  -6   3  197.78   13.50
   1   6  -3  202.98   13.10
   1   6  -3  186.68   12.00
  -1   6   3  197.38   12.00
   1   6   3  195.28   13.10
   1  -6  -3  205.18   12.00
  -1   6  -3  214.68   13.30
  -1  -6   3  192.48   13.50
   1   6   3  194.18   12.00
  -1   6   4   11.50    0.90
   1   6  -4   11.30    2.00
  -1  -6  -4   10.90    1.00
   1   6  -4   11.00    1.00
  -1  -6  -4   11.40    0.90
  -1   6  -4   10.50    2.20
  -1   6  -4   10.30    0.90
  -1   6  -4   15.80    1.00
   1   6   4    8.10    2.00
   1  -6  -4   12.70    1.00
   1  -6  -4   13.00    1.90
   1   6   4   11.00    0.90
  -1   6  -4   10.60    1.00
  -1  -6   4    9.10    0.90
   1  -6  -4   10.90    0.90
   1   6  -5   46.50    3.30
   1   6  -5   51.59    3.40
  -1  -6  -5   51.19    3.40
  -1  -6  -5   52.89    3.30
  -1   6   5   51.59    3.30
   1  -6  -5   46.80    3.30
  -1   6  -5   49.70    3.30
   1   6   5   50.89    3.30
   1  -6  -5   51.49    3.30
   1  -6  -5   51.99    3.40
   1   6  -6  172.68   11.00
  -1  -6  -6  186.88   11.00
  -1  -6  -6  194.68   11.10
  -1   6   6  179.88   11.00
   1   6   6  169.18   11.00
   1  -6  -6  178.58   11.10
   1  -6  -6  181.48   11.00
  -1   6  -6  169.28   11.00
  -1   6   7    0.80    0.40
   1  -6   7    1.60    0.50
  -1  -6  -7    1.10    0.40
   1  -6  -7    1.80    0.50
   1  -6  -7    1.30    0.50
  -1  -6   7    1.00    0.40
   1   6   7    1.40    0.40
   1  -6   8   25.70    1.80
  -1   6   8   23.40    1.80
  -1  -6  -8   24.60    1.90
   1  -6  -8   23.60    1.80
   1   6   8   25.10    1.80
  -1  -6   8   28.10    2.20
  -2   6   0 1895.01  112.89
  -2  -6   0 1825.92  112.69
   2  -6   0 1929.71  112.99
   2   6  -1   85.89    5.60
   2   6  -1   66.29    5.00
  -2   6   1   92.29    5.40
   2  -6   1   79.09    5.50
  -2   6  -1   66.49    5.20
  -2  -6   1   65.89    5.20
  -2   6  -1   86.49    5.50
   2  -6   2  108.19    7.50
  -2   6   2   97.89    7.10
  -2  -6   2  105.69    7.50
  -2   6   3    1.00    0.80
   2   6  -3    2.80    0.40
   2   6  -3    0.70    0.60
  -2   6   3    0.60    0.20
  -2   6  -3    0.20    0.60
   2  -6  -3    0.90    0.20
  -2  -6   3    0.50    0.90
   2   6   3    1.20    0.20
   2   6   3    0.50    0.70
   2   6  -4   51.89    3.40
  -2   6   4   55.89    3.40
  -2  -6  -4   53.79    3.40
   2   6  -4   51.39    3.40
   2   6  -4   52.79    4.70
  -2  -6  -4   54.59    3.40
   2   6   4   52.89    3.30
  -2   6  -4   50.79    3.40
   2  -6  -4   53.29    3.40
  -2   6  -4   48.70    4.80
   2   6   4   43.40    4.90
  -2  -6   4   45.40    3.40
  -2   6  -4   49.99    3.40
   2  -6  -4   56.09    3.40
   2  -6  -4   61.39    4.40
   2  -6  -4   57.89    3.50
   2   6  -5   76.89    5.10
   2   6  -5   76.89    5.10
  -2   6   5   79.99    5.00
  -2  -6  -5   81.19    5.00
  -2  -6  -5   79.89    5.10
   2   6   5   81.59    5.00
   2  -6  -5   80.09    5.00
   2  -6  -5   84.29    5.10
  -2   6  -5   77.79    5.00
   2  -6  -5   76.79    5.00
   2   6  -6   66.39    4.60
  -2  -6  -6   73.59    4.70
  -2  -6  -6   73.69    4.50
  -2   6   6   71.09    4.50
   2   6  -6   73.19    4.60
   2   6   6   67.49    4.50
  -2   6  -6   69.19    4.50
  -2  -6   6   76.69    4.50
   2  -6  -6   64.49    4.60
   2  -6  -6   70.29    4.50
   2  -6  -6   63.89    4.50
  -2  -6  -7   11.20    1.20
   2  -6   7   10.20    1.10
  -2  -6  -7   11.00    1.00
  -2   6   7   10.80    1.10
  -2  -6   7   11.00    1.10
  -2   6  -7   10.40    1.00
   2  -6  -7   11.10    1.20
   2   6   7   11.80    1.10
   2  -6   8    4.60    0.60
  -2  -6  -8    3.50    0.50
  -2  -6  -8    4.50    0.70
   2   6   8    4.80    0.60
   2  -6  -8    4.90    0.70
  -3   6   0   -0.40    0.40
   3   6   0    0.20    0.40
   3  -6   0    0.00    0.30
  -3   6   0   -0.20    0.30
   3   6  -1  146.79    9.30
  -3   6   1  176.48    9.70
  -3   6   1  140.49    9.40
   3   6  -1  162.38    9.90
  -3   6   1  145.69    9.50
   3  -6   1  142.69    9.70
  -3   6  -1  164.88    9.70
  -3   6  -1  127.49    9.60
  -3  -6   1  127.29    9.40
   3  -6   2  230.98   14.90
  -3   6   2  213.78   14.50
   3   6  -2  231.58   14.40
  -3  -6   2  219.38   14.80
  -3   6  -2  251.87   14.50
  -3   6  -2  217.78   14.70
  -3   6   3  343.07   21.70
   3   6  -3  388.26   22.90
  -3   6   3  344.37   23.10
   3   6  -3  372.36   21.80
  -3  -6  -3  350.96   21.90
   3  -6   3  375.06   23.40
  -3   6  -3  361.56   23.20
  -3  -6   3  349.07   23.40
   3   6   3  350.56   21.70
   3   6   3  370.06   23.00
   3  -6  -3  377.46   21.80
  -3  -6  -4   42.70    2.80
   3   6  -4   42.90    2.80
   3   6  -4   41.10    4.00
  -3  -6  -4   42.50    2.70
   3   6  -4   44.50    2.80
  -3   6   4   34.20    2.60
  -3   6   4   41.00    2.70
  -3   6  -4   44.10    2.70
   3  -6  -4   44.40    2.80
   3   6   4   44.80    2.70
  -3   6  -4   43.40    2.70
  -3   6  -4   37.50    4.20
   3   6   4   31.30    4.30
   3  -6  -4   40.50    2.70
  -3  -6   4   36.10    2.70
   3  -6  -4   41.80    2.70
  -3  -6  -5   41.40    2.60
   3   6  -5   37.50    2.50
   3   6  -5   37.60    2.50
  -3   6   5   29.40    2.40
  -3  -6  -5   38.80    2.40
  -3   6   5   36.80    2.40
   3  -6  -5   32.90    2.40
   3  -6  -5   38.60    2.50
  -3   6  -5   37.10    2.50
  -3  -6   5   32.90    2.40
   3  -6  -5   32.50    2.40
   3   6   5   36.00    2.40
  -3  -6  -6   35.70    2.70
   3   6  -6   35.00    2.60
  -3   6   6   36.10    2.60
  -3  -6  -6   38.00    2.60
   3   6  -6   38.30    2.60
   3   6   6   37.80    2.50
   3  -6  -6   34.10    2.50
  -3   6  -6   35.70    2.60
  -3  -6   6   40.70    2.60
   3   6  -7    6.80    0.90
  -3  -6  -7    9.70    1.10
   3  -6   7    8.80    0.90
  -3   6   7    8.50    0.90
  -3  -6  -7    7.30    0.80
  -3   6  -7    8.20    0.90
   3  -6  -7    8.50    1.00
   3   6   7    7.80    0.90
  -3  -6   7    7.90    0.90
   3  -6   8    0.00    0.40
  -3  -6  -8    0.40    0.30
   3  -6  -8   -0.40    0.30
   3   6   8   -0.60    0.40
   3   6   8    0.80    0.40
  -4   6   0  968.40   57.39
   4   6   0 1024.20   57.39
   4  -6   0  853.61   57.19
   4  -6   1  277.67   18.00
  -4   6   1  321.77   18.00
  -4   6   1  245.68   17.70
  -4  -6   1  246.08   17.50
  -4   6  -1  294.77   17.70
   4   6   1  329.57   17.60
   4  -6   2   19.60    2.40
  -4   6   2   16.80    2.00
  -4   6  -2   20.60    1.90
  -4   6  -2   20.80    2.30
  -4  -6   2   18.30    2.30
   4   6  -3   43.20    2.60
  -4   6   3   38.20    2.50
  -4  -6  -3   40.60    2.60
   4  -6   3   40.90    4.10
   4   6  -3   43.80    3.60
  -4   6   3   37.30    3.70
  -4  -6   3   39.20    2.60
  -4  -6   3   39.90    2.60
  -4   6  -3   36.60    3.80
   4  -6  -3   40.20    2.60
  -4   6  -3   39.80    2.60
  -4  -6   3   37.90    4.10
   4   6   3   37.60    2.50
   4   6   3   40.00    3.60
  -4   6  -3   38.60    2.60
  -4   6   4    4.50    0.60
   4   6  -4    6.80    1.70
  -4   6   4    4.70    0.60
  -4  -6  -4    5.30    0.70
   4   6  -4    6.40    0.80
   4   6  -4    5.70    0.70
  -4  -6  -4    5.10    0.60
  -4   6  -4    6.00    0.70
   4  -6  -4    4.60    0.60
   4  -6  -4    5.60    0.70
  -4  -6   4    5.10    0.60
   4   6   4    6.10    0.60
  -4  -6   4    6.40    0.70
  -4   6  -4    4.70    0.60
  -4   6  -4    4.20    1.60
  -4   6  -4    4.50    0.60
  -4   6   5    5.90    0.70
  -4   6   5    6.50    0.80
  -4  -6  -5    6.00    0.80
  -4  -6  -5    6.80    0.80
   4   6  -5    7.90    0.90
   4   6  -5    6.40    0.80
  -4  -6   5    6.40    0.70
   4  -6  -5    7.30    0.80
   4  -6  -5    9.00    0.90
  -4  -6   5    6.40    0.80
  -4   6  -5    7.20    0.80
   4   6   5    6.30    0.70
   4   6  -6    7.80    1.00
  -4   6   6    7.50    0.90
  -4  -6  -6    7.50    1.00
  -4  -6  -6    5.30    0.80
   4   6  -6    8.60    1.00
   4  -6  -6    5.70    0.80
   4   6   6    7.80    0.80
   4  -6  -6    8.50    0.90
  -4   6  -6    8.00    0.90
  -4  -6   6    8.00    0.90
  -4  -6  -7    1.20    0.40
   4  -6   7    0.90    0.40
  -4  -6  -7    1.90    0.50
   4   6  -7    1.50    0.50
  -4   6   7    1.00    0.50
   4   6  -7    1.10    0.50
  -4   6  -7    0.90    0.40
   4  -6  -7    1.20    0.50
   4   6   7    2.10    0.50
   4  -6  -7    1.00    0.40
  -4  -6  -8    4.60    0.60
   4   6   8    5.90    0.60
  -4  -6   8    5.40    0.70
   4  -6  -8    4.90    0.70
  -5   6   0    0.10    0.30
  -5   6   0    0.20    0.50
  -5   6   0    0.70    0.30
   5  -6   0    0.60    0.40
   5   6   0   -0.10    0.50
  -5   6   1 1625.44   85.49
  -5   6   1 1335.37   85.09
   5  -6   1 1420.76   85.49
  -5  -6   1 1259.37   84.59
  -5   6  -1 1384.26   84.69
  -5   6  -1 1474.05   84.69
   5  -6   2  121.99    8.00
   5   6  -2  102.89    6.70
  -5   6   2  109.69    7.60
  -5  -6   2  108.09    7.60
   5  -6  -2  108.89    6.70
  -5   6  -2  118.69    8.00
  -5  -6   2   97.09    6.70
   5   6  -3 1069.19   58.99
  -5   6   3  859.21   58.99
  -5   6   3  905.01   57.69
   5   6  -3 1064.99   57.79
  -5  -6  -3 1042.80   57.79
  -5  -6  -3  984.50   57.69
   5  -6   3  925.21   59.39
   5  -6  -3 1027.40   57.69
  -5   6  -3  907.21   59.29
  -5  -6   3  909.71   57.79
  -5   6  -3 1048.10   57.79
  -5  -6   3  894.31   59.29
   5   6   3  923.11   58.79
   5  -6  -3  987.70   57.79
   5   6   3  871.81   57.59
  -5  -6   3  953.20   57.79
  -5   6  -3 1014.40   57.79
  -5   6  -3  971.50   57.69
  -5   6   4   18.00    1.30
  -5   6   4   15.70    1.30
   5   6  -4   16.60    1.40
  -5  -6  -4   18.20    1.40
   5   6  -4   17.70    1.40
   5   6  -4   14.40    2.40
  -5  -6  -4   18.20    1.30
  -5  -6   4   14.40    1.30
  -5  -6   4   18.30    1.30
  -5   6  -4   16.10    1.30
  -5   6  -4   12.80    2.60
   5  -6  -4   18.10    1.30
   5  -6  -4   17.30    1.30
  -5   6  -4   16.20    1.30
  -5   6  -4   18.20    1.30
   5   6   4   15.40    1.20
  -5   6   5    2.30    0.50
  -5  -6  -5    1.80    0.40
  -5  -6  -5    1.80    0.50
   5   6  -5    1.90    0.50
  -5   6   5    2.40    0.50
   5   6  -5    2.30    0.60
  -5   6  -5    2.10    0.50
   5  -6  -5    1.90    0.50
  -5  -6   5    2.50    0.50
   5  -6  -5    2.40    0.50
  -5  -6  -6    3.30    0.70
  -5   6   6    3.00    0.60
   5   6  -6    3.90    0.70
   5   6  -6    2.90    0.60
  -5  -6  -6    2.80    0.50
  -5   6   6    3.20    0.60
  -5   6  -6    4.10    0.70
   5   6   6    3.80    0.60
   5  -6  -6    3.20    0.70
   5  -6  -6    3.80    0.60
   5   6  -7    0.40    0.40
  -5  -6  -7    0.70    0.40
   5   6  -7    0.40    0.40
   5  -6   7    0.80    0.40
   5  -6  -7    1.00    0.40
  -5   6  -7    0.70    0.40
   5  -6  -7    0.60    0.40
   5   6   7    0.50    0.40
  -5  -6  -8    3.60    0.50
  -5  -6   8    2.90    0.50
   5   6   8    3.00    0.60
   5  -6  -8    2.80    0.50
   6   6   0  197.28   12.10
  -6   6   0  180.08   12.20
   6  -6   0  183.48   11.80
  -6   6   1   13.20    1.40
   6  -6   1   13.30    1.70
  -6   6  -1   10.90    0.90
  -6  -6   1   10.90    1.00
  -6   6   2  143.09   10.00
   6   6  -2  148.99    9.20
   6  -6   2  154.98   10.50
  -6   6  -2  153.18   10.40
  -6  -6   2  148.19    9.20
  -6   6  -2  148.59    9.10
   6  -6  -2  149.59    9.10
  -6   6  -2  151.88    9.20
  -6  -6   2  150.48    9.20
  -6  -6  -3  697.53   38.90
  -6   6   3  615.04   38.80
   6  -6   3  562.14   40.40
   6   6  -3  718.03   38.90
   6   6  -3  682.53   40.10
  -6  -6  -3  653.03   38.80
  -6   6  -3  578.24   40.30
   6  -6  -3  637.94   38.80
  -6   6  -3  687.03   38.90
   6  -6  -3  697.83   38.80
  -6   6  -3  649.04   38.80
   6   6   3  560.34   38.70
  -6  -6   3  628.34   38.90
  -6  -6   3  649.14   38.90
  -6   6  -3  692.03   38.90
   6   6  -4   90.29    5.40
  -6  -6  -4   87.09    5.30
  -6  -6  -4   84.69    5.40
  -6   6   4   83.89    5.30
   6   6  -4   81.19    7.00
   6   6   4   79.99    5.20
  -6   6  -4   86.29    5.40
  -6  -6   4   73.99    5.40
   6  -6  -4   90.39    5.30
  -6   6  -4   83.99    5.30
  -6   6  -4   89.09    5.40
  -6  -6   4   83.29    5.40
   6  -6  -4   85.99    5.40
   6   6  -5  124.89    7.40
  -6  -6  -5  101.29    7.20
  -6  -6  -5  117.79    7.40
  -6   6   5  116.39    7.30
  -6  -6   5  116.99    7.30
   6  -6  -5  122.89    7.30
   6   6   5  114.49    7.20
   6  -6  -5  118.09    7.30
   6   6  -6   11.90    1.20
  -6   6   6   10.50    1.00
  -6  -6  -6    8.60    1.00
  -6  -6  -6   11.70    1.20
   6   6  -6   11.00    1.20
   6   6   6   11.50    1.00
  -6  -6   6    9.70    1.00
   6  -6  -6    7.30    1.00
   6  -6  -6   10.70    1.00
  -6   6  -6   12.30    1.10
   6   6  -7   44.80    3.00
   6  -6   7   44.10    2.90
   6   6  -7   43.70    3.00
  -6  -6  -7   45.10    2.90
  -6  -6   7   47.30    3.00
   6  -6  -7   39.00    2.90
   6   6   7   39.60    2.90
   6  -6  -7   43.60    3.00
  -6   6  -7   48.70    3.00
  -6  -6   8    1.10    0.40
   7  -6   0   -0.30    0.40
  -7   6   0    0.30    0.20
  -7  -6   0    0.00    0.30
  -7   6   0   -0.10    0.50
  -7   6   1  648.54   42.10
  -7  -6  -1  667.03   42.20
   7  -6   1  721.73   43.10
  -7   6  -1  754.72   43.50
  -7   6  -1  745.73   42.20
   7  -6  -1  699.53   42.10
  -7  -6   1  689.63   42.20
   7   6  -2    0.40    0.30
  -7  -6  -2    1.10    0.40
  -7   6   2    0.40    0.30
  -7  -6  -2    0.20    0.30
   7  -6   2   -0.40    1.20
  -7   6  -2    0.70    0.30
  -7   6  -2    0.10    0.30
  -7   6  -2    0.50    0.80
  -7   6  -2    0.30    0.30
  -7  -6   2    0.40    0.30
  -7  -6   2    0.70    0.30
   7  -6  -2    0.20    0.20
  -7   6  -2    0.00    0.30
   7   6  -3   58.59    3.70
  -7  -6  -3   56.89    3.60
  -7  -6  -3   59.79    3.70
  -7   6   3   53.99    3.60
   7  -6  -3   52.59    3.60
  -7   6  -3   58.69    3.70
  -7  -6   3   54.89    3.70
  -7   6  -3   44.30    4.80
  -7  -6   3   59.09    3.70
  -7   6  -3   59.19    3.60
  -7   6  -3   56.19    3.70
   7  -6  -3   60.59    3.60
  -7   6   4   26.90    1.90
  -7  -6  -4   26.30    1.90
   7   6  -4   29.10    2.00
  -7  -6  -4   29.20    2.00
   7  -6  -4   23.80    1.90
  -7   6  -4   28.10    1.90
  -7  -6   4   25.00    2.00
   7  -6  -4   27.00    2.00
   7   6   4   24.40    1.80
  -7   6  -4   28.30    2.00
  -7  -6   4   27.10    2.00
  -7  -6  -5    0.90    0.50
   7   6  -5    0.30    0.40
  -7  -6  -5    0.30    0.30
   7   6  -5    0.70    0.40
  -7   6   5    0.80    0.40
  -7   6  -5    0.50    0.40
   7   6   5    0.80    0.30
   7  -6  -5    0.60    0.30
   7  -6  -5    0.40    0.40
  -7  -6   5    0.50    0.40
   7   6  -6   13.30    1.30
  -7  -6  -6   11.90    1.20
  -7   6   6   14.40    1.20
   7   6  -6   15.20    1.30
  -7   6  -6   10.50    1.20
  -7  -6   6   14.40    1.20
   7   6   6   14.80    1.20
   7  -6  -6   14.20    1.20
   7  -6  -6   14.30    1.30
   7   6  -7    5.80    0.80
  -7  -6  -7    6.20    0.70
   7  -6   7    5.80    0.70
   7   6  -7    5.80    0.80
   7   6   7    6.20    0.70
   7  -6  -7    5.20    0.70
   7  -6  -7    4.80    0.70
  -7  -6   7    6.40    0.80
  -7   6  -7    6.60    0.80
  -8   6   0  219.98   13.50
  -8   6   0  207.88   13.40
  -8   6   0  235.68   14.80
  -8  -6   0  226.48   13.50
  -8  -6  -1    3.70    0.50
  -8  -6  -1    3.80    0.60
  -8   6   1    4.10    0.50
  -8   6   1    3.40    0.50
  -8   6  -1    4.30    0.50
  -8   6  -1    4.00    0.50
  -8  -6   1    4.50    0.60
  -8   6  -1    3.80    0.50
   8  -6  -1    3.90    0.40
  -8  -6   1    3.90    0.50
  -8   6  -1    3.70    1.20
  -8  -6  -2   93.49    5.90
  -8   6   2   96.39    5.90
  -8  -6  -2  112.19    6.10
   8   6  -2   98.19    6.00
  -8   6  -2   97.99    6.00
  -8  -6   2   79.59    5.90
  -8   6  -2   95.09    6.00
   8  -6  -2   79.29    5.90
  -8   6  -2  104.89    6.00
   8  -6  -2  100.49    5.90
  -8   6  -2   90.29    7.30
  -8  -6   2   96.89    6.00
  -8   6  -2   92.19    5.90
  -8  -6   2  103.09    6.10
  -8  -6  -3    5.40    0.80
   8   6  -3    4.70    0.60
  -8  -6  -3    5.80    0.60
  -8   6   3    5.00    0.60
  -8   6  -3    4.80    0.70
  -8  -6   3    4.10    0.70
  -8   6  -3    5.20    0.70
  -8  -6   3    4.00    0.60
   8  -6  -3    5.40    0.70
  -8   6  -3    4.60    0.60
   8  -6  -3    4.50    0.60
  -8   6  -3    2.80    1.50
  -8  -6   3    5.60    0.70
  -8  -6  -4   58.59    3.80
   8   6  -4   61.19    3.90
  -8  -6  -4   64.99    4.00
  -8   6   4   58.49    3.90
   8  -6  -4   53.79    3.80
  -8   6  -4   63.49    4.00
   8  -6  -4   58.99    3.90
  -8  -6   4   60.69    3.90
  -8   6  -4   58.19    3.90
  -8  -6   4   56.89    4.00
  -8   6   5   39.60    2.80
  -8  -6  -5   39.60    3.10
  -8  -6  -5   41.70    2.70
   8   6  -5   38.40    2.80
   8   6  -5   39.60    2.90
   8  -6  -5   35.70    2.70
   8  -6  -5   41.00    2.80
  -8  -6   5   43.80    2.90
  -8  -6   5   40.90    2.80
   8   6  -6    0.90    0.50
   8   6  -6    1.20    0.50
  -8  -6  -6    1.40    0.50
  -8   6   6    1.10    0.40
  -8  -6   6    1.40    0.50
  -8   6  -6    2.00    0.50
   8   6   6    0.70    0.40
   8  -6  -6    1.00    0.40
   8  -6  -6    1.50    0.50
  -8   6   7    1.20    0.40
   8  -6   7    1.70    0.40
  -8  -6  -7    1.80    0.40
   8   6  -7    1.30    0.40
   8   6  -7    1.10    0.50
  -8  -6   7    1.70    0.50
   8  -6  -7    0.30    0.40
  -8   6  -7    0.40    0.40
  -9   6   0    1.00    0.90
  -9   6   0    0.40    0.20
  -9  -6   0   -0.10    0.20
  -9  -6   0   -0.30    0.30
  -9   6   0    0.10    0.20
  -9  -6  -1   78.69    4.90
  -9   6   1   74.49    4.80
  -9   6   1   76.39    4.80
  -9  -6   1   77.29    4.80
   9  -6  -1   76.79    4.80
  -9   6  -1   72.79    4.80
  -9   6  -1   69.29    4.80
  -9   6  -1   74.29    6.10
  -9  -6   1   81.29    5.00
  -9   6  -1   75.59    4.80
  -9   6  -1   86.19    4.90
  -9  -6  -2  109.99    6.10
  -9  -6  -2   93.59    5.90
   9   6  -2   93.29    5.90
  -9   6   2   95.89    5.90
   9  -6  -2   96.09    5.90
  -9  -6   2   99.99    6.00
  -9   6  -2   99.99    5.90
  -9   6  -2   91.69    5.90
  -9   6  -2   92.89    5.90
  -9  -6   2   85.99    5.90
  -9   6  -2   94.99    5.90
  -9   6  -2   75.59    7.10
  -9  -6   2   98.39    6.10
  -9  -6  -3    0.80    0.50
   9   6  -3    0.10    0.30
  -9   6   3    0.50    0.30
  -9  -6  -3    0.30    0.30
  -9   6  -3    0.30    0.40
  -9  -6   3    0.00    0.40
  -9   6  -3    0.40    0.40
  -9   6  -3    0.20    0.30
  -9  -6   3    0.70    0.40
   9  -6  -3    0.50    0.40
   9  -6  -3    0.20    0.30
  -9  -6   3    0.20    0.30
   9   6  -4    1.40    0.50
  -9  -6  -4    1.50    0.60
  -9   6   4    1.10    0.40
  -9  -6  -4    1.60    0.40
  -9  -6   4    1.20    0.50
   9  -6  -4    1.50    0.40
  -9   6  -4    0.90    0.40
   9  -6  -4    1.10    0.40
  -9   6  -4    0.90    0.50
  -9  -6   4    1.10    0.40
  -9  -6   4    0.70    0.40
   9   6  -5    2.50    0.60
  -9  -6  -5    3.40    0.60
   9   6  -5    3.20    0.60
  -9   6   5    3.20    0.60
  -9  -6   5    2.70    0.50
  -9   6  -5    2.20    0.50
  -9  -6   5    3.30    0.70
   9  -6  -5    3.30    0.60
   9  -6  -5    2.20    0.60
   9   6  -6   26.10    2.00
  -9   6   6   25.80    1.90
   9   6  -6   26.00    2.00
  -9  -6  -6   26.40    1.90
   9  -6  -6   25.40    2.00
   9  -6  -6   25.50    1.90
  -9   6  -6   27.60    2.00
  -9  -6   6   28.80    2.10
  -9  -6  -7    0.30    0.30
  -9   6   7   -0.10    0.40
   9   6  -7    0.10    0.40
  -9  -6   7    0.00    0.40
   9  -6  -7    0.30    0.30
  -9   6  -7    0.00    0.30
 -10  -6   0  326.17   22.40
 -10  -6   0  398.06   22.60
 -10   6   0  362.46   22.50
 -10   6   0  408.36   22.60
 -10  -6  -1   32.60    2.30
 -10   6   1   33.30    2.20
 -10   6   1   34.20    2.20
 -10  -6   1   35.60    2.40
 -10   6  -1   27.20    3.50
 -10   6  -1   32.10    2.20
 -10  -6   1   31.30    2.20
 -10   6  -1   28.30    2.20
 -10   6  -1   34.90    2.20
 -10   6   2   15.90    1.30
 -10   6   2   16.70    1.30
  10   6  -2   16.00    1.30
 -10  -6  -2   16.20    1.30
  10  -6  -2   16.40    1.30
 -10   6  -2   16.40    1.40
 -10   6  -2   17.80    1.30
 -10   6  -2   15.60    1.30
 -10  -6   2   19.40    1.40
 -10   6  -2   16.00    1.30
 -10  -6   2   14.50    1.30
 -10  -6   2   18.40    1.50
 -10  -6  -3   10.70    1.00
 -10   6   3   12.50    1.10
 -10  -6  -3   15.30    1.30
  10   6  -3   10.20    1.10
 -10  -6   3   10.90    1.10
 -10   6  -3   12.40    1.10
 -10  -6   3   10.30    1.20
  10  -6  -3   11.60    1.10
 -10   6  -3   12.50    1.10
 -10  -6   3   10.10    1.10
  10  -6  -3   11.30    1.00
 -10   6   4   30.00    2.20
  10   6  -4   31.40    2.30
  10   6  -4   30.10    2.40
 -10  -6  -4   31.70    2.20
 -10  -6   4   28.30    2.40
 -10   6  -4   28.20    2.20
 -10  -6   4   34.90    2.40
  10  -6  -4   32.60    2.20
  10  -6  -4   28.60    2.20
 -10   6  -4   33.40    2.30
  10   6  -5   55.09    3.70
 -10   6   5   58.29    3.70
 -10  -6  -5   54.19    3.70
  10   6  -5   46.40    3.70
  10  -6  -5   55.99    3.70
 -10   6  -5   59.39    3.80
 -10  -6   5   61.09    3.80
  10  -6  -5   54.49    3.70
 -10   6   6   13.50    1.20
  10   6  -6   13.20    1.20
  10   6  -6   13.90    1.30
 -10  -6  -6   14.40    1.20
 -10   6  -6   13.20    1.20
 -10  -6   6   14.40    1.30
  10  -6  -6   13.20    1.20
  10  -6  -6   13.50    1.20
  10   6  -7   17.30    1.40
  10  -6  -7   16.50    1.50
 -10  -6   7   18.50    1.40
 -10   6  -7   15.70    1.50
 -11   6   0    0.00    0.30
 -11  -6   0    0.00    0.30
 -11   6   0    0.10    0.30
 -11   6   1  215.78   12.40
 -11   6   1  199.68   12.40
 -11  -6  -1  218.88   12.50
 -11   6  -1  194.88   12.40
 -11   6  -1  207.48   12.40
 -11  -6   1  202.18   12.40
 -11  -6   1  179.58   12.50
 -11  -6  -2   30.00    2.10
 -11   6   2   27.60    2.00
 -11   6   2   31.00    2.10
 -11  -6   2   32.60    2.30
 -11   6  -2   26.90    2.10
 -11   6  -2   30.90    2.10
 -11   6  -2   21.80    2.00
 -11  -6   2   31.60    2.10
  11  -6  -2   28.70    2.00
 -11  -6   2   26.80    2.00
 -11   6  -2   29.00    2.10
 -11  -6  -3    3.80    0.60
  11   6  -3    3.50    0.70
 -11   6   3    4.30    0.60
 -11  -6   3    4.20    0.70
 -11   6  -3    4.30    0.60
 -11   6  -3    3.40    0.60
 -11  -6   3    3.60    0.70
 -11  -6   3    3.00    0.60
  11  -6  -3    3.60    0.60
  11   6  -4    5.30    0.90
 -11   6   4    4.00    0.70
 -11  -6  -4    4.70    0.70
  11   6  -4    5.60    0.80
 -11  -6   4    4.60    0.70
 -11  -6   4    4.60    0.70
 -11   6  -4    4.60    0.70
 -11  -6   4    4.60    0.80
  11  -6  -4    4.50    0.70
  11  -6  -4    4.30    0.60
 -11   6  -4    4.30    0.70
 -11   6   5   40.00    2.70
  11   6  -5   35.90    2.70
  11   6  -5   36.80    2.70
 -11  -6  -5   38.00    2.60
  11  -6  -5   36.00    2.60
 -11  -6   5   40.90    2.70
 -11   6  -5   39.20    2.70
  11  -6  -5   34.00    2.60
 -11  -6  -6   29.30    2.10
 -11   6   6   30.70    2.10
  11   6  -6   28.20    2.20
  11   6  -6   30.80    2.20
 -11  -6   6   33.90    2.20
  11  -6  -6   30.10    2.10
 -11   6  -6   31.50    2.20
 -12   6   0  210.58   12.60
 -12   6   0  212.78   12.60
 -12  -6   0  191.98   12.70
 -12   6   1  101.29    6.40
 -12  -6  -1  105.09    6.50
 -12   6   1  103.29    6.40
 -12   6  -1   98.99    6.30
 -12  -6   1   98.29    6.50
 -12  -6  -2   17.70    1.40
 -12   6   2   14.90    1.40
 -12   6   2   15.90    1.40
 -12  -6   2   18.00    1.60
 -12   6  -2   20.10    1.40
 -12   6  -2   14.20    1.30
 -12  -6   2   17.30    1.40
 -12   6   3  104.79    6.80
  12   6  -3  109.29    6.80
 -12  -6  -3  106.29    6.80
  12  -6  -3  103.99    6.70
 -12   6  -3  101.59    6.80
 -12   6  -3  114.19    6.80
 -12  -6   3  110.79    6.90
 -12  -6   3  113.89    7.00
  12   6  -4   12.40    1.40
 -12   6   4   14.40    1.20
  12   6  -4   13.20    1.30
  12  -6  -4   13.60    1.20
 -12   6  -4   13.00    1.20
 -12   6  -4   15.50    1.30
 -12  -6   4   15.40    1.30
 -12  -6   4   12.90    1.40
  12  -6  -4   11.90    1.20
  12   6  -5   19.90    1.70
  12   6  -5   20.20    1.70
 -12   6   5   21.90    1.60
 -12  -6  -5   20.20    1.80
  12  -6  -5   19.40    1.50
  12  -6  -5   17.40    1.50
 -12  -6   5   23.20    1.70
 -12   6  -5   19.80    1.60
  12   6  -6   10.10    1.00
 -12   6   6   10.60    1.00
 -12  -6   6   11.90    1.00
  12  -6  -6    8.90    0.90
 -12   6  -6   10.10    1.00
 -13   6   0    1.10    0.40
 -13   6   0   -0.30    0.30
 -13  -6   0   -0.10    0.40
 -13   6   1  512.35   30.90
 -13  -6  -1  540.95   31.00
 -13   6   1  464.25   30.90
 -13   6  -1  515.95   30.90
 -13  -6   1  509.05   31.10
 -13   6  -1  531.85   30.90
 -13  -6  -2   32.10    2.30
 -13   6   2   26.30    2.40
 -13   6  -2   28.50    2.20
 -13  -6   2   33.80    2.40
 -13   6  -2   31.60    2.20
 -13  -6  -3  197.48   12.40
 -13   6   3  195.68   12.40
 -13  -6   3  213.58   12.60
 -13   6  -3  203.08   12.40
 -13  -6   3  202.38   12.40
  13   6  -4   11.10    1.20
 -13   6   4   11.80    1.10
  13   6  -4    9.70    1.10
 -13   6  -4    8.90    1.00
 -13  -6   4   13.00    1.20
 -13   6  -4   11.30    1.10
 -13  -6   4    9.40    1.20
  13   6  -5   17.00    1.50
 -13   6   5   22.20    1.50
  13   6  -5   17.40    1.50
 -13  -6   5   19.70    1.50
 -13   6  -5   16.80    1.50
 -14   6   0   23.30    1.80
 -14  -6   0   22.80    1.90
 -14   6   0   23.80    1.80
 -14  -6  -1    2.30    0.60
 -14   6   1    1.70    0.50
 -14   6   1    1.90    0.50
 -14  -6   1    1.90    0.60
 -14   6  -1    1.60    0.50
 -14   6  -1    1.60    0.50
 -14   6   2    0.50    0.40
 -14  -6  -2    0.50    0.40
 -14  -6   2    0.60    0.50
 -14   6  -2    0.30    0.40
  14   6  -3   18.40    1.60
 -14   6   3   19.30    1.50
 -14  -6  -3   14.50    1.40
 -14   6  -3   17.00    1.50
 -14  -6   3   18.30    1.50
 -14  -6   3   17.50    1.70
  14   6  -4   14.50    1.40
 -14   6   4   16.70    1.30
 -14  -6   4   14.40    1.30
 -14   6   5    4.20    0.60
  14   6  -5    3.20    0.60
 -14  -6   5    3.40    0.60
 -15   6   0    0.00    0.40
 -15  -6   0    0.10    0.40
 -15   6   0   -0.10    0.30
 -15   6   1   17.70    1.50
 -15  -6  -1   18.40    1.60
 -15   6   1   19.70    1.50
 -15  -6   1   20.90    1.70
 -15   6  -1   18.20    1.50
 -15   6  -1   17.70    1.50
 -15  -6  -2    0.70    0.40
 -15   6   2    0.10    0.30
 -15  -6   2    0.70    0.50
 -15   6  -2    0.70    0.40
 -15   6   3    5.50    0.70
  15   6  -3    4.40    0.80
 -15  -6   3    4.20    0.80
 -15   6  -3    4.30    0.70
 -15   6   4   20.10    1.40
  15   6  -4   16.90    1.50
 -15  -6   4   16.30    1.40
 -16   6   0    5.70    0.70
 -16  -6   0    4.70    0.80
 -16   6   0    4.20    0.70
 -16   6   1    3.00    0.60
 -16   6   1    2.50    0.60
 -16  -6  -1    3.40    0.60
 -16   6  -1    3.70    0.60
 -16  -6   1    4.20    0.80
 -16   6   2   64.69    3.90
  16   6  -2   55.69    4.00
 -16  -6  -2   56.19    3.90
 -16  -6   2   64.09    4.00
 -16   6  -2   56.19    3.80
 -16   6   3    0.60    0.40
  16   6  -3    0.10    0.50
 -16   6   4    8.00    0.80
 -17  -6   0   -0.10    0.40
 -17   6   0    0.40    0.40
 -17  -6  -1    8.50    1.00
 -17   6   1    8.30    0.90
 -17  -6   1    9.40    1.00
 -17   6  -1    8.60    0.90
 -17   6   2    0.30    0.30
 -17   6   3    0.50    0.40
   0   7   0   -1.90    0.20
   0   7   0   -2.10    0.40
   0  -7   0   -1.20    0.30
   0  -7   0   -1.90    0.30
   0   7   1   -0.30    0.40
   0  -7   1   -0.70    0.40
   0   7  -1   -0.10    0.60
   0  -7  -2  184.68   11.30
   0   7   2  196.48   12.00
   0  -7   2  175.28   12.30
   0   7  -2  177.58   11.90
   0   7  -3    0.00    0.60
   0  -7  -3    0.10    0.40
   0   7   3    0.10    0.60
   0   7  -3   -0.20    0.20
   0   7   3   -0.10    0.10
   0  -7   3    1.40    1.10
   0   7   4  298.17   16.40
   0  -7  -4  290.47   16.50
   0   7  -4  263.17   16.40
   0  -7  -4  263.37   16.40
   0   7  -4  273.17   16.50
   0  -7  -4  281.17   16.40
   0  -7   4  234.98   16.40
   0   7  -4  269.97   18.00
   0   7   5   -0.10    0.20
   0  -7  -5    0.10    0.20
   0  -7  -5    0.30    0.30
   0   7  -5    0.20    0.40
   0   7  -5    0.00    0.40
   0  -7  -6   14.90    1.20
   0  -7  -6   17.20    1.40
   0   7   6   12.70    1.20
   0   7   7    0.20    0.40
   0  -7  -7    0.30    0.30
   0  -7  -7    0.10    0.40
   0  -7   7    0.60    0.40
   0  -7  -8    9.30    1.00
   0   7   8    8.60    0.90
   1  -7   0    5.90    0.90
  -1   7   0    8.10    0.90
  -1   7   0   10.10    1.30
   1   7   0    9.20    1.20
  -1  -7   0    5.50    0.80
   1   7  -1   27.30    2.40
   1  -7   1   28.30    2.70
  -1  -7   1   28.00    2.60
  -1   7  -1   35.30    2.90
  -1   7  -1   30.30    2.50
   1   7   1   34.70    2.50
   1  -7   2  544.95   33.60
  -1   7   2  551.64   33.20
   1   7  -2  516.95   33.00
  -1  -7   2  544.65   33.60
   1   7  -3  173.78   11.10
  -1   7   3  174.58   11.00
   1  -7   3  178.58   12.70
   1   7  -3  196.18   12.20
  -1   7   3  174.78   12.30
  -1   7  -3  188.58   12.30
   1   7   3  176.88   12.30
   1   7   3  186.08   11.00
  -1  -7   3  176.18   12.70
   1  -7  -3  192.18   11.00
  -1   7   4   20.40    1.40
   1   7  -4   20.30    2.70
  -1  -7  -4   19.80    1.50
  -1  -7  -4   21.00    1.40
   1   7  -4   21.10    1.50
  -1   7  -4   19.90    1.50
  -1   7  -4   20.10    1.50
   1  -7  -4   26.40    1.60
  -1   7  -4   19.20    2.80
   1  -7  -4   20.30    1.40
   1   7   4   21.20    1.40
  -1  -7   4   16.40    1.40
   1  -7  -4   20.90    1.40
  -1   7  -4   16.80    1.50
  -1  -7  -5    0.40    0.30
   1   7  -5    0.30    0.40
  -1  -7  -5    0.40    0.30
   1  -7  -5    0.20    0.30
   1   7   5    0.60    0.30
  -1   7  -5    0.80    0.30
   1  -7  -5    0.00    0.30
   1  -7  -5    0.40    0.30
  -1   7   6   10.90    1.00
  -1  -7  -6    9.80    0.90
   1   7  -6    9.00    1.00
  -1  -7  -6   11.10    1.10
  -1   7  -6    8.40    0.90
   1   7   6    7.60    0.90
   1  -7  -6    9.60    0.90
   1  -7  -6    9.60    1.10
  -1   7   7    2.50    0.60
  -1  -7  -7    2.00    0.50
   1  -7   7    2.80    0.60
  -1  -7  -7    1.60    0.60
   1  -7  -7    2.30    0.50
   1   7   7    2.30    0.50
   1  -7  -7    2.10    0.60
  -1  -7   7    2.90    0.60
  -1  -7  -8    2.50    0.60
   1  -7   8    2.90    0.60
   1   7   8    2.60    0.50
   1  -7  -8    2.50    0.50
  -2   7   0    0.10    0.50
  -2  -7   0    0.10    0.20
   2   7   0   -0.20    0.50
   2   7   0    0.10    0.20
   2  -7   0    0.10    0.30
  -2   7   0    0.10    0.30
   2  -7   1  514.35   30.50
  -2   7   1  492.45   30.00
   2   7  -1  471.25   30.00
  -2  -7   1  478.95   30.20
  -2   7  -1  581.04   30.60
  -2   7  -1  425.36   30.10
   2  -7   2  284.87   17.80
   2   7  -2  296.67   17.30
  -2   7   2  281.27   17.40
  -2   7  -2  236.88   17.30
  -2  -7   2  269.47   17.70
   2   7  -3   78.09    4.90
  -2  -7  -3   81.29    4.90
  -2   7   3   72.89    6.10
   2  -7   3   85.89    6.60
   2   7  -3   80.59    5.90
  -2   7   3   76.29    4.80
   2  -7  -3   82.29    4.90
  -2   7  -3   79.29    6.10
   2   7   3   77.29    6.00
  -2  -7   3   69.89    6.40
   2   7   3   76.29    4.80
  -2  -7  -4  570.04   34.30
  -2  -7  -4  589.34   34.20
   2   7  -4  582.14   34.30
   2   7  -4  547.95   35.70
  -2   7   4  586.54   34.20
   2   7  -4  522.25   34.20
   2   7   4  596.54   34.20
   2  -7  -4  584.64   34.20
  -2  -7   4  527.75   34.20
  -2   7  -4  583.94   34.20
  -2   7  -4  534.65   35.90
   2  -7  -4  606.04   34.30
  -2   7  -4  562.24   34.20
   2  -7  -4  576.04   34.20
   2   7  -5   25.30    1.80
   2   7  -5   22.70    1.80
  -2   7   5   24.80    1.70
  -2  -7  -5   25.90    1.90
  -2  -7  -5   23.30    1.70
   2  -7  -5   24.30    1.80
   2   7   5   23.70    1.70
   2  -7  -5   22.90    1.70
   2  -7  -5   24.40    1.70
  -2   7  -5   25.00    1.80
  -2  -7   5   20.60    1.70
   2   7  -6   63.79    4.40
  -2  -7  -6   72.09    4.30
  -2  -7  -6   72.29    4.50
  -2   7   6   71.89    4.40
   2  -7  -6   62.19    4.40
  -2   7  -6   68.89    4.30
   2  -7  -6   61.49    4.30
   2   7   6   64.89    4.30
   2  -7  -6   65.99    4.30
  -2  -7  -7   17.20    1.50
   2  -7   7   20.10    1.50
  -2   7   7   17.20    1.50
  -2  -7  -7   17.40    1.40
  -2  -7   7   18.90    1.50
   2   7   7   16.30    1.40
  -2   7  -7   15.50    1.40
   2  -7  -7   18.20    1.50
  -2  -7  -8   40.30    2.80
   2  -7   8   43.80    3.00
   2   7   8   38.90    2.80
   2  -7  -8   42.00    2.80
   3   7   0  144.29    8.30
  -3   7   0  113.79    8.00
   3  -7   0  121.09    8.10
   3   7   0  108.99    7.60
  -3   7   0  132.39    8.50
   3   7  -1  112.29    7.50
  -3   7   1  115.19    7.70
   3  -7   1  117.39    8.00
  -3   7   1  120.29    7.70
  -3   7  -1  134.89    8.00
  -3   7  -1  102.59    7.70
  -3  -7   1  108.69    7.60
   3   7  -2  776.42   45.40
  -3   7   2  714.83   45.50
   3  -7   2  822.22   46.10
  -3  -7   2  725.83   45.80
  -3   7  -2  689.43   45.70
   3   7  -3  202.28   12.70
  -3  -7  -3  191.38   11.50
  -3   7   3  185.78   11.50
  -3   7   3  169.98   12.80
   3  -7   3  187.38   13.30
   3   7  -3  190.48   11.60
   3  -7  -3  197.28   11.60
  -3  -7   3  168.78   13.10
   3   7   3  185.88   11.50
  -3   7  -3  193.68   11.60
   3   7   3  216.28   12.90
  -3   7  -3  199.48   13.20
  -3  -7   3  185.48   11.70
   3   7  -4   95.89    5.60
  -3  -7  -4   90.19    5.60
   3   7  -4   89.49    5.60
   3   7  -4   81.79    6.90
  -3  -7  -4   90.59    5.50
  -3   7   4   91.69    5.50
   3  -7  -4   82.39    5.50
  -3   7  -4   83.19    7.30
  -3  -7   4   83.09    5.60
   3  -7  -4   93.79    5.60
   3   7   4   92.89    5.50
  -3   7  -4   90.49    5.60
  -3   7  -4   89.29    5.60
  -3  -7  -5    0.50    0.40
  -3   7   5    0.40    0.30
   3   7  -5    1.60    0.50
  -3  -7  -5    1.20    0.40
   3   7  -5    0.50    0.40
  -3  -7   5    1.60    0.40
   3  -7  -5    0.60    0.40
   3  -7  -5    1.70    0.40
  -3   7  -5    0.70    0.40
   3  -7  -5    1.30    0.40
   3   7   5    0.50    0.30
   3   7  -6    2.40    0.60
  -3  -7  -6    1.90    0.40
   3   7  -6    1.60    0.50
  -3  -7  -6    2.10    0.60
  -3   7   6    2.20    0.50
   3  -7  -6    1.20    0.50
   3  -7  -6    1.90    0.50
   3   7   6    1.60    0.40
  -3   7  -6    2.00    0.50
  -3  -7   6    4.00    0.60
   3   7  -7    1.10    0.50
  -3   7   7    1.80    0.50
  -3  -7  -7    1.30    0.40
  -3  -7  -7    1.20    0.50
   3  -7   7    1.40    0.40
   3  -7  -7    2.30    0.60
  -3  -7   7    1.40    0.50
  -3   7  -7    1.10    0.40
   3   7   7    1.20    0.40
  -3  -7  -8    0.50    0.30
   3   7   8    1.00    0.40
   3  -7  -8    0.40    0.40
   4  -7   0   -0.30    0.30
  -4   7   0   -0.30    0.40
   4   7   0   -0.20    0.50
  -4   7   0   -0.10    0.60
  -4   7   1   90.29    6.70
   4  -7   1  103.99    7.10
  -4   7   1  103.69    7.00
  -4   7  -1   97.49    7.00
  -4   7  -1  115.59    7.00
  -4  -7   1   92.39    6.60
   4  -7   2    7.80    1.60
   4   7  -2    4.90    0.60
   4   7  -2    4.60    1.00
  -4   7   2    3.70    1.00
  -4   7  -2    5.20    1.10
  -4   7  -2    4.50    1.20
  -4  -7   2    4.20    1.20
   4  -7  -2    4.80    0.50
   4  -7   3    5.50    1.70
  -4   7   3    7.20    1.70
  -4  -7  -3    5.70    0.60
  -4   7   3    5.40    0.60
   4   7  -3    5.70    1.40
  -4  -7  -3    8.40    0.70
   4   7  -3    4.80    0.60
  -4   7  -3    6.50    0.70
   4   7   3    5.20    0.50
   4  -7  -3    5.30    0.60
  -4   7  -3    4.90    1.50
  -4  -7   3    8.30    0.70
   4  -7  -3    6.20    0.60
  -4  -7   3    4.80    1.70
  -4   7  -3    5.10    0.60
  -4  -7   3    7.80    0.70
  -4   7  -3    5.60    0.70
   4   7  -4   59.79    3.80
  -4  -7  -4   60.79    3.70
   4   7  -4   63.69    3.80
   4   7  -4   57.29    5.10
  -4   7   4   48.00    3.60
  -4  -7  -4   57.19    3.80
  -4   7   4   56.99    3.70
  -4  -7   4   56.09    3.70
  -4   7  -4   59.29    3.70
  -4   7  -4   47.90    5.20
  -4   7  -4   57.49    3.70
   4  -7  -4   59.59    3.70
   4  -7  -4   59.79    3.70
  -4  -7   4   55.89    3.70
  -4   7  -4   61.79    3.70
   4   7   4   57.69    3.60
  -4  -7  -5   65.49    4.40
  -4  -7  -5   70.39    4.60
   4   7  -5   70.99    4.50
   4   7  -5   67.79    4.50
  -4   7   5   70.39    4.40
  -4   7   5   62.59    4.40
   4  -7  -5   70.39    4.40
  -4  -7   5   67.69    4.50
   4   7   5   69.29    4.40
   4  -7  -5   72.19    4.50
  -4   7  -5   74.29    4.50
   4   7  -6   26.50    1.90
  -4  -7  -6   25.40    2.00
   4   7  -6   26.80    2.00
  -4  -7  -6   21.80    1.80
  -4   7   6   25.10    1.90
  -4  -7   6   25.70    1.90
   4   7   6   26.50    1.80
   4  -7  -6   24.30    1.80
   4  -7  -6   21.30    1.90
  -4   7  -6   25.30    1.90
  -4  -7  -7    0.10    0.30
   4   7  -7    0.40    0.50
  -4  -7  -7    0.10    0.50
   4   7  -7   -0.80    0.60
   4  -7   7    0.20    0.30
  -4   7   7    0.10    0.40
   4   7   7    0.40    0.30
  -4   7  -7    0.70    0.40
   4  -7  -7    0.10    0.40
  -4  -7  -8   -0.10    0.30
   4   7   8   -0.20    0.40
   4  -7  -8   -0.30    0.30
  -4  -7   8    0.00    0.30
  -5   7   0  101.49    7.20
   5   7   0  114.29    7.30
   5  -7   0  103.49    7.00
  -5   7   0  116.09    7.20
  -5   7   0   93.79    6.80
   5  -7   1  100.59    7.10
  -5   7   1   95.09    6.80
  -5  -7   1   95.79    6.30
  -5   7  -1  106.39    7.20
  -5   7  -1  107.39    6.60
  -5   7   2    0.90    0.70
   5   7  -2    0.80    0.30
   5   7  -2    0.80    0.60
   5  -7   2    0.50    0.90
  -5  -7   2    0.50    0.30
  -5   7  -2    1.10    0.70
   5  -7  -2    1.90    0.30
  -5  -7   2    0.40    0.70
   5  -7   3    8.00    2.10
  -5  -7  -3    9.50    0.80
  -5  -7  -3   10.30    0.90
  -5   7   3    8.30    0.80
  -5   7   3    8.80    1.90
   5   7  -3   10.10    1.70
   5   7  -3   10.30    0.90
  -5   7   3    8.10    0.80
  -5  -7   3    8.30    0.90
   5   7   3    8.20    1.70
  -5   7  -3   10.40    0.90
  -5   7  -3   10.00    0.80
  -5  -7   3    9.30    0.90
  -5  -7   3    8.10    2.10
  -5   7  -3    8.20    1.80
  -5   7  -3    9.70    0.80
   5  -7  -3    8.80    0.80
   5   7   3    8.40    0.70
   5  -7  -3   10.10    0.80
  -5  -7  -4    2.90    0.50
  -5  -7  -4    2.40    0.40
  -5   7   4    3.10    0.50
   5   7  -4    3.30    0.60
  -5   7   4    2.80    0.50
   5   7  -4    2.00    1.20
  -5  -7   4    2.40    0.50
   5  -7  -4    3.30    0.50
  -5   7  -4    3.30    0.50
  -5  -7   4    3.20    0.60
   5  -7  -4    2.50    0.40
  -5   7  -4    2.70    0.50
   5   7   4    2.70    0.40
  -5   7  -4    3.40    0.50
  -5   7  -4    2.30    1.50
  -5  -7  -5    1.10    0.50
   5   7  -5    0.80    0.50
  -5  -7  -5    0.60    0.30
  -5   7   5    0.80    0.40
   5   7  -5    2.70    0.60
  -5   7   5    0.70    0.40
  -5   7  -5    1.10    0.40
  -5  -7   5    0.70    0.40
   5  -7  -5    0.80    0.40
   5  -7  -5    1.40    0.50
   5   7   5    0.70    0.30
   5   7  -6    0.90    0.50
  -5   7   6    0.80    0.40
  -5  -7  -6   -0.30    0.30
  -5  -7  -6    0.50    0.40
   5   7  -6    0.10    0.40
   5   7   6    0.20    0.30
   5  -7  -6    0.80    0.40
  -5   7  -6    0.50    0.40
   5  -7  -6   -0.10    0.40
   5   7  -7    4.70    0.70
  -5  -7  -7    5.00    0.80
  -5  -7  -7    6.10    0.70
   5   7  -7    4.60    0.70
   5  -7   7    6.20    0.70
   5  -7  -7    6.20    0.80
  -5   7  -7    6.10    0.80
   5   7   7    5.90    0.70
  -5  -7   8    3.30    0.50
   5  -7  -8    4.10    0.60
  -6  -7   0   -0.30    0.20
   6   7   0    0.00    1.00
  -6   7   0    0.10    0.50
   6  -7   0    0.00    0.40
  -6   7   0    0.20    0.20
   6  -7   1  642.24   37.80
  -6   7   1  608.64   37.40
  -6  -7  -1  587.34   36.90
  -6   7  -1  611.14   36.80
   6  -7  -1  622.34   36.80
  -6   7  -1  653.63   38.00
  -6  -7   1  574.54   36.90
  -6   7   2  144.39   10.40
   6  -7   2  155.28   10.80
  -6  -7  -2  164.78    9.60
  -6  -7  -2  131.39    9.50
   6   7  -2  157.18    9.50
   6  -7  -2  168.08    9.40
  -6  -7   2  162.18    9.50
  -6   7  -2  155.38    9.50
  -6   7  -2  158.18   10.80
  -6   7  -2  156.28    9.50
  -6  -7   2  152.58    9.50
  -6  -7  -3   11.70    1.10
  -6   7   3    9.20    2.10
  -6   7   3   11.60    1.00
   6   7  -3   12.30    1.10
   6  -7   3   11.20    2.50
  -6  -7  -3   11.80    1.00
   6   7  -3   12.80    2.00
  -6  -7   3   15.80    1.20
   6  -7  -3   11.10    1.00
  -6   7  -3   12.80    1.10
  -6  -7   3   11.50    1.00
   6   7   3   12.30    0.90
  -6   7  -3   12.40    1.00
  -6   7  -3   13.50    1.00
  -6   7  -3   10.40    2.20
   6  -7  -3   12.00    1.00
  -6   7   4   22.10    1.70
  -6  -7  -4   24.70    1.70
   6   7  -4   25.30    1.80
  -6  -7  -4   23.30    1.80
   6  -7  -4   23.80    1.70
  -6   7  -4   25.20    1.80
   6  -7  -4   22.60    1.70
   6   7   4   21.90    1.60
  -6  -7   4   23.40    1.80
  -6  -7   4   22.10    1.80
  -6   7  -4   23.60    1.70
  -6   7  -4   24.10    1.80
  -6   7   5   77.49    4.90
  -6  -7  -5   79.39    5.10
   6   7  -5   81.79    5.00
  -6  -7  -5   66.99    4.90
  -6   7  -5   75.79    5.00
  -6  -7   5   77.79    5.00
   6  -7  -5   82.29    5.00
   6   7   5   76.69    4.90
   6  -7  -5   76.39    4.90
   6   7  -6   75.99    4.80
  -6  -7  -6   73.19    4.80
   6   7  -6   73.19    4.70
  -6   7   6   69.89    4.60
  -6  -7  -6   68.79    4.60
  -6   7  -6   75.29    4.70
  -6  -7   6   70.19    4.70
   6   7   6   73.99    4.60
   6  -7  -6   66.69    4.70
   6  -7  -6   74.59    4.70
   6  -7   7    0.20    0.30
   6   7  -7    0.60    0.40
   6   7  -7    0.40    0.40
  -6  -7  -7    0.20    0.30
  -6   7  -7    0.00    0.40
  -6  -7   7    0.10    0.40
   6   7   7   -0.10    0.30
   6  -7  -7    0.00    0.40
   7  -7   0   24.80    2.30
  -7  -7   0   22.00    1.70
  -7   7   0   24.70    2.60
  -7  -7  -1  600.14   36.50
  -7   7   1  547.35   36.40
   7  -7   1  603.74   37.40
  -7  -7  -1  686.53   36.60
   7   7  -1  539.85   36.40
   7  -7  -1  598.44   36.40
  -7   7  -1  655.53   37.80
  -7   7  -1  649.24   36.40
  -7  -7   1  606.94   36.50
  -7  -7   1  591.94   36.40
  -7  -7  -2   65.59    3.90
  -7  -7  -2   54.79    3.70
  -7   7   2   57.99    3.70
   7  -7   2   51.69    5.10
  -7  -7  -2   55.69    3.70
   7   7  -2   59.29    3.80
  -7   7  -2   58.89    3.80
  -7   7  -2   54.39    5.00
   7  -7  -2   61.69    3.70
  -7  -7   2   68.29    3.80
  -7  -7   2   58.79    3.80
  -7   7  -2   60.59    3.80
  -7   7  -2   55.99    3.70
   7   7  -3    2.80    0.50
  -7  -7  -3    4.00    0.60
   7   7  -3    3.40    1.20
  -7  -7  -3    4.30    0.50
  -7   7   3    3.70    0.50
  -7   7  -3    4.00    0.60
   7  -7  -3    3.40    0.50
  -7   7  -3    2.90    1.40
  -7  -7   3    4.20    0.60
  -7   7  -3    3.70    0.60
  -7  -7   3    3.20    0.60
   7  -7  -3    3.40    0.50
  -7   7  -3    4.20    0.60
  -7  -7  -4    4.40    0.70
  -7   7   4    2.50    0.50
   7   7  -4    3.40    0.60
  -7  -7  -4    3.60    0.50
  -7  -7   4    3.40    0.70
  -7   7  -4    3.00    0.60
  -7  -7   4    3.40    0.60
   7   7   4    3.30    0.50
  -7   7  -4    2.90    0.60
  -7   7  -4    3.40    0.60
   7  -7  -4    2.20    0.50
   7  -7  -4    2.60    0.50
  -7  -7  -5   11.30    1.20
  -7  -7  -5    8.50    0.90
   7   7  -5    9.60    1.10
  -7   7   5    8.80    0.90
   7   7  -5    7.40    1.00
  -7  -7   5    8.20    1.00
   7  -7  -5    8.40    1.00
   7   7   5    8.30    0.80
   7  -7  -5    7.50    0.90
  -7   7  -5    8.30    1.00
  -7  -7  -6   15.40    1.50
   7   7  -6   14.90    1.40
   7   7  -6   17.10    1.40
  -7   7   6   14.40    1.30
  -7  -7  -6   15.50    1.30
   7   7   6   16.20    1.30
  -7   7  -6   15.60    1.30
   7  -7  -6   16.20    1.40
   7  -7  -6   15.70    1.30
  -7  -7   6   14.40    1.30
   7   7  -7    0.90    0.40
   7  -7   7    1.20    0.40
  -7  -7  -7    1.00    0.40
   7   7  -7    0.60    0.40
  -7  -7   7    0.80    0.40
   7   7   7    1.60    0.40
   7  -7  -7    0.90    0.40
  -7   7  -7    1.10    0.40
  -8   7   0    0.30    0.70
  -8  -7   0    0.30    0.30
  -8   7   0   -0.20    0.20
  -8   7   0    0.00    0.20
  -8   7   1  117.59    7.40
   8   7  -1  115.19    7.60
  -8  -7  -1  122.49    7.50
  -8   7   1  120.99    7.50
  -8   7  -1  115.29    7.50
   8  -7  -1  129.79    7.40
  -8  -7   1  120.19    7.50
  -8   7  -1  121.29    7.40
  -8   7  -1  113.79    7.50
  -8   7  -1  117.99    8.80
  -8  -7   1  127.79    7.60
  -8   7  -1  131.39    7.50
  -8  -7  -2   32.10    2.00
  -8   7   2   25.60    1.80
  -8  -7  -2   26.00    1.90
   8   7  -2   27.20    1.90
  -8   7  -2   29.00    1.90
   8  -7  -2   26.60    1.80
  -8   7  -2   26.20    1.80
  -8  -7   2   29.00    2.00
  -8   7  -2   26.00    1.90
  -8   7  -2   22.00    3.00
  -8  -7   2   27.30    1.90
  -8  -7   2   22.20    1.80
  -8   7  -2   27.00    1.90
  -8   7   3   55.69    3.80
  -8  -7  -3   57.59    3.70
   8   7  -3   59.79    3.80
  -8  -7  -3   62.19    3.90
   8   7  -3   54.19    5.00
  -8  -7   3   59.99    3.80
  -8   7  -3   58.19    3.80
   8  -7  -3   58.39    3.70
   8  -7  -3   52.99    3.70
  -8  -7   3   57.19    3.90
  -8   7  -3   59.29    3.80
  -8   7  -3   62.49    3.90
  -8  -7  -4  187.78   11.40
   8   7  -4  193.38   11.40
  -8   7   4  180.28   11.30
  -8  -7  -4  186.98   11.30
  -8   7  -4  185.58   11.40
  -8   7  -4  181.58   11.30
  -8  -7   4  188.58   11.40
  -8  -7   4  171.08   11.40
   8  -7  -4  183.18   11.30
   8   7  -5   31.00    2.20
  -8   7   5   28.40    2.10
  -8  -7  -5   30.30    2.10
  -8  -7  -5   29.30    2.20
   8   7  -5   26.30    2.10
   8  -7  -5   28.10    2.10
  -8   7  -5   26.80    2.10
  -8  -7   5   31.90    2.20
   8  -7  -5   27.20    2.10
  -8  -7   5   30.20    2.20
  -8  -7  -6   56.99    3.60
  -8   7   6   53.89    3.60
   8   7  -6   52.69    3.60
   8   7  -6   53.29    3.70
   8  -7  -6   55.19    3.60
   8  -7  -6   54.09    3.60
  -8  -7   6   62.89    3.70
   8   7   6   48.70    3.60
  -8  -7   6   52.09    3.60
  -8   7  -6   53.69    3.60
   8  -7   7   12.40    1.10
   8   7  -7   13.00    1.20
  -8  -7  -7   14.00    1.10
   8   7  -7   11.90    1.20
   8  -7  -7   13.40    1.20
  -8   7  -7   13.60    1.20
  -8  -7   7   16.10    1.30
  -9  -7   0  622.54   43.30
  -9  -7   0  782.12   43.50
  -9   7   0  717.03   43.40
  -9   7   0  788.02   43.40
  -9   7   0  709.93   45.00
  -9   7   1  115.89    7.00
  -9   7   1  115.69    7.00
  -9  -7  -1  118.09    7.10
  -9  -7   1  126.29    7.20
  -9   7  -1   99.19    8.30
  -9   7  -1  100.99    7.00
  -9   7  -1  127.29    7.10
  -9   7  -1  115.19    7.00
  -9  -7   1  114.79    7.10
  -9   7  -1  104.49    7.00
   9   7  -2  621.34   36.60
  -9  -7  -2  684.53   36.80
  -9  -7  -2  595.84   36.60
  -9   7   2  607.04   36.60
  -9   7  -2  587.44   36.60
  -9   7  -2  624.24   36.60
  -9  -7   2  608.24   36.70
  -9  -7   2  635.24   36.80
  -9   7  -2  605.04   36.60
   9  -7  -2  625.34   36.50
  -9   7  -2  593.54   36.60
  -9  -7   2  525.95   36.60
   9   7  -3    0.50    0.40
  -9  -7  -3    0.90    0.50
  -9  -7  -3    0.30    0.30
  -9   7   3    0.70    0.30
  -9   7  -3    0.40    0.40
  -9   7  -3    0.80    0.40
   9  -7  -3    0.90    0.30
  -9   7  -3    0.30    0.30
  -9  -7   3    3.40    0.60
   9  -7  -3    0.20    0.30
  -9  -7   3    0.10    0.40
  -9  -7   3    0.60    0.40
  -9   7   4  101.59    6.50
  -9  -7  -4  105.29    6.50
   9   7  -4  110.69    6.60
  -9  -7  -4  106.39    6.60
  -9  -7   4  105.79    6.60
   9  -7  -4   94.19    6.40
  -9  -7   4   97.99    6.60
  -9   7  -4  106.39    6.60
  -9  -7   4  104.69    6.60
   9  -7  -4   99.79    6.50
  -9   7  -4  104.19    6.50
   9   7  -5    2.00    0.60
  -9  -7  -5    2.00    0.50
  -9   7   5    1.90    0.50
   9   7  -5    2.50    0.60
   9  -7  -5    1.60    0.40
  -9   7  -5    1.70    0.50
  -9  -7   5    1.90    0.50
   9  -7  -5    2.10    0.50
  -9  -7   5    2.10    0.60
  -9   7   6    3.20    0.60
   9   7  -6    3.20    0.60
   9   7  -6    3.50    0.60
  -9  -7  -6    3.00    0.50
   9  -7  -6    3.20    0.60
   9  -7  -6    3.30    0.50
  -9  -7   6    3.30    0.60
  -9   7  -6    5.00    0.70
   9   7  -7    8.90    0.90
  -9  -7  -7    7.90    0.80
  -9   7  -7    8.60    0.90
  -9  -7   7    9.80    0.90
   9  -7  -7    8.60    0.90
 -10   7   0    0.60    0.30
 -10  -7   0    0.20    0.30
 -10   7   0    0.20    0.20
 -10  -7   0    0.10    0.30
 -10  -7  -1    0.60    0.40
 -10   7   1    1.20    0.30
 -10   7  -1    1.10    1.10
 -10  -7   1    0.60    0.40
 -10   7  -1    0.50    0.30
 -10   7  -1    0.60    0.40
 -10   7  -1    0.60    0.30
 -10  -7   1    0.70    0.30
 -10   7   2   56.19    3.50
  10   7  -2   52.29    3.50
 -10  -7  -2   54.29    3.50
 -10  -7   2   59.29    3.60
 -10   7  -2   49.30    3.50
 -10   7  -2   53.49    3.50
  10  -7  -2   54.79    3.40
 -10   7  -2   52.59    3.50
 -10  -7   2   47.30    3.50
 -10   7  -2   51.89    3.50
 -10  -7   2   53.99    3.70
 -10   7   3   79.19    4.80
  10   7  -3   73.89    4.70
 -10  -7  -3   79.29    4.80
 -10  -7   3   71.39    4.80
  10  -7  -3   63.19    4.70
 -10   7  -3   74.19    4.80
 -10  -7   3   70.59    4.70
 -10   7  -3   72.19    4.80
 -10   7  -3   72.99    4.70
 -10  -7   3   76.39    4.90
  10  -7  -3   73.29    4.60
 -10  -7  -4  191.78   11.50
  10   7  -4  196.48   11.70
 -10  -7  -4  193.28   11.70
 -10   7   4  196.58   11.60
  10  -7  -4  196.28   11.50
 -10   7  -4  192.98   11.70
 -10   7  -4  188.98   11.60
 -10  -7   4  201.68   11.70
 -10  -7   4  159.48   11.60
 -10  -7   4  179.48   11.70
  10  -7  -4  173.78   11.50
 -10   7   5    7.30    0.90
  10   7  -5    6.90    0.90
 -10  -7  -5    6.90    0.80
  10   7  -5    6.10    0.90
 -10   7  -5    8.10    1.00
 -10  -7   5    8.10    1.00
  10  -7  -5    6.80    0.80
 -10  -7   5    6.80    0.90
  10  -7  -5    7.40    0.90
  10   7  -6   28.60    2.10
 -10   7   6   27.80    2.00
  10   7  -6   27.30    2.10
 -10  -7  -6   27.20    2.00
  10  -7  -6   26.40    2.00
 -10   7  -6   29.50    2.10
 -10  -7   6   31.50    2.10
 -10  -7   7    1.30    0.40
 -11   7   0    4.40    0.60
 -11   7   0    4.70    0.60
 -11  -7   0    3.40    0.60
 -11  -7  -1    0.10    0.30
 -11   7   1    0.20    0.30
 -11   7   1    0.60    0.30
 -11  -7   1    1.40    0.50
 -11  -7   1    0.30    0.30
 -11   7  -1    0.90    0.40
 -11   7  -1    0.70    0.30
 -11  -7  -2  108.59    6.70
 -11   7   2  117.49    6.70
 -11   7  -2   98.79    6.70
 -11   7  -2  107.79    6.60
 -11  -7   2   91.19    6.60
 -11   7  -2   96.99    6.60
 -11  -7   2  114.79    6.70
 -11  -7   2  116.19    6.90
  11   7  -3    9.10    1.00
 -11   7   3    8.00    0.90
 -11  -7   3    6.20    0.90
 -11   7  -3    8.90    1.00
 -11  -7   3    8.20    0.90
  11  -7  -3    9.00    0.90
 -11   7  -3    9.80    1.00
 -11  -7   3    9.80    1.20
 -11  -7  -4    0.20    0.40
  11   7  -4   -0.40    0.40
  11   7  -4    0.30    0.50
 -11   7   4    0.20    0.40
 -11   7  -4   -0.40    0.40
 -11   7  -4   -0.50    0.40
 -11  -7   4   -0.10    0.30
  11  -7  -4    0.10    0.40
 -11  -7   4    0.10    0.40
 -11  -7   4   -0.20    0.50
  11  -7  -4    0.70    0.30
  11   7  -5    2.10    0.60
 -11   7   5    2.20    0.50
 -11  -7  -5    1.60    0.50
  11   7  -5    1.80    0.50
  11  -7  -5    1.60    0.40
 -11  -7   5    1.70    0.50
  11  -7  -5    1.60    0.50
 -11   7  -5    2.30    0.50
 -11  -7  -6    0.30    0.30
  11   7  -6    0.60    0.40
 -11   7   6   -0.30    0.30
  11   7  -6    0.60    0.40
 -11  -7   6    0.70    0.40
  11  -7  -6    0.10    0.30
 -11   7  -6    0.30    0.40
 -12   7   0    0.00    0.30
 -12  -7   0   -0.60    0.30
 -12   7   0    0.00    0.30
 -12   7   1    0.50    0.30
 -12  -7  -1    0.30    0.40
 -12   7   1    0.30    0.40
 -12   7  -1   -0.10    0.30
 -12  -7   1    1.30    0.50
 -12   7  -1    0.20    0.30
 -12  -7  -2    0.40    0.40
 -12   7   2   -0.10    0.30
 -12   7  -2    0.20    0.40
 -12  -7   2    0.50    0.50
  12   7  -3   12.70    1.30
 -12   7   3    9.40    1.10
 -12   7  -3   11.90    1.20
 -12   7  -3   13.30    1.20
 -12  -7   3   12.00    1.30
 -12  -7   3   11.70    1.20
  12   7  -4   24.50    1.90
 -12   7   4   25.20    1.90
 -12   7  -4   23.80    1.90
 -12   7  -4   22.40    1.80
 -12  -7   4   20.90    2.00
 -12  -7   4   25.00    1.90
  12   7  -5   15.50    1.40
 -12   7   5   15.50    1.30
  12   7  -5   17.60    1.40
 -12   7  -5   12.90    1.30
 -12  -7   5   17.50    1.40
  12  -7  -5   13.30    1.30
  12   7  -6    0.90    0.40
 -12   7   6    0.60    0.30
 -12  -7   6    0.50    0.40
  12  -7  -6    0.20    0.60
 -12   7  -6    1.30    0.40
 -13   7   0   23.00    1.70
 -13   7   0   21.20    1.60
 -13  -7   0   20.00    1.80
 -13   7   1    0.70    0.40
 -13   7   1    0.90    0.40
 -13  -7  -1    1.40    0.50
 -13   7  -1    1.20    0.40
 -13  -7   1    0.70    0.50
 -13   7  -1    0.50    0.40
 -13  -7  -2    2.20    0.60
 -13   7   2    1.40    0.40
 -13   7  -2    2.30    0.50
 -13  -7   2    2.70    0.70
 -13   7   3    1.50    0.50
 -13  -7   3    1.10    0.60
 -13   7  -3    1.10    0.50
 -13  -7   3    1.80    0.50
  13   7  -4    0.40    0.50
 -13   7   4    0.40    0.40
  13   7  -4    0.70    0.50
 -13  -7   4    0.90    0.40
 -13   7  -4    0.70    0.50
 -13   7  -4    1.00    0.40
 -13  -7   4    0.50    0.60
  13   7  -5    3.20    0.70
 -13   7   5    3.80    0.60
  13   7  -5    3.80    0.70
 -13   7  -5    3.80    0.60
 -13  -7   5    4.70    0.60
 -14  -7   0   -0.30    0.40
 -14   7   0   -0.10    0.30
 -14   7   0    0.00    0.40
 -14   7   1    9.10    1.00
 -14   7   1    9.70    1.00
 -14  -7  -1    9.30    1.10
 -14   7  -1    8.10    1.00
 -14  -7   1    8.70    1.20
 -14   7  -1    9.70    1.00
 -14   7   2    0.30    0.30
 -14  -7  -2    0.80    0.50
 -14  -7   2    1.20    0.60
 -14   7  -2    1.10    0.40
 -14   7   3    2.60    0.60
 -14   7  -3    2.00    0.50
 -14  -7   3    2.50    0.70
  14   7  -4    1.00    0.50
 -14   7   4    1.60    0.40
 -14  -7   4    1.60    0.50
 -14   7   5    0.00    0.30
  14   7  -5    0.10    0.40
 -14  -7   5    0.10    0.40
 -15  -7   0    9.20    1.10
 -15   7   0    7.70    0.90
 -15   7   0    8.50    0.90
 -15   7   1    0.40    0.30
 -15   7   1    0.50    0.40
 -15  -7  -1    0.30    0.40
 -15   7  -1    0.80    0.40
 -15  -7   1    0.20    0.50
 -15  -7  -2    9.90    1.00
 -15   7   2    8.80    1.00
 -15   7  -2    8.30    1.00
 -15  -7   2   10.30    1.20
 -15   7   3    0.90    0.40
  15   7  -3    0.10    0.50
 -15  -7   3    1.00    0.50
 -15   7  -3    0.90    0.40
 -15   7   4    0.00    0.30
  15   7  -4   -0.20    0.40
 -16   7   0   -0.40    0.30
 -16  -7   0    0.00    0.50
 -16   7   1   13.40    1.20
 -16  -7  -1   11.30    1.20
 -16   7  -1   12.90    1.20
 -16  -7   1   14.40    1.40
  16   7  -2   40.90    3.10
 -16   7   2   45.40    2.90
 -16  -7  -2   41.70    2.90
 -16   7  -2   41.80    2.90
 -16  -7   2   45.60    3.10
  16   7  -3   15.70    1.50
 -16   7   3   18.40    1.40
 -16   7   4    9.50    1.00
 -17   7   0   64.89    4.30
 -17  -7   0   68.79    4.40
 -17   7   1    0.10    0.30
 -17  -7  -1    0.60    0.40
 -17  -7   1   -0.10    0.40
 -17   7  -1    0.10    0.40
 -17   7   2   27.40    1.90
 -17   7   3    6.40    0.90
   0   8   0  231.78   13.00
   0  -8   0  181.18   13.00
   0  -8   1   -0.10    0.40
   0   8  -1    1.40    0.60
   0  -8  -1    0.20    0.30
   0   8  -2   85.19    5.90
   0  -8   2   76.99    6.20
   0   8  -3    0.20    0.70
   0  -8   3    0.20    1.00
   0   8   3    0.00    0.20
   0  -8  -3    0.50    0.20
   0   8   3    0.50    0.80
   0  -8  -3    0.50    0.20
   0   8  -3    0.10    0.30
   0   8   4   34.70    2.20
   0   8  -4   31.20    2.20
   0   8  -4   31.80    2.30
   0  -8   4   33.50    2.20
   0   8  -4   31.90    3.60
   0  -8  -4   34.40    2.30
   0  -8  -4   32.10    2.20
   0  -8  -4   33.60    2.20
   0   8  -5    0.10    0.30
   0   8  -5    3.20    0.60
   0   8   5    0.20    0.20
   0  -8  -5    0.00    0.30
   0  -8  -6    0.30    0.40
   0   8   6    0.50    0.40
   0  -8  -6    0.20    0.30
   0  -8  -7    0.70    0.40
   0   8   7    0.40    0.40
   0  -8  -7    0.20    0.40
   0  -8   7    0.10    0.40
   0  -8  -8    9.50    1.00
   1   8   0   -0.70    0.20
   1  -8   0   -0.70    0.30
  -1  -8   0   -0.40    0.30
  -1   8   0   -0.40    0.30
  -1   8   1  158.78   10.60
   1  -8   1  165.48   11.20
   1   8  -1  177.58   10.90
  -1  -8   1  162.78   11.10
  -1   8  -1  189.48   11.10
  -1   8   2  102.89    7.30
   1  -8   2  104.69    7.70
   1   8  -2  110.69    7.30
  -1  -8   2   99.29    7.60
  -1   8  -2  104.69    7.40
  -1   8   3    1.50    1.00
  -1  -8  -3    2.60    0.40
   1  -8   3    1.90    1.20
   1   8  -3    1.70    0.40
  -1   8   3    2.20    0.30
   1   8  -3    1.70    0.90
  -1   8  -3    2.00    1.00
   1  -8  -3    1.90    0.30
   1   8   3    3.20    1.10
   1   8   3    1.90    0.30
  -1   8  -3    2.30    0.40
  -1  -8   3    1.60    1.20
   1   8  -4   35.90    2.50
  -1  -8  -4   38.70    2.50
  -1   8   4   36.60    2.40
   1   8  -4   33.60    3.70
   1  -8   4   31.00    2.40
  -1  -8  -4   36.10    2.40
  -1   8  -4   35.40    2.40
  -1   8  -4   36.40    3.90
  -1  -8   4   31.80    2.40
   1  -8  -4   38.70    2.50
  -1   8  -4   35.90    2.40
  -1   8  -4   35.00    2.40
   1  -8  -4   37.60    2.40
   1   8   4   39.30    2.40
   1  -8  -4   37.30    2.40
  -1  -8  -5    2.90    0.50
  -1   8   5    2.90    0.50
   1   8  -5    2.70    0.60
  -1  -8  -5    5.00    0.70
   1  -8  -5    3.10    0.50
   1  -8  -5    4.00    0.50
   1  -8  -5    3.40    0.60
   1   8   5    3.10    0.50
  -1   8  -5    3.30    0.60
  -1  -8  -6    0.60    0.40
  -1   8   6    0.90    0.40
   1   8  -6    1.30    0.50
  -1   8   6    0.30    0.40
  -1  -8  -6    0.50    0.40
   1  -8  -6    1.50    0.50
  -1   8  -6    1.20    0.40
   1  -8  -6    0.70    0.40
   1   8   6    0.60    0.40
  -1  -8  -7    4.10    0.60
  -1  -8  -7    3.70    0.70
   1  -8   7    3.80    0.60
  -1   8   7    6.10    0.80
  -1  -8   7    4.50    0.70
   1   8   7    3.30    0.60
   1  -8  -7    4.00    0.70
   1   8   7    3.30    0.60
  -1  -8  -8    9.80    1.00
   1  -8  -8    9.80    1.00
  -2  -8   0    0.60    0.30
   2   8   0    0.30    0.30
  -2   8   0    0.30    0.40
   2  -8   0    0.10    0.30
   2   8  -1  805.32   49.99
  -2   8   1  829.32   49.99
   2  -8   1  838.12   50.49
  -2   8  -1  879.11   50.39
  -2  -8   1  790.52   50.29
   2   8  -2    2.80    0.90
   2  -8   2    2.50    1.10
  -2   8   2    2.70    0.90
  -2  -8   2    3.10    1.10
  -2   8  -2    2.90    0.90
   2   8  -3  233.78   14.20
  -2   8   3  216.68   15.50
  -2   8   3  238.48   14.10
   2   8  -3  264.77   15.50
  -2  -8  -3  238.68   14.20
  -2  -8  -3  237.98   14.10
   2  -8   3  237.98   16.00
  -2  -8   3  216.28   14.20
  -2  -8   3  218.58   15.80
  -2   8  -3  204.78   14.20
   2   8   3  231.48   15.40
  -2   8  -3  231.08   14.10
   2   8   3  233.08   14.10
   2  -8  -3  247.38   14.10
  -2   8  -3  247.58   15.70
  -2  -8  -4   44.30    3.00
   2   8  -4   43.80    4.30
  -2   8   4   47.60    2.90
   2   8  -4   48.20    3.00
  -2  -8  -4   46.00    2.90
   2   8  -4   41.90    3.00
   2   8   4   48.90    2.90
   2  -8  -4   45.50    2.90
  -2   8  -4   41.90    2.90
  -2   8  -4   43.10    2.90
  -2   8  -4   41.20    4.40
   2  -8  -4   47.50    3.00
   2  -8  -4   44.00    2.90
  -2  -8   4   41.90    2.90
  -2   8   5   48.70    3.10
   2   8  -5   45.60    3.20
  -2  -8  -5   50.59    3.10
  -2  -8  -5   48.30    3.20
  -2   8   5   46.00    3.10
   2  -8  -5   45.80    3.10
   2  -8  -5   45.90    3.10
  -2   8  -5   45.90    3.10
   2  -8  -5   48.10    3.20
   2   8   5   50.99    3.10
  -2  -8   5   41.00    3.10
  -2  -8  -6   12.00    1.20
  -2  -8  -6   11.90    1.00
  -2   8   6   11.30    1.10
   2   8  -6    9.60    1.10
  -2   8  -6   11.80    1.10
   2  -8  -6   10.90    1.00
   2   8   6   11.00    1.00
  -2  -8  -7   54.69    3.60
  -2   8   7   51.49    3.40
   2  -8   7   53.39    3.40
  -2  -8  -7   51.29    3.40
  -2   8  -7   42.70    3.30
   2   8   7   51.19    3.40
   2  -8  -7   54.29    3.50
  -2  -8   7   53.69    3.40
  -2  -8  -8   -0.40    0.40
   2  -8  -8    0.10    0.40
   3   8   0    0.40    0.30
   3  -8   0   -0.20    0.40
  -3   8   0   -0.10    0.30
   3  -8   1  334.47   20.20
   3   8  -1  315.87   19.60
  -3   8   1  335.07   19.80
  -3   8  -1  309.57   20.00
  -3  -8   1  296.37   19.80
  -3   8   2   66.49    5.10
   3   8  -2   67.89    4.90
   3   8  -2   65.99    4.20
   3  -8   2   68.49    5.50
  -3   8  -2   68.89    5.30
  -3  -8   2   65.69    5.30
   3  -8  -2   64.39    4.10
  -3   8   3   84.09    5.40
  -3  -8  -3   85.29    5.40
   3   8  -3   93.29    6.60
   3   8  -3   87.99    5.40
  -3  -8  -3   91.39    5.50
  -3   8   3   74.89    6.60
   3  -8   3   82.79    7.10
  -3  -8   3   86.39    5.40
  -3   8  -3   83.09    5.40
   3  -8  -3   94.49    5.40
   3   8   3   82.89    5.30
  -3  -8   3   81.99    7.10
   3   8   3   84.69    6.60
  -3   8  -3   89.09    6.90
  -3   8  -3   88.89    5.40
   3  -8  -3   86.59    5.40
  -3   8  -3   90.29    5.40
   3   8  -4   63.49    3.80
  -3  -8  -4   58.59    3.70
  -3   8   4   52.69    3.60
   3   8  -4   53.09    5.00
   3   8  -4   57.29    3.70
  -3   8   4   57.49    3.70
  -3  -8  -4   58.29    3.60
   3  -8  -4   58.09    3.70
   3   8   4   57.29    3.60
   3  -8  -4   53.89    3.60
   3  -8  -4   59.69    3.70
  -3   8  -4   56.49    3.70
  -3   8  -4   56.49    3.70
  -3  -8   4   55.49    3.70
  -3   8  -4   56.69    5.50
  -3  -8  -5   40.60    2.70
   3   8  -5   36.80    2.60
  -3   8   5   35.80    2.60
   3   8  -5   41.00    2.70
  -3  -8  -5   40.50    2.60
   3  -8  -5   39.10    2.70
   3  -8  -5   37.20    2.60
  -3  -8   5   35.10    2.60
  -3  -8   5   31.10    2.60
   3  -8  -5   38.40    2.60
  -3   8  -5   38.40    2.60
   3   8   5   41.70    2.60
  -3  -8  -6    2.40    0.50
   3   8  -6    2.60    0.60
  -3  -8  -6    3.20    0.70
  -3   8   6    2.90    0.50
   3   8  -6    3.30    0.70
  -3   8  -6    3.00    0.60
   3   8   6    2.60    0.50
  -3  -8   6    5.30    0.70
   3  -8  -6    2.20    0.60
   3  -8  -6    3.30    0.60
  -3  -8  -7    4.10    0.60
  -3   8   7    2.20    0.60
   3   8  -7    3.20    0.70
  -3  -8  -7    3.90    0.70
  -3   8  -7    3.40    0.60
   3   8   7    3.30    0.60
  -3  -8   7    3.90    0.60
   3  -8  -7    3.90    0.70
   3  -8  -8   10.60    1.00
  -4   8   0  103.99    6.90
   4   8   0   92.79    6.30
   4  -8   0   91.79    6.70
  -4   8   0  109.59    7.20
   4   8  -1  563.34   34.20
  -4   8   1  527.65   34.40
   4  -8   1  567.04   34.70
  -4   8   1  573.04   34.50
  -4   8  -1  561.74   34.60
  -4   8  -1  637.44   34.70
  -4  -8   1  504.65   34.10
   4  -8   2   56.69    4.80
  -4   8   2   50.09    4.30
   4   8  -2   57.49    4.20
   4   8  -2   51.69    3.40
   4  -8  -2   53.59    3.40
  -4  -8   2   48.20    4.40
  -4   8  -2   59.19    4.70
  -4   8   3    1.80    0.30
  -4   8   3    0.90    1.10
   4   8  -3    1.90    0.40
  -4  -8  -3    1.40    0.40
   4  -8   3    1.00    1.30
  -4  -8   3    2.30    0.40
  -4   8  -3    2.10    1.10
  -4   8  -3    1.50    0.40
  -4   8  -3    1.80    0.40
  -4  -8   3    2.10    1.40
   4   8   3    2.10    0.30
   4   8   3    1.10    1.00
  -4   8  -3    4.50    0.50
   4  -8  -3    2.70    0.40
   4  -8  -3    1.60    0.40
   4   8  -4    6.70    0.80
   4   8  -4    6.30    1.80
  -4   8   4    5.90    0.70
  -4  -8  -4    5.50    0.70
  -4  -8  -4    6.50    0.60
  -4   8   4    5.10    0.60
   4  -8  -4    6.10    0.70
   4   8   4    6.70    0.60
  -4   8  -4    4.90    0.70
  -4   8  -4    5.10    1.80
  -4   8  -4    5.60    0.70
  -4   8  -4    5.00    0.60
  -4  -8   4    5.20    0.70
   4  -8  -4    6.90    0.80
  -4  -8   4    5.50    0.70
  -4  -8  -5  124.59    7.50
  -4   8   5  124.19    7.40
   4   8  -5  115.79    7.50
   4   8  -5  118.19    7.50
  -4  -8  -5  108.29    7.40
   4  -8  -5  119.99    7.40
   4  -8  -5  129.39    7.50
  -4   8  -5  126.49    7.50
  -4  -8   5  113.99    7.40
   4   8   5  118.89    7.40
  -4  -8   5  105.29    7.80
  -4  -8  -6    8.10    0.90
   4   8  -6    9.40    1.10
  -4  -8  -6    9.70    1.10
  -4   8   6   10.30    1.00
   4   8  -6   10.40    1.10
  -4   8  -6   10.60    1.10
   4   8   6   10.30    1.00
   4  -8  -6   10.70    1.10
  -4  -8   6   11.70    1.30
   4  -8  -6    9.50    1.00
   4   8  -7   26.10    2.10
  -4   8   7   25.60    2.10
  -4  -8  -7   28.00    2.20
  -4  -8  -7   30.70    2.00
   4   8   7   28.00    2.00
  -4   8  -7   27.00    2.00
   4  -8  -7   29.50    2.10
  -4  -8   8    2.20    0.50
   4  -8  -8    1.80    0.40
  -5   8   0   -0.60    0.80
   5  -8   0    0.10    0.50
  -5   8   0   -0.10    0.30
  -5   8   0   -0.10    0.40
   5  -8   1 2000.50  117.49
  -5   8   1 2093.89  117.49
  -5   8   1 1837.72  116.99
   5   8  -1 1995.30  116.89
  -5   8  -1 2056.59  117.59
  -5  -8   1 1708.13  116.39
   5   8  -2    3.00    0.90
   5   8  -2    2.70    0.50
   5  -8   2    3.00    1.20
  -5   8   2    3.00    1.10
  -5   8  -2    3.10    0.50
  -5  -8   2    2.50    1.00
  -5  -8   2    3.00    0.50
   5  -8  -2    4.00    0.40
  -5   8  -2    4.40    1.30
   5   8   2    4.50    0.50
  -5  -8   2    3.30    0.50
  -5   8   3   57.39    3.50
  -5   8   3   49.20    3.50
  -5  -8  -3   57.99    3.50
   5  -8   3   49.90    5.30
   5   8  -3   59.59    3.60
  -5   8   3   46.60    4.80
   5   8  -3   57.69    4.70
   5  -8   3   47.10    3.40
  -5  -8  -3   57.09    3.60
  -5  -8   3   45.20    5.00
   5   8   3   46.70    4.70
  -5  -8   3   58.29    3.60
  -5   8  -3   53.79    3.50
  -5   8  -3   57.09    3.50
  -5   8  -3   53.19    5.00
   5  -8  -3   64.29    3.50
  -5   8  -3   61.99    3.60
   5  -8  -3   54.09    3.50
   5   8   3   51.89    3.40
  -5  -8   3   53.59    3.60
   5   8  -4    0.80    0.40
  -5   8   4    1.10    0.40
  -5   8   4    0.70    0.30
   5   8  -4    0.80    1.10
  -5  -8  -4    2.20    0.40
  -5  -8  -4    0.00    0.30
   5   8   4    0.40    0.20
  -5  -8   4    0.40    0.40
  -5   8  -4    1.00    0.40
  -5   8  -4    1.00    0.40
  -5   8  -4    1.70    1.40
  -5  -8   4    1.00    0.40
  -5   8  -4    2.50    0.40
   5  -8  -4    0.40    0.30
   5  -8  -4    0.50    0.30
  -5   8   5  174.48   10.50
  -5  -8  -5  149.79   10.50
   5   8  -5  174.08   10.60
  -5   8   5  158.48   10.50
   5   8  -5  173.48   10.60
  -5  -8  -5  175.48   10.70
   5  -8  -5  177.38   10.60
   5  -8  -5  177.18   10.50
  -5  -8   5  171.18   10.60
  -5   8  -5  183.68   10.60
   5   8   5  167.98   10.50
   5   8  -6    2.30    0.60
  -5  -8  -6    2.30    0.60
  -5   8   6    1.20    0.50
  -5  -8  -6    1.90    0.40
   5   8  -6    2.00    0.60
   5   8   6    2.00    0.50
   5  -8  -6    2.90    0.60
  -5   8  -6    2.70    0.60
  -5  -8   6    1.50    0.50
   5  -8  -6    2.60    0.50
   5   8  -7    6.10    0.80
  -5  -8  -7    7.70    0.80
  -5  -8  -7    7.00    0.90
   5   8  -7    6.90    0.90
   5  -8  -7    6.50    0.80
   5   8   7    7.20    0.80
  -5   8  -7    7.30    0.80
  -5  -8   8   -0.10    0.30
   6  -8   0  171.68   10.80
  -6  -8   0  158.18   10.10
  -6   8   0  153.88   10.00
  -6   8   0  179.68   11.20
   6  -8   1  541.15   31.40
  -6  -8  -1  466.35   30.20
  -6   8   1  495.65   30.90
   6   8  -1  477.35   30.20
  -6   8  -1  539.65   31.50
  -6   8  -1  501.25   30.20
  -6  -8   1  507.25   30.30
   6   8  -2    0.30    0.30
   6  -8   2    0.30    0.30
  -6  -8  -2    1.80    0.40
   6  -8   2    0.10    1.00
  -6   8   2    0.10    0.80
   6   8  -2    0.90    0.70
  -6   8  -2    0.50    0.30
  -6   8  -2    0.20    0.30
  -6   8  -2    0.70    0.80
   6  -8  -2    0.50    0.20
  -6  -8   2    2.00    0.40
   6   8   2    0.00    0.20
  -6   8  -2    0.80    0.30
  -6  -8   2    0.30    0.30
  -6  -8  -3    7.30    0.70
   6  -8   3    6.10    2.10
  -6   8   3    6.50    0.70
   6   8  -3    6.40    0.80
  -6   8   3    4.80    2.20
  -6  -8  -3    6.40    0.80
   6   8  -3    7.00    1.60
   6   8   3    5.50    0.60
   6  -8  -3    8.00    0.70
   6  -8  -3    7.30    0.70
  -6   8  -3    6.80    0.80
  -6   8  -3    6.40    1.80
  -6   8  -3    7.20    0.80
  -6  -8   3    6.80    0.80
  -6  -8   3    6.50    0.80
  -6   8  -3    6.50    0.70
  -6   8   4    0.20    0.30
  -6  -8  -4    0.50    0.40
   6   8  -4    0.20    0.30
  -6  -8  -4    0.80    0.30
  -6  -8   4    0.30    0.40
   6  -8  -4    1.20    0.30
   6  -8  -4    0.20    0.30
  -6   8  -4    0.30    0.30
   6   8   4    0.10    0.30
  -6  -8   4    1.10    0.40
  -6   8  -4    0.30    0.30
  -6   8  -4    0.40    0.40
  -6   8   5  108.89    7.00
   6   8  -5  104.79    7.10
  -6  -8  -5  116.39    7.20
   6   8  -5  113.19    7.10
  -6  -8  -5  109.19    7.00
   6   8   5  116.29    7.00
   6  -8  -5  113.99    7.10
   6  -8  -5  113.59    7.00
  -6  -8   5  115.29    7.10
   6   8  -6    0.40    0.40
  -6  -8  -6    0.20    0.30
   6   8  -6    0.30    0.40
  -6  -8  -6   -0.30    0.50
  -6  -8   6    0.10    0.40
   6   8   6    0.00    0.30
  -6   8  -6    0.00    0.40
   6  -8  -6    0.20    0.30
   6  -8  -6    0.40    0.40
   6   8  -7   62.99    4.40
   6  -8   7   66.99    4.40
   6   8  -7   63.29    4.40
  -6  -8  -7   73.39    4.40
   6   8   7   67.99    4.40
  -6   8  -7   70.49    4.40
  -6  -8   7   78.59    4.50
   6  -8  -7   66.79    4.40
  -7   8   0    0.20    0.20
   7  -8   0    0.10    0.60
  -7  -8   0   -0.10    0.20
  -7   8   0    0.10    0.50
  -7   8   0    0.00    0.30
   7  -8   1  246.68   16.30
  -7   8   1  241.38   15.20
  -7  -8  -1  284.17   15.30
   7   8  -1  230.88   15.20
  -7   8   1  229.08   15.20
  -7  -8  -1  252.57   15.30
  -7  -8   1  253.97   15.20
  -7   8  -1  266.97   16.70
  -7   8  -1  243.98   15.20
  -7   8  -1  241.18   15.20
  -7  -8   1  264.27   15.30
  -7   8  -1  246.08   15.20
  -7   8  -1  271.47   15.20
  -7  -8  -2   17.50    1.30
   7   8  -2   20.50    1.40
   7  -8   2   13.10    2.50
  -7   8   2   17.20    1.30
  -7  -8  -2   20.90    1.50
  -7  -8  -2   16.30    1.30
   7  -8  -2   19.10    1.30
  -7  -8   2   17.40    1.40
  -7   8  -2   17.40    1.30
  -7   8  -2   16.10    2.50
  -7   8  -2   18.60    1.40
  -7  -8   2   18.30    1.40
  -7   8  -2   18.90    1.40
  -7   8   3   16.20    1.30
   7   8  -3   18.20    1.40
   7   8  -3   17.00    2.50
  -7  -8  -3   19.90    1.50
  -7  -8   3   19.50    1.50
   7  -8  -3   18.80    1.30
  -7   8  -3   18.40    1.40
  -7   8  -3   15.20    2.70
  -7  -8   3   20.80    1.50
  -7   8  -3   17.20    1.40
   7  -8  -3   15.70    1.30
  -7   8  -3   18.80    1.40
  -7   8   4    4.40    0.60
   7   8  -4    4.30    0.70
  -7  -8  -4    5.10    0.60
  -7  -8  -4    6.20    0.80
   7  -8  -4    5.10    0.70
  -7   8  -4    5.20    0.70
   7   8   4    6.80    0.70
  -7   8  -4    4.70    0.70
  -7   8  -4    5.20    0.70
  -7  -8   4    3.70    0.70
  -7  -8   4    4.30    0.70
   7  -8  -4    3.60    0.60
  -7  -8  -5  130.99    7.90
  -7  -8  -5  131.79    7.80
   7   8  -5  123.69    7.90
  -7   8   5  121.19    7.70
   7   8  -5  127.79    7.90
   7   8   5  124.59    7.70
   7  -8  -5  129.19    7.80
  -7   8  -5  102.49    7.80
  -7  -8   5  128.29    7.80
  -7   8   6    0.40    0.40
  -7  -8  -6    0.80    0.50
  -7  -8  -6    0.40    0.30
   7   8  -6    0.90    0.50
   7   8  -6   -0.20    0.40
   7  -8  -6    0.50    0.30
  -7   8  -6    0.40    0.40
  -7  -8   6    0.40    0.40
   7   8   6    0.10    0.40
   7  -8  -6    0.80    0.40
   7  -8   7    8.70    0.90
   7   8  -7    9.80    1.00
   7   8  -7    9.70    1.00
  -7  -8  -7    9.30    0.90
   7  -8  -7    9.30    1.00
  -7  -8   7   11.30    1.00
   7   8   7    8.80    0.90
  -7   8  -7   10.20    1.00
  -8  -8   0  100.99    6.00
  -8   8   0   83.29    5.90
  -8   8   0  102.79    7.30
  -8   8   0   96.19    5.90
  -8  -8   0   83.39    5.80
  -8   8   0  104.49    5.90
  -8   8   1   62.09    4.00
   8   8  -1   60.69    4.10
  -8  -8  -1   74.39    4.20
  -8   8   1   61.49    4.10
  -8  -8  -1   64.69    4.10
  -8   8  -1   59.09    5.30
  -8   8  -1   68.89    4.10
  -8   8  -1   64.29    4.10
  -8  -8   1   63.29    4.10
  -8   8  -1   64.69    4.10
  -8   8  -1   60.39    4.10
  -8  -8   1   69.29    4.20
  -8  -8  -2    2.30    0.50
  -8   8   2    1.90    0.40
  -8  -8  -2    2.10    0.40
  -8   8  -2    2.40    0.50
  -8  -8   2    1.80    0.50
  -8   8  -2    2.60    0.50
  -8  -8   2    1.60    0.40
  -8   8  -2    1.80    1.10
  -8   8  -2    2.30    0.40
  -8  -8   2    1.70    0.40
   8  -8  -2    1.70    0.30
  -8  -8  -3   28.10    2.00
   8   8  -3   24.20    3.20
  -8   8   3   28.70    2.00
   8   8  -3   30.40    2.10
  -8  -8  -3   30.40    2.20
  -8   8  -3   28.30    2.00
   8  -8  -3   24.90    2.00
   8  -8  -3   29.30    2.00
  -8  -8   3   30.00    2.20
  -8   8  -3   30.10    2.10
  -8   8  -3   30.10    2.10
  -8  -8   3   31.30    2.10
  -8  -8  -4    2.50    0.50
  -8   8   4    2.80    0.50
  -8  -8  -4    2.90    0.60
   8   8  -4    1.70    0.50
  -8  -8   4    2.60    0.70
   8  -8  -4    1.70    0.40
  -8   8  -4    1.80    0.50
  -8  -8   4    2.70    0.60
  -8   8  -4    2.50    0.50
   8  -8  -4    2.70    0.50
  -8   8  -4    2.50    0.60
   8   8  -5    2.90    0.60
   8   8  -5    5.20    0.80
  -8   8   5    4.90    0.70
  -8  -8  -5    6.00    0.90
  -8  -8  -5    4.70    0.70
  -8   8  -5    5.90    0.80
   8  -8  -5    4.00    0.60
   8  -8  -5    5.60    0.80
  -8  -8   5    5.50    0.80
  -8  -8  -6    0.20    0.30
   8   8  -6   -0.20    0.40
   8   8  -6    0.00    0.40
  -8   8   6    0.30    0.40
  -8   8  -6    0.40    0.40
  -8  -8   6    0.80    0.40
  -8  -8   6    0.50    0.40
   8   8   6    0.90    0.60
   8  -8  -6    0.30    0.40
   8  -8  -6    0.20    0.30
   8   8  -7   21.20    1.70
  -8  -8  -7   22.40    1.60
   8   8  -7   20.90    1.70
   8  -8  -7   20.70    1.70
  -8  -8   7   26.30    1.80
  -8   8  -7   24.30    1.70
  -9  -8   0    0.00    0.30
  -9  -8   0    0.40    0.30
  -9   8   0    0.60    0.90
  -9   8   0    0.60    0.30
  -9   8   0    0.40    0.30
  -9   8   1   70.89    4.40
  -9  -8  -1   68.99    4.50
  -9   8   1   70.69    4.40
  -9  -8   1   73.99    4.60
  -9   8  -1   62.19    4.40
  -9   8  -1   74.29    4.40
  -9  -8   1   69.89    4.40
  -9   8  -1   70.29    4.40
  -9   8  -1   65.49    4.40
  -9   8  -1   64.49    5.80
  -9  -8  -2   17.50    1.40
  -9  -8  -2   21.50    1.60
  -9   8   2   18.70    1.40
   9   8  -2   19.20    1.50
  -9  -8   2   19.60    1.60
  -9   8  -2   13.50    2.60
  -9   8  -2   18.60    1.50
  -9  -8   2   14.50    1.40
  -9   8  -2   18.70    1.50
   9  -8  -2   18.80    1.30
  -9  -8   2   18.40    1.50
  -9   8  -2   20.10    1.40
  -9   8   3  321.67   19.60
  -9  -8  -3  322.37   19.60
   9   8  -3  338.27   19.70
  -9  -8  -3  350.36   19.80
  -9   8  -3  343.57   19.70
   9  -8  -3  322.87   19.60
  -9  -8   3  325.97   19.80
  -9   8  -3  340.47   19.70
  -9  -8   3  313.07   19.70
   9  -8  -3  289.37   19.60
  -9   8  -3  327.77   19.60
  -9  -8   3  293.57   19.60
   9   8  -4   10.40    1.10
  -9  -8  -4    9.60    1.00
  -9   8   4   10.20    1.00
  -9  -8  -4   12.40    1.30
   9  -8  -4   11.90    1.10
  -9  -8   4   11.40    1.10
  -9   8  -4   10.90    1.20
  -9  -8   4    7.10    1.00
  -9   8  -4   10.50    1.10
  -9  -8   4    9.10    1.20
   9  -8  -4   10.40    1.00
  -9  -8  -5   13.90    1.50
  -9   8   5   14.70    1.30
   9   8  -5   14.90    1.30
  -9  -8  -5   14.60    1.20
   9   8  -5   15.30    1.40
   9  -8  -5   14.00    1.20
  -9  -8   5   14.50    1.30
  -9  -8   5   16.40    1.40
   9  -8  -5   14.50    1.30
  -9   8  -5   12.50    1.30
  -9  -8  -6    3.30    0.50
   9   8  -6    3.50    0.60
  -9   8   6    2.80    0.50
   9   8  -6    4.30    0.70
   9  -8  -6    3.20    0.60
  -9  -8   6    3.40    0.60
  -9   8  -6    2.80    0.60
  -9  -8  -7    1.60    0.40
   9   8  -7    1.40    0.40
   9  -8  -7    1.10    0.40
  -9  -8   7    1.00    0.40
  -9   8  -7    0.80    0.40
 -10  -8   0   47.30    3.10
 -10   8   0   50.09    3.00
 -10   8   0   46.90    3.00
 -10  -8   0   37.20    3.10
 -10   8   1   16.10    1.30
 -10  -8  -1   18.80    1.40
 -10   8   1   16.80    1.30
 -10   8  -1   16.40    1.30
 -10  -8   1   17.00    1.50
 -10   8  -1   14.80    1.30
 -10   8  -1   16.30    1.40
 -10   8  -1   18.20    1.30
 -10  -8   1   15.60    1.30
  10   8  -2    6.50    0.80
 -10  -8  -2    6.80    0.80
 -10   8   2    7.40    0.80
 -10   8  -2    8.20    0.90
 -10   8  -2    8.20    0.80
 -10  -8   2    5.40    0.90
 -10   8  -2    6.50    0.80
 -10  -8   2    6.70    0.80
 -10   8   3   22.40    1.70
 -10  -8  -3   25.90    1.90
  10   8  -3   22.50    1.80
 -10  -8   3   19.20    1.70
 -10   8  -3   21.50    1.70
 -10  -8   3   21.30    1.90
 -10   8  -3   22.50    1.70
 -10  -8   3   22.30    1.70
 -10   8  -3   20.50    1.70
  10  -8  -3   20.80    1.60
  10   8  -4    0.50    0.40
 -10  -8  -4   -0.30    0.50
 -10   8   4    0.30    0.40
 -10  -8  -4    1.10    0.40
 -10  -8   4    1.20    0.50
 -10   8  -4    0.20    0.40
  10  -8  -4    0.40    0.30
  10  -8  -4    0.30    0.40
 -10  -8   4    0.80    0.40
 -10  -8   4   -0.20    0.50
 -10   8  -4    0.40    0.40
 -10   8   5   30.70    2.30
  10   8  -5   31.80    2.30
  10   8  -5   34.00    2.40
 -10  -8  -5   30.20    2.20
 -10   8  -5   32.30    2.30
  10  -8  -5   29.80    2.20
 -10  -8   5   33.50    2.30
 -10  -8   5   32.90    2.30
  10  -8  -5   30.40    2.20
  10   8  -6    3.10    0.60
 -10   8   6    2.10    0.50
  10   8  -6    3.30    0.60
 -10  -8  -6    2.50    0.50
 -10   8  -6    3.00    0.60
 -10  -8   6    3.40    0.60
  10  -8  -6    2.00    0.50
 -11  -8   0   -0.10    0.40
 -11   8   1   19.30    1.50
 -11   8   1   19.70    1.50
 -11  -8  -1   21.20    1.60
 -11   8  -1   18.50    1.50
 -11  -8   1   20.10    1.50
 -11   8  -1   18.00    1.50
 -11  -8  -2    0.30    0.40
 -11   8   2    0.00    0.30
 -11   8  -2   -0.20    0.30
 -11   8  -2    2.00    0.60
 -11   8  -2    1.10    0.50
 -11  -8   2    0.10    0.50
 -11  -8   2   -0.20    0.30
 -11   8   3  159.08    9.70
  11   8  -3  154.78    9.70
 -11   8  -3  161.88    9.70
 -11   8  -3  148.79    9.70
 -11  -8   3  142.69    9.60
 -11  -8   3  163.38    9.90
 -11  -8   3  161.88    9.70
 -11   8   4    0.00    0.30
  11   8  -4    0.50    0.40
 -11   8  -4    0.00    0.40
 -11  -8   4   -0.60    0.40
  11  -8  -4    0.20    0.30
 -11  -8   4   -0.20    0.50
  11  -8  -4   -0.10    0.50
 -11   8  -4    0.50    0.40
 -11  -8   4    0.30    0.40
 -11  -8  -5    7.80    0.80
  11   8  -5    7.70    0.90
 -11   8   5    7.50    0.90
  11   8  -5    7.50    1.00
 -11   8  -5    7.50    0.90
 -11  -8   5    8.60    1.00
  11  -8  -5    7.30    0.90
  11   8  -6    0.70    0.40
  11   8  -6   -0.20    0.40
 -11  -8  -6    0.50    0.40
 -11   8   6    0.10    0.30
 -11  -8   6    0.90    0.40
 -11   8  -6    0.40    0.40
  11  -8  -6    0.30    0.40
 -12   8   0   16.50    1.30
 -12   8   0   17.60    1.40
 -12  -8   0   17.00    1.50
 -12   8   1   14.20    1.20
 -12  -8  -1   14.10    1.30
 -12   8   1   13.20    1.20
 -12  -8   1    9.80    1.30
 -12   8  -1   14.40    1.20
 -12   8  -1   13.10    1.20
 -12   8   2    8.70    1.00
 -12  -8  -2    9.60    1.10
 -12  -8   2   13.00    1.30
 -12  -8   2   10.40    1.10
 -12   8  -2    9.90    1.00
 -12   8  -2   10.60    1.10
  12   8  -3   31.50    2.30
 -12   8   3   32.80    2.30
 -12  -8   3   32.90    2.50
 -12   8  -3   27.20    2.20
 -12  -8   3   35.10    2.30
 -12  -8   3   25.90    2.20
 -12   8  -3   31.30    2.20
  12   8  -4    0.20    0.50
 -12   8   4    1.20    0.40
  12   8  -4    0.20    0.50
 -12  -8   4    0.10    0.50
 -12  -8   4    1.10    0.40
 -12   8  -4   -0.20    0.40
 -12   8  -4    0.20    0.40
  12   8  -5  131.49    8.00
 -12   8   5  131.69    7.90
  12   8  -5  125.39    8.00
 -12  -8   5  126.19    7.90
 -12   8  -5  122.49    7.90
  12   8  -6   -0.30    0.30
 -12   8   6   -0.30    0.30
 -12  -8   6    0.40    0.40
 -12   8  -6   -0.10    0.50
 -13   8   0   -0.20    0.30
 -13   8   0   -0.30    0.30
 -13  -8   0    0.10    0.40
 -13  -8  -1  143.29    8.70
 -13   8   1  131.09    8.60
 -13   8  -1  148.09    8.60
 -13   8  -1  131.29    8.60
 -13  -8   1  136.69    8.80
 -13  -8  -2    0.00    0.40
 -13   8   2    0.70    0.40
 -13   8  -2    0.70    0.40
 -13  -8   2    0.30    0.50
 -13   8   3  117.89    7.40
 -13  -8   3  117.29    7.50
 -13   8  -3  115.89    7.30
  13   8  -4    7.20    0.90
 -13   8   4    8.80    0.90
  13   8  -4    6.50    0.90
 -13  -8   4    7.40    1.00
 -13  -8   4    8.20    0.90
 -13   8  -4    7.00    0.80
 -13   8  -4    6.50    0.90
  13   8  -5    7.30    0.90
 -13   8   5    7.00    0.80
  13   8  -5    6.40    0.80
 -13   8  -5    5.30    0.80
 -13  -8   5    7.10    0.80
 -14  -8   0    0.00    0.40
 -14   8   0    0.00    0.40
 -14   8   0    0.90    0.40
 -14   8   1   21.10    1.70
 -14  -8  -1   21.70    1.80
 -14   8  -1   23.10    1.70
 -14  -8   1   23.60    2.00
 -14  -8  -2   16.50    1.50
 -14   8   2   15.70    1.40
 -14  -8   2   18.10    1.70
 -14   8  -2   19.10    1.50
 -14   8   3   10.00    1.00
 -14  -8   3    8.40    1.10
 -14   8  -3    8.60    1.00
  14   8  -4   13.50    1.30
 -14   8   4   16.90    1.30
 -14   8  -4   15.20    1.30
 -14  -8   4   13.90    1.40
  14   8  -5   54.29    3.60
 -14   8   5   56.79    3.60
 -15  -8   0    0.10    0.40
 -15   8   0    0.70    0.30
 -15   8   1    6.10    0.80
 -15  -8  -1    5.90    0.90
 -15   8  -1    6.70    0.80
 -15  -8   1    7.30    1.00
 -15   8   2    0.80    0.40
 -15  -8  -2    1.20    0.50
 -15  -8   2    1.10    0.60
 -15   8  -2    0.80    0.40
  15   8  -3    8.20    1.10
 -15   8   3    7.60    0.80
 -15   8  -3    7.20    0.80
 -15  -8   3    7.30    1.00
 -15   8   4    0.60    0.30
  15   8  -4    0.70    0.40
 -16  -8   0   12.10    1.30
 -16   8   0   11.90    1.10
 -16  -8  -1    5.40    0.80
 -16   8   1    5.70    0.70
 -16   8  -1    6.10    0.80
 -16  -8   1    7.10    0.90
 -16  -8  -2   -0.10    0.40
 -16   8   2    0.20    0.30
 -16  -8   2    0.30    0.50
 -16   8  -2    0.70    0.40
  16   8  -3    0.20    0.50
 -16   8   3    0.30    0.30
 -16   8  -3   -0.60    0.50
 -17  -8   0   -0.10    0.40
 -17   8   0   -0.10    0.40
 -17   8   1   11.90    1.10
 -17  -8   1   13.40    1.20
 -17   8  -1   10.80    1.10
 -17   8   2    0.20    0.30
   0   9   0    0.30    0.30
   0  -9   0    0.10    0.30
   0  -9  -1    0.00    0.30
   0  -9   1   -0.10    0.50
   0   9  -1    0.40    0.50
   0  -9   2   11.70    1.90
   0   9  -2   14.60    1.70
   0   9   2   10.70    0.90
   0   9   3    0.00    0.70
   0  -9   3    0.10    0.30
   0  -9   3    0.20    1.10
   0  -9  -3    0.10    0.20
   0   9  -3   -0.10    0.60
   0   9  -3    0.00    0.30
   0  -9  -3    0.40    0.20
   0   9   3    0.10    0.20
   0   9   4  206.68   11.50
   0   9  -4  179.08   11.50
   0   9  -4  183.58   13.10
   0  -9   4  172.18   11.50
   0  -9  -4  187.18   11.40
   0  -9  -4  199.78   11.60
   0   9  -4  188.78   11.50
   0   9  -5   -0.10    0.40
   0  -9  -5    1.00    0.30
   0   9  -5    0.30    0.30
   0  -9  -5    0.50    0.40
   0   9   5   -0.10    0.30
   0   9   6   19.90    1.50
   0   9   6   20.20    1.50
   0  -9  -6   15.10    1.50
   0  -9  -6   20.10    1.50
   0   9   7    0.30    0.40
   0  -9   7    0.00    0.40
   0   9   7    0.50    0.40
   0  -9  -7    0.20    0.40
   0  -9  -8   27.80    2.00
  -1   9   0   76.49    4.90
  -1  -9   0   62.49    4.80
   1   9   0   75.79    4.70
   1  -9   0   67.19    5.00
  -1   9   1  193.68   13.20
   1  -9   1  207.88   13.90
   1   9  -1  222.58   13.50
  -1   9  -1  239.38   13.70
  -1  -9   1  203.58   13.70
   1   9  -2  656.53   40.70
  -1   9   2  638.44   40.60
  -1   9   2  676.63   41.60
   1  -9   2  711.43   42.10
   1   9  -2  691.33   41.50
   1   9   2  650.33   40.60
  -1  -9   2  673.03   42.00
  -1   9  -2  730.53   41.80
  -1  -9  -3  113.09    6.70
  -1   9   3  110.39    6.70
   1   9  -3  116.99    8.00
  -1   9   3  103.99    8.10
  -1  -9  -3  111.79    6.80
   1  -9   3   98.09    8.40
   1   9  -3  112.09    6.80
  -1  -9   3  102.29    6.70
  -1   9  -3  116.39    8.20
   1   9   3  112.49    6.70
   1  -9  -3  112.99    6.80
   1  -9  -3  112.49    6.70
   1   9   3  109.79    8.20
   1  -9  -3  113.59    6.70
  -1   9  -3   99.79    6.80
  -1  -9   3  101.49    8.50
  -1   9  -3  105.59    6.80
   1  -9   4   64.99    4.70
  -1   9   4   79.29    4.70
   1   9  -4   76.19    4.80
  -1  -9  -4   76.49    4.70
  -1  -9  -4   78.19    4.80
   1   9  -4   74.39    6.30
   1  -9  -4   76.49    4.70
  -1   9  -4   71.19    4.80
  -1   9  -4   72.89    4.70
  -1   9  -4   73.69    6.40
   1  -9  -4   82.79    4.80
   1   9   4   80.99    4.70
  -1   9  -4   70.49    4.70
  -1  -9   4   70.09    4.70
   1  -9  -4   76.69    4.70
   1   9  -5   39.30    2.90
  -1   9   5   39.10    2.80
  -1  -9  -5   42.30    2.80
  -1  -9  -5   47.70    3.00
   1  -9  -5   43.40    2.90
  -1  -9   5   39.70    2.80
  -1   9  -5   41.20    2.80
   1  -9  -5   44.60    2.80
  -1   9   6    2.90    0.60
  -1   9   6    3.20    0.60
   1   9  -6    3.00    0.70
  -1  -9  -6    6.90    0.90
  -1  -9  -6    2.80    0.50
  -1   9  -6    3.00    0.60
   1   9   6    3.00    0.60
   1  -9  -6    3.00    0.50
   1  -9  -6    1.60    0.60
  -1  -9  -7   31.00    2.20
  -1  -9  -7   34.20    2.40
   1  -9   7   35.10    2.30
  -1   9   7   31.30    2.30
   1   9   7   31.90    2.30
   1  -9  -7   31.70    2.40
   1   9   7   31.20    2.30
  -1  -9   7   34.00    2.30
  -1  -9  -8    3.70    0.60
   1  -9  -8    3.70    0.60
   2   9   0    1.10    0.40
   2  -9   0    0.50    0.50
  -2   9   0    0.00    0.30
   2   9  -1    0.50    0.40
  -2   9   1    0.50    0.40
   2  -9   1    2.00    0.80
  -2   9  -1    0.70    0.50
  -2  -9   1    0.00    0.50
   2  -9   2    7.80    1.70
  -2   9   2    7.60    0.70
   2   9  -2    8.90    1.40
   2   9  -2    8.50    0.80
  -2   9   2    8.20    1.50
  -2   9  -2    9.10    1.60
  -2  -9   2    9.10    1.80
   2  -9   3   89.59    7.80
  -2   9   3   83.99    7.30
   2   9  -3  106.89    7.30
  -2  -9  -3  102.09    6.10
  -2  -9  -3   99.39    6.00
  -2   9   3   98.89    6.10
   2   9  -3  103.99    6.20
  -2   9  -3   86.79    6.10
   2  -9  -3   99.09    6.10
   2   9   3   99.99    6.00
  -2   9  -3  101.89    6.10
   2  -9  -3  100.39    6.10
  -2  -9   3   88.69    7.80
  -2   9  -3  105.69    7.60
  -2  -9   3   92.19    6.10
   2   9   3   94.59    7.40
   2  -9  -3  102.99    6.10
  -2   9  -3  101.49    6.10
   2  -9   4  350.16   23.90
  -2  -9  -4  420.56   24.10
  -2  -9  -4  403.46   23.90
  -2   9   4  378.36   23.90
   2   9  -4  383.86   25.60
   2   9  -4  407.26   24.10
  -2   9   4  420.96   24.00
   2  -9  -4  405.56   23.90
   2  -9  -4  412.86   24.00
   2  -9  -4  403.06   23.90
   2   9   4  421.96   24.00
  -2   9  -4  381.66   25.80
  -2   9  -4  403.96   24.00
  -2  -9   4  388.06   24.00
  -2   9  -4  380.76   23.90
   2   9  -5   45.80    3.30
  -2  -9  -5   53.49    3.40
  -2  -9  -5   50.59    3.20
  -2   9   5   48.80    3.20
  -2   9   5   52.59    3.30
   2  -9  -5   47.70    3.20
  -2   9  -5   50.59    3.30
  -2  -9   5   44.50    3.30
   2   9   5   47.80    3.20
   2  -9  -5   49.99    3.20
   2  -9  -5   49.50    3.30
   2   9  -6   37.60    2.80
  -2  -9  -6   42.30    2.90
  -2  -9  -6   41.40    2.70
  -2   9   6   39.90    2.70
  -2   9  -6   38.10    2.70
   2  -9  -6   41.80    2.80
   2   9   6   34.10    2.70
  -2  -9  -7    1.60    0.60
  -2   9   7    2.20    0.50
  -2  -9  -7    1.80    0.40
  -2  -9   7    1.40    0.50
   2   9   7    1.50    0.50
   2  -9  -7    2.10    0.50
   2   9   7    1.40    0.40
  -2  -9  -8    3.60    0.60
   2  -9  -8    4.30    0.60
   3  -9   0  459.95   29.80
  -3   9   0  503.45   29.80
   3   9   0  490.35   29.30
  -3   9   1   66.29    4.80
   3  -9   1   67.49    5.20
   3   9  -1   68.49    4.70
  -3  -9   1   60.59    4.80
  -3   9  -1   70.99    5.10
   3   9  -2  535.75   33.10
   3   9  -2  605.84   34.00
  -3   9   2  527.15   34.10
  -3   9   2  503.45   33.00
   3  -9   2  556.34   34.60
   3   9   2  533.95   33.00
  -3  -9   2  529.75   34.30
   3  -9  -2  586.74   33.00
  -3   9  -2  581.24   34.40
   3  -9   3   61.79    4.40
   3  -9   3   65.49    6.30
   3   9  -3   75.79    5.70
  -3  -9  -3   73.59    4.40
   3   9  -3   71.89    4.50
  -3   9   3   66.79    5.90
  -3   9   3   69.49    4.40
  -3  -9  -3   75.59    4.50
   3  -9  -3   75.99    4.40
  -3   9  -3   71.79    4.50
  -3   9  -3   73.79    4.50
   3  -9  -3   72.99    4.50
  -3   9  -3   73.39    6.00
  -3  -9   3   74.49    4.50
  -3   9  -3   70.19    4.50
  -3  -9   3   63.29    6.10
   3   9   3   65.89    5.70
   3   9   3   68.79    4.40
  -3  -9  -4    2.80    0.50
   3   9  -4    1.70    0.40
   3   9  -4    0.90    0.50
  -3  -9  -4    1.50    0.30
  -3   9   4    2.10    0.40
  -3   9   4    2.70    0.50
   3   9  -4    1.60    1.20
  -3   9  -4    1.10    0.40
  -3  -9   4    2.10    0.50
  -3   9  -4    3.00    0.50
   3  -9  -4    1.90    0.40
  -3   9  -4    1.60    1.40
   3   9   4    2.10    0.40
   3  -9  -4    2.10    0.40
   3   9  -5   31.60    2.40
  -3  -9  -5   37.30    2.50
  -3  -9  -5   34.60    2.40
   3   9  -5   36.90    2.50
  -3   9   5   35.80    2.40
   3  -9  -5   36.50    2.50
   3  -9  -5   34.10    2.40
  -3   9  -5   35.60    2.40
  -3  -9   5   28.00    2.40
   3   9   5   37.00    2.40
  -3  -9   5   33.80    2.40
  -3   9   6   -0.10    0.30
   3   9  -6    0.00    0.40
  -3  -9  -6    0.00    0.40
  -3  -9  -6    0.30    0.30
   3  -9  -6    0.00    0.40
  -3  -9   6    0.90    0.40
  -3   9  -6    0.00    0.40
   3   9   6    0.20    0.30
  -3  -9  -7    3.60    0.70
  -3  -9  -7    4.10    0.60
  -3   9   7    2.60    0.60
   3   9  -7    4.20    0.70
  -3   9  -7    3.10    0.60
   3   9   7    3.60    0.60
   3  -9  -7    3.70    0.70
   3  -9  -8    0.50    0.40
   4   9   0   -0.20    0.30
   4  -9   0    0.10    0.50
  -4   9   0    0.00    0.40
  -4   9   1    2.50    0.80
  -4   9   1    2.20    0.80
   4  -9   1    2.60    1.00
   4   9  -1    2.50    0.70
  -4   9  -1    1.90    0.80
  -4  -9   1    1.60    0.30
  -4  -9   1    2.40    0.70
  -4   9   2    8.50    1.60
   4  -9   2    9.40    1.90
   4   9  -2    7.20    1.30
   4   9  -2    6.70    0.70
  -4   9   2    6.40    0.70
  -4   9  -2    6.30    0.70
   4   9   2    5.70    0.60
   4  -9  -2    8.10    0.60
  -4  -9   2    6.20    0.80
  -4  -9   2    6.60    1.50
  -4   9  -2    6.10    1.50
  -4  -9  -3  227.98   13.30
   4  -9   3  194.68   13.30
   4  -9   3  194.78   15.20
  -4  -9  -3  235.58   13.50
  -4   9   3  221.08   13.30
   4   9  -3  230.78   14.70
   4   9  -3  231.88   13.40
  -4  -9   3  235.08   13.40
   4  -9  -3  242.08   13.40
   4   9   3  199.48   14.70
  -4   9  -3  220.78   13.40
  -4   9  -3  205.38   15.00
  -4   9  -3  221.18   13.40
   4   9   3  227.18   13.30
   4  -9  -3  221.68   13.40
  -4   9  -3  229.18   13.40
  -4  -9   3  191.58   14.90
  -4  -9  -4   26.90    2.00
  -4   9   4   27.90    1.90
   4   9  -4   28.30    2.00
   4   9  -4   23.90    3.30
  -4  -9  -4   27.70    1.90
  -4   9  -4   27.00    1.90
  -4   9  -4   21.70    3.40
  -4  -9   4   24.80    1.90
  -4  -9   4   25.50    1.90
  -4   9  -4   26.40    1.90
   4  -9  -4   27.90    1.90
   4   9   4   29.60    1.80
  -4   9  -4   26.30    1.90
   4  -9  -4   25.70    1.90
  -4   9   5   67.29    4.30
  -4  -9  -5   63.69    4.30
  -4  -9  -5   70.49    4.50
   4   9  -5   69.69    4.40
   4   9  -5   68.29    4.40
  -4   9  -5   67.39    4.40
   4  -9  -5   69.59    4.40
  -4  -9   5   59.79    4.40
   4  -9  -5   68.69    4.30
  -4  -9   5   65.39    4.40
   4   9   5   66.49    4.30
  -4   9   6   14.70    1.40
   4   9  -6   15.60    1.40
  -4  -9  -6   16.80    1.30
   4   9  -6   16.50    1.50
  -4  -9  -6   15.60    1.50
   4  -9  -6   14.70    1.40
   4   9   6   16.40    1.30
  -4   9  -6   15.90    1.40
  -4  -9  -7    0.10    0.50
  -4  -9  -7   -0.50    0.30
   4   9  -7    0.60    0.40
  -4   9   7   -1.30    0.40
  -4   9  -7    0.40    0.40
   4  -9  -7    0.10    0.40
   4   9   7    0.30    0.30
  -4  -9   8    2.90    0.50
   4  -9  -8    1.60    0.50
  -5  -9   0  118.49    8.70
  -5   9   0  145.69    9.30
  -5   9   0  151.08    9.70
   5   9   0  149.29    9.00
   5  -9   0  147.49    9.50
  -5   9   1   80.49    5.60
   5   9  -1   63.69    4.60
  -5   9   1   68.99    5.30
   5  -9   1   74.39    5.70
   5   9  -1   78.69    5.20
  -5   9  -1   75.69    5.70
  -5  -9   1   69.09    4.60
  -5  -9  -2   21.50    1.50
   5   9  -2   25.00    1.50
   5   9  -2   21.20    2.20
  -5   9   2   15.90    1.40
   5  -9   2   19.60    2.80
  -5   9   2   19.30    2.40
  -5   9  -2   21.20    1.40
  -5   9  -2   19.30    1.50
  -5  -9   2   18.00    1.40
   5  -9  -2   20.60    1.40
  -5  -9   2   21.20    1.50
  -5  -9   2   18.40    2.30
  -5   9  -2   20.00    2.60
  -5   9  -2   18.90    1.40
   5   9   2   18.20    1.30
  -5  -9  -3  202.48   11.40
   5   9  -3  190.48   12.60
  -5   9   3  181.88   11.30
   5  -9   3  161.58   13.50
  -5   9   3  163.18   11.30
   5  -9   3  167.88   11.30
  -5  -9  -3  193.18   11.30
   5   9  -3  201.28   11.40
  -5   9  -3  192.08   11.30
   5  -9  -3  210.08   11.30
   5  -9  -3  180.48   11.30
  -5   9  -3  167.28   13.00
  -5  -9   3  197.68   11.40
  -5  -9   3  188.68   11.40
   5   9   3  155.48   12.50
   5   9   3  182.98   11.20
  -5   9  -3  204.38   11.40
  -5   9  -3  191.38   11.30
  -5   9   4    2.90    0.50
   5   9  -4    2.60    0.50
  -5  -9  -4    2.70    0.50
  -5   9   4    2.20    0.50
  -5  -9  -4    2.90    0.50
   5  -9  -4    2.60    0.40
  -5   9  -4    2.30    0.50
  -5  -9   4    3.00    0.60
  -5  -9   4    2.80    0.50
   5  -9  -4    1.90    0.50
  -5   9  -4    2.50    0.50
  -5   9  -4    3.20    0.60
   5   9   4    2.60    0.40
   5   9  -5  158.08    9.20
   5   9  -5  148.19    9.20
  -5  -9  -5  151.58    9.20
  -5  -9  -5  124.09    9.00
  -5   9   5  146.59    9.10
  -5  -9   5  131.99    9.20
   5  -9  -5  155.38    9.20
   5  -9  -5  154.18    9.10
  -5   9  -5  153.28    9.20
   5   9   5  149.79    9.10
  -5  -9   5  145.69    9.20
   5   9  -6    4.40    0.70
  -5  -9  -6    4.30    0.60
   5   9  -6    4.70    0.70
  -5   9   6    4.00    0.70
  -5  -9  -6    4.80    0.80
  -5  -9   6    5.50    0.70
   5  -9  -6    5.20    0.70
   5   9   6    4.80    0.70
  -5   9  -6    5.10    0.70
  -5  -9  -7    6.10    0.80
   5   9  -7    5.40    0.70
  -5  -9  -7    4.80    0.60
   5  -9  -7    5.80    0.80
  -5   9  -7    5.20    0.70
   5   9   7    4.80    0.70
  -6  -9   0    0.30    0.30
  -6   9   0    0.20    0.50
  -6   9   0   -0.10    0.20
   6  -9   0    0.00    0.60
  -6   9   1    0.90    0.70
   6   9  -1    1.50    0.70
  -6  -9  -1   -0.10    0.30
   6   9  -1    1.10    0.30
  -6  -9  -1    2.10    0.40
  -6   9   1    0.80    0.30
  -6   9  -1    1.00    0.70
  -6  -9   1    0.70    0.40
  -6  -9   1    0.80    0.30
  -6  -9  -2    0.50    0.30
  -6  -9  -2    0.40    0.30
   6  -9   2   -0.20    1.00
   6   9  -2    0.10    0.30
  -6   9   2    0.60    0.90
  -6   9   2    0.60    0.30
   6  -9   2    0.90    0.30
  -6   9  -2    2.70    0.50
   6  -9  -2    0.30    0.20
  -6   9  -2    1.30    0.90
  -6  -9   2    0.10    0.30
  -6   9  -2   -0.10    0.20
  -6   9  -2    0.30    0.30
  -6  -9   2    0.70    0.30
   6   9   2    0.20    0.20
   6   9  -3  159.68   11.10
  -6  -9  -3  169.68    9.80
   6   9  -3  169.58    9.80
   6  -9   3  140.39    9.70
  -6  -9  -3  163.58    9.70
  -6   9   3  144.89    9.70
  -6   9  -3  160.98    9.70
  -6  -9   3  173.08    9.80
   6  -9  -3  170.48    9.70
  -6  -9   3  155.78    9.80
  -6   9  -3  169.48    9.80
  -6   9  -3  136.09   11.40
  -6   9  -3  165.08    9.80
   6  -9  -3  149.09    9.70
   6   9   3  150.98    9.60
  -6   9   4    9.90    0.90
   6   9  -4    7.40    1.00
  -6  -9  -4    9.50    0.90
  -6  -9  -4   10.20    1.10
  -6  -9   4   10.80    1.00
   6   9   4   11.10    0.90
   6  -9  -4    9.90    0.90
  -6   9  -4   10.50    1.00
  -6   9  -4   12.10    1.10
  -6  -9   4   11.00    1.10
  -6   9  -4   11.80    1.00
  -6   9   5   12.10    1.10
   6   9  -5   12.90    1.30
   6   9  -5   10.50    1.20
  -6  -9  -5   13.50    1.30
  -6  -9  -5   13.90    1.10
   6   9   5   12.30    1.10
  -6  -9   5   10.40    1.30
   6  -9  -5   12.90    1.10
  -6  -9   5   13.40    1.20
  -6   9  -5   11.30    1.20
   6  -9  -5   13.30    1.20
   6   9  -6    5.90    0.80
   6   9  -6    5.70    0.80
  -6  -9  -6    5.50    0.90
  -6  -9  -6    4.90    0.60
   6   9   6    4.80    0.70
   6  -9  -6    4.50    0.70
  -6   9  -6    5.50    0.80
  -6  -9   6    5.20    0.70
  -6  -9  -7    6.40    0.70
   6   9  -7    5.30    0.70
  -6  -9  -7    4.80    0.80
   6   9  -7    4.70    0.70
  -6   9  -7    6.50    0.80
   6   9   7    6.20    0.70
  -6  -9   7    6.10    0.80
   6  -9  -7    5.50    0.70
  -7  -9   0    3.30    0.50
  -7   9   0    3.40    0.40
  -7   9   0    2.80    1.00
  -7   9   0    2.50    0.40
   7   9   0    3.10    0.60
  -7  -9  -1  300.67   16.30
  -7  -9  -1  269.67   16.20
   7   9  -1  255.37   16.10
  -7   9   1  240.68   16.00
  -7   9   1  257.47   16.10
   7  -9   1  258.07   17.30
  -7   9  -1  268.07   17.60
  -7   9  -1  267.77   16.10
  -7   9  -1  267.27   16.20
  -7  -9   1  280.77   16.20
  -7   9  -1  264.47   16.10
  -7  -9   1  269.57   16.10
  -7  -9  -2   55.09    3.70
   7   9  -2   62.39    3.80
  -7   9   2   56.69    3.80
  -7  -9  -2   65.89    3.90
   7   9  -2   64.99    4.90
   7  -9   2   57.79    3.80
  -7  -9  -2   54.29    3.80
   7  -9   2   47.00    5.20
  -7   9  -2   60.39    3.80
   7  -9  -2   61.39    3.70
  -7  -9   2   60.49    3.90
  -7  -9   2   64.19    3.90
  -7   9  -2   58.89    3.80
  -7   9  -2   61.69    3.80
  -7   9  -2   53.89    5.20
  -7  -9  -3   65.19    4.10
  -7   9   3   59.89    4.10
  -7  -9  -3   66.19    4.30
   7   9  -3   59.39    5.40
   7   9  -3   66.49    4.30
   7  -9  -3   60.59    4.10
  -7  -9   3   68.99    4.30
  -7  -9   3   65.49    4.30
  -7   9  -3   70.69    4.30
   7  -9  -3   66.79    4.10
  -7   9  -3   67.19    4.30
  -7   9  -3   66.99    4.20
  -7  -9  -4    6.50    0.90
  -7   9   4    5.10    0.70
  -7  -9  -4    5.90    0.70
   7   9  -4    5.40    0.80
  -7  -9   4    5.40    0.80
  -7   9  -4    6.70    0.80
  -7  -9   4    5.80    0.90
  -7   9  -4    5.30    0.80
   7  -9  -4    5.00    0.70
   7   9   4    6.00    0.70
   7  -9  -4    5.30    0.70
  -7   9  -4    6.50    0.80
   7   9  -5   58.09    4.00
  -7   9   5   60.99    3.90
  -7  -9  -5   62.29    4.10
  -7  -9  -5   64.69    4.00
   7   9  -5   66.49    4.10
  -7  -9   5   52.89    4.10
   7  -9  -5   59.79    4.00
  -7  -9   5   61.49    4.00
   7  -9  -5   57.89    3.90
  -7   9  -5   59.69    4.00
   7   9   5   59.89    3.90
   7   9  -6    1.60    0.50
   7   9  -6    1.20    0.50
  -7  -9  -6    0.70    0.40
  -7  -9  -6    1.20    0.50
   7  -9  -6    0.90    0.40
  -7   9  -6    2.10    0.50
   7   9   6    1.00    0.40
  -7  -9   6    0.80    0.40
   7   9  -7    5.60    0.80
  -7  -9  -7    6.50    0.70
   7  -9   7    6.70    0.70
   7   9  -7    6.20    0.80
  -7  -9   7    8.30    0.90
   7   9   7    7.20    0.80
  -7   9  -7    7.10    0.80
   7  -9  -7    6.30    0.80
  -8   9   0   -0.40    0.60
  -8   9   0   -0.40    0.30
  -8   9   0    0.10    0.20
  -8   9   0    0.80    0.30
  -8  -9   0    0.40    0.30
  -8  -9   0    0.10    0.30
  -8  -9  -1   68.19    4.40
  -8  -9  -1   79.99    4.50
   8   9  -1   65.09    4.40
  -8   9   1   65.29    4.30
  -8   9   1   69.09    4.30
  -8   9  -1   65.09    4.40
  -8   9  -1   72.19    4.40
  -8   9  -1   68.49    4.30
  -8   9  -1   69.19    4.40
  -8   9  -1   61.19    5.60
  -8  -9   1   72.09    4.40
  -8  -9   1   71.59    4.50
   8   9  -2  106.29    6.30
  -8   9   2   96.39    6.20
   8  -9   2   95.39    6.20
  -8  -9  -2   97.89    6.20
   8   9  -2   99.69    7.40
  -8  -9  -2  108.49    6.40
  -8   9  -2   80.29    7.70
  -8  -9   2  103.29    6.30
  -8   9  -2  100.19    6.20
  -8   9  -2   98.89    6.30
  -8   9  -2  102.19    6.30
   8  -9  -2  101.29    6.20
  -8  -9   2  107.49    6.40
  -8  -9  -3  283.27   17.00
  -8  -9  -3  270.07   16.80
  -8   9   3  264.47   16.80
   8   9  -3  293.37   16.90
  -8   9  -3  283.77   16.90
  -8   9  -3  278.97   16.90
   8  -9  -3  248.78   16.80
  -8  -9   3  276.27   17.00
  -8  -9   3  296.67   17.00
   8  -9  -3  284.47   16.80
  -8   9  -3  276.67   16.90
   8   9  -4   69.09    4.20
  -8   9   4   63.29    4.10
  -8  -9  -4   66.49    4.20
  -8  -9  -4   64.49    4.00
  -8  -9   4   67.39    4.20
  -8   9  -4   69.89    4.10
   8  -9  -4   53.99    4.00
  -8   9  -4   56.69    4.10
  -8  -9   4   62.79    4.30
  -8   9  -4   57.79    4.10
   8  -9  -4   57.59    4.00
  -8  -9  -5    2.00    0.50
   8   9  -5    2.40    0.60
   8   9  -5    2.50    0.60
  -8   9   5    1.50    0.50
  -8  -9  -5    2.80    0.60
  -8   9  -5    2.20    0.60
  -8  -9   5    1.80    0.70
   8  -9  -5    2.00    0.50
   8  -9  -5    2.30    0.50
  -8  -9   5    1.40    0.50
  -8  -9  -6   25.40    2.10
  -8  -9  -6   26.80    1.90
   8   9  -6   27.80    2.10
  -8   9   6   24.10    2.10
   8   9  -6   30.40    2.10
   8  -9  -6   28.40    2.00
  -8   9  -6   27.10    2.00
  -8  -9   6   29.80    2.10
  -8  -9   6   26.20    2.00
  -8  -9  -7    2.60    0.40
   8   9  -7    2.60    0.50
  -8  -9   7    2.80    0.50
  -8   9  -7    2.40    0.50
   8  -9  -7    2.00    0.50
  -9   9   0  481.05   32.00
  -9   9   0  529.85   30.20
  -9  -9   0  432.46   30.20
  -9  -9   0  569.54   30.40
  -9   9   0  555.34   30.30
  -9   9   0  452.15   30.20
  -9   9   1   26.00    1.80
  -9   9   1   24.80    1.80
  -9  -9  -1   25.60    1.90
  -9   9  -1   27.10    1.80
  -9  -9   1   25.70    1.80
  -9   9  -1   24.10    1.80
  -9   9  -1   24.50    1.70
  -9   9  -1   22.50    3.10
  -9   9  -1   23.70    1.80
  -9  -9   1   26.60    2.00
  -9   9   2  397.76   23.50
  -9  -9  -2  364.36   23.50
   9   9  -2  378.16   23.50
  -9  -9  -2  434.96   23.70
   9  -9   2  363.86   23.50
  -9  -9   2  400.16   23.70
  -9   9  -2  378.96   23.60
  -9   9  -2  394.56   23.50
  -9  -9   2  395.16   23.60
  -9   9  -2  388.46   23.60
  -9  -9  -3    1.40    0.40
   9   9  -3    1.60    0.50
  -9  -9  -3    2.40    0.60
  -9   9   3    1.90    0.40
  -9   9  -3    1.50    0.50
  -9   9  -3    2.60    0.60
  -9  -9   3    1.60    0.50
  -9   9  -3    3.70    0.60
   9  -9  -3    1.90    0.40
  -9  -9   3    2.80    0.70
  -9  -9   3    2.30    0.50
  -9  -9  -4    0.80    0.40
  -9  -9  -4    0.50    0.50
  -9   9   4    1.20    0.40
   9   9  -4    1.50    0.50
   9  -9  -4    1.00    0.40
  -9   9  -4    0.20    0.40
  -9  -9   4    0.80    0.60
  -9   9  -4    0.70    0.40
  -9  -9   4    0.50    0.40
   9  -9  -4    0.10    0.40
  -9  -9   4    0.80    0.50
  -9  -9  -5    3.10    0.70
  -9   9   5    2.50    0.60
   9   9  -5    2.70    0.60
  -9  -9  -5    3.30    0.60
   9   9  -5    2.70    0.60
   9  -9  -5    2.70    0.60
  -9  -9   5    3.60    0.60
  -9  -9   5    3.30    0.60
   9  -9  -5    3.80    0.60
  -9   9  -5    2.30    0.60
  -9   9   6    6.40    0.70
   9   9  -6    6.00    0.80
   9   9  -6    6.00    0.80
  -9  -9  -6    6.50    0.70
  -9  -9   6    7.40    0.90
  -9   9  -6    7.00    0.80
   9  -9  -6    5.60    0.80
  -9  -9   7    2.10    0.40
  -9   9  -7    1.70    0.40
 -10  -9   0   -0.10    0.30
 -10   9   0    0.50    0.30
 -10   9   0    1.30    0.40
 -10   9   1   25.50    1.80
 -10  -9  -1   24.30    1.90
 -10   9   1   26.80    1.80
 -10   9  -1   26.00    1.80
 -10   9  -1   22.40    1.90
 -10   9  -1   24.10    1.80
 -10   9  -1   26.80    1.90
 -10  -9   1   25.90    1.90
 -10  -9   1   25.10    2.00
  10  -9   2   76.99    5.10
 -10  -9  -2   78.99    5.10
  10   9  -2   81.59    5.20
 -10   9   2   80.69    5.10
 -10   9  -2   75.59    5.10
 -10   9  -2   79.79    5.10
 -10   9  -2   80.79    5.10
 -10  -9   2   85.29    5.20
 -10  -9   2   80.79    5.30
 -10  -9  -3   25.00    1.90
  10   9  -3   23.00    1.80
 -10   9   3   21.70    1.70
 -10  -9   3   23.70    2.00
 -10   9  -3   22.80    1.70
 -10   9  -3   22.50    1.80
 -10   9  -3   22.30    1.80
 -10  -9   3   20.40    1.70
 -10  -9   3   18.20    1.70
 -10   9   4  168.68   10.40
  10   9  -4  179.38   10.60
 -10  -9  -4  168.08   10.40
 -10  -9  -4  175.08   10.60
  10  -9  -4  148.09   10.40
 -10  -9   4  171.48   10.50
 -10   9  -4  169.28   10.40
 -10   9  -4  175.08   10.50
 -10  -9   4  178.08   10.60
  10  -9  -4  163.08   10.40
 -10  -9   4  168.38   10.70
 -10  -9  -5    7.80    0.80
 -10   9   5    7.70    0.90
  10   9  -5    7.50    1.00
  10   9  -5    7.30    1.00
 -10  -9   5    8.20    0.90
 -10   9  -5    6.80    0.90
  10  -9  -5    6.90    0.80
 -10  -9   5    8.30    0.90
  10   9  -6   16.00    1.40
  10   9  -6   17.10    1.40
 -10  -9  -6   14.90    1.30
 -10   9   6   16.00    1.30
 -10   9  -6   18.40    1.40
  10  -9  -6   15.20    1.30
 -10  -9   6   17.90    1.40
 -11  -9   0   49.60    3.60
 -11   9   0   55.69    3.50
 -11   9   0   55.79    3.60
 -11  -9  -1   28.30    2.10
 -11   9   1   29.00    2.00
 -11   9   1   27.90    2.00
 -11   9  -1   24.30    2.00
 -11  -9   1   27.90    2.10
 -11   9  -1   31.00    2.10
 -11  -9   1   29.00    2.20
 -11   9  -1   29.40    2.00
  11  -9   2  108.39    7.00
 -11   9   2  119.09    7.00
 -11  -9  -2  114.39    7.00
 -11  -9   2  120.79    7.10
 -11   9  -2  101.59    7.00
 -11   9  -2  108.59    7.00
 -11  -9   2  101.79    7.20
 -11   9  -2  115.59    7.00
  11   9  -3    1.10    0.50
 -11   9   3    1.20    0.40
 -11  -9   3    1.10    0.60
 -11   9  -3    1.40    0.50
 -11   9  -3    1.10    0.50
 -11  -9   3    1.10    0.50
 -11  -9   3    1.40    0.50
 -11   9  -3    1.60    0.50
 -11   9   4   10.00    0.90
  11   9  -4    7.10    0.90
 -11  -9   4    6.30    0.90
 -11  -9   4    6.40    0.90
 -11   9  -4    6.50    0.90
 -11   9  -4    5.50    0.80
 -11  -9   4    6.80    1.00
 -11   9   5    1.50    0.40
  11   9  -5    1.80    0.50
 -11  -9  -5    2.30    0.50
  11   9  -5    1.60    0.60
 -11   9  -5    1.50    0.50
  11  -9  -5    1.00    0.40
 -11  -9   5    1.10    0.50
  11   9  -6   -0.10    0.40
 -11   9   6   -0.30    0.30
 -11  -9  -6    0.40    0.30
  11   9  -6    0.50    0.40
 -11  -9   6    0.50    0.40
 -11   9  -6    0.40    0.40
  11  -9  -6   -0.10    0.40
 -12  -9   0    0.80    0.50
 -12   9   0    0.00    0.40
 -12   9   0    0.30    0.30
 -12   9   1    5.50    0.80
 -12   9   1    8.00    0.90
 -12  -9  -1    7.80    1.00
 -12   9  -1    8.20    0.80
 -12  -9   1    6.80    1.00
 -12  -9  -2    5.90    0.80
  12  -9   2    4.40    0.70
 -12   9   2    4.80    0.70
 -12   9  -2    4.20    0.70
 -12  -9   2    4.10    0.80
 -12   9  -2    4.60    0.70
 -12  -9   2    4.50    0.70
 -12   9  -2    3.90    1.10
 -12   9   3    1.40    0.50
  12   9  -3    0.10    0.50
 -12   9  -3    0.50    0.50
 -12  -9   3    1.00    0.50
 -12  -9   3    1.20    0.60
 -12   9  -3    1.40    0.50
 -12   9   4    2.20    0.50
  12   9  -4    2.30    0.60
  12   9  -4    1.80    0.60
 -12   9  -4    1.40    0.60
 -12   9  -4    1.90    0.50
 -12  -9   4    2.80    0.50
 -12  -9   4    2.10    0.70
  12   9  -5    1.00    0.50
  12   9  -5    1.10    0.50
 -12   9   5    0.90    0.40
 -12   9  -5    1.10    0.50
 -12  -9   5    0.90    0.40
  12   9  -6    2.60    0.50
 -13  -9   0   44.60    3.00
 -13   9   0   39.20    2.80
 -13  -9  -1    0.70    0.50
 -13   9   1    0.50    0.30
 -13   9   1    0.40    0.40
 -13   9  -1    1.40    0.40
 -13  -9   1    0.30    0.50
 -13   9   2   10.00    1.00
 -13  -9  -2   10.80    1.20
 -13  -9   2   12.20    1.30
 -13   9  -2   12.10    1.10
 -13   9   3    2.70    0.60
 -13   9  -3    2.90    0.80
 -13   9  -3    3.00    0.60
 -13  -9   3    2.30    0.70
  13   9  -4   -0.10    0.50
 -13   9   4    0.40    0.40
  13   9  -4    0.60    0.50
 -13  -9   4    0.20    0.50
 -13   9  -4    1.50    0.50
 -13  -9   4    1.00    0.40
 -13   9  -4    0.90    0.40
  13   9  -5    1.40    0.50
 -13   9   5    1.10    0.40
 -13  -9   5    1.20    0.40
 -13   9  -5    0.50    0.50
 -14   9   0    0.10    0.30
 -14  -9   0    0.40    0.50
 -14  -9  -1    0.00    0.40
 -14   9   1    0.40    0.30
 -14   9  -1    0.70    0.40
 -14  -9   1    1.00    0.50
 -14   9   2   21.40    1.70
 -14  -9  -2   21.70    1.80
 -14  -9   2   24.10    2.00
 -14   9  -2   21.80    1.70
 -14   9   3   -0.20    0.30
 -14  -9   3   -0.10    0.50
 -14   9  -3    0.40    0.40
 -14   9   4    6.80    0.80
  14   9  -4    6.50    0.90
 -14  -9   4    6.80    1.00
 -14   9  -4    7.00    0.80
 -14   9   5    1.00    0.30
  14   9  -5    0.20    0.40
 -15  -9   0   39.10    2.80
 -15   9   0   37.80    2.60
 -15  -9  -1    0.50    0.50
 -15   9   1    0.40    0.40
 -15   9  -1   -0.10    0.40
 -15  -9   1    0.00    0.50
 -15   9   2    5.40    0.70
 -15  -9  -2    5.20    0.70
 -15   9  -2    4.50    0.70
 -15  -9   2    4.50    0.80
 -15   9   3   13.20    1.10
  15   9  -3   11.50    1.30
 -15   9  -3   12.40    1.10
 -15  -9   3   12.70    1.30
  15   9  -4    0.80    0.40
 -15   9   4    1.40    0.40
 -16   9   0    0.30    0.40
 -16  -9   0   -0.20    0.40
 -16   9   1   31.40    2.10
 -16  -9  -1   28.30    2.20
 -16   9  -1   28.70    2.10
 -16  -9   1   30.80    2.30
 -16   9   2    7.70    0.80
 -16  -9  -2    5.50    1.10
 -16   9  -2    7.50    0.80
 -16  -9   2    8.80    1.00
  16   9  -3    8.80    1.00
 -16   9   3    8.90    0.80
 -16   9  -3    6.50    0.80
  17  -9   0   40.30    3.20
 -17  -9   0   57.49    3.80
 -17   9   0   55.09    3.30
 -17   9   1    0.50    0.30
 -17   9  -1   -0.10    0.40
 -17   9   2   14.90    1.20
   0  10   0 1777.82   99.09
   0 -10   0 1521.55   99.19
   0  10  -1    0.40    0.50
   0 -10   1   -0.10    0.50
   0  10  -2  120.29    7.70
   0  10   2  123.99    7.70
   0 -10   2  120.29    9.00
   0  10  -2  136.99    8.80
   0  10  -3   -0.30    0.30
   0  10  -3   -0.10    0.70
   0  10   3   -0.60    0.90
   0  10   3    0.30    0.20
   0 -10  -3    0.70    0.30
   0 -10   3    0.20    0.20
   0 -10   3    0.60    1.20
   0  10  -3    0.60    0.30
   0 -10  -3    0.10    0.20
   0  10  -4  244.58   15.50
   0 -10   4  242.78   15.50
   0 -10  -4  269.57   15.50
   0  10   4  274.57   15.50
   0  10  -4  242.68   15.50
   0  10  -4  244.88   17.20
   0 -10  -4  266.77   15.60
   0  10  -5   -0.20    0.60
   0  10  -5    0.40    0.40
   0 -10   5    0.20    0.40
   0  10   5    0.00    0.30
   0 -10  -5    0.10    0.30
   0 -10  -5    0.10    0.30
   0 -10  -6   31.70    2.10
   0  10   6   31.20    2.20
   0 -10  -6   29.00    2.30
   0  10   6   29.20    2.10
   0 -10   7    0.30    0.40
   0 -10  -7    0.40    0.40
   0  10   7    0.20    0.40
   0  10   7    0.10    0.40
   0 -10  -8    0.80    0.40
  -1 -10   0    0.00    0.40
   1  10   0    0.00    0.30
  -1  10   0   -0.30    0.30
   1 -10   0   -0.10    0.40
  -1  10   1  148.09   10.30
   1  10  -1  176.28   10.70
   1 -10   1  167.88   11.10
  -1  10  -1  181.58   10.90
  -1 -10   1  153.28   10.90
   1  10  -2  229.78   13.40
   1  10  -2  200.38   12.40
   1 -10   2  194.88   13.70
  -1  10   2  200.28   12.30
  -1  10  -2  188.98   12.40
   1  10   2  196.48   12.30
  -1  10  -2  224.88   13.50
  -1 -10   2  193.18   13.70
  -1 -10  -3    3.00    0.50
  -1  10   3    2.80    0.40
   1  10  -3    3.00    0.50
  -1  10   3    2.70    0.40
   1 -10   3    2.00    0.40
  -1 -10  -3    2.70    0.40
   1 -10   3    2.70    1.50
  -1  10   3    2.10    1.10
   1  10  -3    3.80    1.20
  -1 -10   3    2.10    0.40
  -1 -10   3    2.90    1.50
   1 -10  -3    3.00    0.40
  -1  10  -3    2.60    0.40
  -1  10  -3    2.80    0.50
   1  10   3    3.50    0.40
   1 -10  -3    2.60    0.40
   1  10   3    2.60    1.30
  -1  10  -3    2.60    1.10
  -1  10   4    4.50    0.60
  -1 -10  -4    5.40    0.60
   1  10  -4    5.60    0.70
  -1  10   4    4.70    0.60
   1 -10   4    4.90    0.60
   1  10  -4    4.60    1.60
  -1 -10  -4    5.30    0.70
   1 -10  -4    6.00    0.60
  -1 -10   4    6.20    0.70
  -1  10  -4    4.70    0.60
  -1  10  -4    5.60    0.70
  -1  10  -4    5.50    0.70
   1  10   4    5.70    0.60
  -1  10  -4    4.60    1.70
   1 -10  -4    5.60    0.70
  -1 -10  -5    3.80    0.70
  -1 -10  -5    4.30    0.60
  -1  10   5    4.00    0.60
   1  10  -5    3.70    0.60
  -1  10   5    4.80    0.60
   1 -10  -5    4.50    0.70
  -1 -10   5    6.10    0.80
   1  10   5    5.90    0.70
   1 -10  -5    4.40    0.60
  -1  10  -5    4.70    0.70
  -1  10   6  137.99    8.00
  -1  10   6  146.69    8.10
  -1 -10  -6  118.79    8.20
  -1 -10  -6  136.79    8.00
   1  10  -6  122.99    8.10
   1 -10  -6  134.29    8.00
  -1  10  -6  123.79    8.00
   1  10   6  113.69    8.00
   1 -10  -6  126.89    8.20
  -1 -10  -7    4.50    0.80
  -1 -10  -7    3.30    0.50
  -1  10   7    3.50    0.60
   1  10   7    4.00    0.60
  -1 -10   7    4.70    0.70
   1 -10  -7    4.00    0.70
   1  10   7    4.30    0.70
  -1 -10  -8    3.10    0.60
   1 -10  -8    4.80    0.70
  -2  10   0  693.13   41.10
   2 -10   0  618.54   41.10
   2  10   0  710.83   40.70
   2  10  -1  121.19    7.50
   2 -10   1  111.79    8.00
  -2  10   1  107.39    7.40
  -2  10  -1  120.79    7.80
  -2 -10   1  101.79    7.70
   2 -10   2  256.47   17.20
  -2  10   2  254.97   15.70
  -2  10   2  250.77   16.80
   2  10  -2  281.97   16.70
   2  10  -2  265.77   15.80
  -2 -10   2  231.38   16.90
  -2  10  -2  283.37   17.10
   2  10   2  257.07   15.70
  -2 -10  -3   15.90    1.10
  -2  10   3   11.10    2.20
   2 -10   3   14.80    1.10
  -2 -10  -3   15.70    1.20
  -2  10   3   15.00    1.10
   2  10  -3   15.90    2.20
  -2  10   3   15.90    1.10
   2  10  -3   15.90    1.30
   2 -10   3   13.70    2.70
   2 -10  -3   15.00    1.20
  -2  10  -3   13.20    1.20
  -2 -10   3   14.80    1.20
   2  10   3   17.10    1.10
  -2  10  -3   15.80    2.40
  -2  10  -3   15.30    1.20
  -2  10  -3   14.00    1.10
  -2  10  -3   15.90    1.20
  -2 -10   3   13.10    2.60
   2  10   3   12.50    2.30
   2  10  -4   49.20    3.10
  -2  10   4   48.90    3.00
  -2 -10  -4   44.50    2.90
  -2 -10  -4   43.60    3.00
   2 -10   4   40.80    3.00
   2  10  -4   43.50    4.40
  -2  10   4   45.30    2.90
  -2  10  -4   41.50    4.70
   2 -10  -4   47.00    2.90
  -2 -10   4   44.20    3.00
  -2  10  -4   43.70    3.00
   2  10   4   47.20    3.00
   2 -10  -4   45.80    3.00
  -2  10  -4   45.50    3.00
   2  10  -5   14.80    1.30
  -2  10   5   15.00    1.20
  -2 -10  -5   14.60    1.40
  -2  10   5   15.90    1.30
  -2 -10  -5   15.90    1.20
   2 -10  -5   15.70    1.20
  -2  10  -5   15.30    1.30
  -2 -10   5   14.50    1.30
   2 -10  -5   15.90    1.30
   2  10   5   12.00    1.20
  -2 -10  -6   10.70    1.20
   2  10  -6   10.50    1.10
  -2  10   6   11.60    1.10
  -2 -10  -6   10.40    1.00
  -2  10  -6   11.20    1.10
   2 -10  -6   11.20    1.20
   2  10   6    9.50    1.00
  -2 -10  -7   10.10    0.90
  -2  10   7    9.40    1.00
  -2 -10  -7    9.60    1.10
   2 -10  -7    8.90    1.00
   2  10   7    9.50    1.00
  -2 -10   7    9.20    1.00
   2  10   7   11.00    1.00
   2 -10  -8    4.20    0.60
  -3  10   0    0.10    0.40
   3  10   0    0.60    0.30
   3 -10   0    0.20    0.50
   3 -10   1   20.00    2.40
   3  10  -1   18.50    1.50
   3  10  -1   22.80    2.00
  -3  10   1   20.30    2.00
  -3  10  -1   22.20    2.30
  -3 -10   1   18.70    2.10
   3  10  -2   88.89    6.10
   3 -10   2   81.49    6.60
  -3  10   2   77.09    6.20
  -3  10   2   80.79    5.10
   3  10  -2   87.59    5.20
  -3  10  -2   87.79    6.40
  -3 -10   2   77.39    6.30
  -3 -10   2   81.39    5.30
   3  10   2   82.19    5.10
  -3  10  -2   82.89    5.20
  -3  10   3  123.19    7.30
  -3  10   3   98.09    8.80
   3  10  -3  124.39    8.60
   3  10  -3  129.79    7.40
  -3  10   3  114.19    7.30
   3 -10   3  110.29    7.30
  -3 -10  -3  125.29    7.40
  -3 -10  -3  121.29    7.30
   3 -10   3  107.29    9.40
  -3  10  -3  123.89    7.40
   3 -10  -3  127.39    7.30
   3  10   3  109.89    8.70
  -3  10  -3  123.39    7.30
  -3  10  -3  116.99    7.30
  -3  10  -3  122.19    9.00
  -3 -10   3  124.19    7.40
   3 -10  -3  118.19    7.30
   3  10   3  123.29    7.30
  -3 -10   3   96.39    8.90
   3  10  -4  217.38   13.70
  -3 -10  -4  223.38   13.60
  -3  10   4  233.58   13.70
   3 -10   4  200.88   13.60
  -3  10   4  225.68   13.70
  -3 -10  -4  227.88   13.80
   3  10  -4  245.18   13.80
   3  10  -4  210.88   15.30
  -3 -10   4  231.48   13.70
   3  10   4  237.98   13.70
  -3  10  -4  232.68   13.70
  -3  10  -4  203.28   15.60
   3 -10  -4  223.68   13.60
  -3  10  -4  221.28   13.70
   3 -10  -4  231.88   13.70
   3  10  -5    0.10    0.40
  -3 -10  -5    0.20    0.40
  -3  10   5    0.00    0.30
  -3  10   5    0.80    0.40
  -3 -10  -5    0.70    0.30
  -3 -10   5    0.40    0.40
   3  10   5    0.20    0.30
   3 -10  -5    0.80    0.40
  -3  10  -5   -0.10    0.40
  -3 -10   5    0.20    0.40
  -3 -10  -6    2.90    0.70
  -3 -10  -6    1.00    0.40
  -3  10   6    1.90    0.50
   3  10  -6    2.00    0.50
  -3  10  -6    1.60    0.50
   3 -10  -6    1.60    0.50
   3  10   6    1.80    0.50
  -3 -10  -7    3.70    0.50
  -3  10   7    3.10    0.60
  -3 -10  -7    3.40    0.70
   3  10  -7    1.80    0.60
   3 -10  -7    3.10    0.60
   3  10   7    4.10    0.60
   3  10   7    3.50    0.60
  -3  10  -7    3.80    0.60
   3 -10  -8    5.20    0.70
  -4  10   0  186.98   11.80
   4 -10   0  172.38   11.70
   4  10   0  178.68   11.10
   4  10  -1   29.20    2.40
   4  10  -1   25.50    1.80
  -4  10   1   28.90    2.60
   4 -10   1   29.40    2.90
  -4  10   1   26.00    2.60
  -4 -10   1   25.20    1.80
  -4 -10   1   23.40    2.30
  -4  10  -1   28.00    2.70
   4  10   1   23.30    1.80
  -4  10   2   70.79    6.00
  -4  10   2   75.39    4.90
  -4 -10  -2   79.89    5.00
   4  10  -2   81.09    5.00
   4 -10   2   72.39    4.90
  -4 -10  -2   79.99    4.90
   4 -10   2   75.59    6.40
   4  10  -2   91.19    5.90
  -4 -10   2   80.49    5.00
  -4 -10   2   71.79    6.00
  -4  10  -2   80.09    4.90
   4  10   2   76.69    4.90
  -4  10  -2   86.79    6.40
  -4  10  -2   78.09    4.90
   4  10  -3  291.07   16.10
  -4  10   3  247.78   16.00
  -4 -10  -3  275.57   16.10
   4 -10   3  244.98   16.00
   4  10  -3  272.07   17.40
  -4  10   3  267.67   16.00
  -4 -10  -3  269.17   16.00
  -4  10  -3  269.37   16.10
   4 -10  -3  283.77   16.00
   4  10   3  227.38   17.40
   4  10   3  269.67   16.00
   4 -10  -3  258.57   16.00
  -4  10  -3  246.68   17.70
  -4  10  -3  263.67   16.00
  -4  10  -3  264.47   16.00
  -4 -10   3  280.07   16.10
  -4 -10  -4   57.29    3.60
  -4  10   4   59.19    3.70
  -4  10   4   52.99    3.70
  -4 -10  -4   59.19    3.80
   4  10  -4   55.69    3.80
  -4  10  -4   56.79    3.70
   4 -10  -4   56.49    3.70
   4 -10  -4   58.49    3.70
   4  10   4   56.69    3.60
  -4  10  -4   57.79    3.70
  -4 -10   4   56.19    3.70
  -4 -10   4   53.19    3.70
  -4  10  -4   56.39    3.70
   4  10  -5   51.59    3.60
  -4  10   5   54.29    3.50
  -4 -10  -5   54.69    3.60
   4  10  -5   51.59    3.60
  -4  10  -5   53.49    3.50
   4 -10  -5   52.29    3.50
   4 -10  -5   56.29    3.60
  -4 -10   5   49.20    3.60
  -4 -10   5   53.09    3.60
   4  10   5   52.29    3.50
   4  10  -6    2.90    0.60
  -4 -10  -6    2.70    0.60
  -4 -10  -6    2.50    0.50
  -4  10   6    2.20    0.60
   4 -10  -6    1.70    0.50
  -4  10  -6    1.90    0.50
   4  10   6    2.70    0.50
  -4 -10   6    1.60    0.50
  -4  10   7   56.49    4.10
  -4 -10  -7   64.49    4.00
   4  10  -7   60.09    4.10
  -4 -10  -7   66.79    4.20
   4 -10  -7   64.69    4.20
  -4  10  -7   62.79    4.10
   4  10   7   65.49    4.10
   4  10   7   62.89    4.10
  -5 -10   0    0.30    0.30
  -5  10   0    0.20    0.50
   5  10   0   -0.20    0.20
   5 -10   0   -0.20    0.50
   5  10  -1  417.26   23.60
   5 -10   1  387.96   24.10
  -5 -10  -1  350.06   22.90
   5  10  -1  362.26   22.90
  -5  10   1  424.36   24.10
  -5  10   1  369.86   23.80
  -5  10  -1  418.36   24.20
   5  10   1  334.17   22.80
  -5 -10   1  361.86   22.90
  -5 -10  -2  129.39    7.90
   5  10  -2  141.09    9.00
   5 -10   2  121.49    9.40
  -5  10   2  114.29    9.00
  -5  10   2  117.29    7.90
   5  10  -2  131.69    8.00
  -5 -10  -2  136.99    8.00
   5 -10   2  123.49    7.90
  -5 -10   2  138.59    8.00
  -5 -10   2  129.19    8.00
  -5  10  -2  130.49    9.50
  -5  10  -2  133.09    8.00
  -5  10  -2  125.89    7.90
  -5  10  -2  129.49    7.90
   5  10   2  127.89    7.90
   5  10  -3  253.77   14.40
   5 -10   3  216.78   14.30
  -5 -10  -3  239.98   14.30
   5  10  -3  237.78   15.70
  -5  10   3  220.88   14.30
  -5  10   3  205.98   14.30
  -5  10   3  238.48   14.30
  -5 -10  -3  244.38   14.40
   5 -10  -3  228.88   14.30
   5 -10  -3  252.27   14.30
  -5  10  -3  238.88   14.30
  -5  10  -3  252.47   14.40
  -5  10  -3  246.28   14.40
  -5 -10   3  259.47   14.40
  -5  10  -3  209.98   16.10
   5  10   3  238.38   14.30
  -5 -10   3  227.18   14.40
  -5  10   4   38.10    2.80
  -5 -10  -4   40.50    2.90
   5  10  -4   40.50    2.90
  -5 -10  -4   40.80    2.70
   5 -10  -4   41.00    2.80
  -5  10  -4   44.50    2.90
   5 -10  -4   40.60    2.70
  -5  10  -4   40.60    2.80
  -5 -10   4   39.80    2.90
  -5 -10   4   42.70    2.90
   5  10   4   41.20    2.70
  -5  10  -4   44.80    2.80
   5  10  -5   11.20    1.20
  -5 -10  -5   13.10    1.30
   5  10  -5   14.00    1.30
  -5  10   5   14.70    1.30
  -5 -10  -5   12.10    1.10
  -5  10  -5   14.80    1.30
   5  10   5   15.50    1.20
  -5 -10   5   12.10    1.30
   5 -10  -5   14.10    1.20
  -5 -10   5   13.20    1.30
   5 -10  -5   13.90    1.20
   5  10  -6    3.20    0.60
  -5 -10  -6    2.90    0.50
  -5  10   6    3.10    0.70
  -5 -10  -6    4.10    0.70
   5  10  -6    3.60    0.70
  -5  10  -6    3.60    0.60
   5 -10  -6    4.00    0.70
   5  10   6    3.60    0.60
  -5 -10   6    3.30    0.60
   5  10  -7    2.00    0.50
  -5 -10  -7    2.30    0.40
  -5 -10  -7    1.90    0.50
   5 -10  -7    1.40    0.50
   5  10   7    1.50    0.50
  -5  10  -7    1.10    0.40
   5  10   7    1.70    0.40
  -6 -10   0   23.00    1.70
   6  10   0   22.60    1.60
   6 -10   0   26.70    2.60
  -6  10   0   23.70    2.60
  -6  10   1    0.90    0.80
   6 -10   1    0.60    0.90
   6  10  -1    1.20    0.70
  -6 -10  -1    1.70    0.40
  -6 -10  -1    0.90    0.30
   6  10  -1    1.00    0.40
   6  10   1    0.90    0.30
  -6 -10   1    0.80    0.30
  -6  10  -1    1.00    0.30
  -6  10  -1    1.20    0.80
  -6 -10   1    1.30    0.30
  -6  10  -1    0.60    0.30
   6 -10   2   70.09    6.30
   6  10  -2   81.09    5.80
  -6  10   2   70.19    4.70
   6  10  -2   78.19    4.80
   6 -10   2   75.89    4.70
  -6  10   2   64.69    4.70
  -6  10   2   61.79    6.20
  -6 -10  -2   76.99    4.70
  -6 -10  -2   83.29    4.90
  -6  10  -2   80.19    4.80
  -6  10  -2   74.69    4.70
  -6  10  -2   81.49    4.80
  -6 -10   2   81.19    4.90
  -6  10  -2   68.79    6.20
   6  10   2   70.09    4.70
  -6 -10   2   82.49    4.80
  -6 -10  -3  362.36   21.30
   6 -10   3  335.47   21.20
   6  10  -3  332.07   22.60
  -6 -10  -3  353.96   21.20
   6  10  -3  382.36   21.30
  -6  10   3  318.57   21.10
  -6  10  -3  295.27   23.00
  -6  10  -3  384.16   21.30
   6  10   3  341.47   21.10
   6 -10  -3  329.47   21.20
   6 -10  -3  363.96   21.20
  -6  10  -3  370.86   21.30
  -6 -10   3  375.96   21.30
  -6 -10   3  354.36   21.30
  -6  10  -3  365.86   21.20
  -6  10   4   53.89    3.70
   6  10  -4   48.50    3.80
  -6 -10  -4   58.89    3.90
  -6 -10  -4   58.29    3.70
  -6 -10   4   54.89    3.90
  -6  10  -4   59.89    3.80
   6 -10  -4   52.89    3.70
  -6 -10   4   61.49    3.90
  -6  10  -4   62.29    3.90
   6  10   4   59.29    3.70
   6 -10  -4   56.69    3.70
  -6  10  -4   61.49    3.80
   6  10  -5  352.36   23.40
   6  10  -5  399.76   23.40
  -6 -10  -5  395.36   23.30
  -6 -10  -5  389.96   23.40
   6 -10  -5  401.16   23.30
  -6 -10   5  403.16   23.40
   6  10   5  396.46   23.30
  -6  10  -5  365.56   23.30
  -6 -10   5  358.16   23.40
   6 -10  -5  388.06   23.30
   6  10  -6    1.70    0.50
  -6 -10  -6    1.50    0.40
   6  10  -6    1.80    0.50
  -6 -10  -6    2.20    0.60
   6 -10  -6    2.00    0.50
   6  10   6    1.80    0.50
  -6  10  -6    1.80    0.50
  -6 -10   6    1.70    0.50
   6  10  -7   41.60    3.00
  -6 -10  -7   41.40    3.10
  -6 -10  -7   44.60    2.90
   6 -10  -7   44.60    3.00
  -6 -10   7   51.99    3.10
  -6  10  -7   46.10    3.00
   6  10   7   45.50    3.00
  -7 -10   0   -0.10    0.30
   7  10   0    0.00    0.30
  -7  10   0    1.30    0.40
  -7  10   0    0.10    0.20
  -7 -10   0   -0.20    0.30
  -7  10   0    1.40    0.80
  -7 -10  -1  296.77   17.60
  -7  10   1  285.87   17.50
  -7 -10  -1  329.27   17.70
   7 -10   1  261.37   18.70
  -7  10   1  250.97   17.50
   7  10  -1  284.87   17.60
  -7 -10   1  294.47   17.60
  -7  10  -1  282.67   19.00
  -7  10  -1  300.97   17.60
  -7  10  -1  293.17   17.50
  -7  10  -1  296.67   17.60
  -7 -10   1  310.37   17.70
   7  10  -2    1.60    0.40
   7 -10   2    2.10    0.40
   7 -10   2    1.10    1.50
   7  10  -2    1.40    1.00
  -7 -10  -2    1.40    0.50
  -7 -10  -2    1.50    0.30
  -7  10   2    0.70    0.30
  -7  10  -2    1.20    0.40
  -7 -10   2    1.30    0.40
  -7  10  -2    1.40    0.40
  -7  10  -2    1.80    1.20
  -7  10  -2    0.90    0.30
  -7 -10   2    1.60    0.40
   7  10  -3  125.89   10.10
   7  10  -3  147.99    8.90
  -7  10   3  135.29    8.70
  -7 -10  -3  149.99    8.70
  -7 -10  -3  148.19    8.90
   7 -10   3  131.59    8.70
  -7 -10   3  146.69    8.90
  -7  10  -3  147.39    8.90
  -7 -10   3  156.68    8.90
  -7  10  -3  157.48    8.90
   7  10   3  132.69    8.70
   7 -10  -3  126.19    8.70
   7 -10  -3  140.49    8.70
  -7  10  -3  147.79    8.80
  -7  10   4    0.80    0.40
  -7 -10  -4    1.30    0.50
  -7 -10  -4    1.20    0.40
   7  10  -4    0.80    0.40
  -7  10  -4    0.80    0.40
   7 -10  -4    0.50    0.40
   7 -10  -4    0.30    0.30
   7  10   4    0.70    0.30
  -7  10  -4    1.10    0.50
  -7  10  -4    1.90    0.50
  -7 -10   4    1.20    0.50
  -7 -10   4    1.30    0.50
   7  10  -5    0.80    0.50
  -7  10   5    1.10    0.40
  -7 -10  -5    1.20    0.50
  -7 -10  -5    1.00    0.40
   7  10  -5    2.10    0.60
   7 -10  -5    0.80    0.40
   7 -10  -5    0.60    0.30
  -7 -10   5    1.30    0.60
  -7 -10   5    1.00    0.40
  -7  10  -5    1.10    0.50
   7  10   5    1.70    0.40
  -7 -10  -6   12.00    1.30
  -7 -10  -6   11.60    1.00
   7  10  -6   12.40    1.20
   7  10  -6   11.50    1.20
   7  10   6   11.30    1.10
  -7  10  -6   12.30    1.20
   7 -10  -6   11.60    1.10
  -7 -10   6   12.20    1.10
   7 -10   7   -0.20    0.30
   7  10  -7    0.10    0.40
  -7 -10  -7   -0.20    0.30
   7  10   7    0.10    0.30
   7 -10  -7   -0.20    0.30
  -7 -10   7   -0.10    0.30
  -7  10  -7    0.30    0.40
  -8  10   0  188.08   12.10
  -8 -10   0  167.98   12.10
  -8  10   0  199.08   13.70
  -8  10   0  207.38   12.10
  -8  10   0  213.18   12.10
  -8 -10   0  219.48   12.30
  -8 -10  -1   10.40    1.00
  -8  10   1    7.50    0.80
   8  10  -1    8.80    0.90
  -8  10   1   10.30    0.90
  -8 -10  -1   11.10    1.00
  -8  10  -1   10.00    0.80
  -8  10  -1    8.90    0.90
  -8  10  -1    9.50    0.90
  -8  10  -1    9.60    2.10
  -8 -10   1    9.20    0.90
  -8 -10   1   10.60    1.00
   8 -10   2    0.10    0.30
  -8 -10  -2   -0.40    0.30
   8  10  -2    0.80    0.40
  -8  10   2    0.50    0.30
  -8  10  -2    0.20    1.00
  -8 -10   2   -0.10    0.40
  -8  10  -2    0.20    0.40
  -8  10  -2    0.50    0.40
  -8  10  -2    0.10    0.30
  -8 -10   2   -0.30    0.30
  -8  10   3    0.30    0.30
  -8 -10  -3   -0.30    0.40
   8  10  -3    0.20    0.40
  -8 -10  -3    0.00    0.30
   8 -10   3    0.50    0.50
  -8 -10   3    0.40    0.40
  -8  10  -3    0.80    0.40
   8 -10  -3    0.60    0.30
  -8  10  -3    0.50    0.40
  -8 -10   3    0.80    0.50
  -8  10  -3    0.10    0.40
  -8 -10  -4   17.10    1.30
   8  10  -4   17.30    1.50
  -8  10   4   17.10    1.40
  -8 -10  -4   16.70    1.50
   8 -10  -4   16.30    1.30
  -8  10  -4   13.30    1.30
  -8 -10   4   16.00    1.60
  -8  10  -4   14.20    1.40
   8 -10  -4   15.60    1.30
  -8 -10   4   15.70    1.40
  -8  10  -4   18.00    1.40
   8  10  -5    3.60    0.70
  -8 -10  -5    2.70    0.70
  -8  10   5    3.80    0.60
   8  10  -5    3.30    0.70
  -8 -10  -5    4.10    0.60
  -8  10  -5    2.60    0.60
  -8 -10   5    3.40    0.70
  -8 -10   5    3.00    0.60
   8 -10  -5    3.10    0.60
   8  10  -6    2.80    0.60
  -8 -10  -6    2.00    0.50
  -8 -10  -6    2.80    0.70
   8  10  -6    2.90    0.60
  -8  10  -6    1.80    0.50
   8 -10  -6    1.70    0.50
  -8 -10   6    2.60    0.50
  -8 -10   6    1.90    0.50
  -8 -10  -7    1.30    0.30
  -8  10  -7    1.10    0.40
  -8 -10   7    1.70    0.40
   8  10   7    1.30    0.40
   8 -10  -7    0.70    0.40
  -9 -10   0   -0.10    0.30
  -9  10   0    0.10    0.30
  -9  10   0    2.10    0.50
  -9  10   0   -0.30    0.30
  -9  10   0    0.50    1.00
  -9 -10  -1  132.89    8.20
  -9  10   1  135.19    8.10
  -9  10   1  124.69    8.10
   9  10  -1  131.09    8.20
  -9  10  -1  125.39    8.20
  -9  10  -1  127.89    8.20
  -9  10  -1  137.79    8.10
  -9 -10   1  132.29    8.20
  -9 -10   1  142.19    8.40
  -9 -10  -2   21.90    1.70
   9 -10   2   19.80    1.50
  -9 -10  -2   19.60    1.60
  -9  10   2   22.10    1.60
   9  10  -2   21.10    1.60
  -9  10  -2   20.00    1.60
  -9 -10   2   18.30    1.70
  -9  10  -2   21.60    1.60
  -9  10  -2   20.50    1.60
  -9 -10   2   19.50    1.60
   9  10  -3    1.30    0.50
  -9 -10  -3    1.10    0.40
  -9 -10  -3    1.60    0.50
  -9  10   3    0.70    0.40
  -9 -10   3    0.30    0.40
  -9  10  -3    1.30    0.40
  -9  10  -3    1.00    0.40
  -9  10  -3    0.50    0.40
  -9 -10   3    0.50    0.40
  -9 -10   3    0.70    0.50
  -9 -10  -4    7.00    0.70
  -9  10   4    4.40    0.70
   9  10  -4    5.60    0.80
  -9 -10  -4    5.10    0.80
  -9  10  -4    3.10    0.70
  -9 -10   4    5.30    0.90
  -9  10  -4    4.70    0.80
   9 -10  -4    3.80    0.70
  -9  10  -4    5.40    0.80
  -9 -10   4    5.00    0.70
  -9 -10   4    4.20    0.80
  -9  10   5   34.00    2.50
   9  10  -5   37.30    2.60
  -9 -10  -5   34.70    2.60
  -9 -10  -5   34.80    2.40
   9  10  -5   36.80    2.60
  -9 -10   5   33.30    2.70
  -9 -10   5   36.30    2.60
   9 -10  -5   34.30    2.50
  -9 -10   5   40.40    2.60
  -9  10  -5   35.50    2.60
  -9 -10  -6    0.40    0.30
   9  10  -6    0.00    0.40
   9  10  -6    0.50    0.40
  -9 -10   6    0.10    0.40
  -9  10  -6    0.60    0.40
  -9 -10   6    1.00    0.40
   9 -10  -6    0.20    0.40
   9  10   7    0.50    0.40
  -9 -10   7    1.00    0.50
 -10 -10   0   71.49    4.70
 -10  10   0   70.89    4.50
 -10  10   0   69.89    4.50
 -10 -10  -1   17.90    1.50
 -10  10   1   18.60    1.40
 -10  10   1   16.70    1.30
 -10  10  -1   18.40    1.30
 -10  10  -1   16.60    1.40
 -10 -10   1   14.60    1.50
 -10 -10   1   17.30    1.40
 -10  10  -1   16.40    1.40
  10  10  -2   20.10    1.70
 -10  10   2   22.10    1.60
 -10 -10  -2   20.30    1.60
  10 -10   2   19.30    1.60
 -10 -10   2   21.40    1.70
 -10  10  -2   19.90    1.60
 -10  10  -2   21.80    1.60
 -10 -10   2   15.40    1.70
 -10  10  -2   21.90    1.70
 -10  10   3   35.80    2.40
 -10 -10  -3   34.00    2.50
  10  10  -3   33.10    2.50
 -10  10  -3   35.30    2.40
 -10 -10   3   39.00    2.70
 -10 -10   3   29.40    2.40
 -10  10  -3   36.50    2.50
 -10 -10   3   32.70    2.50
 -10  10  -3   36.10    2.50
 -10 -10  -4    5.90    0.90
  10  10  -4    6.00    0.90
 -10  10   4    6.00    0.80
 -10 -10  -4    4.30    0.60
 -10 -10   4    3.60    0.70
 -10  10  -4    4.50    0.70
 -10 -10   4    6.40    0.80
 -10 -10   4    5.30    0.90
 -10  10  -4    5.40    0.80
 -10  10   5   13.50    1.20
 -10 -10  -5   13.70    1.20
  10  10  -5   14.10    1.30
  10  10  -5   14.50    1.40
 -10 -10  -5   13.60    1.40
  10 -10  -5   13.90    1.20
 -10  10  -5   14.30    1.30
 -10 -10   5   13.80    1.30
 -10 -10   5   14.70    1.30
 -10 -10  -6    0.00    0.30
  10  10  -6    0.80    0.40
  10  10  -6    0.00    0.40
 -10  10  -6    0.30    0.40
 -10 -10   6    0.00    0.40
  10 -10  -6   -0.20    0.40
 -11  10   0    0.00    0.30
 -11 -10   0    0.40    0.40
 -11  10   1  164.68   10.40
 -11  10   1  175.48   10.40
 -11 -10  -1  180.48   10.60
 -11 -10   1  174.78   10.40
 -11  10  -1  166.38   10.40
 -11  10  -1  153.68   10.40
 -11  10   2   48.50    3.00
  11 -10   2   42.00    2.90
 -11 -10  -2   45.40    3.00
 -11 -10   2   47.00    3.00
 -11  10  -2   39.50    3.00
 -11  10  -2   40.10    2.90
 -11  10  -2   41.00    3.00
 -11 -10   2   39.50    3.10
  11  10  -3   97.09    6.40
 -11  10   3  106.89    6.40
 -11  10  -3   99.29    6.30
 -11 -10   3   91.49    6.40
 -11  10  -3   98.99    6.40
 -11 -10   3  106.59    6.60
 -11  10  -3  100.79    6.40
  11  10  -4    1.40    0.50
 -11  10   4    1.20    0.40
 -11  10  -4    0.80    0.50
 -11 -10   4    0.90    0.50
 -11 -10   4    1.00    0.50
 -11  10  -4    1.40    0.50
 -11 -10   4    0.80    0.60
 -11  10   5    3.10    0.60
  11  10  -5    2.20    0.60
  11  10  -5    2.80    0.60
 -11 -10  -5    2.30    0.50
 -11  10  -5    2.90    0.60
 -11 -10   5    3.40    0.60
  11  10  -6   13.60    1.20
 -11  10   6   14.30    1.20
 -11 -10   6   13.60    1.20
  11  10   6   14.90    1.20
 -11  10  -6   14.70    1.20
 -12  10   0  108.09    6.80
 -12  10   1   26.00    1.90
 -12 -10  -1   28.50    2.10
 -12 -10   1   27.20    1.90
 -12  10  -1   22.60    1.90
 -12 -10   1   24.60    2.10
 -12 -10  -2    0.30    0.40
  12 -10   2    0.60    0.40
 -12  10   2    0.80    0.40
 -12  10  -2    1.00    0.50
 -12  10  -2    1.10    0.40
 -12 -10   2    0.70    0.50
 -12 -10   2    0.90    0.40
 -12  10  -2    0.40    0.50
  12  10  -3   36.00    2.80
 -12  10   3   42.00    2.70
 -12  10  -3   40.00    2.70
 -12  10  -3   34.30    2.70
 -12 -10   3   39.90    2.80
 -12 -10   3   38.70    2.90
  12  10  -4    6.60    1.00
  12  10  -4    8.20    1.10
 -12  10   4    8.80    0.90
 -12  10  -4    7.40    1.00
 -12  10  -4    9.20    1.00
 -12 -10   4    8.20    1.10
 -12 -10   4    7.50    0.90
 -12 -10   4    9.10    1.00
  12  10  -5   33.70    2.50
 -12  10   5   35.00    2.40
  12  10  -5   36.20    2.50
 -12  10  -5   36.10    2.50
 -12 -10   5   33.90    2.40
 -13 -10   0   -0.10    0.40
 -13  10   0    0.00    0.30
 -13  10   1  153.98   10.60
 -13 -10  -1  185.88   10.70
 -13  10  -1  163.88   10.60
 -13 -10   1  186.88   10.90
 -13 -10  -2    7.10    0.90
 -13  10   2    6.10    0.80
 -13 -10   2    7.90    1.10
 -13  10  -2    6.80    0.80
 -13  10   3   21.50    1.60
 -13 -10   3   21.70    1.90
 -13  10  -3   22.40    1.70
 -13  10  -3   18.70    1.70
  13  10  -4    8.70    1.10
 -13  10   4   10.80    1.00
  13  10  -4    8.90    1.10
 -13  10  -4   11.20    1.10
 -13  10  -4    9.30    1.00
 -13 -10   4    9.10    1.10
 -13  10   5    6.20    0.70
  13  10  -5    7.40    0.80
 -13  10  -5    6.00    0.80
 -14  10   0    6.30    0.80
 -14 -10   0    6.00    0.90
 -14 -10  -1    3.90    0.70
 -14  10   1    3.30    0.60
 -14 -10   1    3.30    0.70
 -14  10  -1    3.20    0.60
 -14  10   2   44.90    3.10
 -14 -10  -2   44.50    3.10
 -14 -10   2   49.00    3.40
 -14  10  -2   46.70    3.10
 -14  10   3   50.99    3.20
 -14 -10   3   47.80    3.40
 -14  10  -3   46.40    3.20
 -14  10   4    0.40    0.30
  14  10  -4   -0.10    0.40
 -14  10  -4    0.80    0.40
 -14 -10   4   -0.30    0.80
 -15  10   0    0.20    0.40
 -15 -10   0    0.10    0.40
 -15 -10  -1    0.70    0.50
 -15  10   1    0.80    0.40
  15 -10   1    1.10    0.50
 -15 -10   1    1.00    0.60
 -15  10  -1    0.90    0.40
 -15 -10  -2    1.60    0.50
 -15  10   2    0.70    0.40
 -15 -10   2    0.90    0.50
 -15  10  -2    1.50    0.50
  15  10  -3    0.40    0.50
 -15  10   3    0.70    0.40
 -15 -10   3    0.50    0.50
 -15  10  -3    0.80    0.40
  15  10  -4   21.10    1.60
 -15  10   4   20.50    1.50
 -16 -10   0    4.20    0.70
 -16  10   0    4.00    0.60
 -16  10   1    0.00    0.30
 -16 -10  -1    0.00    0.40
 -16 -10   1    0.00    0.40
 -16  10  -1    0.40    0.40
 -16  10   2   16.20    1.30
 -16 -10   2   14.80    1.40
 -16  10  -2   15.60    1.30
 -16  10   3    0.20    0.30
  16  10  -3    1.10    0.50
 -17  10   0    0.00    0.30
 -17  10   1    0.20    0.30
 -17  10  -1    0.10    0.40
 -17  10   2    0.50    0.30
   0 -11   0   -0.20    0.40
   0  11   0    0.90    0.50
   0  11  -1    0.90    0.30
   0 -11   1    0.20    0.60
   0  11   1    0.10    0.20
   0  11  -1    0.80    0.60
   0  11  -2 1691.83   93.39
   0  11   2 1561.04   92.19
   0  11  -2 1483.35   92.29
   0 -11   2 1433.86   93.59
   0 -11  -3    0.50    0.30
   0 -11   3    0.30    0.30
   0  11   3    0.20    0.20
   0  11  -3    0.20    0.30
   0 -11  -3   -0.10    0.20
   0  11  -3    0.30    0.30
   0  11   3    0.60    0.30
   0  11  -3    0.00    0.80
   0 -11   4    0.90    0.40
   0  11   4    1.70    0.40
   0  11  -4    1.50    0.50
   0  11  -4    0.60    1.20
   0 -11  -4    0.90    0.40
   0  11   4    1.00    0.30
   0  11  -4    1.10    0.40
   0 -11  -4    1.30    0.30
   0 -11   5    0.90    0.50
   0  11  -5    0.90    0.50
   0 -11  -5    0.20    0.40
   0  11   5    0.00    0.30
   0  11   5    0.20    0.30
   0 -11  -5   -0.20    0.20
   0  11   6  325.07   18.80
   0 -11  -6  298.37   18.90
   0 -11  -6  301.07   18.70
   0  11   6  311.17   18.70
   0  11   7   -0.20    0.40
   0 -11  -7   -0.10    0.40
   0 -11   7    0.10    0.40
   0  11   7    0.40    0.40
   1  11   0 3901.71  220.28
   1 -11   0 3558.24  220.58
  -1 -11   0 3379.16  220.48
  -1  11   0 3894.51  220.48
   1  11  -1   44.10    3.10
   1 -11   1   37.70    3.40
  -1  11   1   33.90    2.40
  -1  11   1   33.10    2.70
   1  11  -1   37.20    2.50
  -1  11  -1   40.20    3.20
  -1 -11   1   35.40    3.30
   1  11   1   34.50    2.40
  -1  11   2   36.90    2.40
  -1 -11  -2   38.90    2.40
   1 -11   2   37.10    3.80
   1  11  -2   41.40    3.40
   1  11  -2   35.80    2.50
  -1  11  -2   41.90    3.60
  -1 -11   2   33.60    3.60
  -1  11  -2   36.40    2.50
   1  11   2   37.10    2.40
  -1 -11   2   35.70    2.50
  -1  11   3   30.40    2.00
   1  11  -3   25.20    2.00
   1  11  -3   35.00    3.30
  -1 -11  -3   31.00    2.00
   1  11  -3   32.40    2.10
  -1  11   3   28.90    2.00
   1 -11   3   28.60    2.00
  -1 -11  -3   29.20    2.10
  -1  11  -3   29.50    2.00
  -1  11  -3   28.00    2.00
   1 -11  -3   30.20    2.00
  -1 -11   3   27.50    2.00
   1  11   3   28.10    3.90
   1  11   3   31.10    2.00
  -1  11  -3   28.80    2.10
  -1 -11   3   27.80    5.10
  -1  11  -3   30.40    3.30
   1 -11  -3   30.70    2.10
  -1  11   4   61.19    3.80
  -1 -11  -4   59.29    3.80
  -1 -11  -4   61.89    3.90
  -1  11   4   58.59    3.80
   1  11  -4   56.59    5.40
   1 -11   4   55.69    3.80
   1  11  -4   62.29    3.90
  -1 -11   4   55.69    3.80
  -1  11  -4   57.79    5.60
  -1  11  -4   57.49    3.80
   1 -11  -4   59.19    3.90
  -1  11  -4   57.09    3.80
   1 -11  -4   58.39    3.80
  -1  11  -4   56.49    3.90
   1  11   4   63.49    3.80
  -1  11   5   11.10    1.00
  -1 -11  -5   12.00    1.20
  -1 -11  -5   12.70    1.00
   1  11  -5   12.50    1.20
  -1  11   5   11.50    1.10
   1 -11  -5   13.40    1.00
  -1 -11   5   10.70    1.10
   1 -11  -5   12.40    1.20
  -1  11  -5   11.40    1.10
   1  11   5    9.40    1.00
  -1  11   6   27.10    2.00
  -1 -11  -6   25.50    1.80
   1  11  -6   23.40    1.90
  -1  11   6   24.10    1.90
  -1 -11  -6   21.60    1.90
   1 -11  -6   24.30    2.00
   1  11   6   27.30    1.90
   1  11   6   26.10    1.90
  -1  11   7    7.70    0.90
  -1 -11  -7    6.00    0.90
   1  11   7    6.80    0.80
   1 -11  -7    6.70    0.90
  -1 -11   7    6.80    0.80
   1  11   7    6.70    0.90
   2  11   0    0.10    0.20
   2  11   0    0.00    0.30
   2 -11   0    0.40    0.50
  -2  11   0    0.10    0.50
   2 -11   1  124.69    8.50
   2  11  -1  110.89    7.30
  -2  11   1  111.09    7.30
  -2  11   1  114.39    7.80
   2  11  -1  133.39    8.00
  -2  11  -1  136.09    8.40
  -2 -11   1  110.59    8.20
   2  11   1  112.59    7.30
   2 -11   2  224.28   14.50
   2 -11   2  235.48   16.00
  -2 -11  -2  243.28   14.50
  -2  11   2  228.28   15.70
   2  11  -2  243.78   14.60
   2  11  -2  263.77   15.50
  -2  11   2  239.08   14.50
  -2  11  -2  258.57   15.90
  -2 -11   2  215.58   15.80
  -2 -11   2  236.08   14.50
   2  11   2  245.88   14.50
  -2  11  -2  235.18   14.50
  -2 -11  -3    0.80    0.30
   2  11  -3    0.20    0.80
  -2  11   3    0.40    0.30
   2  11  -3    0.50    0.30
  -2 -11  -3    0.40    0.20
  -2  11   3    0.30    0.20
   2  11   3    0.80    0.20
  -2  11  -3    1.60    0.40
  -2  11  -3    1.10    0.30
  -2 -11   3    0.70    0.30
  -2  11  -3    2.10    0.40
  -2  11  -3    0.50    0.90
  -2 -11   3    0.90    1.50
  -2  11  -3    0.40    0.40
   2 -11  -3    0.90    0.30
   2  11   3    1.10    1.20
  -2  11   4    2.00    0.40
  -2 -11  -4    1.40    0.30
  -2 -11  -4    1.80    0.50
   2  11  -4    1.60    1.30
   2 -11   4    1.90    0.40
   2  11  -4    1.90    0.50
  -2  11   4    2.30    0.50
  -2  11  -4    1.90    0.40
   2  11   4    4.60    0.60
  -2  11  -4    2.10    0.50
   2 -11  -4    1.80    0.40
  -2 -11   4    1.80    0.50
  -2 -11  -5   20.80    1.70
   2  11  -5   21.70    1.80
  -2  11   5   22.30    1.70
  -2  11   5   23.50    1.70
  -2 -11  -5   20.20    1.60
  -2  11  -5   22.20    1.70
  -2 -11   5   21.90    1.70
   2 -11  -5   22.10    1.70
  -2 -11  -6   67.19    4.60
  -2  11   6   67.89    4.50
  -2  11   6   74.99    4.60
   2  11  -6   67.69    4.50
  -2 -11  -6   72.49    4.40
   2  11   6   72.19    4.50
   2  11   6   70.99    4.50
   2 -11  -6   59.89    4.50
  -2  11  -6   67.39    4.50
  -2  11   7    3.70    0.70
  -2 -11  -7    5.50    0.80
   2  11   7    3.60    0.60
   2 -11  -7    4.90    0.70
  -2 -11   7    4.40    0.70
   2  11   7    4.80    0.60
   3  11   0 1503.05   83.79
   3 -11   0 1340.17   84.29
   3  11   0 1285.07   83.39
  -3  11   0 1450.55   84.29
   3 -11   1   18.40    2.30
  -3  11   1   18.50    1.90
   3  11  -1   19.30    1.40
  -3  11   1   16.20    1.30
   3  11  -1   21.80    1.90
   3  11   1   18.60    1.30
  -3 -11   1   17.70    2.00
  -3  11  -1   21.30    2.20
   3  11  -2   40.10    3.30
  -3  11   2   34.00    2.30
   3  11  -2   36.60    2.40
  -3 -11  -2   35.90    2.40
  -3 -11  -2   35.10    2.30
   3 -11   2   34.70    3.70
   3 -11   2   33.20    2.30
  -3  11   2   33.20    3.50
   3  11   2   39.20    2.30
  -3 -11   2   31.10    3.40
  -3  11  -2   33.30    2.30
  -3 -11   2   36.10    2.40
  -3  11  -2   37.90    3.60
  -3  11  -2   34.30    2.30
  -3  11  -2   31.90    2.40
  -3  11   3  142.89    8.90
  -3 -11  -3  153.58    9.00
   3 -11   3  134.89    8.80
   3  11  -3  154.58    9.00
  -3  11   3  138.49    8.80
   3  11  -3  146.69   10.20
  -3 -11  -3  142.79    8.80
  -3  11  -3  146.59    8.90
  -3  11  -3  144.79    8.90
   3  11   3  146.39    8.80
  -3  11  -3  138.99   10.50
  -3  11  -3  143.29    8.90
   3 -11  -3  140.89    8.90
  -3 -11   3  149.29    8.90
   3  11  -4   49.99    3.30
   3 -11   4   45.40    3.20
  -3 -11  -4   50.29    3.30
  -3 -11  -4   47.20    3.10
  -3  11   4   49.30    3.20
   3  11  -4   45.60    3.30
  -3  11   4   46.40    3.20
  -3  11  -4   49.90    3.20
   3 -11  -4   48.30    3.20
   3  11   4   48.60    3.10
  -3 -11   4   48.30    3.20
  -3  11  -4   47.00    3.20
  -3 -11  -5  168.18   11.30
  -3  11   5  191.28   11.30
   3  11  -5  185.38   11.30
  -3  11   5  181.08   11.20
   3  11   5  182.48   11.20
  -3 -11   5  172.48   11.20
  -3  11  -5  189.68   11.30
  -3 -11   5  181.68   11.30
   3 -11  -5  188.38   11.30
  -3 -11  -6    3.80    0.60
  -3 -11  -6    4.60    0.80
   3  11  -6    4.90    0.70
  -3  11   6    5.70    0.80
   3  11   6    5.00    0.70
   3 -11  -6    4.90    0.80
  -3  11  -6    6.30    0.80
  -3 -11  -7   17.90    1.50
  -3 -11  -7   17.80    1.30
  -3  11   7   15.00    1.50
   3 -11  -7   17.20    1.50
  -3  11  -7   16.10    1.30
   3  11   7   16.20    1.40
   3  11   7   18.90    1.40
  -4 -11   0    0.00    0.20
   4 -11   0    0.00    0.50
  -4  11   0    0.90    0.60
   4  11   0   -0.40    0.20
  -4  11   1  732.73   44.30
  -4  11   1  643.54   43.30
   4  11  -1  740.93   43.30
  -4  11   1  748.93   44.30
   4  11  -1  749.62   43.90
   4 -11   1  709.13   43.30
   4 -11   1  779.72   44.70
  -4 -11   1  651.53   43.80
   4  11   1  710.23   43.20
  -4  11  -1  786.82   44.60
  -4 -11   1  693.73   43.30
  -4  11   2   18.30    2.60
  -4  11   2   19.00    1.50
  -4 -11  -2   20.60    1.40
   4  11  -2   21.80    2.30
   4 -11   2   20.10    2.90
  -4  11   2   19.80    1.50
   4  11  -2   22.40    1.60
   4 -11   2   19.90    1.50
  -4 -11  -2   21.70    1.60
  -4  11  -2   25.20    1.50
  -4 -11   2   22.10    1.50
  -4 -11   2   17.00    2.50
   4  11   2   20.70    1.50
  -4  11  -2   20.80    1.50
  -4  11  -2   20.30    1.50
  -4  11  -2   21.40    2.70
   4  11  -3   49.90    3.00
  -4  11   3   42.60    2.80
  -4 -11  -3   42.70    2.80
  -4  11   3   42.10    2.80
  -4 -11  -3   42.60    2.90
   4  11  -3   42.30    4.00
   4 -11   3   41.90    2.80
   4 -11  -3   40.60    2.80
  -4  11  -3   42.10    2.80
   4  11   3   43.70    2.80
  -4 -11   3   33.80    4.50
  -4  11  -3   41.00    2.80
  -4 -11   3   46.30    2.90
  -4  11  -3   43.50    2.90
  -4  11  -3   40.10    4.30
   4 -11   4  141.99    9.70
  -4 -11  -4  161.38    9.70
  -4 -11  -4  160.78    9.80
   4  11  -4  147.09    9.80
  -4  11   4  161.88    9.70
  -4  11   4  161.88    9.70
   4  11   4  156.58    9.70
  -4 -11   4  165.68    9.80
  -4  11  -4  158.78    9.80
   4 -11  -4  159.68    9.70
  -4  11  -4  162.68    9.70
  -4  11  -4  158.18    9.70
  -4 -11   4  153.48    9.80
  -4  11   5    0.40    0.40
   4  11  -5    0.30    0.50
  -4 -11  -5    0.30    0.30
   4  11  -5    0.20    0.40
  -4 -11  -5    0.10    0.40
  -4  11  -5    0.20    0.40
   4 -11  -5   -0.10    0.40
  -4 -11   5    0.00    0.40
  -4 -11   5    0.60    0.40
   4  11   5   -0.10    0.30
  -4 -11  -6    1.20    0.50
   4  11  -6    1.00    0.50
  -4 -11  -6    0.70    0.30
  -4  11   6    2.00    0.60
  -4  11  -6    0.80    0.50
  -4 -11   6    0.50    0.40
   4  11   6    1.00    0.40
   4 -11  -6    1.20    0.50
  -4 -11  -7    0.30    0.30
  -4  11   7    0.40    0.60
   4  11  -7    0.40    0.40
  -4 -11  -7   -0.50    0.40
   4 -11  -7    0.00    0.40
  -4  11  -7    0.20    0.40
   4  11   7   -0.10    0.40
   4  11   7    0.20    0.30
  -5 -11   0  200.18   11.80
   5 -11   0  194.88   12.70
  -5 -11   0  180.48   11.70
   5  11   0  187.78   11.70
  -5  11   0  202.48   12.80
  -5 -11  -1   45.30    3.30
   5  11  -1   54.69    3.90
   5  11  -1   51.19    3.30
  -5  11   1   45.50    4.20
  -5  11   1   52.89    4.30
  -5 -11  -1   55.39    3.40
   5 -11   1   49.99    4.50
  -5  11  -1   52.69    3.30
   5  11   1   44.00    3.20
  -5 -11   1   51.79    3.30
  -5 -11   1   54.79    3.30
  -5  11  -1   53.09    4.40
  -5  11   2   89.39    5.80
  -5 -11  -2   92.19    5.80
   5  11  -2  100.29    6.90
  -5 -11  -2   94.89    5.90
   5  11  -2   99.29    5.90
   5 -11   2   90.89    5.80
   5 -11   2   81.99    7.30
  -5  11   2   82.59    5.80
  -5 -11   2   99.39    5.90
  -5  11  -2   91.69    7.30
  -5  11  -2   99.49    5.90
   5  11   2   92.99    5.80
  -5 -11   2   93.19    5.90
  -5  11  -2   91.69    5.80
  -5  11  -2   98.89    5.90
   5  11  -3  225.48   12.70
  -5 -11  -3  213.88   12.70
  -5  11   3  199.98   12.60
  -5  11   3  197.48   12.50
   5  11  -3  200.58   14.00
  -5 -11  -3  205.88   12.50
   5 -11   3  199.28   12.50
   5  11   3  211.18   12.50
  -5  11  -3  213.28   12.60
  -5  11  -3  210.78   12.60
   5 -11  -3  197.88   12.50
  -5  11  -3  212.98   12.60
  -5 -11   3  220.08   12.70
  -5 -11   3  208.18   12.70
  -5  11  -3  176.98   14.30
  -5 -11  -4    1.40    0.50
   5  11  -4    1.00    0.40
  -5  11   4    1.10    0.40
  -5 -11  -4    2.10    0.40
  -5  11  -4    0.80    0.40
  -5  11  -4    1.10    0.40
  -5 -11   4    1.40    0.50
  -5  11  -4    1.30    0.40
  -5 -11   4    1.30    0.50
   5 -11  -4    2.30    0.50
   5  11   4    1.30    0.40
  -5 -11  -5   20.60    1.70
   5  11  -5   22.40    1.90
  -5 -11  -5   23.20    1.90
   5  11  -5   23.90    1.90
  -5  11   5   23.30    1.80
   5 -11  -5   24.30    1.80
  -5 -11   5   23.20    1.90
   5  11   5   24.50    1.80
  -5 -11   5   26.80    1.90
  -5  11  -5   24.30    1.80
   5  11  -6    4.70    0.70
  -5 -11  -6    4.80    0.80
  -5 -11  -6    4.70    0.60
   5 -11  -6    4.60    0.70
  -5  11  -6    5.90    0.80
   5  11   6    4.10    0.60
  -5 -11   6    3.90    0.70
  -5 -11  -7   36.60    2.40
   5  11  -7   33.70    2.50
  -5 -11  -7   34.80    2.60
  -5  11  -7   35.70    2.50
   5  11   7   35.30    2.50
   5  11   7   37.80    2.50
   5 -11  -7   38.70    2.50
  -6  11   0    0.00    0.60
   6  11   0   -0.10    0.30
  -6  11   0   -0.10    0.20
  -6 -11   0    0.50    0.30
   6 -11   0    0.20    0.70
  -6  11   0   -0.10    0.30
  -6  11   1   15.20    1.20
  -6 -11  -1   16.20    1.30
   6  11  -1   16.60    1.30
  -6  11   1   13.80    1.20
   6 -11   1   17.40    2.50
  -6 -11  -1   18.80    1.30
  -6  11  -1   15.40    1.20
  -6  11  -1   17.30    1.30
  -6  11  -1   16.10    2.30
  -6 -11   1   17.30    1.30
   6  11   1   15.30    1.20
  -6 -11   1   15.90    1.30
  -6 -11  -2    8.90    0.90
   6 -11   2    8.00    0.80
   6  11  -2    8.30    1.70
   6  11  -2    8.90    0.90
  -6  11   2    7.60    0.70
  -6 -11  -2    7.90    0.70
  -6  11   2    7.70    0.80
  -6 -11   2    8.80    0.90
  -6  11  -2    9.20    0.90
   6  11   2    7.70    0.70
  -6  11  -2    9.20    0.80
  -6 -11   2    9.30    0.90
  -6  11  -2    6.60    1.80
  -6  11  -2    8.30    0.90
   6  11  -3  171.68   12.80
  -6  11   3  168.68   11.40
  -6 -11  -3  187.68   11.40
   6  11  -3  197.08   11.60
  -6 -11  -3  191.48   11.60
   6 -11   3  184.28   11.40
   6  11   3  189.18   11.40
  -6  11  -3  196.58   11.50
  -6  11  -3  204.28   11.60
  -6 -11   3  195.98   11.60
  -6 -11   3  189.08   11.60
   6 -11  -3  171.38   11.40
  -6  11  -3  195.58   11.50
  -6 -11  -4   47.40    3.30
   6  11  -4   44.20    3.20
  -6 -11  -4   46.50    3.10
  -6  11  -4   49.50    3.20
  -6 -11   4   46.80    3.30
  -6 -11   4   51.09    3.30
   6  11   4   46.30    3.10
  -6  11  -4   46.60    3.20
  -6  11  -4   50.39    3.20
   6 -11  -4   43.40    3.10
   6  11  -5    0.90    0.50
  -6 -11  -5    1.20    0.40
   6  11  -5    2.10    0.60
  -6 -11  -5    4.60    0.80
  -6 -11   5    1.80    0.60
   6  11   5    1.00    0.40
  -6 -11   5    1.50    0.50
   6 -11  -5    1.20    0.50
  -6  11  -5    0.80    0.50
  -6 -11  -6    0.40    0.30
   6  11  -6    0.10    0.40
   6  11  -6    1.00    0.50
  -6 -11  -6    0.60    0.50
   6 -11  -6    0.30    0.40
  -6 -11   6   -0.20    0.40
  -6  11  -6    0.10    0.40
   6  11   6   -0.10    0.30
  -6 -11  -7    2.30    0.40
  -6 -11  -7    2.30    0.60
   6  11  -7    2.70    0.50
  -6 -11   7    2.70    0.50
   6  11   7    2.50    0.50
   6 -11  -7    1.90    0.50
   6  11   7    1.90    0.40
  -6  11  -7    1.30    0.50
  -7 -11   0  102.59    6.10
   7  11   0   92.59    6.00
  -7  11   0   95.29    7.30
  -7 -11   0   88.49    5.90
  -7  11   0   96.09    6.00
  -7  11   0   99.49    5.90
   7  11  -1   31.10    2.10
  -7  11   1   28.90    2.00
  -7  11   1   28.20    2.10
  -7 -11  -1   29.90    2.10
  -7 -11  -1   36.20    2.20
   7 -11   1   26.60    3.30
  -7  11  -1   26.50    3.20
  -7 -11   1   30.60    2.20
  -7  11  -1   34.00    2.10
   7  11   1   27.70    2.00
  -7 -11   1   29.70    2.10
  -7  11  -1   30.50    2.00
  -7  11  -1   32.40    2.10
  -7 -11  -2  119.99    6.90
  -7  11   2  102.99    6.70
   7 -11   2  103.39    6.70
   7  11  -2  113.49    6.80
  -7 -11  -2  104.69    6.60
  -7  11  -2  108.49    6.80
   7  11   2   99.49    6.60
  -7 -11   2  115.39    6.80
  -7  11  -2   90.39    8.30
  -7  11  -2  110.09    6.70
  -7 -11   2  113.29    6.90
  -7  11  -2  113.89    6.80
  -7  11   3   32.20    2.40
  -7 -11  -3   34.50    2.40
   7  11  -3   32.30    4.80
   7  11  -3   36.30    2.50
  -7  11  -3   41.10    2.50
  -7 -11   3   37.00    2.50
  -7  11  -3   36.40    2.50
  -7 -11   3   36.00    2.60
  -7  11  -3   37.00    2.50
   7  11   3   32.50    2.40
  -7 -11  -4   56.49    3.80
   7  11  -4   54.19    3.80
  -7 -11  -4   60.19    3.70
  -7  11   4   54.69    3.60
  -7 -11   4   55.09    3.90
  -7  11  -4   59.09    3.70
  -7  11  -4   55.59    3.70
   7 -11  -4   55.39    3.70
   7  11   4   56.69    3.60
  -7 -11   4   64.29    3.90
  -7  11  -4   44.80    3.70
  -7 -11  -5   47.20    3.10
   7  11  -5   46.60    3.20
   7  11  -5   49.00    3.20
  -7 -11  -5   46.80    3.20
  -7  11  -5   41.10    3.10
  -7 -11   5   49.10    3.20
  -7 -11   5   43.00    3.30
   7 -11  -5   45.50    3.10
   7  11   5   43.50    3.10
   7  11  -6   14.80    1.30
   7  11  -6   14.60    1.30
  -7 -11  -6   13.40    1.20
  -7 -11  -6   14.50    1.40
  -7 -11   6   14.00    1.30
   7 -11  -6   13.40    1.20
  -7  11  -6   16.00    1.30
   7  11   6   13.30    1.30
  -7 -11  -7   13.90    1.50
  -7 -11  -7   18.30    1.30
   7 -11  -7   17.00    1.40
  -7  11  -7   18.90    1.40
   7  11   7   20.10    1.40
  -7 -11   7   20.90    1.50
  -8  11   0    0.10    0.40
  -8  11   0    0.30    0.20
  -8  11   0   -0.10    0.80
  -8 -11   0    0.30    0.30
  -8 -11  -1   92.29    5.70
   8  11  -1   89.19    5.60
  -8 -11  -1   95.99    5.70
  -8  11   1   79.49    5.60
  -8  11   1   90.19    5.60
  -8  11  -1   89.79    5.60
  -8  11  -1   88.89    5.60
  -8  11  -1   91.79    5.70
  -8  11  -1   73.99    6.90
  -8 -11   1   97.19    5.80
  -8 -11   1   92.19    5.60
   8 -11   2    3.40    0.50
  -8 -11  -2    3.70    0.70
   8  11  -2    3.30    0.60
  -8  11   2    3.10    0.50
  -8  11  -2    3.40    0.60
  -8  11  -2    3.50    0.50
  -8 -11   2    3.10    0.60
  -8  11  -2    3.80    0.60
  -8 -11   2    2.80    0.60
   8 -11   3   34.30    2.60
  -8 -11  -3   38.60    2.80
   8  11  -3   42.30    2.80
  -8 -11  -3   39.60    2.60
  -8  11   3   35.20    2.60
  -8 -11   3   40.90    2.90
  -8  11  -3   39.90    2.70
  -8  11  -3   38.80    2.70
  -8  11  -3   41.00    2.70
  -8 -11   3   38.90    2.80
  -8 -11  -4   18.20    1.60
  -8 -11  -4   19.00    1.40
  -8  11   4   17.40    1.40
   8  11  -4   17.30    1.50
   8 -11  -4   15.10    1.40
  -8  11  -4   15.70    1.40
  -8 -11   4   18.40    1.70
  -8  11  -4   15.30    1.50
  -8 -11   4   19.30    1.50
  -8  11  -4   15.00    1.40
  -8 -11  -5    0.60    0.30
  -8  11   5    0.00    0.40
  -8 -11  -5   -0.10    0.50
   8  11  -5    1.00    0.50
   8  11  -5    1.00    0.50
  -8 -11   5    1.40    0.50
   8 -11  -5    0.00    0.40
  -8  11  -5    0.50    0.40
  -8 -11   5    1.30    0.60
   8  11  -6   44.90    3.10
   8  11  -6   47.60    3.10
  -8 -11  -6   45.40    3.00
  -8 -11  -6   40.80    3.10
   8 -11  -6   41.90    3.00
  -8 -11   6   42.80    3.00
  -8 -11   6   47.90    3.10
  -8  11  -6   47.70    3.10
  -8  11  -7    1.70    0.40
   8 -11  -7    1.20    0.60
  -8 -11   7    1.20    0.40
   8  11   7    1.30    0.40
  -9  11   0  326.97   20.90
  -9  11   0  318.97   20.80
  -9 -11   0  369.66   21.00
  -9  11   0  363.06   20.80
  -9 -11  -1   14.70    1.20
  -9  11   1   13.20    1.10
   9  11  -1   13.90    1.30
  -9  11  -1   13.90    1.20
  -9  11  -1   14.70    1.20
  -9 -11   1   14.40    1.20
  -9 -11   1   13.80    1.30
  -9  11  -1   14.20    1.10
   9 -11   2   35.80    2.50
  -9  11   2   37.90    2.50
   9  11  -2   35.50    2.60
  -9 -11  -2   39.50    2.70
  -9 -11  -2   35.50    2.60
  -9 -11   2   37.00    2.60
  -9 -11   2   32.80    2.70
  -9  11  -2   41.90    2.70
  -9  11  -2   36.90    2.50
  -9  11  -2   38.30    2.60
  -9 -11  -3   28.40    2.10
   9  11  -3   26.60    2.00
  -9  11   3   26.30    1.90
  -9 -11  -3   25.70    2.00
  -9  11  -3   25.20    1.90
  -9 -11   3   27.00    2.20
  -9 -11   3   22.60    1.90
  -9 -11   3   19.60    1.90
  -9  11  -3   34.10    2.10
  -9  11  -3   24.60    2.00
   9  11  -4  129.59    7.80
  -9 -11  -4  122.39    7.80
  -9 -11  -4  123.69    7.60
  -9  11   4  125.89    7.70
  -9  11  -4  112.19    7.70
  -9 -11   4  130.69    7.80
  -9 -11   4  123.89    7.90
  -9  11  -4  114.89    7.70
  -9 -11   4  119.49    7.70
   9  11  -5   30.90    2.20
   9  11  -5   28.40    2.20
  -9 -11  -5   29.10    2.20
  -9  11   5   27.60    2.00
  -9 -11  -5   27.60    2.00
   9 -11  -5   26.40    2.10
  -9 -11   5   28.30    2.10
  -9  11  -5   28.10    2.10
  -9 -11   5   30.50    2.20
  -9 -11   5   27.00    2.30
   9  11  -6    4.10    0.60
  -9 -11  -6    3.60    0.70
  -9 -11  -6    4.20    0.60
   9  11  -6    5.50    0.70
  -9  11  -6    4.90    0.70
   9 -11  -6    3.60    0.60
  -9 -11   6    4.40    0.70
  -9 -11   6    4.30    0.60
 -10 -11   0    3.00    0.60
 -10  11   0    0.80    0.30
 -10  11   0    0.50    0.40
 -10 -11  -1    9.30    1.00
 -10  11   1    6.20    0.70
 -10 -11   1    8.50    0.90
 -10 -11   1    5.50    0.90
 -10  11  -1    7.20    0.90
 -10  11  -1    6.50    0.90
 -10  11  -1    8.40    0.80
 -10  11   2   42.00    2.80
 -10 -11  -2   41.60    2.80
  10 -11   2   39.50    2.80
  10  11  -2   41.50    2.90
 -10 -11   2   43.60    2.90
 -10 -11   2   42.00    3.10
 -10  11  -2   40.30    2.90
 -10  11  -2   41.00    2.90
 -10  11  -2   40.40    2.80
 -10  11   3    0.10    0.40
  10  11  -3    1.00    0.50
 -10 -11  -3    0.50    0.40
 -10  11  -3    0.50    0.50
 -10  11  -3    0.80    0.50
 -10 -11   3    0.20    0.50
 -10 -11   3    0.00    0.40
 -10  11  -3    0.30    0.40
 -10 -11  -4   19.70    1.70
  10  11  -4   17.10    1.60
 -10  11   4   19.80    1.50
 -10 -11  -4   17.70    1.40
 -10  11  -4   18.60    1.60
 -10 -11   4   18.60    1.80
 -10  11  -4   18.30    1.50
 -10 -11   4   18.50    1.60
 -10 -11   4   18.60    1.50
 -10 -11  -5    0.00    0.30
  10  11  -5    0.80    0.40
 -10  11   5    0.20    0.40
 -10 -11  -5    1.10    0.50
  10  11  -5    0.90    0.50
  10 -11  -5    0.50    0.60
 -10 -11   5    0.40    0.40
 -10 -11   5    0.20    0.40
 -10 -11   5   -0.10    0.60
 -10  11  -5    0.60    0.50
  10  11  -6   97.19    6.40
 -10 -11  -6  100.99    6.30
  10  11  -6  103.39    6.40
  10 -11  -6   89.89    6.30
  10  11   6  106.79    6.30
 -10  11  -6  105.69    6.40
 -10 -11   6  109.49    6.40
 -11  11   0  114.39    7.50
 -11 -11   0  127.59    7.70
 -11  11   1    0.50    0.30
 -11 -11  -1    0.80    0.40
 -11 -11   1    0.70    0.40
 -11  11  -1    0.40    0.30
 -11  11  -1    0.60    0.50
 -11  11  -1    0.70    0.50
 -11 -11   1    0.60    0.50
  11  11  -2    0.90    0.80
  11 -11   2    0.90    0.40
 -11  11   2    1.20    0.40
 -11 -11  -2    1.60    0.50
 -11  11  -2    0.90    0.40
 -11  11  -2    1.10    0.50
 -11  11  -2    0.70    0.50
 -11 -11   2    2.40    0.70
 -11 -11   2    0.70    0.40
  11  11  -3   29.40    2.30
 -11  11   3   31.30    2.20
 -11 -11   3   29.90    2.30
 -11  11  -3   28.60    2.20
 -11 -11   3   30.50    2.40
 -11  11  -3   30.50    2.20
 -11  11  -3   28.60    2.30
 -11  11   4   59.59    3.90
  11  11  -4   64.89    4.10
 -11  11  -4   59.59    4.00
 -11  11  -4   59.49    3.90
 -11 -11   4   64.29    4.10
 -11 -11   4   55.49    3.90
 -11 -11   4   55.29    4.10
 -11  11   5   30.40    2.30
  11  11  -5   33.10    2.40
  11  11  -5   33.70    2.40
 -11 -11   5   37.20    2.40
 -11 -11   5   31.20    2.30
 -11  11  -5   33.50    2.40
  11  11  -6    2.50    0.50
  11  11   6    3.10    0.50
 -11  11  -6    1.90    0.50
 -11 -11   6    2.80    0.50
 -12  11   0    0.20    0.30
 -12 -11   0    0.30    0.40
 -12  11   1    7.80    0.90
 -12 -11  -1    7.10    1.00
 -12 -11   1    5.70    0.90
 -12 -11   1   10.10    1.00
 -12  11  -1    6.70    0.80
  12 -11   2   11.50    1.20
 -12  11   2   14.80    1.20
 -12 -11   2   14.30    1.20
 -12 -11   2    9.50    1.30
 -12  11  -2   10.60    1.10
 -12  11  -2   13.40    1.30
 -12  11  -2   13.90    1.30
  12  11  -3    0.60    0.50
 -12  11   3    0.10    0.30
 -12 -11   3    0.20    0.40
 -12 -11   3   -0.20    0.50
 -12  11  -3   -0.40    0.40
 -12  11  -3    0.00    0.40
  12  11  -4   10.50    1.30
 -12  11   4   11.70    1.10
  12  11  -4   11.30    1.20
 -12  11  -4   13.00    1.20
 -12 -11   4   11.50    1.30
 -12  11  -4   11.80    1.20
 -12 -11   4   12.30    1.20
 -12  11   5    0.20    0.30
  12  11  -5    0.10    0.40
  12  11  -5   -0.50    0.40
 -12 -11   5    0.00    0.40
  12  11   5    0.20    0.40
 -12  11  -5    0.30    0.40
 -13  11   0   42.60    3.10
 -13 -11   0   50.89    3.30
 -13 -11  -1    5.10    0.80
 -13  11   1    3.40    0.60
 -13  11  -1    4.30    0.70
 -13 -11   1    6.20    1.00
 -13  11   2   10.50    1.00
  13 -11   2    8.40    1.10
 -13 -11  -2    9.40    1.10
 -13  11  -2   10.40    1.00
 -13 -11   2   10.20    1.30
 -13  11   3    9.00    0.90
 -13 -11   3    9.10    1.20
 -13  11  -3    9.30    1.00
 -13  11  -3    9.80    1.00
 -13  11   4    1.80    0.40
  13  11  -4    1.90    0.60
  13  11  -4    1.20    0.60
 -13 -11   4    1.70    0.60
 -13  11  -4    1.90    0.50
 -13  11  -4    2.00    0.50
  13  11  -5    6.40    0.80
 -13  11   5    6.80    0.70
 -14  11   0    0.10    0.30
 -14 -11   0    0.00    0.50
  14 -11   1   20.70    1.70
 -14 -11  -1   22.90    1.80
 -14  11   1   22.20    1.70
 -14 -11   1   24.30    2.00
 -14  11  -1   21.70    1.70
 -14 -11  -2   12.30    1.20
 -14  11   2   13.20    1.20
 -14 -11   2   14.00    1.50
 -14  11  -2   13.80    1.20
 -14  11   3   12.30    1.10
 -14 -11   3   12.90    1.40
 -14  11  -3   10.60    1.10
 -14  11   4    8.60    0.80
  14  11  -4    8.80    1.00
 -14  11  -4    9.00    0.90
 -15 -11   0    4.10    0.70
 -15  11   0    4.10    0.60
 -15 -11  -1    1.30    0.50
 -15  11   1    1.20    0.40
  15 -11   1    0.70    0.40
 -15  11  -1    0.80    0.40
 -15 -11   1    1.40    0.60
 -15  11   2   31.50    2.20
 -15 -11   2   30.90    2.40
 -15  11  -2   32.00    2.20
 -15  11   3   32.00    2.20
  15  11  -3   31.80    2.40
 -15 -11   3   30.40    2.30
 -15  11  -3   30.60    2.20
 -15  11   4    9.50    1.10
  16 -11   0   -0.30    0.40
 -16 -11   0    0.20    0.40
 -16  11   0   -0.10    0.30
 -16 -11  -1   56.59    3.90
 -16  11   1   64.09    3.90
 -16  11  -1   58.89    3.90
 -16 -11   1   59.39    4.00
 -16  11   2    4.30    0.60
 -16  11  -2    3.70    0.60
 -16  11   3   11.70    1.00
 -17  11   0   12.00    1.10
 -17  11   1    2.50    0.50
 -17  11  -1    2.00    0.50
   0  12   0 1933.01  122.39
   0 -12   0 1995.60  123.19
   0  12   0 2219.38  122.99
   0 -12   1    0.10    0.70
   0  12   1   -0.20    0.20
   0  12  -1    1.60    0.40
   0  12  -1    0.60    0.60
   0 -12   2 1663.63  110.79
   0  12   2 1839.92  109.29
   0  12  -2 1950.90  110.49
   0  12  -2 1892.61  109.39
   0 -12   2 1712.13  109.29
   0  12   2 1912.91  109.29
   0  12   3   -0.10    0.20
   0 -12   3    0.00    0.30
   0  12  -3    0.50    0.30
   0  12  -3   -0.10    0.30
   0 -12  -3   -0.10    0.20
   0  12   3   -0.10    0.20
   0 -12  -3    0.00    0.30
   0  12  -3   -0.20    0.80
   0  12  -3   -0.40    0.30
   0  12   4   26.20    2.00
   0 -12  -4   29.00    2.10
   0 -12   4   28.10    2.00
   0  12  -4   29.90    2.10
   0  12   4   29.90    2.00
   0  12  -4   26.50    2.00
   0 -12  -4   28.50    1.90
   0  12  -5    0.20    0.40
   0 -12  -5   -0.20    0.30
   0 -12  -5   -0.20    0.20
   0  12   5    0.10    0.30
   0  12   5    0.50    0.30
   0 -12   5    0.40    0.40
   0 -12  -6   17.50    1.70
   0  12   6   21.80    1.60
   0  12   6   22.60    1.70
   0 -12   7    0.10    0.40
   0  12   7   -0.20    0.40
   0 -12  -7   -0.40    0.40
   0  12   7   -0.30    0.40
  -1  12   0   -0.10    0.40
   1 -12   0   -0.30    0.50
   1  12   0    0.50    0.20
   1  12   0    0.40    0.40
  -1  12   0    0.20    0.30
  -1  12   1  278.37   18.00
   1  12  -1  334.17   18.80
   1  12  -1  302.87   18.00
   1 -12   1  286.37   19.10
  -1 -12   1  270.97   19.00
  -1  12  -1  286.87   18.00
   1  12   1  291.97   18.00
  -1  12  -1  329.17   19.00
   1 -12   2   11.90    1.00
   1  12  -2   15.40    2.00
  -1  12   2   12.60    1.00
   1 -12   2   14.30    2.40
  -1  12   2   12.90    1.00
   1  12  -2   12.50    1.10
  -1 -12  -2   12.00    1.00
   1  12   2   11.20    1.00
  -1  12  -2   13.10    2.00
  -1 -12   2   11.70    2.20
  -1 -12   2   14.70    1.00
   1  12   2   13.50    1.00
  -1  12  -2   13.00    1.10
  -1  12   3    1.70    0.40
   1  12  -3    0.90    0.40
   1  12  -3    1.30    1.00
  -1  12   3    1.50    0.40
   1  12  -3    0.30    0.30
  -1 -12  -3    1.40    0.30
   1 -12   3    1.30    0.40
  -1 -12  -3    1.70    0.40
   1  12   3    1.10    0.30
   1  12   3    1.70    0.30
  -1  12  -3    1.60    0.40
  -1  12  -3    0.90    0.40
  -1  12  -3    1.30    0.40
  -1  12  -3    1.80    1.10
  -1 -12   3    1.20    0.40
   1 -12  -3    2.90    0.50
   1 -12   4   93.59    6.20
  -1 -12  -4   99.19    6.20
  -1  12   4  102.69    6.20
   1  12  -4  101.89    6.30
  -1  12   4   99.59    6.20
  -1 -12  -4  103.79    6.30
  -1  12  -4   98.59    6.20
  -1 -12   4  100.09    6.20
  -1  12  -4   94.09    6.30
   1 -12  -4  102.19    6.30
   1  12   4   99.29    6.20
   1  12   4   98.79    6.20
  -1  12  -4   93.89    6.20
   1  12  -5   10.30    1.10
  -1 -12  -5   10.80    0.90
  -1 -12  -5    6.70    1.00
  -1  12   5   10.80    1.00
  -1  12   5   11.40    1.10
   1 -12   5   11.00    1.10
  -1  12  -5   10.60    1.00
   1  12   5    9.40    1.00
  -1 -12   5   11.20    1.10
   1 -12  -5   11.10    1.10
   1  12   5   11.60    1.00
  -1 -12  -6    2.30    0.40
  -1 -12  -6    1.20    0.50
  -1  12   6    2.30    0.60
  -1  12   6    2.50    0.50
   1  12  -6    2.00    0.60
   1 -12  -6    1.80    0.50
   1  12   6    2.30    0.50
   1  12   6    1.60    0.50
  -1 -12  -7    7.50    1.00
  -1  12   7    7.60    0.90
   1 -12  -7    8.70    1.00
   1  12   7    8.90    0.90
   1  12   7    7.70    0.90
  -1 -12   7    8.60    0.90
  -2  12   0  122.39    7.80
   2  12   0  120.59    7.00
  -2  12   0  104.89    7.00
   2 -12   0  107.59    7.80
   2 -12   1  236.78   15.30
   2  12  -1  259.67   14.80
  -2  12   1  223.58   14.00
   2  12  -1  232.58   14.10
  -2  12   1  206.88   14.50
   2  12   1  238.98   14.00
  -2  12  -1  212.48   14.10
  -2 -12   1  212.18   14.90
  -2  12  -1  262.37   15.20
  -2 -12  -2  160.78    9.80
   2 -12   2  150.18    9.70
   2 -12   2  148.49   11.30
   2  12  -2  172.38    9.90
   2  12  -2  173.78   10.80
  -2  12   2  163.78    9.80
  -2  12   2  165.08    9.80
  -2  12   2  147.69   11.00
  -2 -12  -2  166.28    9.70
  -2  12  -2  167.28   11.10
   2  12   2  153.88    9.70
   2  12   2  166.98    9.80
  -2 -12   2  165.78    9.80
  -2 -12   2  138.79   11.00
  -2  12  -2  159.28    9.80
  -2  12  -2  150.48    9.80
  -2 -12  -3   10.10    0.80
  -2  12   3   10.00    0.90
   2  12  -3   10.30    1.00
  -2  12   3   10.80    0.90
  -2 -12  -3   10.90    1.00
   2  12  -3   10.30    1.90
   2 -12   3    9.10    0.90
   2  12   3   11.30    0.90
  -2  12  -3   11.20    1.00
   2 -12  -3   10.50    0.90
  -2  12  -3    8.30    1.00
  -2  12  -3   10.60    0.90
  -2  12  -3   10.00    0.90
  -2  12  -3   11.40    2.40
  -2 -12   3   10.40    0.90
   2 -12   4   38.90    2.70
  -2 -12  -4   36.90    2.60
  -2  12   4   40.00    2.60
   2  12  -4   41.10    2.80
  -2 -12  -4   41.10    2.70
  -2  12   4   38.50    2.70
   2 -12  -4   39.90    2.70
  -2 -12   4   38.40    2.70
  -2  12  -4   38.60    2.60
   2  12   4   38.50    2.60
  -2  12  -4   37.60    2.70
  -2 -12  -5   17.50    1.60
  -2  12   5   23.10    1.60
   2  12  -5   22.20    1.70
  -2 -12  -5   16.80    1.50
  -2  12   5   23.30    1.70
   2  12   5   18.30    1.60
  -2 -12   5   22.40    1.70
  -2  12  -5   21.00    1.60
   2 -12  -5   22.30    1.70
  -2  12   6   12.70    1.20
  -2 -12  -6   13.20    1.10
  -2  12   6   14.70    1.30
   2  12  -6   12.00    1.30
  -2 -12  -6   14.50    1.40
   2  12   6   14.70    1.20
  -2  12  -6   12.60    1.20
   2  12   6   13.50    1.20
   2 -12  -6   12.60    1.30
  -2  12   7    0.30    0.50
  -2 -12  -7    0.50    0.40
   2  12   7    0.50    0.40
   2  12   7    0.90    0.40
   2 -12  -7    0.00    0.40
  -2 -12   7    0.50    0.40
   3 -12   0   -0.10    0.60
   3  12   0    0.10    0.20
  -3  12   0    0.10    0.50
  -3  12   0    0.20    0.30
  -3  12   1  232.18   14.10
   3 -12   1  230.38   15.40
   3  12  -1  255.87   14.80
   3  12  -1  243.68   14.10
  -3  12   1  220.18   14.80
   3 -12   1  226.78   14.00
  -3 -12   1  197.68   14.80
  -3  12  -1  210.68   14.10
   3  12   1  245.68   14.10
  -3  12  -1  258.97   15.30
  -3  12   2   19.60    2.80
   3 -12   2   24.30    1.60
  -3 -12  -2   23.70    1.60
   3  12  -2   24.10    2.50
   3 -12   2   21.10    3.00
  -3  12   2   24.20    1.60
  -3 -12  -2   22.00    1.70
  -3  12   2   22.30    1.60
   3  12  -2   24.00    1.70
   3  12   2   23.30    1.60
  -3  12  -2   23.40    1.60
  -3 -12   2   18.60    2.70
   3  12   2   21.40    1.60
  -3  12  -2   22.30    1.60
  -3 -12   2   25.30    1.70
  -3  12  -2   20.40    1.70
  -3  12  -2   24.00    2.80
  -3  12   3    2.30    0.50
  -3 -12  -3    2.00    0.50
  -3 -12  -3    2.30    0.40
   3 -12   3    1.50    0.40
  -3  12   3    2.60    0.50
   3  12  -3    2.50    1.20
   3  12  -3    2.20    0.50
   3  12   3    2.50    0.40
  -3  12  -3    2.30    0.50
   3 -12  -3    1.70    0.40
  -3 -12   3    2.30    0.40
  -3  12  -3    2.00    0.40
  -3  12  -3    2.10    1.30
  -3  12  -3    2.40    0.50
   3  12  -4   82.29    5.60
  -3  12   4   89.39    5.50
  -3 -12  -4   87.69    5.60
  -3 -12  -4   83.89    5.40
  -3  12   4   87.29    5.50
   3 -12   4   83.69    5.40
   3 -12  -4   83.79    5.50
   3  12   4   89.99    5.40
  -3  12  -4   87.29    5.50
  -3  12  -4   85.99    5.50
  -3 -12   4   87.09    5.50
  -3  12   5   48.10    3.10
  -3  12   5   46.70    3.10
  -3 -12  -5   45.00    3.00
   3  12  -5   44.90    3.20
  -3 -12  -5   39.20    3.10
   3 -12  -5   46.20    3.10
  -3 -12   5   44.30    3.10
  -3  12  -5   45.70    3.10
  -3  12  -5   43.80    3.00
  -3 -12   5   45.90    3.10
   3  12   5   46.90    3.10
  -3 -12  -6    0.80    0.30
  -3 -12  -6    0.70    0.40
   3  12  -6    0.90    0.50
  -3  12   6    1.00    0.50
  -3 -12   6    0.80    0.50
  -3  12  -6    0.80    0.40
   3 -12  -6    2.20    0.60
   3  12   6    1.30    0.40
   3  12   6    1.00    0.40
  -3 -12  -7    1.60    0.50
  -3  12   7    1.70    0.50
   3  12   7    2.30    0.50
   3  12   7    1.50    0.50
   3 -12  -7    1.90    0.50
  -4  12   0  195.28   11.90
   4  12   0  193.68   11.80
  -4  12   0  169.68   11.90
  -4  12   0  212.38   12.90
   4 -12   0  202.58   12.90
  -4 -12   0  192.98   11.80
  -4  12   1   82.79    5.60
  -4  12   1   87.39    6.70
   4 -12   1   97.99    7.10
   4 -12   1   88.99    5.60
  -4  12   1   90.09    5.60
  -4 -12  -1   95.49    5.70
  -4  12   1   89.99    6.50
   4  12  -1   98.39    6.30
   4  12  -1   90.59    5.70
  -4 -12  -1   84.29    5.60
  -4 -12   1   90.69    5.60
  -4  12  -1   97.19    6.90
  -4  12  -1   91.69    5.60
  -4 -12   1   80.29    6.20
  -4 -12   1   94.59    5.70
  -4  12   2    3.50    1.40
  -4  12   2    4.80    0.60
   4  12  -2    7.00    1.50
   4 -12   2    5.80    0.60
  -4 -12  -2    4.50    0.60
  -4 -12  -2    5.30    0.50
  -4  12   2    4.90    0.60
   4  12  -2    5.60    0.70
   4 -12   2    3.60    1.60
   4  12   2    5.80    0.60
  -4  12  -2    5.00    0.60
  -4 -12   2    5.80    0.70
  -4  12  -2    5.80    0.60
  -4 -12   2    4.70    1.40
  -4  12  -2    6.70    1.60
  -4  12  -2    5.40    0.70
  -4 -12  -3   18.20    1.40
   4  12  -3   20.70    1.50
  -4  12   3   19.10    1.40
  -4  12   3   18.90    1.40
  -4 -12  -3   17.70    1.50
   4 -12   3   17.80    1.40
   4  12  -3   18.20    2.60
   4 -12  -3   18.60    1.40
  -4  12  -3   19.00    1.40
  -4  12  -3   18.90    1.40
  -4  12  -3   18.10    1.40
  -4  12  -3   18.30    2.90
   4  12   3   19.90    1.40
  -4 -12   3   18.40    1.50
  -4 -12  -4    0.40    0.40
  -4  12   4    1.70    0.50
   4 -12   4    0.30    0.40
  -4  12   4    0.70    0.40
  -4 -12  -4    0.70    0.30
   4  12  -4    0.80    0.40
  -4 -12   4    0.60    0.40
  -4  12  -4    0.90    0.40
   4 -12  -4    0.80    0.40
  -4  12  -4    0.30    0.40
  -4  12  -4    0.70    0.40
   4  12   4    1.00    0.30
  -4 -12   4    2.20    0.60
  -4 -12  -5   46.40    3.30
   4  12  -5   45.70    3.30
  -4  12   5   48.10    3.20
  -4 -12   5   47.70    3.30
   4  12   5   49.50    3.20
  -4  12  -5   47.90    3.20
   4 -12  -5   47.50    3.20
  -4  12  -5   47.00    3.20
  -4 -12   5   44.00    3.30
  -4 -12  -6    2.10    0.40
  -4  12   6    0.20    0.50
   4  12  -6    2.10    0.60
  -4 -12  -6    1.70    0.60
  -4  12  -6    1.20    0.50
   4  12   6    1.80    0.50
  -4 -12   6    2.20    0.50
   4  12   6    1.80    0.50
   4 -12  -6    2.10    0.50
   4  12  -7    0.90    0.50
  -4 -12  -7    2.50    0.60
   4  12   7    3.10    0.50
   4 -12  -7    2.20    0.50
   4  12   7    1.80    0.50
  -4  12  -7    1.80    0.50
  -5 -12   0    0.50    0.30
  -5  12   0    0.10    0.60
  -5 -12   0   -0.10    0.30
   5  12   0    0.20    0.30
  -5  12   0    0.50    0.30
   5 -12   0   -0.20    0.70
   5 -12   1  165.48   11.60
  -5 -12  -1  152.78   10.20
  -5  12   1  151.48   11.30
   5  12  -1  173.18   10.20
  -5  12   1  164.48   10.20
  -5 -12  -1  182.48   10.30
   5 -12   1  168.98   10.20
  -5  12  -1  173.78   10.20
  -5  12  -1  173.08   11.60
  -5 -12   1  168.48   10.20
  -5 -12   1  166.68   10.20
  -5  12  -1  160.78   10.10
   5  12   1  165.68   10.20
  -5  12   2  100.49    6.30
  -5 -12  -2  102.19    6.20
   5 -12   2   99.79    6.30
   5  12  -2  101.99    7.30
  -5  12   2   83.69    6.20
  -5 -12  -2  103.89    6.40
   5  12  -2  110.59    6.40
  -5 -12   2  103.69    6.40
  -5 -12   2  102.59    6.30
   5  12   2   99.79    6.20
  -5  12  -2   96.29    7.80
  -5  12  -2  104.69    6.30
  -5  12  -2  108.39    6.30
  -5  12  -2   96.99    6.20
  -5  12   3  136.09    8.50
  -5 -12  -3  137.89    8.40
  -5 -12  -3  140.89    8.60
   5 -12   3  135.19    8.50
  -5  12   3  133.59    8.50
   5  12  -3  145.69    8.60
   5  12  -3  127.09    9.80
  -5  12  -3  140.89    8.60
  -5  12  -3  139.09    8.50
  -5 -12   3  142.59    8.60
  -5  12  -3  138.69    8.50
   5 -12  -3  131.69    8.50
   5  12   3  140.79    8.50
  -5  12  -3  121.79   10.30
  -5 -12   3  150.58    8.60
  -5  12   4   55.99    3.80
  -5 -12  -4   57.19    3.70
  -5 -12  -4   58.59    3.90
   5 -12   4   52.99    3.70
  -5  12  -4   58.99    3.80
   5  12   4   56.79    3.70
  -5  12  -4   58.59    3.80
  -5 -12   4   59.49    3.90
  -5  12  -4   62.89    3.90
   5 -12  -4   54.29    3.80
  -5 -12   4   60.09    3.90
  -5 -12  -5    0.30    0.30
   5  12  -5    0.30    0.40
   5  12  -5    0.70    0.50
  -5  12   5    0.40    0.50
  -5 -12  -5    0.40    0.40
   5  12   5    0.10    0.30
   5 -12  -5    0.40    0.40
  -5  12  -5    0.30    0.40
  -5 -12   5    0.70    0.50
  -5 -12   5    0.50    0.40
   5  12  -6    0.80    0.50
  -5 -12  -6    1.00    0.30
  -5 -12  -6    0.40    0.50
   5  12   6    1.00    0.40
   5 -12  -6    1.00    0.50
  -5  12  -6    1.00    0.50
  -5 -12   6    0.80    0.40
  -5 -12  -7    0.70    0.40
   5  12  -7    0.60    0.50
   5 -12  -7    0.60    0.40
   5  12   7    0.20    0.40
   5  12   7    0.60    0.40
  -5  12  -7    0.30    0.40
  -6 -12   0  116.79    7.70
  -6  12   0  125.79    9.00
   6  12   0  122.29    7.70
  -6  12   0  127.89    7.70
  -6 -12   0  130.69    7.80
  -6  12   0  128.99    7.70
  -6 -12  -1    7.00    0.70
   6 -12   1    4.30    0.60
   6  12  -1    5.20    0.70
   6 -12   1    3.90    1.40
  -6  12   1    5.90    0.60
  -6 -12  -1    4.80    0.70
  -6  12   1    3.50    0.60
  -6  12  -1    7.20    0.80
  -6  12  -1    4.70    1.50
   6  12   1    3.70    0.50
  -6 -12   1    4.50    0.60
  -6 -12   1    5.80    0.70
  -6  12  -1    4.30    0.60
   6  12   1    5.40    0.60
  -6  12   2   27.60    2.10
  -6 -12  -2   33.90    2.20
   6  12  -2   32.90    2.20
  -6  12   2   28.40    2.10
   6 -12   2   33.90    2.10
  -6 -12  -2   31.20    2.00
  -6 -12   2   34.30    2.20
  -6  12  -2   30.90    2.10
  -6 -12   2   31.10    2.20
  -6  12  -2   24.70    3.40
  -6  12  -2   29.90    2.20
   6  12   2   28.70    2.10
  -6  12  -2   31.50    2.20
  -6 -12  -3  222.48   13.40
   6  12  -3  230.68   13.40
   6 -12   3  219.28   13.30
  -6  12   3  188.88   13.20
  -6 -12  -3  221.28   13.20
   6  12  -3  187.88   14.60
  -6  12  -3  232.18   13.40
   6 -12  -3  193.38   13.20
  -6  12  -3  222.88   13.30
  -6 -12   3  239.68   13.40
  -6  12  -3  232.58   13.40
  -6 -12   3  225.78   13.40
   6  12   3  221.78   13.30
  -6 -12  -4    0.30    0.40
  -6 -12  -4    0.60    0.30
   6  12  -4   -0.10    0.30
  -6 -12   4    0.00    0.40
   6  12   4    0.20    0.30
  -6  12  -4    0.10    0.40
  -6  12  -4    0.00    0.40
  -6  12  -4   -0.10    0.30
  -6 -12   4    0.20    0.40
   6 -12  -4   -0.40    0.30
  -6 -12  -5   10.70    1.20
   6  12  -5    9.00    1.10
  -6 -12  -5   10.00    1.00
   6  12  -5   11.80    1.20
   6  12   5   12.20    1.10
  -6  12  -5    9.10    1.10
  -6 -12   5    9.70    1.20
   6 -12  -5   11.20    1.10
  -6 -12   5   12.80    1.20
  -6 -12  -6   10.30    1.20
   6  12  -6   10.90    1.40
  -6 -12  -6    9.40    0.90
   6  12  -6   10.50    1.10
   6 -12  -6    8.90    1.00
   6  12   6    9.20    1.00
  -6 -12   6    9.20    1.00
  -6  12  -6   10.60    1.10
  -6 -12  -7    1.00    0.50
   6  12   7    2.10    0.40
   6 -12  -7    1.70    0.50
  -6 -12   7    2.80    0.50
  -6  12  -7    1.40    0.40
  -7 -12   0   -0.50    0.30
  -7  12   0    0.00    0.20
   7  12   0   -0.20    0.30
  -7  12   0   -0.40    0.30
  -7  12   0    0.10    0.70
  -7 -12   0    0.90    0.40
  -7 -12  -1   33.50    2.20
  -7  12   1   30.50    2.00
   7  12  -1   31.50    2.20
  -7  12   1   29.30    2.10
  -7 -12  -1   30.30    2.10
   7  12   1   29.20    2.10
  -7  12  -1   30.10    2.10
  -7  12  -1   30.10    2.10
  -7 -12   1   29.50    2.10
  -7 -12   1   31.80    2.20
  -7  12  -1   30.80    2.10
  -7  12  -1   26.40    3.20
  -7  12   2   27.80    2.20
  -7 -12  -2   31.00    2.10
   7 -12   2   30.80    2.20
  -7  12   2   29.40    2.10
   7  12  -2   34.40    2.30
  -7 -12  -2   34.70    2.30
  -7  12  -2   32.30    2.20
  -7 -12   2   33.90    2.30
  -7  12  -2   33.20    2.30
  -7  12  -2   32.30    2.20
   7  12   2   29.30    2.10
  -7 -12   2   33.00    2.30
  -7  12  -2   25.00    3.60
   7  12  -3  194.68   12.00
  -7  12   3  179.98   11.80
   7 -12   3  193.28   11.80
  -7 -12  -3  195.78   12.00
  -7 -12  -3  195.98   11.80
  -7 -12   3  191.38   12.00
  -7  12  -3  202.78   12.00
  -7  12  -3  198.78   12.00
  -7  12  -3  195.38   11.90
   7  12   3  184.08   11.80
  -7 -12   3  201.68   12.00
  -7 -12  -4  190.28   11.30
  -7  12   4  182.58   11.30
   7  12  -4  180.68   11.40
  -7 -12  -4  192.08   11.50
   7  12   4  189.98   11.30
  -7  12  -4  177.48   11.50
  -7  12  -4  194.68   11.40
   7 -12  -4  183.58   11.30
  -7  12  -4  162.68   11.30
  -7 -12   4  194.88   11.60
  -7 -12  -5   41.30    3.00
   7  12  -5   43.80    3.00
  -7 -12  -5   43.00    2.80
   7  12  -5   42.30    2.90
  -7 -12   5   44.50    2.90
  -7 -12   5   40.00    3.00
  -7  12  -5   37.40    2.90
   7  12   5   40.80    2.80
   7 -12  -5   39.00    2.80
   7  12  -6   22.80    1.80
  -7 -12  -6   23.30    1.90
   7  12  -6   24.40    1.90
  -7 -12  -6   24.60    1.70
  -7 -12   6   24.00    1.80
   7 -12  -6   22.30    1.80
  -7  12  -6   24.40    1.80
   7  12   6   23.70    1.80
  -7  12  -7    1.40    0.40
  -7 -12   7    0.70    0.40
   7 -12  -7    1.00    0.40
   7  12   7    0.60    0.30
   8  12   0  139.09    9.00
  -8 -12   0  159.28    9.10
  -8  12   0  153.58    9.00
  -8  12   0  145.99    9.00
  -8  12   0  131.09   10.50
  -8  12   1   68.89    4.80
  -8 -12  -1   83.09    4.90
  -8  12   1   76.59    4.70
  -8 -12  -1   79.49    4.90
   8  12  -1   73.09    4.80
  -8  12  -1   73.79    4.80
  -8  12  -1   61.29    6.10
  -8 -12   1   74.39    4.80
  -8  12  -1   76.39    4.80
  -8  12  -1   76.49    4.70
  -8 -12   1   79.19    4.90
  -8 -12  -2  203.48   12.10
  -8  12   2  188.68   11.90
   8 -12   2  198.18   12.00
   8  12  -2  194.28   12.10
  -8  12  -2  200.88   12.10
  -8 -12   2  201.08   12.10
  -8 -12   2  174.08   12.10
  -8  12  -2  202.68   12.00
  -8  12  -2  197.98   12.00
   8 -12   3   21.20    1.60
  -8 -12  -3   21.20    1.60
  -8 -12  -3   23.10    1.80
   8  12  -3   22.00    1.70
  -8  12   3   20.60    1.60
  -8  12  -3   21.70    1.70
  -8 -12   3   18.00    1.70
  -8 -12   3   20.00    1.80
  -8  12  -3   22.50    1.70
  -8  12  -3   20.30    1.60
  -8 -12  -4   35.60    2.70
   8  12  -4   33.90    2.60
  -8  12   4   35.40    2.50
  -8 -12  -4   38.50    2.50
  -8  12  -4   39.40    2.60
  -8 -12   4   38.30    2.70
   8 -12  -4   31.90    2.50
  -8  12  -4   36.30    2.60
  -8 -12   4   39.10    2.80
  -8 -12  -5    0.20    0.30
  -8 -12  -5   -0.60    0.40
   8  12  -5    0.50    0.50
   8  12  -5   -0.70    0.40
  -8 -12   5   -0.10    0.40
   8 -12  -5    0.00    0.40
  -8 -12   5    1.10    0.60
  -8  12  -5   -0.10    0.40
  -8 -12   5    0.00    0.40
  -8 -12  -6    7.00    0.90
  -8 -12  -6    8.20    0.80
   8  12  -6    6.60    0.80
   8  12  -6    6.00    0.80
  -8 -12   6    5.40    0.80
   8 -12  -6    6.90    0.80
   8  12   6    7.20    0.80
  -8 -12   6    8.30    0.90
  -8  12  -6    6.90    0.90
   8  12   7   11.70    1.10
  -9  12   0    0.10    0.30
  -9  12   0    0.30    0.30
  -9  12   0    0.50    0.40
  -9 -12   0    0.50    0.40
  -9  12   1  101.39    6.30
   9  12  -1  101.99    6.40
  -9 -12  -1   98.29    6.40
  -9  12  -1  104.29    6.30
  -9  12  -1   97.39    6.40
  -9 -12   1   98.49    6.50
  -9  12  -1  102.39    6.40
  -9 -12   1   99.59    6.40
  -9  12   2    0.00    0.30
   9  12  -2   -0.20    0.40
  -9 -12  -2    0.70    0.40
   9 -12   2    1.10    0.40
  -9 -12   2    2.00    0.60
  -9  12  -2    0.30    0.40
  -9 -12   2    0.30    0.40
  -9  12  -2    0.20    0.40
  -9  12  -2   -0.20    0.30
   9  12  -3   13.90    1.30
  -9 -12  -3   14.40    1.30
  -9  12   3   13.60    1.20
   9 -12   3   12.80    1.20
  -9  12  -3   16.10    1.30
  -9 -12   3   15.30    1.50
  -9  12  -3   11.60    1.20
  -9  12  -3   12.70    1.30
  -9 -12   3   12.10    1.20
  -9  12   4    2.10    0.50
  -9 -12  -4    2.20    0.60
   9  12  -4    1.70    0.60
  -9 -12  -4    1.30    0.40
  -9  12  -4    2.00    0.50
  -9  12  -4    2.50    0.60
  -9  12  -4    1.20    0.50
  -9 -12   4    2.50    0.60
  -9 -12   4    2.50    0.70
  -9 -12   4    2.00    0.50
   9  12  -5   47.20    3.10
  -9 -12  -5   43.80    3.20
  -9 -12  -5   45.00    3.00
   9  12  -5   45.70    3.10
  -9 -12   5   42.50    3.20
  -9 -12   5   44.90    3.10
  -9  12  -5   48.40    3.20
   9 -12  -5   38.50    3.00
  -9 -12   5   50.89    3.20
   9  12  -6    1.30    0.50
   9  12  -6    0.90    0.40
  -9 -12  -6    1.40    0.40
  -9 -12  -6    0.60    0.50
  -9  12  -6    1.40    0.40
  -9 -12   6    1.60    0.40
  -9 -12   6    1.50    0.40
   9  12   6    1.30    0.40
   9 -12  -6    1.20    0.40
 -10  12   0    1.30    0.50
 -10 -12   0    0.70    0.40
 -10  12   0    1.30    0.40
 -10 -12  -1   46.00    3.10
 -10  12   1   46.10    3.00
 -10  12  -1   46.50    3.00
 -10 -12   1   44.30    3.10
 -10  12  -1   43.60    3.10
 -10  12  -1   41.60    3.10
 -10 -12   1   49.99    3.30
  10  12  -2  193.78   11.30
 -10  12   2  186.08   11.20
  10 -12   2  182.08   11.20
 -10  12  -2  176.38   11.20
 -10  12  -2  181.18   11.30
 -10 -12   2  192.28   11.30
 -10  12  -2  182.58   11.30
 -10 -12   2  163.88   11.40
 -10 -12  -3    5.80    0.90
  10  12  -3    5.30    0.80
 -10  12   3    6.40    0.80
 -10  12  -3    6.60    0.80
 -10  12  -3    7.50    0.90
 -10  12  -3    5.70    0.90
 -10 -12   3    6.90    1.00
 -10 -12   3    7.10    0.90
 -10  12   4   20.70    1.60
  10  12  -4   22.30    1.70
 -10 -12  -4   21.50    1.80
 -10 -12  -4   21.00    1.70
 -10 -12   4   17.60    1.70
 -10  12  -4   21.80    1.70
 -10  12  -4   21.20    1.70
 -10 -12   4   18.80    1.60
 -10 -12   4   22.70    1.90
  10  12  -5    3.40    0.70
 -10  12   5    2.20    0.50
  10  12  -5    2.70    0.60
 -10 -12  -5    2.50    0.60
 -10 -12  -5    3.10    0.50
 -10 -12   5    2.40    0.70
 -10 -12   5    2.00    0.50
 -10 -12   5    3.20    0.60
 -10  12  -5    2.20    0.60
  10  12  -6    1.90    0.50
  10  12   6    1.10    0.40
 -10 -12   6    2.10    0.50
 -10  12  -6    1.00    0.40
 -11 -12   0    0.10    0.40
 -11  12   0    0.30    0.30
 -11 -12  -1  143.39    8.50
 -11  12   1  144.79    8.40
 -11 -12   1  132.99    8.60
 -11  12  -1  122.29    8.40
 -11 -12   1  134.19    8.40
 -11  12  -1  127.49    8.40
 -11 -12  -2    6.80    1.20
  11  12  -2    5.40    0.90
 -11  12   2    6.30    0.80
  11 -12   2    6.30    0.80
 -11  12  -2    7.30    0.90
 -11 -12   2    6.10    0.80
 -11  12  -2    6.00    0.80
 -11 -12   2    4.10    0.80
 -11  12  -2    5.40    0.80
 -11  12   3    0.40    0.30
  11  12  -3   -0.20    0.50
 -11 -12   3    0.80    0.40
 -11  12  -3    0.40    0.40
 -11  12  -3    0.20    0.40
 -11 -12   3    0.10    0.50
 -11  12  -3   -0.20    0.40
  11  12  -4   29.50    2.30
 -11  12   4   29.50    2.20
 -11 -12   4   33.30    2.30
 -11  12  -4   30.60    2.30
 -11  12  -4   32.10    2.20
 -11 -12   4   30.20    2.50
  11  12  -5    2.90    0.60
  11  12  -5    2.30    0.60
 -11  12   5    1.70    0.40
 -11  12  -5    2.10    0.60
 -11 -12   5    5.20    0.60
 -11 -12   5    2.60    0.50
  11  12   5    2.50    0.50
 -12 -12   0   44.00    3.10
 -12  12   0   41.50    2.90
 -12 -12  -1    0.40    0.50
 -12  12   1    0.50    0.30
 -12 -12   1    0.90    0.40
 -12  12  -1    0.20    0.30
 -12 -12   1    0.20    0.40
 -12  12  -1    0.80    0.50
 -12  12   2   49.00    3.10
  12 -12   2   44.40    3.10
 -12 -12  -2   44.10    3.40
 -12  12  -2   41.70    3.10
 -12  12  -2   43.50    3.20
 -12 -12   2   49.20    3.20
 -12  12  -2   43.50    3.10
 -12 -12   2   49.40    3.40
 -12  12   3   60.39    3.80
  12  12  -3   51.39    3.90
 -12 -12   3   64.19    4.00
 -12 -12   3   58.89    4.10
 -12  12  -3   60.99    3.90
 -12  12  -3   54.39    3.90
  12  12  -4    3.00    0.70
  12  12  -4    3.30    0.70
 -12  12   4    3.40    0.50
 -12 -12   4    2.80    0.70
 -12 -12   4    3.70    0.60
 -12  12  -4    3.90    0.70
 -12  12  -4    3.20    0.60
 -12  12   5    0.90    0.30
  12  12  -5    0.70    0.40
 -12  12  -5    0.50    0.40
 -13  12   0    0.20    0.30
 -13 -12   0    0.20    0.50
 -13  12   1   17.30    1.40
 -13 -12  -1   18.90    1.60
  13 -12   1   17.10    1.50
 -13  12  -1   16.70    1.40
 -13 -12   1   18.80    1.70
 -13  12   2    0.20    0.40
  13 -12   2   -0.50    0.40
 -13  12  -2   -0.20    0.40
 -13 -12   2    0.20    0.50
 -13  12   3    1.40    0.40
 -13  12  -3    0.60    0.50
 -13 -12   3    0.70    0.50
 -13  12  -3    0.80    0.40
 -13  12   4   19.20    1.40
  13  12  -4   15.20    1.50
  13  12  -4   20.60    1.60
 -13  12  -4   15.70    1.50
 -13 -12   4   17.00    1.60
 -13  12  -4   20.90    1.50
  13  12  -5    3.50    0.60
 -14  12   0  144.39    9.00
 -14 -12   0  144.19    9.10
 -14  12   1   11.50    1.10
 -14 -12  -1   12.70    1.30
  14 -12   1   12.70    1.20
 -14 -12   1   13.70    1.40
 -14  12  -1   12.80    1.10
 -14  12   2    9.10    1.00
 -14 -12   2    8.60    1.10
 -14  12  -2    9.40    1.00
 -14  12   3    4.60    0.60
 -14  12  -3    5.80    0.70
 -14 -12   3    4.70    0.80
  14  12  -4   14.70    1.30
 -14  12   4   17.00    1.20
 -14  12  -4   15.00    1.30
 -15 -12   0    0.20    0.50
 -15  12   0    0.00    0.30
  15 -12   1    0.30    0.40
 -15 -12  -1    0.50    0.40
 -15  12   1    0.40    0.30
 -15 -12   1    0.50    0.50
 -15  12  -1    0.40    0.40
 -15  12   2   11.30    1.10
 -15 -12   2   12.30    1.30
 -15  12  -2   12.40    1.10
  15  12  -3    0.20    0.50
 -15  12   3    0.50    0.30
 -15  12  -3    0.00    0.40
  16 -12   0   26.70    2.00
 -16 -12   0   29.80    2.20
 -16  12   0   29.70    2.00
 -16  12   1    9.40    0.90
 -16 -12   1    7.20    0.90
 -16  12  -1    7.70    0.80
 -16  12   2   20.90    1.50
 -16  12  -2   19.50    1.50
 -17  12   0    0.30    0.30
 -17  12   1    1.10    0.40
   0  13   0   -0.20    0.20
   0  13   0    0.00    0.40
   0 -13   1    0.10    0.20
   0  13  -1   -0.10    0.50
   0 -13   1    0.40    0.70
   0  13  -1   -0.10    0.30
   0  13   1    0.10    0.20
   0  13   2   21.60    1.60
   0  13   2   23.00    1.60
   0  13  -2   22.20    1.70
   0  13  -2   27.20    2.80
   0 -13   2   21.70    3.00
   0 -13  -2   21.40    1.60
   0  13  -2   23.70    1.70
   0 -13   2   22.90    1.60
   0  13  -3    0.80    0.30
   0  13   3   -0.10    0.30
   0  13  -3    0.20    0.40
   0  13  -3    0.10    0.90
   0 -13   3    0.90    0.30
   0  13  -3    2.60    0.40
   0 -13  -3    0.00    0.30
   0  13   3    0.10    0.20
   0 -13   4  154.08    9.60
   0  13  -4  157.18    9.70
   0  13   4  151.08    9.50
   0 -13  -4  169.78    9.70
   0  13  -4  146.09    9.50
   0  13   4  154.68    9.60
   0  13   5   -0.20    0.30
   0 -13   5    0.40    0.40
   0  13   5   -0.10    0.30
   0 -13  -5    0.00    0.30
   0  13  -5   -0.20    0.40
   0  13   6   31.50    2.20
   0 -13  -6   30.50    2.30
   0  13   6   31.70    2.30
   0 -13  -7    0.10    0.40
   0 -13   7    0.10    0.40
   0  13   7    0.00    0.40
  -1  13   0  486.35   29.50
   1  13   0  496.85   29.50
   1 -13   0  468.65   30.40
  -1  13   0  506.85   30.10
   1  13  -1    1.00    0.60
  -1  13   1    0.90    0.30
   1  13  -1    1.00    0.30
  -1  13   1    0.60    0.30
   1 -13   1    0.50    0.30
   1 -13   1    0.80    0.80
  -1  13  -1    0.90    0.70
   1  13   1    0.50    0.20
  -1  13  -1    0.60    0.30
  -1 -13   1    1.70    0.90
  -1  13   2  215.78   12.60
   1 -13   2  179.18   14.00
   1 -13   2  207.08   12.60
  -1 -13  -2  212.68   12.60
  -1  13   2  213.68   12.60
   1  13  -2  224.58   13.80
   1  13  -2  218.78   12.70
   1 -13  -2  205.48   12.60
   1  13   2  216.18   12.60
  -1  13  -2  213.58   13.90
  -1 -13   2  205.98   12.60
  -1  13  -2  197.58   12.80
  -1 -13   2  171.48   13.90
  -1  13  -2  201.28   12.60
   1  13   2  207.38   12.60
  -1  13  -2  210.58   12.70
   1 -13   3   20.00    1.50
  -1  13   3   20.30    1.50
  -1 -13  -3   20.80    1.50
   1  13  -3   18.00    1.40
  -1 -13  -3   18.60    1.40
   1  13  -3   20.10    1.60
   1  13  -3   19.10    2.70
  -1  13   3   21.10    1.50
  -1  13  -3   19.00    1.50
  -1  13  -3   18.20    1.40
   1 -13  -3   19.80    1.50
   1  13   3   19.40    1.40
  -1  13  -3   22.20    2.90
  -1  13  -3   18.40    1.50
  -1 -13   3   20.10    1.50
   1  13   3   20.30    1.50
  -1  13   4   92.89    5.60
   1 -13   4   87.49    5.60
  -1 -13  -4   91.39    5.60
  -1 -13  -4   97.39    5.70
   1  13  -4   91.59    5.70
  -1  13   4   73.69    5.60
   1  13   4   91.69    5.60
  -1 -13   4   86.69    5.60
   1 -13  -4   96.79    5.70
  -1  13  -4   86.69    5.70
  -1  13  -4   90.29    5.60
  -1  13  -4   84.49    5.60
   1  13   4   83.89    5.60
  -1  13   5   30.70    2.20
   1  13  -5   27.20    2.20
  -1  13   5   28.30    2.10
  -1 -13  -5   27.40    2.00
   1 -13   5   30.50    2.20
  -1 -13   5   32.00    2.20
  -1  13  -5   27.50    2.10
   1 -13  -5   28.90    2.20
   1  13   5   28.10    2.10
  -1  13   6    0.70    0.40
  -1 -13  -6    0.80    0.50
  -1  13   6    0.70    0.50
   1 -13  -6    0.30    0.40
   1  13   6    0.30    0.40
  -1 -13   6    0.60    0.60
   1  13   6    0.90    0.40
  -1 -13  -7   15.10    1.30
  -1  13   7   12.00    1.30
   1 -13  -7   12.70    1.30
   1  13   7   13.60    1.20
  -1 -13   7   13.20    1.20
   1  13   7   13.50    1.20
  -2  13   0    0.20    0.50
   2  13   0   -0.10    0.20
  -2  13   0    0.20    0.30
   2 -13   0   -0.10    0.60
   2 -13   0    0.20    0.20
   2  13  -1    1.20    0.40
   2 -13   1    1.30    0.90
  -2  13   1    0.60    0.30
  -2  13   1    0.80    0.50
  -2  13   1    1.50    0.30
   2  13  -1    2.30    0.80
   2 -13   1    1.30    0.30
  -2 -13   1    1.00    0.30
  -2  13  -1    1.20    0.80
  -2  13  -1    0.80    0.40
  -2  13  -1    1.10    0.30
  -2 -13   1    1.30    0.80
   2  13  -2   87.69    6.30
  -2  13   2   85.59    5.20
   2 -13   2   79.79    5.20
  -2  13   2   80.59    5.20
   2  13  -2   85.59    5.30
  -2 -13  -2   84.39    5.20
  -2  13   2   82.49    6.90
   2  13   2   83.79    5.20
  -2  13  -2   79.99    5.20
   2 -13  -2   78.39    5.20
   2  13   2   86.79    5.20
  -2  13  -2   88.29    6.60
  -2 -13   2   69.19    6.50
  -2 -13   2   87.79    5.20
  -2  13  -2   83.69    5.20
  -2  13  -2   80.29    5.30
   2  13  -3    0.40    1.00
  -2 -13  -3    1.70    0.30
   2 -13   3    0.60    0.30
   2  13  -3    1.20    0.40
  -2 -13  -3    0.80    0.40
  -2  13   3    1.30    0.40
   2 -13  -3    1.10    0.40
   2  13   3    1.10    0.30
  -2  13  -3    0.60    1.00
  -2  13  -3    0.60    0.40
  -2 -13   3    1.10    0.40
   2  13   3    1.30    0.30
  -2  13  -3    0.70    0.40
  -2  13  -3    3.70    0.50
  -2  13  -3    1.10    0.40
  -2 -13  -4   65.89    4.20
  -2 -13  -4   58.49    4.00
  -2  13   4   65.29    4.10
   2 -13   4   62.29    4.10
   2  13  -4   63.69    4.20
  -2  13   4   63.09    4.10
  -2  13  -4   62.39    4.10
  -2  13  -4   61.49    4.10
  -2 -13   4   62.09    4.10
   2  13   4   60.29    4.10
   2  13   4   64.99    4.00
   2 -13  -4   64.09    4.10
  -2  13   5   15.80    1.30
  -2 -13  -5   14.50    1.20
   2  13  -5   15.60    1.40
  -2  13   5   16.60    1.40
   2 -13   5   15.90    1.40
  -2 -13  -5   12.90    1.40
   2  13   5   14.30    1.30
  -2  13  -5   13.90    1.30
  -2  13  -5   14.20    1.30
   2 -13  -5   15.90    1.40
   2  13   5   13.10    1.30
  -2 -13   5   15.70    1.40
  -2 -13  -6   21.80    1.80
   2  13  -6   16.60    1.70
  -2  13   6   24.10    1.80
  -2  13   6   19.90    1.60
   2 -13  -6   20.90    1.70
  -2  13  -6   21.50    1.70
   2  13   6   21.90    1.60
   2  13   6   20.70    1.70
  -2  13   7    1.30    0.50
  -2 -13  -7    1.80    0.50
   2  13   7    1.90    0.50
   2 -13  -7    0.90    0.50
   2  13   7    1.40    0.50
  -3  13   0  149.29    9.40
   3 -13   0  151.48    9.30
  -3 -13   0  156.98    9.30
   3 -13   0  146.09   10.40
  -3  13   0  161.58   10.30
  -3  13   0  146.59    9.30
   3  13   0  158.28    9.40
   3 -13   1   89.29    6.80
   3 -13   1   91.09    5.50
  -3  13   1   90.19    5.50
  -3  13   1   75.49    6.10
   3  13  -1   95.09    5.60
  -3 -13  -1   88.89    5.50
   3  13  -1  103.99    6.80
  -3  13   1   85.79    5.50
  -3 -13   1   80.29    6.30
   3  13   1   79.79    5.40
   3  13   1   93.49    5.50
  -3  13  -1   85.29    5.60
  -3  13  -1   93.19    6.60
  -3 -13   1   84.19    5.50
  -3 -13  -2   50.99    3.30
   3  13  -2   52.29    4.20
   3  13  -2   51.99    3.30
  -3  13   2   50.79    3.30
  -3  13   2   50.99    3.20
   3 -13   2   51.39    3.20
  -3  13  -2   46.60    3.30
  -3  13  -2   50.49    3.20
   3  13   2   48.20    3.20
  -3  13  -2   53.49    3.20
  -3 -13   2   38.90    4.40
   3 -13  -2   44.80    3.20
  -3 -13   2   52.59    3.30
   3  13   2   50.69    3.20
  -3  13  -2   50.89    4.60
   3 -13   3   47.10    3.20
  -3 -13  -3   47.90    3.10
  -3  13   3   47.80    3.20
  -3 -13  -3   48.80    3.30
  -3  13   3   48.10    3.20
   3  13  -3   47.00    4.50
   3  13  -3   51.79    3.30
  -3  13  -3   49.00    3.20
   3  13   3   51.39    3.20
   3 -13  -3   46.50    3.20
  -3  13  -3   44.00    4.70
  -3 -13   3   50.69    3.30
  -3  13  -3   48.20    3.20
  -3  13  -3   50.89    3.20
  -3 -13  -4    0.90    0.40
  -3  13   4    0.60    0.40
  -3 -13  -4    0.70    0.30
   3 -13   4    1.70    0.50
   3  13  -4    0.60    0.40
  -3  13   4    0.80    0.40
  -3  13  -4    1.20    0.40
  -3 -13   4    1.00    0.40
   3 -13  -4    1.40    0.40
   3  13   4    0.90    0.40
  -3  13  -4    0.60    0.40
  -3 -13  -5  120.49    7.90
  -3  13   5  130.09    8.10
  -3  13   5  131.89    8.00
   3  13  -5  128.69    8.10
   3 -13  -5  128.29    8.10
  -3  13  -5  128.79    8.00
  -3  13  -5  125.99    8.00
   3  13   5  135.19    8.00
  -3 -13   5  127.19    8.10
  -3 -13   5  127.59    8.10
  -3 -13  -6    1.30    0.40
  -3  13   6    2.00    0.60
   3  13  -6    1.90    0.60
  -3 -13  -6    1.30    0.50
  -3  13  -6    1.90    0.50
  -3 -13   6    2.00    0.50
   3  13   6    2.20    0.50
   3  13   6    1.80    0.50
   3 -13  -6    1.20    0.50
  -3 -13  -7   56.09    3.60
  -3  13   7   48.10    3.50
   3  13   7   55.29    3.60
   3  13   7   55.99    3.50
   3 -13  -7   52.39    3.60
  -4  13   0    0.00    0.60
  -4  13   0    1.30    0.40
  -4 -13   0   -0.20    0.30
   4 -13   0   -0.50    0.70
  -4 -13   0   -0.30    0.30
   4  13   0    0.50    0.30
  -4  13   0    0.60    0.30
  -4  13   1  401.56   23.60
   4 -13   1  402.36   23.60
   4  13  -1  419.16   23.70
   4 -13   1  400.26   25.20
  -4 -13  -1  410.46   23.70
  -4  13   1  358.56   24.90
  -4  13   1  379.36   23.70
  -4 -13  -1  368.56   23.60
  -4  13   1  365.16   24.60
   4  13   1  410.06   23.70
  -4  13  -1  386.66   23.60
  -4 -13   1  383.16   23.70
  -4 -13   1  424.96   23.70
   4  13   1  365.26   23.60
  -4  13  -1  406.16   23.70
  -4  13  -1  400.06   25.00
  -4  13   2    2.00    0.40
   4  13  -2    1.90    1.00
  -4 -13  -2    1.50    0.30
  -4  13   2    2.30    0.50
   4  13  -2    1.70    0.40
  -4 -13  -2    1.70    0.40
   4 -13   2    1.40    0.30
  -4  13  -2    2.00    1.10
   4  13   2    2.70    0.40
  -4  13  -2    1.70    0.40
  -4  13  -2    1.30    0.40
  -4  13  -2    1.80    0.40
   4  13   2    1.50    0.30
  -4 -13   2    3.20    0.50
  -4  13   3    3.80    0.60
  -4 -13  -3    4.80    0.50
  -4  13   3    4.50    0.60
  -4 -13  -3    3.40    0.60
   4  13  -3    4.30    1.60
   4 -13   3    3.70    0.50
  -4  13  -3    3.40    0.50
  -4  13  -3    4.50    0.60
  -4  13  -3    2.90    0.50
   4  13   3    4.90    0.60
   4 -13  -3    3.20    0.50
  -4  13  -3    2.90    1.50
  -4 -13   3    3.70    0.60
  -4 -13  -4   30.10    2.30
  -4  13   4   31.10    2.30
   4  13  -4   26.20    2.30
   4 -13   4   33.20    2.30
  -4 -13  -4   32.30    2.20
  -4  13   4   31.00    2.20
   4 -13  -4   30.80    2.30
  -4 -13   4   33.40    2.30
   4  13   4   33.00    2.30
  -4 -13   4   33.40    2.40
  -4  13  -4   35.20    2.30
  -4  13  -4   32.80    2.30
   4  13  -5   78.99    5.10
  -4  13   5   78.79    5.00
  -4 -13  -5   73.79    4.90
  -4 -13   5   78.59    5.10
  -4  13  -5   77.79    5.00
   4 -13  -5   73.19    5.00
  -4  13  -5   80.79    5.00
   4  13   5   77.99    5.00
  -4 -13   5   76.39    5.10
  -4 -13  -6   23.30    1.90
  -4  13   6   21.70    1.80
  -4 -13  -6   23.00    1.70
   4  13  -6   22.40    1.80
  -4  13  -6   23.40    1.80
  -4 -13   6   21.90    1.80
   4  13   6   23.00    1.70
   4 -13  -6   22.70    1.80
   4  13   6   22.70    1.80
  -4 -13  -7   52.79    3.40
   4  13   7   49.60    3.30
   4 -13  -7   50.59    3.30
  -4  13  -7   44.10    3.20
   4  13   7   52.89    3.30
  -5  13   0   24.80    1.80
  -5  13   0   29.20    1.90
   5  13   0   29.00    1.90
  -5 -13   0   28.90    1.90
  -5 -13   0   24.50    1.90
  -5 -13   0   31.00    2.00
  -5  13   0   25.00    2.80
  -5 -13  -1  686.43   42.30
  -5 -13  -1  753.62   42.50
   5 -13   1  751.62   42.30
  -5  13   1  648.54   42.30
   5  13  -1  730.83   42.40
  -5  13   1  630.84   43.60
  -5  13   1  736.13   42.30
  -5  13  -1  714.03   42.30
   5  13   1  721.83   42.30
  -5  13  -1  673.73   43.70
  -5 -13   1  738.03   42.40
  -5 -13   1  702.43   42.40
   5  13   1  654.93   42.30
  -5  13  -1  739.13   42.40
  -5  13   2   19.20    1.60
   5  13  -2   22.40    1.70
  -5 -13  -2   21.60    1.50
  -5  13   2   22.30    1.60
   5 -13   2   21.40    1.60
  -5 -13  -2   22.10    1.70
  -5  13  -2   21.70    1.60
   5  13   2   21.10    1.50
  -5 -13   2   22.70    1.70
  -5  13  -2   23.80    1.60
  -5 -13   2   21.70    1.60
  -5  13  -2   21.40    1.60
  -5  13  -2   19.30    2.90
   5  13   2   20.90    1.60
   5  13  -3    3.00    1.60
  -5  13   3    3.30    0.60
  -5 -13  -3    3.10    0.50
  -5  13   3    3.50    0.60
  -5 -13  -3    2.70    0.60
   5  13  -3    3.50    0.60
   5 -13   3    3.40    0.50
   5  13   3    3.00    0.50
   5 -13  -3    3.10    0.50
  -5 -13   3    4.30    0.70
  -5  13  -3    3.50    0.60
  -5  13  -3    3.10    0.60
  -5  13  -3    2.70    0.50
  -5 -13   3    3.00    0.60
   5  13  -4    3.30    0.70
  -5  13   4    4.60    0.70
   5 -13   4    4.60    0.70
  -5 -13  -4    3.60    0.70
  -5  13   4    3.60    0.70
  -5 -13  -4    4.30    0.60
   5  13   4    3.90    0.60
  -5  13  -4    4.50    0.70
   5 -13  -4    4.10    0.60
  -5 -13   4    4.00    0.70
  -5  13  -4    4.90    0.70
  -5 -13   4    4.60    0.80
  -5  13  -4    4.50    0.70
   5  13  -5   39.70    2.80
  -5 -13  -5   35.70    2.60
   5  13  -5   40.50    2.90
  -5 -13  -5   32.30    2.70
  -5  13   5   35.70    2.70
  -5  13  -5   40.90    2.70
   5 -13  -5   38.00    2.70
   5  13   5   42.20    2.70
  -5  13  -5   40.40    2.70
  -5 -13   5   37.60    2.80
  -5 -13   5   41.80    2.80
  -5 -13  -6   11.50    1.30
  -5 -13  -6   12.30    1.10
   5  13  -6   13.20    1.30
   5  13   6   13.00    1.10
  -5  13  -6   13.10    1.20
   5 -13  -6   11.90    1.20
  -5 -13   6   12.70    1.20
   5  13   6   12.80    1.20
  -5 -13  -7   26.30    2.00
   5  13   7   28.90    1.90
   5 -13  -7   28.20    2.00
  -5  13  -7   24.80    1.90
  -6 -13   0    0.10    0.30
  -6  13   0    0.20    0.20
   6  13   0    0.20    0.30
  -6  13   0    0.00    0.30
  -6 -13   0    1.30    0.40
  -6  13   0    0.80    0.80
   6 -13   1   46.80    2.90
  -6  13   1   41.50    2.80
   6  13  -1   44.40    3.00
  -6 -13  -1   45.40    2.90
  -6 -13  -1   45.80    3.00
  -6  13   1   42.20    2.90
  -6 -13   1   46.50    3.00
  -6  13  -1   37.50    4.10
  -6  13  -1   44.70    2.90
   6  13   1   39.00    2.80
  -6 -13   1   45.90    3.00
  -6  13  -1   48.10    3.00
   6  13   1   44.40    2.90
  -6 -13  -2   22.80    1.80
  -6  13   2   24.20    1.70
   6  13  -2   25.30    1.80
   6 -13   2   24.90    1.70
  -6  13   2   20.60    1.60
  -6 -13  -2   23.80    1.60
   6  13   2   23.70    1.60
  -6  13  -2   19.10    3.00
  -6 -13   2   25.90    1.80
  -6 -13   2   25.20    1.80
  -6  13  -2   24.50    1.80
  -6  13  -2   24.20    1.80
   6  13   2   23.50    1.70
  -6  13  -2   24.70    1.70
  -6  13   3  147.29    9.60
   6 -13   3  154.88    9.60
   6  13  -3  157.98    9.70
  -6 -13  -3  160.28    9.60
  -6 -13  -3  153.48    9.70
  -6 -13   3  167.58    9.80
  -6  13  -3  159.68    9.70
  -6  13  -3  161.78    9.70
  -6  13  -3  159.48    9.60
   6  13   3  150.68    9.60
  -6 -13   3  146.09    9.70
   6 -13   4   24.50    2.00
  -6 -13  -4   25.90    1.80
   6  13  -4   25.10    2.00
  -6 -13  -4   20.90    1.90
   6 -13  -4   23.20    1.80
   6  13   4   25.40    1.80
  -6 -13   4   25.20    2.00
  -6  13  -4   22.70    1.80
  -6 -13   4   26.10    2.00
  -6  13  -4   23.40    1.90
  -6  13  -4   27.50    1.90
   6  13  -5    4.90    0.80
  -6 -13  -5    4.90    0.60
   6  13  -5    5.80    0.80
  -6 -13  -5    5.40    0.80
  -6 -13   5    5.80    0.80
   6  13   5    4.70    0.70
  -6  13  -5    5.60    0.80
  -6 -13   5    6.60    1.00
   6 -13  -5    5.20    0.70
  -6 -13  -6   16.10    1.50
  -6 -13  -6   17.00    1.30
   6  13  -6   17.00    1.50
   6  13   6   17.00    1.40
   6 -13  -6   15.10    1.40
  -6 -13   6   16.90    1.40
   6  13   6   17.40    1.40
  -6  13  -6   16.80    1.40
  -6 -13  -7   23.00    1.90
   6  13   7   27.00    1.80
  -6 -13   7   29.20    1.90
  -6  13  -7   24.70    1.80
   6 -13  -7   24.10    1.80
   7  13   0   35.90    2.60
  -7 -13   0   41.70    2.70
  -7  13   0   34.30    3.80
  -7  13   0   41.80    2.60
  -7 -13   0   34.20    2.70
  -7  13   0   41.10    2.50
  -7 -13  -1  156.28    9.70
  -7  13   1  150.88    9.60
   7 -13   1  171.58    9.70
   7  13  -1  163.78    9.70
  -7 -13  -1  166.28    9.80
  -7  13   1  155.38    9.70
  -7  13  -1  145.99    9.70
   7  13   1  155.08    9.60
  -7 -13   1  170.48    9.80
  -7 -13   1  153.68    9.70
  -7  13  -1  128.29   11.00
  -7  13  -1  166.68    9.60
  -7  13   2   11.80    1.10
   7  13  -2   13.00    1.20
  -7  13   2   10.90    1.20
   7 -13   2   12.10    1.10
  -7 -13  -2   18.30    1.40
  -7  13  -2   14.50    1.10
   7  13   2   12.20    1.10
   7  13   2   13.30    1.10
  -7  13  -2   13.60    1.20
  -7 -13   2   13.90    1.30
  -7 -13   2   13.60    1.20
  -7  13  -2   13.70    1.20
   7 -13   3   43.40    2.80
  -7  13   3   36.80    2.70
  -7 -13  -3   40.90    2.90
  -7 -13  -3   42.00    2.70
   7  13  -3   41.50    2.90
  -7  13  -3   38.50    2.80
  -7  13  -3   40.80    2.90
  -7  13  -3   43.20    2.80
   7  13   3   40.60    2.70
  -7 -13   3   40.80    2.90
  -7 -13   3   37.60    2.90
  -7 -13  -4    4.70    0.60
   7  13  -4    5.00    0.80
  -7 -13  -4    6.70    0.90
  -7  13  -4    4.60    0.70
   7  13   4    4.60    0.70
  -7  13  -4    4.20    0.70
  -7 -13   4    6.00    0.90
  -7  13  -4    3.30    0.60
   7 -13  -4    4.10    0.60
  -7 -13   4    3.50    0.70
  -7 -13  -5   54.59    3.40
   7  13  -5   53.59    3.50
  -7 -13  -5   52.09    3.60
   7  13  -5   53.19    3.50
  -7 -13   5   54.99    3.50
  -7 -13   5   48.70    3.60
  -7  13  -5   41.20    3.40
   7 -13  -5   50.59    3.40
   7  13   5   50.89    3.40
   7  13  -6    6.30    1.00
   7  13  -6    6.10    0.80
  -7 -13  -6    5.60    0.70
  -7 -13  -6    5.80    0.90
  -7 -13   6    5.60    0.80
  -7  13  -6    5.10    0.70
   7  13   6    5.90    0.80
   7  13   6    6.00    0.70
   7 -13  -6    6.20    0.80
   7  13   7   28.60    2.00
  -7 -13   7   29.20    2.00
  -8  13   0   -0.20    1.60
  -8  13   0    0.80    0.30
   8  13   0    0.10    0.40
  -8 -13   0    0.20    0.30
  -8  13   0    0.30    0.40
  -8  13   1  239.28   14.80
   8  13  -1  236.78   14.90
  -8  13   1  226.28   14.90
  -8 -13  -1  249.08   15.00
   8 -13   1  259.77   14.90
  -8 -13   1  237.28   14.90
  -8  13  -1  243.58   14.90
  -8  13  -1  244.98   14.90
  -8  13  -1  255.07   14.90
  -8 -13   1  258.97   15.10
   8  13   1  235.58   15.10
  -8 -13  -2   28.40    2.20
  -8  13   2   26.30    2.00
   8 -13   2   29.30    2.10
   8  13  -2   29.90    2.20
  -8  13  -2   29.50    2.20
  -8  13  -2   29.30    2.20
  -8  13  -2   29.60    2.10
   8  13   2   28.20    2.00
  -8 -13   2   28.60    2.10
   8 -13   3    8.90    0.90
   8  13  -3    9.70    1.10
  -8 -13  -3    7.80    1.00
  -8  13   3    6.80    0.80
  -8 -13  -3    8.30    0.80
  -8  13  -3    5.40    0.80
  -8  13  -3    6.90    0.90
  -8 -13   3    7.50    1.00
  -8 -13   3    6.30    0.90
  -8  13  -3    8.70    1.00
  -8 -13  -4  127.19    7.90
  -8  13   4  123.19    7.70
   8  13  -4  128.49    7.80
  -8 -13  -4  125.29    7.70
  -8  13  -4  119.39    7.80
  -8 -13   4  123.89    7.90
  -8  13  -4  111.99    7.80
  -8 -13   4  131.69    8.00
  -8 -13  -5   21.60    1.60
   8  13  -5   20.80    1.70
  -8 -13  -5   22.30    1.80
   8  13  -5   23.50    1.80
  -8 -13   5   21.30    1.90
  -8  13  -5   22.00    1.70
  -8 -13   5   21.40    1.70
  -8 -13   5   22.40    1.80
   8 -13  -5   18.10    1.60
  -8 -13  -6   39.60    3.00
   8  13  -6   40.50    2.90
   8  13  -6   41.30    2.90
  -8  13  -6   45.80    2.90
  -8 -13   6   41.60    2.90
   8  13   6   46.90    2.90
  -8 -13   6   45.20    2.90
   8 -13  -6   40.10    2.80
  -9  13   0  208.78   13.60
  -9  13   0  230.88   13.60
  -9 -13   0  234.68   13.80
  -9  13   0  217.88   13.70
  -9  13   1  106.79    7.10
  -9 -13  -1  114.49    7.10
  -9  13   1  120.59    7.10
   9  13  -1  112.89    7.10
  -9  13  -1  110.19    7.10
  -9 -13   1  104.49    7.10
  -9  13  -1  112.99    7.20
  -9  13  -1  120.59    7.10
   9 -13   2  112.29    7.10
  -9 -13  -2  106.69    7.20
  -9  13   2  110.19    7.10
   9  13  -2  117.79    7.20
  -9 -13   2  118.39    7.20
  -9  13  -2  114.79    7.20
  -9 -13   2  114.79    7.40
  -9  13  -2  114.19    7.10
  -9  13  -2  116.29    7.20
  -9  13   3   21.40    1.60
  -9 -13  -3   20.60    1.80
   9 -13   3   21.50    1.60
   9  13  -3   21.00    1.80
  -9 -13   3   23.70    1.90
  -9  13  -3   22.20    1.80
  -9  13  -3   15.80    1.60
  -9 -13   3   21.90    1.70
  -9  13  -3   21.80    1.80
   9  13  -4   94.69    5.80
  -9 -13  -4   89.79    5.60
  -9 -13  -4   93.59    5.80
  -9  13   4   90.59    5.60
  -9  13  -4   85.99    5.80
  -9 -13   4   98.09    5.80
  -9 -13   4   82.19    5.60
  -9  13  -4   78.19    5.70
  -9 -13   4   94.29    5.90
  -9  13  -4   87.39    5.70
   9  13  -5    0.60    0.40
  -9 -13  -5    0.90    0.50
  -9 -13  -5    0.00    0.30
   9  13  -5    0.50    0.50
   9  13   5    0.20    0.30
  -9 -13   5    0.10    0.40
  -9 -13   5    0.10    0.50
  -9 -13   5    0.20    0.40
  -9  13  -5    0.90    0.40
   9  13  -6    1.70    0.50
  -9 -13  -6    0.80    0.50
   9  13  -6    0.80    0.40
  -9  13  -6    1.10    0.40
   9  13   6    1.60    0.40
  -9 -13   6    1.30    0.40
  -9 -13   6    1.20    0.40
   9 -13  -6    0.50    0.50
 -10  13   0    0.20    0.50
 -10 -13   0   -0.10    0.40
 -10  13   0    0.50    0.30
 -10  13   0    0.10    0.40
 -10  13   1   10.20    1.00
 -10 -13  -1   10.10    1.10
 -10 -13   1   10.30    1.10
 -10 -13   1   10.00    1.20
 -10  13  -1   10.90    1.00
 -10  13  -1    9.10    1.10
 -10  13   2   33.90    2.40
  10  13  -2   36.00    2.60
  10 -13   2   34.60    2.50
 -10 -13   2   34.90    2.70
 -10 -13   2   34.90    2.50
 -10  13  -2   33.60    2.60
 -10  13  -2   37.30    2.60
  10 -13   3    0.50    0.40
 -10  13   3    0.60    0.40
 -10 -13  -3    1.00    0.50
  10  13  -3    0.50    0.50
 -10  13  -3    0.30    0.40
 -10 -13   3    0.40    0.40
 -10 -13   3    2.50    0.70
 -10  13  -3    0.50    0.40
 -10  13  -3    0.30    0.40
  10  13  -4    6.60    0.90
 -10  13   4    6.60    0.80
 -10 -13  -4    6.30    0.90
 -10  13  -4    6.40    0.90
 -10  13  -4    6.90    0.90
 -10 -13   4    7.10    1.00
  10  13   4    5.90    0.70
 -10 -13   4    8.80    1.00
 -10  13  -4    6.50    0.80
  10  13  -5   38.10    2.60
 -10 -13  -5   32.70    2.60
  10  13  -5   36.70    2.60
 -10 -13   5   40.40    2.60
 -10 -13   5   34.40    2.50
 -10 -13   5   32.90    2.70
 -10  13  -5   38.90    2.60
  10  13   5   37.90    2.50
  10  13  -6   21.10    1.80
  10  13   6   21.20    1.50
 -10 -13   6   19.00    1.70
 -10  13  -6   19.60    1.50
 -11  13   0   62.59    4.10
 -11 -13   0   64.69    4.30
  11 -13   1    0.10    0.40
 -11 -13  -1    1.40    0.50
 -11  13   1   -0.10    0.30
 -11 -13   1    0.20    0.50
 -11  13  -1    0.20    0.30
 -11 -13   1    0.50    0.40
 -11  13  -1    1.60    0.60
 -11  13  -1   -0.50    0.40
 -11  13   2   62.59    4.00
  11 -13   2   58.29    4.00
  11  13  -2   62.39    4.10
 -11 -13   2   58.99    4.20
 -11  13  -2   59.89    4.10
 -11 -13   2   61.99    4.10
 -11  13  -2   60.59    4.10
  11  13  -3  102.19    6.50
 -11  13   3  105.89    6.40
 -11 -13   3  105.19    6.70
 -11  13  -3   84.19    6.30
 -11  13  -3  105.29    6.50
 -11 -13   3  107.49    6.50
 -11  13  -3   99.89    6.50
 -11  13   4   13.90    1.20
  11  13  -4   12.80    1.30
 -11 -13   4   14.70    1.30
 -11  13  -4   14.60    1.30
 -11  13  -4   13.00    1.20
 -11 -13   4   11.60    1.40
  11  13   4   12.30    1.20
  11  13  -5   56.69    3.80
  11  13  -5   57.89    3.80
 -11 -13   5   64.39    3.80
  11  13   5   58.49    3.70
 -11  13  -5   59.39    3.80
 -11 -13   5   48.70    3.80
 -12 -13   0    0.50    0.50
 -12  13   0    0.50    0.30
  12 -13   1    4.70    0.70
 -12 -13  -1    5.90    0.90
 -12  13   1    5.80    0.80
 -12  13  -1    4.60    0.70
 -12  13  -1    5.30    0.80
 -12 -13   1    6.40    1.00
 -12 -13   1    5.20    0.70
  12 -13   2    9.70    1.10
 -12  13   2    9.90    1.00
 -12 -13   2   10.30    1.30
 -12  13  -2   10.20    1.20
 -12  13  -2   10.70    1.20
 -12  13  -2    9.50    1.00
 -12 -13   2   11.10    1.10
 -12  13   3   42.00    2.80
  12  13  -3   38.30    2.90
 -12  13  -3   39.10    2.90
 -12 -13   3   44.10    3.10
 -12  13  -3   41.40    2.90
 -12 -13   3   45.20    2.90
  12  13  -4    5.80    0.90
 -12  13   4    7.30    0.80
  12  13  -4    6.40    0.90
 -12  13  -4    7.20    0.80
 -12 -13   4    6.10    1.00
 -12 -13   4    8.00    0.90
 -12  13  -4    8.10    0.90
  12  13  -5   17.00    1.40
 -12  13  -5   14.80    1.30
 -13  13   0   50.39    3.50
 -13 -13   0   55.99    3.70
 -13 -13  -1    6.30    0.90
  13 -13   1    6.70    0.80
 -13  13   1    6.10    0.80
 -13  13  -1    5.60    0.80
 -13 -13   1    6.00    1.00
  13 -13   2   13.00    1.20
 -13  13   2   14.00    1.20
 -13  13  -2   13.70    1.20
 -13  13  -2   13.00    1.30
 -13 -13   2   15.10    1.50
 -13  13   3   13.90    1.10
 -13  13  -3   11.20    1.20
 -13 -13   3   13.10    1.40
 -13  13  -3   13.20    1.20
 -13  13   4    8.30    0.80
  13  13  -4    7.90    1.00
 -13  13  -4    9.40    0.90
 -13 -13   4    7.10    1.00
 -13  13  -4    7.10    0.90
 -14  13   0    0.00    0.30
 -14 -13   0    0.10    0.50
 -14 -13  -1   75.79    5.00
  14 -13   1   72.49    4.90
 -14  13   1   77.89    4.90
 -14 -13   1   80.69    5.20
 -14  13  -1   79.99    5.00
 -14  13   2    0.20    0.30
 -14 -13   2   -0.30    0.50
 -14  13  -2    0.40    0.40
 -14  13   3   11.70    1.00
 -14  13  -3   11.60    1.10
 -14 -13   3   12.50    1.30
  14  13  -4    2.90    0.60
 -14  13   4    3.10    0.50
  15 -13   0   42.60    3.00
 -15  13   0   45.80    3.00
 -15 -13   0   45.90    3.10
  15 -13   1    5.10    0.70
 -15  13   1    6.60    0.80
 -15 -13  -1    5.40    0.80
 -15 -13   1    7.00    0.90
 -15  13  -1    6.60    0.80
 -15  13   2   14.10    1.20
 -15 -13   2   13.20    1.40
 -15  13  -2   14.60    1.20
  15  13  -3    1.40    0.50
 -15  13   3    1.30    0.40
 -15  13  -3    0.90    0.40
 -16  13   0    0.10    0.30
  16 -13   0    0.00    0.30
 -16  13   1   18.90    1.40
  16 -13  -1   18.40    1.40
 -16  13  -1   18.30    1.40
 -16  13   2    7.20    0.70
 -16  13  -2    6.10    0.70
   0 -14   0 1245.48   78.29
   0  14   0 1305.57   78.29
   0  14   0 1379.76   78.39
   0  14   1    0.20    0.20
   0  14  -1   -0.10    0.30
   0 -14   1    0.40    0.80
   0  14  -1    0.20    0.60
   0 -14   1    0.40    0.30
   0  14  -1   -0.40    0.20
   0  14   2  630.34   37.30
   0  14  -2  643.84   37.40
   0  14   2  626.14   37.30
   0  14  -2  570.64   37.20
   0  14  -2  645.04   38.60
   0 -14  -2  604.74   37.30
   0 -14   2  625.94   37.30
   0  14   3    0.40    0.30
   0  14  -3    0.60    0.40
   0 -14  -3    0.10    0.30
   0  14  -3    0.20    1.10
   0 -14   3    0.10    0.30
   0  14  -3    0.50    0.30
   0  14  -3   -0.30    0.40
   0  14   3   -0.20    0.30
   0 -14   4  206.08   12.50
   0  14   4  217.58   12.40
   0 -14  -4  209.68   12.50
   0  14  -4  206.88   12.50
   0  14   4  182.78   12.40
   0  14  -4  194.38   12.40
   0 -14  -5    0.30    0.40
   0 -14   5   -0.10    0.40
   0  14  -5   -0.90    0.50
   0  14   5    0.30    0.40
   0  14   5   -0.10    0.40
   0  14   6   43.20    2.90
   0 -14  -6   40.10    3.00
   0  14   6   40.40    2.80
   0 -14   7   -0.20    0.40
   0  14   7   -0.40    0.40
   0  14   7    0.20    0.40
   0 -14  -7    0.50    0.40
   1  14   0   -0.10    0.30
   1 -14   0    0.20    0.20
  -1  14   0    0.30    0.20
  -1  14   0    0.20    0.30
  -1  14   0    0.30    0.50
  -1 -14   0    0.40    0.20
   1  14  -1   16.90    1.30
   1 -14   1   15.20    2.30
  -1  14   1   16.00    1.20
  -1  14   1   16.50    1.20
   1 -14   1   16.40    1.20
   1  14  -1   17.60    1.90
   1  14   1   14.90    1.20
  -1 -14   1   13.50    2.10
  -1  14  -1   15.80    1.20
   1  14   1   14.80    1.20
   1 -14  -1   15.90    1.20
  -1 -14   1   16.10    1.20
  -1  14  -1   16.10    1.30
  -1  14  -1   17.90    2.10
   1  14  -2  141.39    9.50
   1 -14   2  138.39    8.30
   1  14  -2  140.99    8.40
  -1  14   2  142.69    8.30
  -1 -14  -2  133.39    8.30
   1  14  -2  119.29    8.20
  -1  14   2  137.39    8.30
   1  14   2  136.69    8.30
   1  14   2  142.79    8.30
  -1  14  -2  127.19    8.30
   1 -14  -2  127.99    8.30
  -1  14  -2  131.99    8.30
  -1  14  -2  136.39    8.40
  -1  14  -2  133.29    9.50
   1  14  -3   41.40    4.20
  -1  14   3   41.10    2.80
   1  14  -3   38.60    2.80
   1  14  -3   43.70    2.90
  -1  14   3   43.00    2.80
  -1 -14  -3   42.30    2.90
   1 -14   3   40.20    2.80
  -1  14  -3   40.40    2.90
   1  14   3   44.30    2.80
  -1  14  -3   42.00    2.80
   1 -14  -3   40.40    2.80
   1  14   3   41.70    2.80
  -1  14  -3   41.30    2.80
  -1  14  -3   39.20    4.30
  -1 -14   3   43.00    2.80
  -1 -14  -4  363.36   21.10
   1 -14   4  356.76   21.00
  -1  14   4  363.16   21.00
  -1  14   4  323.17   21.00
   1  14  -4  338.27   21.10
   1  14   4  362.06   21.00
  -1  14  -4  334.37   21.00
   1 -14  -4  354.26   21.10
  -1 -14   4  348.97   21.10
  -1  14  -4  328.37   21.10
  -1  14  -4  343.97   21.00
  -1  14   5   -0.10    0.40
  -1 -14  -5    0.40    0.40
   1 -14   5    0.40    0.50
  -1  14   5    0.00    0.40
   1  14  -5    0.00    0.50
  -1 -14   5    0.30    0.40
   1  14   5    0.60    0.40
   1  14   5    0.50    0.30
   1 -14  -5    0.30    0.40
  -1  14  -5    0.00    0.40
  -1  14   6   71.39    4.70
  -1  14   6   69.89    4.60
  -1 -14  -6   75.89    4.70
   1 -14  -6   70.69    4.70
   1  14   6   76.09    4.70
  -1 -14   6   60.29    4.60
   1  14   6   72.29    4.60
  -1  14   7   -0.20    0.40
  -1 -14  -7    0.00    0.40
   1  14   7   -0.10    0.40
   1  14   7   -0.60    0.40
  -1 -14   7    0.10    0.40
   1 -14  -7    0.00    0.40
  -2 -14   0    0.40    0.20
  -2  14   0    1.50    0.30
  -2  14   0    0.50    0.60
   2 -14   0    0.40    0.30
   2 -14   0    0.40    0.80
  -2  14   0    0.10    0.30
  -2  14   1  132.69    8.20
  -2  14   1  132.69    8.20
   2  14  -1  142.59    8.30
   2 -14   1  138.59    8.20
  -2 -14  -1  130.59    8.20
   2 -14   1  128.79    9.50
  -2  14  -1  136.19    8.20
   2  14   1  129.79    8.10
   2 -14  -1  134.49    8.10
  -2 -14   1  109.89    9.00
  -2  14  -1  136.79    9.30
   2  14   1  141.39    8.20
  -2  14  -1  132.49    8.30
  -2 -14   1  134.29    8.20
  -2  14   2  389.36   23.60
  -2 -14  -2  380.16   23.60
  -2  14   2  392.46   23.60
   2 -14   2  383.26   23.50
   2  14  -2  385.46   24.70
   2  14  -2  425.86   23.70
  -2  14  -2  393.76   23.60
  -2  14  -2  380.06   25.00
  -2  14  -2  380.16   23.50
   2 -14  -2  355.36   23.50
   2  14   2  428.26   23.60
  -2 -14   2  395.86   23.60
   2  14   2  393.36   23.50
  -2  14  -2  389.06   23.60
   2  14  -3    5.50    0.80
  -2  14   3    5.80    0.70
   2  14  -3    6.50    1.80
   2 -14   3    5.30    0.60
  -2 -14  -3    4.40    0.70
  -2  14   3    4.00    0.60
  -2  14  -3    5.70    1.80
  -2 -14   3    4.90    0.60
   2 -14  -3    4.90    0.70
   2  14   3    4.80    0.60
  -2  14  -3    7.00    0.80
   2  14   3    3.90    0.60
  -2  14  -3    5.50    0.80
  -2  14  -3    5.30    0.70
  -2  14   4    1.70    0.50
   2  14  -4    0.90    0.50
  -2  14   4    1.60    0.50
  -2 -14  -4    1.10    0.30
   2 -14   4    1.60    0.50
  -2 -14  -4    2.10    0.50
   2  14   4    1.40    0.40
  -2 -14   4    1.50    0.40
   2 -14  -4    1.70    0.50
  -2  14  -4    1.50    0.40
  -2  14  -4    1.90    0.50
   2  14   4    0.90    0.40
  -2  14   5    1.20    0.40
  -2 -14  -5    0.70    0.30
  -2  14   5    1.00    0.50
   2 -14   5    1.00    0.50
  -2 -14  -5    0.40    0.40
   2  14  -5    1.10    0.50
  -2  14  -5    1.00    0.50
   2  14   5    0.80    0.40
  -2  14  -5    0.80    0.50
   2  14   5    0.10    0.30
  -2 -14   5    1.30    0.50
   2 -14  -5    0.70    0.40
  -2  14   6   12.80    1.20
  -2  14   6   14.70    1.40
   2  14  -6   10.80    1.20
  -2 -14  -6   15.60    1.40
  -2 -14   6   11.90    1.30
   2 -14  -6   14.20    1.30
   2  14   6   14.10    1.30
   2  14   6   13.30    1.20
  -2  14  -6   12.70    1.20
  -2 -14   6   11.40    1.30
  -2 -14  -7   12.40    1.10
  -2  14   7   11.00    1.20
   2 -14  -7   11.20    1.10
   2  14   7   10.50    1.00
   2  14   7   10.10    1.10
   3 -14   0    0.30    0.80
  -3  14   0    0.50    0.60
  -3  14   0    0.00    0.30
   3  14   0    0.60    0.30
  -3 -14   0    0.50    0.30
  -3 -14   0   -0.40    0.20
  -3 -14   0    0.40    0.40
  -3  14   0    0.30    0.20
   3 -14   0    0.00    0.20
   3 -14   1  183.38   10.90
  -3 -14  -1  174.18   10.90
   3  14  -1  189.38   11.00
  -3  14   1  174.88   10.90
  -3  14   1  176.98   10.90
  -3  14  -1  182.28   10.90
  -3 -14   1  181.38   10.90
  -3  14  -1  169.98   10.90
   3 -14  -1  187.88   10.90
  -3  14  -1  174.68   11.00
   3  14   1  181.68   10.90
   3  14   1  165.68   10.80
  -3  14  -1  179.38   12.10
   3 -14   2   91.09    5.60
   3  14  -2   94.69    5.80
  -3  14   2   90.49    5.60
  -3 -14  -2   90.29    5.70
   3  14  -2   90.39    6.70
  -3  14   2   88.69    5.70
  -3  14  -2   83.79    5.70
  -3  14  -2   88.59    5.60
   3  14   2   94.59    5.70
  -3  14  -2   84.29    7.00
  -3  14  -2   89.39    5.60
   3  14   2   91.39    5.60
  -3 -14   2   91.99    5.70
  -3 -14  -3   54.59    3.60
  -3 -14  -3   55.89    3.80
   3 -14   3   52.79    3.60
  -3  14   3   68.99    3.70
  -3  14   3   55.19    3.70
   3  14  -3   57.49    3.80
   3  14  -3   47.50    5.00
  -3  14  -3   66.19    5.90
   3  14   3   59.99    3.70
   3 -14  -3   54.69    3.70
  -3  14  -3   54.79    3.70
  -3 -14   3   57.69    3.70
  -3  14  -3   54.99    3.70
   3  14   3   54.69    3.60
  -3  14  -3   57.09    3.70
   3  14  -4   41.30    2.90
  -3  14   4   40.60    2.80
  -3 -14  -4   38.20    2.80
   3 -14   4   38.30    2.70
  -3 -14  -4   36.20    2.60
  -3  14   4   41.80    2.70
  -3  14  -4   42.30    2.80
  -3  14  -4   38.90    2.70
   3  14   4   43.40    2.80
   3 -14  -4   38.70    2.70
   3  14   4   39.60    2.70
  -3 -14   4   41.40    2.80
  -3  14   5   53.99    3.60
  -3 -14  -5   47.90    3.40
  -3 -14  -5   45.60    3.60
  -3  14   5   51.99    3.50
   3  14  -5   55.89    3.60
  -3  14  -5   55.49    3.50
  -3 -14   5   51.59    3.60
  -3 -14   5   52.59    3.60
  -3  14  -5   53.19    3.50
   3 -14  -5   53.29    3.50
   3  14   5   53.99    3.50
   3  14  -6    2.40    0.60
  -3  14   6    2.00    0.60
  -3 -14  -6    2.00    0.60
  -3 -14   6    2.30    0.60
  -3  14  -6    2.70    0.60
   3 -14  -6    2.10    0.60
  -3 -14   6    1.50    0.60
   3  14   6    2.10    0.50
   3  14   6    2.10    0.50
  -3 -14  -7    0.80    0.40
   3 -14  -7    0.30    0.40
   3  14   7    0.50    0.40
   3  14   7    0.70    0.40
  -4  14   0   17.50    1.50
  -4 -14   0   16.90    1.30
  -4  14   0   18.90    1.40
   4 -14   0   18.90    1.30
   4  14   0   16.10    1.40
  -4 -14   0   18.60    1.40
  -4  14   0   17.00    1.60
  -4  14   0   17.30    2.20
  -4 -14   0   18.50    1.40
   4  14   0   19.00    1.40
  -4 -14  -1  117.29    7.30
   4  14  -1  123.19    7.30
  -4  14   1  115.29    7.20
  -4  14   1   99.39    8.40
  -4  14   1  116.59    7.20
   4 -14   1  120.69    7.20
  -4  14  -1  110.69    8.40
  -4  14  -1  120.69    7.20
  -4 -14   1  114.99    7.20
   4  14   1  107.69    7.10
  -4  14  -1  116.39    7.10
   4  14   1  123.39    7.20
  -4 -14   1  119.19    7.20
  -4 -14  -2   32.20    2.40
   4 -14   2   31.90    2.30
   4  14  -2   36.20    2.40
  -4  14   2   34.90    2.30
  -4  14   2   30.90    2.30
  -4  14  -2   32.50    2.30
  -4 -14   2   38.70    2.40
  -4  14  -2   34.70    2.30
  -4  14  -2   35.90    2.40
   4  14   2   35.50    2.30
  -4  14  -2   28.80    3.60
   4  14   2   31.40    2.20
  -4  14   3   15.40    1.40
  -4 -14  -3   15.00    1.20
  -4  14   3   17.30    1.30
   4  14  -3   15.30    1.40
   4 -14   3   15.50    1.30
  -4 -14  -3   15.60    1.40
   4  14  -3   15.40    2.70
  -4  14  -3   17.60    1.30
   4 -14  -3   14.50    1.30
   4  14   3   15.20    1.30
  -4  14  -3   15.90    1.30
   4  14   3   15.30    1.20
  -4  14  -3   16.40    1.30
  -4 -14   3   16.70    1.40
   4 -14   4   10.40    1.00
  -4  14   4   10.00    1.10
  -4 -14  -4    6.40    1.00
  -4  14   4   11.10    1.00
  -4 -14  -4    7.70    0.80
   4  14  -4    9.30    1.10
   4  14   4   10.20    1.00
  -4 -14   4    9.10    1.10
  -4  14  -4   10.00    1.00
   4  14   4   10.20    0.90
  -4 -14   4   10.80    1.20
  -4  14  -4   10.40    1.00
   4 -14  -4    8.60    0.90
  -4 -14  -5    3.00    0.50
  -4 -14  -5    2.30    0.60
  -4  14   5    3.80    0.70
   4  14  -5    3.80    0.70
  -4  14   5    3.30    0.70
  -4  14  -5    3.20    0.60
   4  14   5    2.70    0.60
   4  14   5    2.50    0.50
  -4 -14   5    3.90    0.70
  -4 -14   5    3.80    0.70
   4 -14  -5    4.00    0.70
  -4  14  -5    3.90    0.70
  -4  14   6    5.80    0.90
  -4 -14  -6    7.80    1.00
   4  14  -6    6.90    0.90
   4  14   6    5.90    0.80
   4  14   6    7.00    0.90
  -4  14  -6    6.60    0.80
  -4 -14   6    6.50    0.80
   4 -14  -6    6.10    0.80
  -4 -14  -7    0.30    0.40
   4  14   7    0.60    0.40
   4  14   7    0.30    0.40
   4 -14  -7    0.30    0.30
   5 -14   0    0.50    0.30
  -5 -14   0   -0.10    0.30
  -5  14   0    0.20    0.30
  -5 -14   0    0.10    0.30
   5  14   0    0.30    0.30
  -5  14   0    0.20    0.70
  -5  14   0   -0.10    0.30
  -5  14   1  155.58    9.50
   5 -14   1  163.38    9.50
   5  14  -1  169.28    9.60
  -5 -14  -1  161.78    9.60
  -5  14   1  136.39    9.40
  -5 -14  -1  153.08    9.50
   5  14   1  138.89    9.40
  -5  14  -1  158.88    9.50
  -5 -14   1  155.28    9.50
  -5  14  -1  159.98    9.60
   5  14   1  159.48    9.50
  -5 -14   1  166.58    9.60
  -5  14  -1  138.99   10.80
  -5  14   2    7.20    0.80
   5  14  -2    6.70    0.90
   5 -14   2    5.90    0.70
  -5  14   2    5.00    0.70
  -5 -14  -2    6.30    0.80
  -5  14  -2    6.10    0.70
  -5  14  -2    6.00    0.70
   5  14   2    6.40    0.70
  -5 -14   2    6.80    0.80
  -5 -14   2    7.70    0.90
  -5  14  -2    6.20    0.80
   5  14   2    6.60    0.80
  -5  14  -2    6.50    1.90
  -5 -14  -3   15.00    1.20
  -5  14   3   11.50    1.20
  -5 -14  -3   11.90    1.00
   5  14  -3   10.20    1.20
   5 -14   3   14.20    1.10
  -5  14   3   12.60    1.10
   5 -14  -3   12.30    1.40
   5  14   3   13.30    1.10
  -5 -14   3   10.60    1.10
   5  14   3   13.00    1.10
  -5  14  -3   13.50    1.20
  -5 -14   3   11.30    1.20
  -5  14  -3   11.90    1.10
  -5  14  -3   12.10    1.10
  -5 -14  -4   49.50    3.20
   5  14  -4   42.40    3.30
  -5  14   4   48.80    3.30
  -5  14   4   47.50    3.30
   5 -14   4   53.09    3.30
  -5 -14  -4   39.10    3.30
  -5 -14   4   51.99    3.40
   5  14   4   46.40    3.20
  -5  14  -4   50.19    3.30
  -5 -14   4   51.79    3.40
   5 -14  -4   45.20    3.20
  -5  14  -4   51.09    3.30
   5  14   4   52.19    3.30
   5  14  -5   30.00    2.30
  -5  14   5   28.00    2.30
  -5 -14  -5   28.00    2.10
  -5 -14  -5   27.50    2.30
  -5  14  -5   31.20    2.20
  -5  14  -5   30.30    2.20
  -5 -14   5   31.40    2.30
   5  14   5   27.90    2.10
   5  14   5   32.00    2.20
  -5 -14   5   32.00    2.30
   5 -14  -5   30.70    2.20
   5  14  -6   24.00    1.90
  -5 -14  -6   22.30    1.90
  -5 -14   6   23.80    1.80
  -5  14  -6   22.90    1.80
   5 -14  -6   23.90    1.80
   5  14   6   23.00    1.80
   5  14   6   25.50    1.80
  -5 -14  -7    1.50    0.50
   5  14   7    1.50    0.40
   5 -14  -7    1.10    0.40
  -6  14   0  261.67   19.80
  -6 -14   0  286.27   18.60
  -6 -14   0  333.17   18.70
  -6  14   0  331.67   18.70
  -6  14   0  310.17   18.60
   6  14   0  325.27   18.70
  -6  14   1   98.29    6.10
   6 -14   1  102.09    6.00
  -6 -14  -1   97.49    6.10
  -6 -14  -1   99.19    6.10
  -6  14   1   90.19    5.90
   6  14  -1  102.59    6.10
  -6  14  -1  104.19    6.10
  -6 -14   1   99.09    6.10
  -6  14  -1   96.69    6.00
   6  14   1   84.99    5.90
  -6 -14   1  103.59    6.20
  -6  14  -1   77.89    7.30
   6  14   1   97.59    6.00
   6 -14   2  300.07   17.90
  -6 -14  -2  311.87   18.10
  -6  14   2  300.07   17.90
   6  14  -2  298.67   18.00
  -6  14   2  252.47   17.80
  -6 -14   2  312.07   18.00
  -6  14  -2  310.47   18.00
  -6  14  -2  317.97   18.00
   6  14   2  283.17   17.80
  -6 -14   2  258.87   18.00
  -6  14  -2  308.07   17.90
   6 -14   3   64.89    4.20
  -6 -14  -3   64.19    4.30
  -6  14   3   64.19    4.20
  -6 -14  -3   64.99    4.10
   6  14  -3   62.29    4.30
   6  14   3   64.49    4.10
   6  14   3   65.49    4.20
  -6  14  -3   60.59    4.20
  -6  14  -3   66.99    4.20
  -6 -14   3   60.19    4.20
  -6  14  -3   66.99    4.20
   6  14  -4   22.60    1.80
  -6 -14  -4   19.60    1.80
   6 -14   4   23.30    1.70
  -6 -14  -4   24.40    1.60
  -6 -14   4   20.80    1.80
  -6  14  -4   18.70    1.70
   6 -14  -4   23.40    1.70
  -6  14  -4   24.30    1.80
  -6 -14   4   24.40    1.90
  -6  14  -4   17.20    1.70
   6  14   4   25.30    1.80
   6  14  -5    9.20    1.10
  -6 -14  -5    9.60    1.20
   6  14  -5    8.30    1.00
  -6 -14  -5    9.70    0.90
  -6 -14   5   12.40    1.20
   6 -14  -5   10.20    1.00
   6  14   5   10.60    1.10
  -6 -14   5   10.30    1.20
   6  14   5    9.80    1.00
  -6  14  -5   10.80    1.10
  -6 -14  -6    7.60    1.00
   6  14  -6    8.90    0.90
   6  14   6    7.40    0.90
  -6 -14   6    7.80    0.90
  -6  14  -6    6.90    0.90
   6  14   6    6.20    0.80
   6 -14  -6    7.00    0.90
  -6 -14   7   -0.30    0.30
   6  14   7    0.00    0.30
  -7 -14   0   -0.20    0.30
  -7  14   0    0.30    0.30
  -7  14   0    0.60    1.00
   7  14   0    0.20    0.30
  -7  14   0    0.20    0.40
  -7 -14  -1    0.30    0.40
   7  14  -1    0.70    0.40
  -7  14   1    0.30    0.30
  -7  14   1    0.50    0.40
  -7 -14  -1    0.70    0.40
   7 -14   1    0.40    0.30
  -7  14  -1    0.30    0.30
  -7  14  -1    1.00    0.40
  -7 -14   1    1.20    0.40
  -7 -14   1    1.20    0.40
   7  14   1    1.40    0.50
  -7  14   2   77.09    5.00
  -7 -14  -2   82.79    5.20
   7 -14   2   82.79    5.00
   7  14  -2   80.99    5.10
  -7  14   2   71.89    4.90
   7  14   2   75.59    4.90
   7  14   2   75.99    5.00
  -7  14  -2   85.99    5.20
  -7  14  -2   83.39    5.00
  -7 -14   2   81.69    5.10
  -7  14  -2   84.49    5.10
  -7 -14   2   66.49    5.10
   7  14  -3  137.69    8.20
  -7 -14  -3  118.19    8.10
   7 -14   3  134.39    8.00
  -7 -14  -3  134.89    8.00
  -7  14  -3  130.29    8.10
   7  14   3  132.69    8.00
  -7 -14   3  127.89    8.10
  -7  14  -3  115.69    8.10
   7  14   3  129.69    8.10
  -7 -14  -4   76.79    5.10
  -7 -14  -4   85.99    4.90
   7  14  -4   83.59    5.10
  -7  14  -4   64.69    4.90
  -7  14  -4   64.89    5.00
  -7 -14   4   73.49    5.10
  -7 -14   4   85.49    5.20
  -7  14  -4   66.69    5.00
   7  14   4   86.29    5.00
   7  14   4   85.79    5.00
   7  14  -5   14.20    1.40
  -7 -14  -5   14.00    1.10
   7  14  -5   13.50    1.30
  -7 -14  -5   12.40    1.30
  -7 -14   5   15.30    1.30
   7  14   5   14.20    1.20
   7  14   5   13.60    1.30
   7 -14  -5   12.20    1.20
  -7 -14   5   14.80    1.50
  -7  14  -5   14.90    1.30
  -7 -14  -6   21.50    1.80
   7  14  -6   22.10    1.70
  -7 -14   6   22.60    1.70
   7 -14  -6   21.00    1.70
  -7  14  -6   22.10    1.70
  -7 -14   6   23.00    1.70
   7  14   6   20.40    1.70
   7  14   6   23.70    1.70
   8  14   0  173.18   11.00
  -8 -14   0  184.68   11.10
  -8  14   0  172.98   11.00
  -8  14   0  183.38   10.90
  -8  14   1   22.20    1.80
  -8 -14  -1   23.50    1.80
   8 -14   1   23.70    1.70
  -8  14   1   23.40    1.70
   8  14  -1   21.90    1.80
   8  14   1   21.70    1.80
  -8  14  -1   22.80    1.80
  -8 -14   1   23.90    1.80
  -8  14  -1   24.20    1.70
  -8  14  -1   22.50    1.80
  -8 -14   1   23.90    1.90
   8 -14   2  456.95   26.80
   8  14  -2  458.05   26.90
  -8  14   2  421.06   26.90
  -8  14   2  427.36   26.80
  -8  14  -2  472.45   26.90
   8  14   2  393.16   26.70
  -8 -14   2  446.66   27.10
  -8  14  -2  473.45   27.00
   8  14   2  420.16   26.90
  -8 -14   2  457.05   26.90
  -8  14  -2  468.85   27.00
   8  14  -3    9.50    1.10
   8 -14   3    8.80    0.90
  -8  14   3    8.10    0.80
  -8 -14  -3    6.30    0.90
  -8  14  -3    7.40    0.90
  -8  14  -3    8.40    1.00
  -8  14  -3    9.00    1.10
   8  14   3    8.70    1.00
   8  14   3    8.70    0.90
  -8 -14   3    9.20    1.10
  -8 -14   3    6.50    0.90
   8  14  -4   59.69    3.80
  -8 -14  -4   55.99    3.60
  -8 -14  -4   54.19    3.80
   8  14   4   57.89    3.70
  -8  14  -4   55.29    3.70
  -8  14  -4   54.09    3.80
   8  14   4   54.69    3.70
  -8 -14   4   59.19    3.90
  -8 -14   4   60.79    3.90
  -8  14  -4   56.39    3.80
  -8 -14   4   48.20    3.60
  -8 -14  -5    0.20    0.30
  -8 -14  -5   -0.20    0.40
   8  14  -5    0.60    0.50
   8  14  -5   -0.10    0.40
   8  14   5    0.00    0.80
  -8  14  -5   -0.20    0.40
  -8 -14   5    0.00    0.40
  -8 -14   5    0.30    0.50
   8 -14  -5   -0.10    0.50
  -8 -14   5    0.50    0.40
   8  14   5    0.00    0.30
  -8 -14  -6   20.20    1.70
   8  14  -6   18.90    1.60
   8  14   6   22.10    1.50
  -8 -14   6   20.70    1.60
  -8  14  -6   20.50    1.60
  -8 -14   6   20.80    1.60
   8 -14  -6   19.60    1.50
   9  14   0    0.60    0.50
  -9  14   0    0.70    0.40
  -9  14   0    0.10    0.30
  -9 -14   0    3.40    0.60
  -9  14   0    0.10    0.40
  -9  14   1   12.90    1.10
   9  14  -1   12.60    1.30
  -9  14   1   10.70    1.20
   9 -14   1   12.70    1.10
  -9 -14  -1   13.40    1.20
  -9  14  -1   11.90    1.20
  -9 -14   1   11.70    1.20
  -9  14  -1   11.80    1.10
  -9  14  -1   13.10    1.20
  -9 -14   1   11.30    1.20
   9  14  -2    0.30    0.40
  -9 -14  -2    0.10    0.40
  -9  14   2    0.20    0.30
   9 -14   2   -0.30    0.40
  -9 -14   2    0.00    0.40
  -9  14  -2    0.50    0.40
  -9  14  -2    0.70    0.50
  -9  14  -2    0.30    0.40
  -9 -14   2    0.00    0.40
  -9 -14  -3   90.79    6.00
  -9  14   3   92.09    5.80
   9 -14   3   93.59    5.90
   9  14  -3   96.99    6.00
   9  14   3   84.49    5.80
  -9  14  -3   95.09    6.00
  -9  14  -3   93.19    6.00
  -9 -14   3   94.49    6.00
  -9 -14   3   95.89    6.10
  -9  14   4    0.50    0.40
   9  14  -4    0.30    0.40
  -9 -14  -4    0.50    0.50
  -9  14  -4    0.50    0.40
  -9 -14   4    1.00    0.50
  -9  14  -4    0.40    0.40
  -9  14  -4    0.70    0.40
  -9 -14   4    0.20    0.40
   9  14   4    0.60    0.40
  -9 -14  -5    6.00    0.80
   9  14  -5    4.60    0.70
   9  14  -5    5.70    0.80
  -9 -14   5    5.90    0.90
  -9 -14   5    5.70    0.70
  -9 -14   5    6.20    0.80
   9  14   5    6.20    0.70
  -9  14  -5    5.70    0.80
   9  14  -6    2.70    0.50
  -9 -14  -6    2.10    0.50
  -9  14  -6    2.20    0.50
  -9 -14   6    3.00    0.50
   9  14   6    2.40    0.50
  -9 -14   6    2.60    0.50
 -10  14   0   47.10    3.30
 -10  14   0   49.70    3.20
 -10  14   0   43.90    3.30
 -10 -14   0   50.79    3.40
 -10  14   1   74.19    4.40
  10  14  -1   65.79    4.50
  10 -14   1   72.09    4.40
 -10 -14  -1   70.39    4.50
 -10  14  -1   67.09    4.50
 -10  14  -1   63.89    4.40
 -10 -14   1   64.39    4.40
 -10  14  -1   65.99    4.50
 -10 -14   1   64.39    4.60
  10 -14   2    1.20    0.50
 -10  14   2    2.40    0.50
  10  14  -2    2.20    0.60
 -10  14  -2    2.10    0.60
 -10  14  -2    2.30    0.50
 -10 -14   2    1.50    0.60
 -10 -14   2    2.20    0.50
 -10  14  -2    1.70    0.60
  10 -14   3    9.60    1.00
 -10  14   3   10.30    1.00
  10  14  -3    9.70    1.10
 -10 -14   3    9.10    1.20
 -10  14  -3    9.10    1.10
 -10 -14   3    9.40    1.10
 -10  14  -3    9.70    1.10
 -10  14  -3    8.40    1.00
 -10  14   4    5.10    0.60
 -10 -14  -4    5.50    0.80
  10  14  -4    5.60    0.80
 -10 -14   4    5.40    0.90
  10  14   4    4.80    0.70
 -10  14  -4    4.90    0.80
 -10 -14   4    4.60    0.80
 -10  14  -4    4.80    0.70
 -10  14  -4    5.30    0.80
  10  14  -5   24.50    2.00
  10  14  -5   27.30    2.10
 -10 -14   5   23.50    2.10
  10  14   5   26.20    1.90
 -10 -14   5   29.80    2.00
 -10  14  -5   30.20    2.00
 -11 -14   0   -0.10    0.40
 -11  14   0    0.10    0.30
 -11  14   0   -0.40    0.50
 -11  14   1    4.80    0.70
  11 -14   1    5.10    0.70
 -11 -14  -1    6.10    0.90
 -11  14  -1    4.60    0.80
 -11  14  -1    3.10    0.60
 -11 -14   1    4.70    0.70
 -11  14  -1    6.20    0.80
 -11 -14   1    4.90    0.90
 -11  14   2    8.60    0.90
  11  14  -2    5.90    1.00
  11 -14   2    6.50    0.80
 -11  14  -2    6.30    0.90
 -11  14  -2    6.00    0.90
 -11  14  -2    5.60    0.80
 -11 -14   2    5.50    0.80
 -11 -14   2    6.00    1.00
  11  14  -3    6.80    0.90
 -11  14   3    6.50    0.80
 -11 -14   3    6.80    1.00
 -11  14  -3    6.70    0.90
 -11  14  -3    5.50    0.80
 -11 -14   3    6.50    0.90
 -11  14  -3    6.50    0.90
 -11  14   4   32.40    2.30
  11  14  -4   32.20    2.50
 -11 -14   4   34.40    2.60
 -11 -14   4   38.50    2.50
 -11  14  -4   34.40    2.50
 -11  14  -4   34.30    2.40
  11  14  -5    2.40    0.60
  11  14  -5    2.90    0.60
  11  14   5    3.00    0.60
 -11 -14   5    3.50    0.50
 -11  14  -5    2.60    0.60
 -12  14   0    0.40    0.40
 -12 -14   0    0.50    0.50
  12 -14   1    3.20    0.60
 -12 -14  -1    3.40    0.70
 -12  14   1    2.60    0.60
 -12  14  -1    3.80    0.60
 -12  14  -1    3.60    0.70
 -12 -14   1    4.00    0.80
 -12  14   2   89.39    5.40
  12 -14   2   84.19    5.40
 -12 -14   2   88.69    5.50
 -12  14  -2   76.09    5.40
 -12  14  -2   78.19    5.40
 -12 -14   2   94.79    5.70
 -12  14  -2   81.19    5.50
 -12  14   3    0.00    0.30
  12  14  -3    0.50    0.50
 -12 -14   3    0.20    0.40
 -12  14  -3   -0.40    0.50
 -12 -14   3    0.40    0.50
 -12  14  -3   -0.40    0.40
 -12  14  -3    0.50    0.50
 -12  14   4   -0.10    0.30
  12  14  -4    0.50    0.50
  12  14  -4    0.20    0.50
 -12  14  -4    1.00    0.40
 -12  14  -4    0.80    0.50
 -12 -14   4    0.50    0.50
 -12 -14   4    0.40    0.40
  12  14  -5    4.50    0.70
 -12  14  -5    6.20    0.80
 -13 -14   0   -0.50    0.50
 -13  14   0   -0.30    0.30
  13 -14   1    3.00    0.60
 -13 -14  -1    2.90    0.70
 -13  14   1    2.80    0.60
 -13  14  -1    3.10    0.60
 -13 -14   1    4.50    0.80
 -13  14   2    4.70    0.70
  13 -14   2    3.40    0.60
 -13  14  -2    4.00    0.60
 -13  14  -2    2.30    0.70
 -13 -14   2    3.40    0.80
 -13  14   3   10.20    1.00
 -13 -14   3   10.90    1.20
 -13  14  -3    9.40    1.10
 -13  14  -3    9.80    1.00
  13  14  -4   22.00    1.70
 -13  14   4   19.50    1.50
 -13  14  -4   22.90    1.60
 -13  14  -4   17.50    1.60
 -14 -14   0    6.60    0.90
  14 -14   0    5.50    0.80
 -14  14   0    6.10    0.80
 -14 -14  -1    3.50    0.60
 -14  14   1    3.80    0.60
  14 -14   1    3.10    0.60
 -14  14  -1    3.30    0.60
 -14 -14   1    3.60    0.70
 -14  14   2   -0.10    0.30
 -14  14  -2    0.00    0.40
 -14 -14   2    0.10    0.50
 -14  14   3    4.00    0.60
 -14  14  -3    4.80    0.70
 -14 -14   3    4.70    0.80
 -15  14   0   -0.20    0.40
  15 -14   0   -0.10    0.30
 -15 -14   0   -0.10    0.40
 -15 -14  -1   14.60    1.50
 -15  14   1   18.50    1.40
  15 -14   1   15.30    1.30
 -15  14  -1   18.70    1.40
  15 -14  -1   15.60    1.30
 -15 -14   1   16.80    1.50
 -15  14   2   14.10    1.20
 -15  14  -2   14.70    1.20
 -15 -14   2   13.60    1.40
  15  14  -3    1.80    0.60
 -15  14   3    1.40    0.40
 -15  14  -3    1.70    0.40
  16 -14   0   25.00    1.80
 -16  14   0   27.10    1.90
 -16  14   1    1.10    0.40
 -16  14  -1    1.50    0.40
  16 -14  -1    1.20    0.40
   0  15   0    0.10    0.30
   0  15   0    0.10    0.20
   0 -15   0    0.00    0.20
   0  15   1   -0.10    0.30
   0  15  -1    0.30    0.70
   0 -15  -1   -0.10    0.20
   0  15  -1    0.40    0.30
   0 -15  -1    0.00    0.40
   0  15   1   -0.10    0.20
   0  15  -1    0.00    0.30
   0 -15   1    0.50    0.30
   0  15   2   39.80    2.50
   0 -15   2   36.90    2.40
   0 -15  -2   35.10    2.50
   0  15  -2   34.60    3.50
   0  15  -2   33.70    2.40
   0  15  -2   35.50    2.50
   0  15   2   38.40    2.50
   0  15  -3   -0.10    0.40
   0  15  -3    0.30    1.20
   0  15   3   -0.10    0.30
   0  15  -3    0.70    0.40
   0  15  -3    0.90    0.30
   0 -15  -3   -0.40    0.30
   0 -15   3   -0.10    0.30
   0  15   3    0.10    0.30
   0 -15   4  161.28    9.30
   0 -15  -4  151.28    9.30
   0  15   4  157.78    9.20
   0  15  -4  144.19    9.20
   0  15   4  129.49    9.20
   0  15  -4  152.28    9.30
   0  15   5    0.00    0.40
   0  15  -5   -1.10    0.40
   0 -15  -5    0.10    0.40
   0  15   5   -0.10    0.40
   0 -15   5    0.10    0.40
   0 -15  -6   46.40    3.20
   0  15   6   44.70    3.10
   0  15   6   43.80    3.10
   0  15   7   -1.10    0.40
   0  15   7    0.50    0.40
   0 -15  -7    0.00    0.40
  -1  15   0  527.65   31.70
   1  15   0  561.24   31.70
  -1  15   0  534.75   31.60
  -1 -15   0  493.85   31.50
   1 -15   0  527.75   31.50
   1  15   0  509.45   31.50
  -1  15   1   79.29    5.00
  -1  15   1   83.69    5.00
  -1 -15  -1   69.79    4.90
   1  15  -1   75.49    4.90
  -1 -15  -1   78.19    5.00
   1  15  -1   86.29    5.10
   1 -15   1   80.69    5.00
  -1  15  -1   80.39    5.00
  -1  15  -1   81.59    6.00
   1  15   1   82.59    5.00
   1  15   1   85.09    5.00
  -1  15  -1   82.89    5.10
   1 -15  -1   79.69    4.90
  -1 -15   1   62.99    5.90
  -1 -15   1   80.19    5.00
   1 -15   2  151.88    9.10
   1  15  -2  149.19   10.40
  -1  15   2  152.38    9.10
  -1  15   2  154.78    9.20
   1  15  -2  133.39    9.00
  -1 -15  -2  144.89    9.10
   1  15  -2  153.38    9.20
  -1  15  -2  141.79   10.40
  -1  15  -2  148.49    9.20
  -1  15  -2  141.29    9.10
   1  15   2  156.38    9.20
  -1  15  -2  148.99    9.10
   1 -15  -2  141.49    9.10
  -1 -15   2  150.38    9.10
   1  15   2  151.18    9.10
   1  15  -3    3.60    0.80
  -1  15   3    3.30    0.60
   1 -15   3    3.40    0.50
   1  15  -3    2.90    0.60
   1  15  -3    3.10    1.50
  -1  15   3    3.40    0.60
  -1 -15  -3    3.00    0.60
   1 -15  -3    4.10    0.60
  -1  15  -3    2.80    0.50
  -1  15  -3    2.80    0.60
   1  15   3    3.10    0.50
  -1 -15   3    3.10    0.50
  -1  15  -3    2.30    1.40
   1  15   3    3.20    0.50
  -1  15  -3    3.30    0.60
   1  15  -4   21.40    1.80
   1 -15   4   24.00    1.70
  -1 -15  -4   21.40    1.80
  -1  15   4   22.60    1.70
  -1  15   4   17.50    1.70
  -1  15  -4   20.90    1.80
  -1  15  -4   21.40    1.70
   1  15   4   23.00    1.70
  -1  15  -4   22.30    1.70
   1  15   4   20.80    1.60
  -1 -15   4   20.80    1.70
   1 -15  -4   21.40    1.70
   1  15  -5    9.60    1.10
   1 -15   5    8.90    1.00
  -1 -15  -5    6.10    0.90
  -1  15   5    9.20    1.00
  -1  15   5    7.60    1.00
  -1 -15   5    9.00    1.00
   1 -15  -5    8.50    1.00
  -1  15  -5    8.10    1.00
   1  15   5    7.50    1.00
   1  15   5    7.10    0.90
  -1 -15  -6    2.80    0.60
  -1  15   6    3.20    0.60
  -1  15   6    3.30    0.70
   1  15   6    2.90    0.60
   1 -15  -6    3.60    0.70
   1  15   6    3.30    0.60
  -1 -15   6    2.60    0.60
  -1 -15  -7   -0.40    0.40
  -1  15   7    0.90    0.60
   1  15   7    0.20    0.40
   1  15   7   -0.50    0.30
   1 -15  -7    0.30    0.40
   2 -15   0    0.30    0.30
   2  15   0   -0.30    0.20
  -2 -15   0    0.60    0.30
  -2 -15   0   -0.20    0.40
  -2  15   0    0.10    0.20
  -2  15   0    0.20    0.30
   2  15   0    0.20    0.30
   2  15  -1   85.99    5.80
  -2 -15  -1   92.29    6.00
  -2  15   1   92.49    5.90
   2 -15   1   96.49    5.90
  -2  15   1   96.99    6.00
   2  15  -1  101.19    6.00
   2  15   1   91.19    5.90
  -2  15  -1   94.29    6.00
  -2 -15   1   96.59    5.90
   2 -15  -1   94.19    5.90
   2  15   1  104.39    6.00
  -2  15  -1   91.19    6.90
  -2  15  -1   96.99    6.00
  -2  15  -1   94.09    5.90
  -2  15   2   35.50    2.30
  -2 -15  -2   34.70    2.40
   2  15  -2   35.00    2.50
  -2  15   2   34.60    2.40
   2 -15   2   34.00    2.30
   2  15  -2   36.20    4.20
  -2  15  -2   35.20    2.40
   2 -15  -2   31.60    2.30
  -2  15  -2   31.70    2.30
  -2  15  -2   35.40    2.50
  -2  15  -2   30.20    3.50
   2  15   2   35.20    2.30
  -2 -15   2   36.00    2.40
   2  15   2   36.40    2.40
  -2  15   3   96.79    5.80
   2  15  -3   81.99    7.20
   2  15  -3   97.99    5.90
  -2  15   3   92.79    5.80
   2 -15   3   90.79    5.80
  -2 -15  -3   91.79    5.90
  -2  15  -3   90.69    5.80
  -2 -15   3   96.39    5.80
   2  15   3   93.19    5.80
  -2  15  -3   89.89    5.80
  -2  15  -3   87.29    5.90
   2  15   3   93.29    5.80
   2 -15  -3   89.49    5.80
  -2  15   4   58.69    3.80
  -2  15   4   58.69    3.80
   2  15  -4   57.69    3.90
  -2 -15  -4   58.79    3.90
   2 -15   4   59.99    3.80
   2  15   4   49.10    3.70
  -2  15  -4   56.09    3.70
  -2 -15   4   59.29    3.80
  -2  15  -4   56.89    3.80
   2 -15  -4   54.79    3.80
   2  15  -5   33.80    2.60
   2 -15   5   38.30    2.60
  -2  15   5   37.70    2.60
  -2  15   5   38.20    2.50
  -2 -15  -5   32.90    2.60
   2 -15  -5   35.20    2.60
  -2  15  -5   35.60    2.50
  -2  15  -5   34.00    2.50
  -2 -15   5   36.80    2.60
   2  15   5   30.90    2.40
  -2  15   6    0.10    0.40
  -2  15   6    0.60    0.50
   2  15  -6    0.00    0.50
  -2 -15  -6    0.80    0.50
   2  15   6    0.60    0.40
   2 -15  -6    1.20    0.50
  -2 -15   6    0.90    0.50
   2  15   6    1.10    0.50
  -2 -15   6    1.00    0.50
  -2 -15  -7   12.10    1.10
   2 -15  -7   12.40    1.10
   2  15   7   10.20    1.10
   2  15   7   10.40    1.00
  -3 -15   0    7.70    0.80
   3 -15   0    7.00    0.70
  -3  15   0    5.50    1.30
  -3 -15   0    6.40    0.70
  -3  15   0    6.20    0.70
   3  15   0   10.50    0.90
   3  15   0    5.80    0.70
  -3  15   0    6.90    0.80
   3  15  -1    0.40    0.30
  -3  15   1    0.20    0.30
   3 -15   1    0.10    0.20
  -3 -15  -1    0.10    0.30
  -3  15   1    0.20    0.30
  -3  15  -1    0.30    0.30
  -3  15  -1    0.00    0.70
  -3  15  -1    0.00    0.40
   3  15   1   -0.10    0.30
   3 -15  -1    0.60    0.30
   3  15   1    0.40    0.30
  -3  15  -1    0.30    0.30
  -3 -15   1    0.10    0.30
  -3  15   2    5.40    0.60
   3  15  -2    4.80    0.70
  -3 -15  -2    3.80    0.60
  -3  15   2    5.10    0.70
   3 -15   2    4.30    0.60
   3  15   2    4.80    0.60
   3 -15  -2    4.80    0.60
  -3  15  -2    4.60    0.60
  -3  15  -2    4.30    1.50
  -3 -15   2    4.80    0.60
   3  15   2    4.60    0.70
  -3  15  -2    4.50    0.60
  -3  15  -2    4.90    0.70
  -3  15   3   52.29    3.40
  -3  15   3   49.80    3.30
   3  15  -3   47.90    3.40
   3  15  -3   44.30    5.20
  -3 -15  -3   49.99    3.40
   3 -15   3   50.19    3.30
   3 -15  -3   48.30    3.30
  -3  15  -3   50.99    3.40
  -3 -15   3   51.19    3.40
  -3  15  -3   52.19    3.30
   3  15   3   54.29    3.40
  -3  15  -3   51.59    3.30
   3  15   3   50.59    3.30
  -3  15   4    0.90    0.50
  -3 -15  -4    0.70    0.40
   3 -15   4    1.30    0.50
  -3  15   4    1.20    0.50
   3  15  -4    1.20    0.50
   3 -15  -4    1.10    0.50
   3  15   4    1.10    0.40
  -3 -15   4    1.40    0.50
   3  15   4    0.90    0.40
  -3  15  -4    1.50    0.50
  -3  15  -4    1.90    0.50
  -3 -15  -5    6.40    0.90
   3  15  -5    6.10    0.90
   3 -15   5    7.20    0.90
  -3  15   5    5.90    0.90
  -3  15   5    6.60    0.80
  -3  15  -5    5.50    0.80
   3  15   5    5.00    0.70
   3 -15  -5    5.50    0.80
  -3  15  -5    6.30    0.80
   3  15   5    7.60    0.90
  -3 -15   5    6.30    0.90
  -3 -15   5    6.40    0.90
   3  15  -6    1.10    0.50
  -3 -15  -6    1.30    0.50
  -3  15   6    0.60    0.60
  -3 -15   6    2.10    0.50
  -3  15  -6    1.00    0.50
   3 -15  -6    1.40    0.50
  -3 -15   6    1.00    0.50
   3  15   6    1.30    0.50
   3  15   6    1.20    0.50
  -3 -15  -7   22.50    1.70
   3  15   7   22.00    1.60
   3 -15  -7   21.30    1.70
  -4  15   0   -0.90    0.40
  -4 -15   0   -0.20    0.30
  -4 -15   0    0.40    0.30
   4 -15   0    0.10    0.30
   4  15   0   -0.40    0.30
  -4 -15   0    0.20    0.30
  -4  15   0    0.30    0.30
  -4  15   0   -0.50    0.30
  -4  15   0   -0.10    0.70
   4  15   0    0.00    0.30
   4 -15   1  289.27   16.70
   4  15  -1  291.37   16.90
  -4 -15  -1  275.97   16.80
  -4  15   1  278.07   16.70
  -4  15   1  265.47   16.80
   4 -15  -1  291.47   16.70
  -4  15  -1  257.47   16.70
   4  15   1  297.87   16.80
  -4 -15   1  268.07   16.80
  -4  15  -1  282.67   16.80
  -4  15  -1  236.28   17.90
   4  15   1  261.87   16.70
  -4 -15   1  297.37   16.80
  -4  15   2    4.70    0.60
   4 -15   2    4.90    0.60
  -4 -15  -2    4.00    0.70
  -4  15   2    4.30    0.70
   4  15  -2    6.60    0.80
   4  15   2    5.10    0.70
  -4  15  -2    3.60    1.50
  -4  15  -2    4.80    0.70
  -4  15  -2    5.40    0.70
  -4  15  -2    5.30    0.70
   4  15   2    4.50    0.60
  -4 -15   2    5.60    0.70
  -4  15   3  255.47   15.30
  -4 -15  -3  247.78   15.40
   4  15  -3  242.48   15.40
   4 -15   3  253.87   15.30
  -4  15   3  254.57   15.40
  -4  15  -3  248.58   15.30
   4  15   3  255.87   15.30
  -4 -15   3  260.97   15.40
  -4  15  -3  258.37   15.30
   4 -15  -3  227.28   15.30
  -4  15  -3  249.58   15.30
   4  15   3  259.37   15.30
  -4  15   4   69.09    4.50
   4 -15   4   72.19    4.40
   4  15  -4   58.49    4.50
  -4  15   4   68.39    4.40
  -4  15  -4   69.29    4.40
   4  15   4   68.49    4.40
  -4  15  -4   69.79    4.40
  -4 -15   4   69.09    4.50
   4 -15  -4   64.59    4.40
  -4 -15   4   64.19    4.50
   4  15  -5    0.80    0.50
  -4  15   5    0.50    0.50
  -4  15   5    0.00    0.50
  -4 -15  -5    0.50    0.50
  -4  15  -5    0.30    0.40
   4  15   5    0.00    0.30
  -4  15  -5    0.40    0.40
  -4 -15   5    0.70    0.50
   4 -15  -5    0.20    0.40
   4  15   5    0.20    0.40
  -4 -15   5    0.20    0.50
   4  15  -6    1.70    0.60
  -4 -15  -6    2.40    0.60
  -4  15   6    2.10    0.60
  -4 -15   6    1.30    0.60
   4  15   6    2.30    0.50
  -4  15  -6    2.60    0.60
  -4 -15   6    2.20    0.60
   4 -15  -6    2.50    0.50
   4  15   6    2.20    0.50
  -4 -15  -7    0.10    0.40
   4  15   7    0.20    0.30
   4 -15  -7    0.00    0.30
  -5 -15   0    6.60    0.80
  -5  15   0    6.90    0.70
   5 -15   0    8.00    0.80
  -5  15   0    5.50    1.50
  -5 -15   0    8.40    0.80
  -5  15   0    6.90    0.80
   5  15   0    7.20    0.80
   5  15  -1    0.00    0.40
   5 -15   1    0.30    0.30
  -5 -15  -1    0.20    0.30
  -5  15   1    0.40    0.30
  -5 -15   1    0.20    0.30
  -5  15  -1    1.50    0.40
  -5  15  -1    0.40    0.30
  -5  15  -1   -0.20    0.90
   5  15   1    0.10    0.30
  -5 -15   1    2.60    0.50
   5  15   1    0.40    0.30
   5  15  -2  118.29    7.30
   5 -15   2  117.59    7.10
  -5  15   2  104.29    7.20
  -5  15   2  113.89    7.10
  -5 -15  -2  115.09    7.20
  -5  15  -2  119.99    7.20
  -5 -15   2  119.89    7.20
  -5 -15   2  111.39    7.20
  -5  15  -2  119.89    7.20
   5  15   2  111.09    7.10
  -5  15  -2  109.59    7.10
   5  15   2  113.29    7.20
   5 -15   3   76.09    4.60
  -5  15   3   74.99    4.70
   5  15  -3   65.09    4.70
  -5  15   3   66.89    4.70
  -5 -15  -3   72.69    4.70
   5  15   3   77.09    4.70
  -5  15  -3   74.39    4.70
   5  15   3   73.89    4.60
  -5  15  -3   74.09    4.70
  -5 -15   3   59.29    4.70
  -5  15  -3   72.49    4.60
  -5 -15   3   75.89    4.70
  -5 -15  -4   48.70    3.70
  -5 -15  -4   55.79    3.60
   5  15  -4   50.89    3.80
  -5  15   4   57.99    3.70
   5 -15   4   58.79    3.70
  -5  15   4   56.99    3.80
   5  15   4   57.09    3.60
  -5  15  -4   60.19    3.70
  -5 -15   4   46.70    3.70
   5  15   4   58.99    3.70
   5 -15  -4   51.59    3.60
  -5  15  -4   52.99    3.70
  -5 -15   4   59.99    3.80
  -5 -15  -5  158.68   11.20
   5  15  -5  181.28   11.20
  -5  15   5  174.18   11.30
  -5  15  -5  193.18   11.20
   5 -15  -5  173.78   11.10
   5  15   5  165.38   11.10
   5  15   5  189.68   11.20
  -5 -15   5  183.78   11.30
  -5 -15   5  200.68   11.20
  -5  15  -5  186.08   11.10
   5  15  -6    8.10    0.90
  -5 -15  -6    7.10    0.90
  -5  15  -6    7.20    0.90
   5  15   6    6.80    0.80
  -5 -15   6    6.00    0.80
   5  15   6    7.30    0.80
   5 -15  -6    6.90    0.80
  -5 -15  -7    4.20    0.70
   5 -15  -7    5.10    0.90
   5  15   7    5.90    0.60
   6 -15   0    0.20    0.30
  -6 -15   0    0.10    0.30
  -6  15   0    0.20    0.30
   6  15   0   -0.10    0.30
  -6  15   0    0.20    0.30
  -6 -15   0    0.70    0.40
  -6  15   0   -0.20    0.90
  -6  15   1  104.59    6.50
   6  15  -1  107.19    6.60
  -6 -15  -1  103.79    6.60
  -6 -15  -1  106.19    6.60
  -6  15   1   95.09    6.40
   6 -15   1  111.59    6.50
   6  15   1  105.39    6.60
  -6  15  -1  104.69    6.50
  -6 -15   1  103.89    6.60
   6  15   1   90.59    6.40
  -6 -15   1  114.09    6.70
  -6  15  -1  107.69    6.60
  -6  15   2    9.60    1.00
   6 -15   2   10.50    1.00
   6  15  -2    8.60    1.10
  -6 -15  -2   11.10    1.20
  -6  15  -2   10.60    1.00
  -6  15  -2    9.90    1.10
   6  15   2   10.40    1.00
   6  15   2   10.40    0.90
  -6  15  -2   10.40    1.00
  -6 -15   2   10.40    1.20
  -6 -15   2   10.50    1.10
  -6 -15  -3   89.89    6.40
   6  15  -3   92.69    6.40
   6 -15   3  108.39    6.30
  -6  15   3  103.99    6.30
   6  15   3  102.69    6.30
  -6  15  -3  104.19    6.30
  -6 -15   3   94.59    6.40
  -6 -15   3   99.09    6.40
  -6  15  -3  102.79    6.40
  -6  15  -3   97.39    6.40
   6  15   3  102.89    6.30
   6 -15   4    2.20    0.50
  -6 -15  -4    0.40    0.40
   6  15  -4    0.80    0.50
  -6  15  -4    0.60    0.40
  -6 -15   4    0.70    0.50
  -6  15  -4    1.40    0.50
   6 -15  -4    0.80    0.40
  -6  15  -4    0.70    0.40
   6  15   4    0.60    0.40
   6  15   4    1.10    0.40
  -6 -15   4    1.20    0.50
   6  15  -5    2.00    0.60
  -6 -15  -5    1.80    0.60
   6  15   5    1.60    0.40
  -6  15  -5    2.50    0.60
   6 -15  -5    2.10    0.50
  -6 -15   5    2.50    0.60
  -6 -15   5    2.40    0.60
   6  15   5    1.90    0.50
   6  15  -6    9.40    1.00
  -6 -15  -6    9.40    1.10
   6  15   6    7.90    1.00
   6  15   6    9.60    1.00
   6 -15  -6    7.50    0.90
  -6 -15   6    9.30    1.00
  -6  15  -6    8.80    1.00
  -7  15   0  119.39    7.30
  -7  15   0  116.49    7.20
   7  15   0  110.99    7.30
  -7 -15   0  117.99    7.40
  -7  15   1   17.80    1.40
  -7 -15  -1   19.50    1.50
  -7  15   1   19.10    1.50
  -7 -15  -1   16.40    1.50
   7 -15   1   18.80    1.40
   7  15  -1   17.70    1.50
  -7 -15   1   18.20    1.50
  -7  15  -1   17.30    1.50
  -7  15  -1   16.80    1.40
   7  15   1   17.80    1.50
  -7 -15   1   15.60    1.40
   7 -15   2    6.60    0.80
  -7  15   2    6.50    0.70
  -7  15   2    6.70    0.80
  -7 -15  -2    5.30    0.80
   7  15  -2    5.80    0.80
  -7  15  -2    6.70    0.80
  -7  15  -2    5.70    0.80
   7  15   2    6.00    0.80
  -7  15  -2    5.50    0.80
  -7 -15   2    6.40    0.90
   7  15   2    5.60    0.70
  -7 -15   2    4.60    0.80
   7 -15   3  218.88   12.40
   7  15  -3  202.98   12.50
  -7 -15   3  210.28   12.60
  -7 -15   3  168.08   12.40
   7  15   3  204.98   12.40
  -7  15  -3  207.78   12.40
   7 -15   4   11.20    1.10
   7  15  -4    7.20    1.00
  -7 -15  -4    7.90    1.10
  -7 -15   4    7.50    1.00
  -7 -15   4    9.90    1.20
   7  15   4   11.10    1.00
  -7  15  -4    8.50    1.00
   7  15   4   10.80    1.10
  -7  15  -4    9.70    1.10
  -7  15  -4    8.00    1.00
  -7 -15  -5   69.39    4.70
   7  15  -5   61.79    4.50
   7  15  -5   69.99    4.60
   7 -15  -5   63.59    4.50
  -7  15  -5   75.59    4.60
   7  15   5   70.99    4.60
   7  15   5   72.29    4.50
  -7 -15   5   70.09    4.70
  -7 -15   5   76.09    4.60
  -7 -15  -6   -0.20    0.40
   7  15  -6    0.40    0.40
  -7  15  -6    0.30    0.40
  -7 -15   6    0.30    0.30
   7 -15  -6    0.70    0.40
  -7 -15   6    0.00    0.40
   7  15   6    0.40    0.30
   7  15   6    0.70    0.50
  -8  15   0    1.00    0.40
  -8 -15   0   -0.10    0.40
   8  15   0    0.40    0.40
  -8  15   0    0.10    0.30
  -8 -15  -1  275.67   16.40
  -8  15   1  264.27   16.40
  -8  15   1  266.77   16.30
   8 -15   1  279.17   16.40
   8  15  -1  263.37   16.40
  -8 -15   1  257.27   16.40
   8  15   1  263.47   16.40
  -8  15  -1  262.27   16.40
  -8  15  -1  272.47   16.30
  -8 -15   1  280.17   16.60
  -8  15  -1  272.07   16.50
  -8  15   2   33.00    2.20
  -8 -15  -2   24.90    2.20
   8 -15   2   32.20    2.20
   8  15  -2   32.10    2.30
  -8  15   2   29.70    2.10
  -8 -15   2   33.30    2.30
  -8  15  -2   32.10    2.30
   8  15   2   32.10    2.20
  -8 -15   2   23.80    2.30
  -8  15  -2   34.10    2.20
  -8  15  -2   24.00    2.20
   8 -15   3  430.86   25.50
   8  15  -3  435.96   25.60
  -8  15   3  407.16   25.60
   8  15   3  408.86   25.40
  -8 -15   3  415.06   25.70
   8  15   3  403.96   25.50
  -8 -15   3  447.96   25.60
  -8 -15  -4    8.90    1.10
   8  15  -4    9.20    1.10
  -8  15  -4    8.70    1.00
   8  15   4    9.20    0.90
  -8  15  -4    7.30    1.00
   8  15   4    8.20    1.00
  -8 -15   4   10.10    1.10
  -8 -15   4    9.20    1.10
  -8  15  -4    9.90    1.00
  -8 -15  -5    0.30    0.40
   8  15  -5   -0.20    0.40
   8  15  -5   -0.10    0.50
   8  15   5    0.80    0.40
  -8 -15   5    0.30    0.50
  -8 -15   5   -0.10    0.40
  -8  15  -5    0.20    0.40
  -8 -15   5    0.70    0.40
   8  15  -6    5.10    0.70
  -8 -15  -6    5.80    0.80
   8  15   6    6.20    0.70
  -8 -15   6    5.30    0.70
  -8  15  -6    6.40    0.70
  -8 -15   6    5.10    0.70
  -9  15   0    1.60    0.50
   9  15   0    1.50    0.60
  -9  15   0    2.20    0.50
  -9 -15   0    3.40    0.70
  -9  15   0    1.60    0.40
   9 -15   1    5.40    0.70
  -9  15   1    5.50    0.70
   9  15  -1    5.50    0.90
  -9 -15  -1    4.80    0.80
  -9  15   1    6.00    0.80
  -9 -15   1    5.30    0.80
  -9  15  -1    5.00    0.80
  -9 -15   1    4.80    0.80
  -9  15  -1    6.30    0.80
  -9  15  -1    4.90    0.80
   9  15  -2  238.08   15.00
  -9  15   2  239.38   14.80
   9 -15   2  246.38   14.90
  -9 -15   2  248.48   15.00
  -9  15  -2  246.88   15.00
  -9  15  -2  241.78   15.00
  -9 -15   2  231.28   15.10
  -9  15  -2  253.97   14.90
  -9  15   3    6.50    0.80
   9  15  -3    7.60    1.00
  -9 -15  -3    5.00    0.80
   9 -15   3    7.40    0.90
  -9  15  -3    6.20    0.90
  -9 -15   3    7.90    1.00
  -9  15  -3    6.80    0.90
  -9  15  -3    7.10    1.00
  -9 -15   3    7.80    1.10
   9  15   3    6.90    0.80
  -9 -15  -4    0.30    0.50
   9  15  -4    0.90    0.50
  -9 -15   4    0.60    0.50
  -9  15  -4    0.70    0.40
  -9  15  -4    0.60    0.50
  -9 -15   4    1.10    0.50
  -9  15  -4    1.00    0.40
   9  15   4    0.80    0.40
   9  15  -5   17.30    1.60
  -9 -15  -5   18.60    1.60
   9  15  -5   17.60    1.50
   9  15   5   20.60    1.50
  -9  15  -5   18.80    1.60
  -9 -15   5   16.00    1.70
  -9 -15   5   21.10    1.60
   9  15   6    6.80    0.70
  -9  15  -6    7.70    0.80
  -9 -15   6    6.80    0.80
 -10  15   0    0.20    0.50
 -10  15   0   -0.20    0.30
 -10 -15   0   -0.30    0.40
 -10  15   0    0.00    0.40
 -10  15   1   12.70    1.10
 -10 -15  -1   11.80    1.30
  10  15  -1   12.70    1.40
  10 -15   1   13.00    1.20
 -10  15  -1   12.00    1.10
 -10 -15   1   14.00    1.40
 -10 -15   1   12.70    1.20
 -10  15  -1   13.40    1.30
 -10  15  -1   13.00    1.30
  10  15  -2   25.20    2.00
  10 -15   2   25.70    1.90
 -10  15   2   27.80    1.90
 -10  15  -2   25.60    2.00
 -10  15  -2   22.60    1.90
 -10 -15   2   26.10    2.00
 -10 -15   2   22.20    2.10
 -10  15  -2   25.40    2.00
 -10  15   3    9.30    0.90
  10 -15   3    7.40    0.90
  10  15  -3    7.20    1.00
 -10 -15   3    8.40    1.00
 -10 -15   3    7.80    1.10
 -10  15  -3    7.40    1.00
 -10  15  -3    5.50    0.80
 -10  15  -3    8.20    1.00
  10  15  -4   44.50    3.20
 -10 -15   4   43.50    3.30
 -10  15  -4   44.70    3.20
 -10 -15   4   49.80    3.20
  10  15   4   43.00    3.00
 -10  15  -4   48.60    3.20
 -10  15  -4   48.00    3.10
  10  15  -5    0.10    0.40
  10  15  -5    0.30    0.40
 -10 -15   5    0.20    0.40
 -10 -15   5    0.70    0.60
  10  15   5    0.20    0.40
 -10  15  -5    0.90    0.40
 -11  15   0   26.70    1.90
 -11  15   0   23.30    2.00
 -11 -15   0   25.80    2.10
 -11  15   1   31.50    2.10
 -11 -15  -1   31.70    2.30
  11 -15   1   29.00    2.10
 -11 -15   1   32.40    2.40
 -11  15  -1   27.50    2.20
 -11 -15   1   26.90    2.10
 -11  15  -1   27.30    2.10
 -11  15  -1   28.60    2.20
  11 -15   2    5.80    0.70
 -11  15   2    3.20    0.60
  11  15  -2    3.20    0.80
 -11  15  -2    3.70    0.70
 -11 -15   2    3.50    0.70
 -11  15  -2    4.00    0.80
 -11 -15   2    6.00    1.00
 -11  15  -2    4.10    0.70
 -11  15   3   71.49    4.70
  11  15  -3   72.59    4.80
 -11  15  -3   71.49    4.80
 -11 -15   3   76.89    4.80
 -11 -15   3   75.19    5.00
 -11  15  -3   71.89    4.70
 -11  15  -3   73.79    4.80
 -11  15   4    6.40    0.80
  11  15  -4    6.40    0.90
 -11  15  -4    8.10    0.90
 -11 -15   4    8.20    0.90
 -11 -15   4    7.50    1.00
 -11  15  -4    8.70    1.00
  11  15  -5   23.40    1.80
 -11 -15   5   25.70    1.80
 -11  15  -5   24.60    1.80
  11  15   5   23.10    1.80
 -12 -15   0    0.20    0.40
  12 -15   0   -0.10    0.40
 -12  15   0    0.50    0.40
 -12  15   1  364.56   20.40
 -12 -15  -1  348.37   20.50
  12 -15   1  344.07   20.40
 -12 -15   1  364.76   20.70
 -12  15  -1  312.27   20.40
 -12  15  -1  324.47   20.40
 -12  15  -1  288.67   20.90
 -12  15   2    0.00    0.30
  12 -15   2    0.20    0.40
 -12  15  -2    0.90    0.50
 -12  15  -2    0.60    0.60
 -12 -15   2    0.00    0.50
 -12  15  -2    0.20    0.40
 -12 -15   2    0.00    0.40
 -12  15   3   54.99    3.50
  12  15  -3   49.10    3.60
 -12  15  -3   56.89    3.60
 -12  15  -3   51.89    3.60
 -12 -15   3   56.59    3.80
 -12  15  -3   52.49    3.60
 -12 -15   3   54.99    3.60
 -12  15   4    2.50    0.50
  12  15  -4    3.60    0.70
  12  15  -4    2.90    0.60
 -12 -15   4    4.10    0.70
 -12  15  -4    3.30    0.60
 -12  15  -4    3.40    0.60
 -12 -15   4    4.00    0.60
 -13  15   0  137.49    8.20
  13 -15   0  127.29    8.20
 -13 -15   0  131.59    8.40
 -13 -15  -1    1.30    0.50
  13 -15   1    0.80    0.40
 -13  15   1    1.10    0.40
 -13  15  -1    1.70    0.50
 -13 -15   1    1.10    0.60
  13 -15   2   20.10    1.70
 -13  15   2   22.80    1.70
 -13  15  -2   21.20    1.70
 -13  15  -2   22.20    1.70
 -13 -15   2   22.70    1.90
 -13  15   3   39.80    2.50
 -13  15  -3   32.60    2.60
 -13 -15   3   38.30    2.70
 -13  15  -3   38.10    2.60
 -13  15   4    8.90    0.90
  13  15  -4    9.90    1.00
 -14 -15   0    0.30    0.50
 -14  15   0    0.20    0.40
  14 -15   0    0.10    0.40
 -14 -15  -1   65.09    4.60
 -14  15   1   75.19    4.50
  14 -15   1   67.09    4.50
 -14  15  -1   73.09    4.50
 -14 -15   1   74.09    4.70
  14 -15  -1   68.59    4.50
 -14  15   2   12.40    1.10
 -14 -15   2   12.40    1.30
 -14  15  -2   11.80    1.10
 -14  15   3   26.80    1.90
 -14  15  -3   28.10    2.00
 -15  15   0    4.30    0.60
 -15 -15   0    5.30    0.70
  15 -15   0    3.80    0.60
  15 -15   1   13.30    1.30
 -15  15   1   16.40    1.30
 -15  15  -1   17.30    1.30
 -15 -15   1   16.30    1.50
  15 -15  -1   15.60    1.30
 -15  15   2    0.20    0.30
 -15  15  -2   -0.40    0.30
  15 -15  -2   -0.10    0.30
 -16  15   0    0.20    0.30
 -16  15   1    4.50    0.60
 -16  15  -1    4.00    0.60
   0 -16   0 1069.99   65.79
   0  16   0 1135.09   65.99
   0  16   0 1097.79   65.89
   0  16  -1   -0.10    0.30
   0  16  -1    0.40    0.40
   0  16   1    0.20    0.20
   0 -16  -1   -0.40    0.20
   0  16   1    0.10    0.30
   0 -16   1    0.60    0.30
   0  16  -2   59.09    5.20
   0  16   2   64.89    4.00
   0  16  -2   60.39    4.10
   0  16  -2   58.09    3.90
   0 -16   2   63.39    4.00
   0  16   2   65.29    4.00
   0 -16  -2   58.19    4.00
   0  16   3    0.40    0.30
   0  16  -3    0.20    0.40
   0 -16   3   -0.50    0.30
   0  16   3   -0.20    0.30
   0  16  -3    0.90    0.40
   0 -16  -3    0.00    0.40
   0  16  -3    0.00    0.40
   0 -16  -4    0.40    0.40
   0  16   4    0.20    0.30
   0  16  -4    0.60    0.50
   0  16   4    0.70    0.40
   0  16  -4    1.50    0.50
   0 -16   4    1.10    0.50
   0  16   5    1.20    0.50
   0  16  -5   -0.50    0.50
   0 -16  -5    0.00    0.40
   0  16   5    0.20    0.40
   0 -16   5    0.20    0.40
   0  16   6    6.70    0.90
   0 -16  -6    5.10    0.80
   0 -16   6    4.50    0.70
   0  16   6    5.70    0.70
   0  16   7   -0.40    0.40
   0 -16  -7   -0.20    0.30
   1  16   0    0.10    0.30
  -1  16   0    0.70    0.30
   1  16   0    0.20    0.20
  -1 -16   0    0.50    0.30
  -1  16   0    0.20    0.30
   1 -16   0    0.10    0.20
   1  16  -1   46.90    3.00
   1 -16   1   44.20    2.90
  -1  16   1   45.40    3.00
  -1 -16  -1   38.10    2.90
  -1  16   1   46.30    2.90
  -1 -16  -1   41.60    2.90
   1  16  -1   43.60    2.90
   1 -16  -1   42.90    2.80
  -1  16  -1   44.30    2.90
   1  16   1   42.90    2.90
   1  16   1   46.30    3.00
  -1 -16   1   44.40    2.90
  -1  16  -1   45.90    3.00
  -1 -16  -2  434.86   27.70
  -1  16   2  478.35   27.70
   1  16  -2  496.55   27.80
   1  16  -2  411.66   27.60
   1 -16   2  465.65   27.70
  -1  16   2  484.95   27.80
   1  16   2  475.35   27.70
  -1 -16   2  476.35   27.70
   1  16   2  489.85   27.80
  -1  16  -2  464.25   27.70
  -1  16  -2  468.65   27.80
  -1  16  -2  408.56   29.00
   1 -16  -2  419.66   27.70
  -1  16   3   31.20    2.40
  -1 -16  -3   35.20    2.40
   1  16  -3   36.30    2.50
   1 -16   3   33.20    2.30
  -1  16   3   31.70    2.30
  -1  16  -3   33.30    2.50
   1  16   3   34.20    2.30
  -1  16  -3   34.00    2.30
   1 -16  -3   32.40    2.40
  -1 -16   3   34.30    2.40
   1  16   3   29.50    2.30
  -1  16  -3   33.00    2.30
   1  16  -4   51.19    3.70
  -1 -16  -4   53.99    3.70
   1 -16   4   55.19    3.60
  -1  16   4   56.19    3.60
  -1  16   4   53.69    3.60
  -1 -16   4   55.19    3.60
  -1  16  -4   49.40    3.50
   1  16   4   57.89    3.70
  -1  16  -4   52.79    3.70
  -1  16  -4   52.79    3.60
   1 -16  -4   55.09    3.70
   1  16  -5    0.50    0.50
   1 -16   5    0.60    0.50
  -1  16   5    0.30    0.40
  -1  16   5    0.30    0.40
  -1 -16  -5    0.30    0.40
  -1 -16   5   -0.20    0.40
   1  16   5    0.00    0.40
   1 -16  -5    0.30    0.40
   1  16   5    0.30    0.40
  -1  16   6  126.29    8.20
  -1  16   6  140.79    8.30
  -1 -16  -6  129.89    8.30
  -1 -16   6  132.19    8.50
   1 -16  -6  134.89    8.30
   1  16   6  135.29    8.30
  -1 -16   6  120.69    8.20
   1  16   6  136.69    8.20
  -1 -16  -7    4.30    0.70
   1 -16  -7    5.10    0.70
   1  16   7    5.20    0.70
  -2 -16   0  482.25   31.10
  -2  16   0  533.35   31.10
   2  16   0  495.35   31.00
   2  16   0  562.24   31.20
  -2  16   0  510.85   31.20
  -2 -16   0  498.85   31.00
   2 -16   0  537.05   31.10
  -2  16   1   17.90    1.30
   2  16  -1   18.70    1.50
  -2 -16  -1   16.30    1.40
   2  16  -1   15.10    1.30
   2 -16   1   18.60    1.30
  -2  16   1   18.40    1.40
  -2  16  -1   16.50    1.30
  -2 -16   1   17.70    1.30
   2  16   1   15.90    1.30
  -2  16  -1   18.00    1.50
  -2  16  -1   14.70    2.20
   2  16   1   17.00    1.40
   2 -16  -1   18.20    1.30
  -2 -16  -2   90.69    5.80
  -2  16   2   90.49    5.80
  -2  16   2   94.09    5.80
   2 -16   2   94.19    5.80
   2  16  -2   95.09    5.90
  -2  16  -2   77.89    7.00
   2  16   2   93.79    5.70
  -2  16  -2   87.89    5.70
  -2  16  -2   90.39    5.90
  -2 -16   2   93.49    5.80
  -2  16  -2   94.49    5.80
   2  16   2   97.79    5.80
   2 -16   3   47.70    3.20
  -2  16   3   50.69    3.30
  -2  16   3   53.09    3.30
  -2 -16  -3   48.40    3.30
   2  16  -3   49.40    3.40
   2 -16  -3   45.30    3.30
  -2  16  -3   46.20    3.30
   2  16   3   47.00    3.30
  -2 -16   3   51.99    3.30
   2  16   3   51.39    3.30
  -2  16  -3   47.20    3.20
  -2  16  -3   48.60    3.30
  -2  16   4    9.20    1.10
  -2 -16  -4    7.60    1.00
   2 -16   4    9.90    1.00
   2  16  -4    8.30    1.00
  -2  16   4    8.70    1.00
  -2  16  -4    9.60    1.00
  -2  16  -4    8.90    1.00
   2  16   4    6.70    0.90
   2 -16  -4    9.00    1.00
   2  16   4    8.60    1.00
  -2 -16   4   10.50    1.00
  -2  16   5    8.30    1.00
   2  16  -5    9.10    1.10
   2 -16   5    8.60    1.00
  -2 -16  -5    7.70    1.00
  -2  16   5    9.80    1.10
  -2  16  -5    8.60    1.00
   2  16   5    8.00    0.90
  -2  16  -5    9.10    1.00
  -2 -16   5    9.80    1.10
   2 -16  -5    8.80    1.00
   2  16   5    9.20    1.00
   2  16  -6   -0.20    0.50
  -2  16   6    0.60    0.40
  -2 -16  -6    1.10    0.50
  -2  16   6    0.40    0.50
   2 -16  -6    0.40    0.40
   2  16   6    0.60    0.40
  -2 -16   6    0.40    0.50
  -2 -16   6    0.70    0.50
   2  16   6    0.60    0.40
  -2 -16  -7   11.20    1.00
   2 -16  -7   10.00    1.00
   2  16   7    8.10    0.90
  -3 -16   0    0.40    0.30
   3 -16   0    0.10    0.20
   3  16   0   -0.10    0.20
  -3 -16   0    0.30    0.30
  -3  16   0   -0.40    0.30
  -3 -16   0   -0.50    0.30
   3  16   0   -0.30    0.30
  -3  16   0   -0.30    0.40
  -3  16   1    9.50    1.00
   3  16  -1   10.80    1.10
  -3  16   1   11.30    0.90
   3 -16   1   10.60    0.90
  -3 -16  -1   10.30    1.00
  -3  16  -1   10.20    0.90
  -3  16  -1    9.30    1.10
  -3  16  -1    8.80    0.90
  -3  16  -1    9.10    1.90
   3 -16  -1   12.80    0.90
   3  16   1   10.60    1.00
  -3 -16   1    9.20    0.90
   3  16   1    9.00    0.90
  -3  16   2   57.99    3.80
   3  16  -2   57.59    3.90
   3 -16   2   57.99    3.70
  -3 -16  -2   57.49    3.80
  -3  16   2   57.29    3.70
  -3  16  -2   54.19    3.80
   3  16   2   60.89    3.70
   3 -16  -2   57.99    3.70
  -3  16  -2   57.49    3.70
  -3  16  -2   47.70    5.00
  -3 -16   2   59.29    3.80
  -3  16  -2   63.19    3.80
   3 -16   3    1.50    0.40
  -3 -16  -3    0.40    0.40
  -3  16   3    0.00    0.40
   3  16  -3    0.30    0.40
  -3  16   3    0.50    0.40
   3  16   3    0.10    0.30
  -3  16  -3    0.90    0.40
  -3  16  -3    0.40    0.30
  -3 -16   3    0.10    0.40
   3 -16  -3    0.50    0.40
  -3  16  -3    1.10    0.40
   3  16   3    0.30    0.40
  -3  16   4   95.49    6.00
   3  16  -4   93.99    6.00
  -3  16   4   89.39    5.80
   3 -16   4   94.79    5.90
   3 -16  -4   87.79    5.90
  -3  16  -4   90.29    5.90
  -3  16  -4   92.69    5.90
   3  16   4   89.59    5.90
  -3 -16   4   94.69    5.90
  -3 -16  -5    8.10    1.10
   3 -16   5    9.10    1.00
  -3  16   5    9.30    1.10
   3  16  -5    7.70    1.00
  -3  16   5    8.30    1.00
  -3 -16   5   10.10    1.10
   3 -16  -5    7.90    1.00
  -3  16  -5   10.40    1.00
   3  16   5    8.30    1.00
  -3  16  -5    9.20    1.00
   3  16   5    7.70    1.00
  -3 -16  -6   12.40    1.20
  -3  16   6   11.30    1.20
   3  16  -6   10.10    1.10
  -3 -16   6   12.00    1.20
  -3  16  -6   10.30    1.10
   3  16   6   12.90    1.20
  -3 -16   6   11.40    1.20
   3 -16  -6   12.00    1.20
   3  16   6   11.60    1.10
  -3 -16  -7   13.50    1.20
   3  16   7   13.60    1.10
   3 -16  -7   13.00    1.10
   4  16   0    0.80    0.40
  -4  16   0    2.10    0.60
  -4  16   0    5.60    0.60
   4 -16   0    2.10    0.40
  -4 -16   0    2.30    0.50
   4  16   0    5.60    0.70
  -4 -16   0    1.90    0.40
  -4  16   1   10.90    1.10
  -4  16   1   10.40    1.00
  -4 -16  -1   12.20    1.10
   4  16  -1   11.20    1.10
   4 -16   1   10.40    0.90
   4  16   1   11.70    1.10
  -4 -16   1   10.80    1.00
  -4 -16   1   12.00    1.00
   4 -16  -1   11.30    1.00
  -4  16  -1   10.80    1.00
  -4  16  -1    9.20    2.00
  -4  16  -1   11.50    1.00
   4  16   1    9.90    0.90
   4 -16   2   92.49    5.70
  -4  16   2   92.19    5.80
  -4  16   2   86.69    5.80
   4  16  -2   91.19    5.90
  -4 -16  -2   88.19    5.80
   4 -16  -2   93.49    5.70
  -4  16  -2   91.49    5.80
  -4  16  -2   91.69    5.80
   4  16   2   89.19    5.70
  -4  16  -2   87.59    5.70
   4  16   2   92.69    5.80
  -4 -16   2   95.29    5.80
  -4 -16   2   91.69    5.80
  -4 -16  -3    0.80    0.40
   4 -16   3    0.80    0.40
  -4  16   3    1.40    0.50
   4  16  -3    1.70    0.50
  -4  16   3    0.80    0.40
  -4 -16   3    0.70    0.40
   4  16   3    1.10    0.40
  -4  16  -3    1.40    0.40
   4  16   3    1.80    0.40
  -4  16  -3    1.40    0.50
  -4 -16   3    1.00    0.40
  -4  16  -3    0.80    0.40
  -4  16   4    0.70    0.40
   4 -16   4    0.70    0.50
  -4  16   4   -0.40    0.50
   4  16  -4    0.10    0.40
  -4 -16  -4    0.10    0.40
   4 -16  -4   -0.10    0.40
  -4  16  -4    1.00    0.40
  -4  16  -4    1.20    0.50
  -4 -16   4    0.50    0.40
   4  16   4    0.40    0.40
   4  16   4    0.40    0.40
  -4 -16   4    0.10    0.40
   4  16  -5    2.00    0.60
  -4  16   5    1.70    0.50
  -4  16   5    1.70    0.60
  -4 -16  -5    2.20    0.60
  -4 -16   5    2.20    0.60
   4  16   5    2.10    0.50
   4  16   5    1.50    0.50
  -4  16  -5    2.00    0.50
   4 -16  -5    1.50    0.50
  -4 -16   5    2.80    0.60
  -4  16  -5    2.20    0.50
  -4 -16  -6    8.30    1.00
   4  16  -6    6.70    0.90
  -4  16   6    6.50    0.90
   4 -16  -6    5.90    0.80
  -4 -16   6    6.50    0.90
  -4  16  -6    6.40    0.80
   4  16   6    7.40    0.80
   4  16   6    7.70    0.90
  -4 -16   6    6.60    0.90
  -4 -16  -7    1.20    0.40
   4  16   7    1.00    0.40
   5 -16   0   -0.30    0.30
   5  16   0   -0.30    0.30
  -5 -16   0   -0.10    0.30
  -5  16   0   -0.30    0.30
  -5 -16   0    0.50    0.30
  -5  16   0   -0.20    0.30
  -5  16   0    0.70    1.00
  -5  16   1   78.79    5.00
  -5 -16  -1   76.39    5.10
   5  16  -1   83.19    5.10
   5 -16   1   81.69    5.00
  -5  16  -1   78.29    5.00
   5  16   1   75.29    5.00
  -5 -16   1   76.89    5.00
  -5 -16   1   86.69    5.10
  -5  16  -1   76.89    4.90
   5 -16  -1   82.49    5.00
   5  16   1   68.89    4.90
   5 -16   2    2.00    0.40
  -5 -16  -2    1.60    0.50
  -5  16   2    1.80    0.50
  -5  16   2    1.60    0.60
   5  16  -2    1.40    0.50
   5 -16  -2    1.90    0.50
  -5 -16   2    1.90    0.50
  -5  16  -2    2.10    0.50
   5  16   2    1.80    0.50
  -5  16  -2    2.30    0.50
   5  16   2    1.50    0.40
  -5  16  -2    1.70    0.50
  -5 -16   2    2.20    0.50
   5  16  -3   24.20    2.10
  -5  16   3   26.20    2.10
  -5 -16  -3   24.40    2.00
  -5  16   3   28.10    2.00
   5 -16   3   29.70    2.00
  -5  16  -3   27.70    2.00
  -5  16  -3   27.40    2.00
  -5  16  -3   29.00    2.00
  -5 -16   3   23.70    2.00
   5  16   3   26.70    1.90
  -5 -16   3   21.50    2.00
   5  16   3   27.30    2.00
  -5  16   4   90.39    5.60
   5  16  -4   80.29    5.70
   5 -16   4   91.79    5.60
  -5 -16  -4   81.99    5.70
  -5  16   4   84.09    5.60
  -5  16  -4   90.99    5.60
   5  16   4   91.99    5.60
   5  16   4   91.79    5.60
   5 -16  -4   81.69    5.50
  -5  16  -4   92.19    5.70
  -5 -16   4   79.89    5.60
  -5 -16   4   89.89    5.70
   5  16  -5   17.20    1.60
  -5 -16  -5   17.60    1.60
  -5 -16   5   19.50    1.60
  -5 -16   5   18.50    1.60
  -5  16  -5   19.50    1.50
   5  16   5   14.10    1.40
   5  16   5   19.00    1.50
  -5  16  -5   17.90    1.50
   5 -16  -5   16.90    1.50
  -5 -16  -6    0.90    0.50
   5  16  -6    0.80    0.50
   5  16   6    1.00    0.50
   5  16   6    1.40    0.40
   5 -16  -6    0.60    0.40
  -5 -16   6    0.40    0.40
  -5 -16   6    0.80    0.60
  -5  16  -6    0.60    0.40
  -6 -16   0  151.88   10.50
   6 -16   0  176.48   10.30
   6  16   0  170.58   10.40
  -6 -16   0  172.88   10.30
  -6  16   0  163.68   10.30
  -6  16   0  163.38   10.20
   6 -16   1   17.70    1.30
  -6 -16  -1   13.90    1.40
   6  16  -1   16.80    1.40
  -6  16   1   16.50    1.30
  -6  16   1   15.60    1.30
  -6  16  -1   16.90    1.40
  -6 -16   1   17.20    1.40
   6  16   1   16.40    1.40
   6 -16  -1   18.80    1.30
  -6 -16   1   17.40    1.40
   6  16   1   13.70    1.20
  -6  16  -1   15.20    1.30
   6 -16   2  190.38   11.60
   6  16  -2  194.98   11.70
  -6 -16  -2  189.98   11.70
  -6  16   2  194.48   11.60
   6  16   2  191.58   11.60
  -6 -16   2  193.78   11.70
  -6  16  -2  175.58   11.70
   6  16   2  178.38   11.50
  -6  16  -2  187.68   11.60
  -6  16  -2  191.88   11.70
  -6 -16  -3   10.60    1.30
  -6  16   3   17.80    1.40
   6 -16   3   16.00    1.30
   6  16  -3   11.80    1.30
  -6 -16   3   13.80    1.40
  -6 -16   3   12.90    1.30
  -6  16  -3   15.90    1.30
  -6  16  -3   12.90    1.30
   6  16   3   16.30    1.30
  -6  16  -3   14.60    1.30
   6 -16   4   64.49    4.10
  -6 -16  -4   54.39    4.20
   6  16  -4   61.09    4.20
  -6  16  -4   61.89    4.20
  -6 -16   4   62.09    4.20
   6  16   4   64.99    4.20
  -6 -16   4   65.89    4.30
   6  16   4   68.39    4.10
  -6  16  -4   62.49    4.20
  -6 -16  -5   13.70    1.40
   6  16  -5   12.80    1.30
  -6 -16   5   14.90    1.30
   6 -16  -5   12.30    1.20
  -6 -16   5   13.00    1.40
   6  16   5   15.90    1.30
  -6  16  -5   13.70    1.30
   6  16   5   15.50    1.30
   6  16  -6    8.90    1.00
  -6 -16  -6    9.70    1.10
   6  16   6   10.10    1.00
  -6  16  -6   10.60    1.00
   6 -16  -6    9.30    1.00
  -6 -16   6    9.90    1.00
   6  16   6    9.00    1.00
   7  16   0    0.60    0.40
   7 -16   0   -0.10    0.30
  -7  16   0    0.80    0.40
  -7 -16   0   -0.20    0.40
  -7  16   0   -0.20    0.40
  -7 -16  -1   60.19    4.20
   7 -16   1   66.49    4.10
  -7  16   1   63.19    4.20
   7  16  -1   59.89    4.20
  -7  16   1   62.09    4.00
   7  16   1   65.99    4.20
  -7  16  -1   65.79    4.20
  -7  16  -1   65.09    4.10
  -7 -16   1   57.19    4.10
  -7 -16   1   66.99    4.30
   7 -16   2   65.49    4.00
   7  16  -2   64.29    4.10
  -7 -16  -2   54.39    4.10
  -7  16   2   63.49    4.00
  -7  16  -2   54.29    4.10
  -7  16  -2   63.39    4.00
   7  16   2   60.99    4.00
   7  16   2   61.79    4.00
  -7  16  -2   59.49    4.10
  -7 -16   2   62.89    4.10
  -7 -16  -3   50.49    3.50
   7 -16   3   50.69    3.30
  -7  16   3   51.29    3.40
   7  16  -3   48.80    3.40
   7  16   3   50.49    3.30
  -7 -16   3   50.09    3.50
   7  16   3   52.19    3.40
  -7  16  -3   49.20    3.40
  -7  16  -3   53.09    3.40
  -7  16  -3   39.50    3.40
  -7 -16   3   51.29    3.40
  -7 -16  -4   31.10    2.50
   7  16  -4   33.40    2.50
   7 -16   4   36.70    2.40
  -7  16  -4   31.70    2.40
   7  16   4   37.60    2.40
  -7  16  -4   35.90    2.50
  -7  16  -4   33.10    2.50
  -7 -16   4   29.40    2.40
  -7 -16   4   37.20    2.60
   7  16   4   32.40    2.40
   7  16  -5    4.90    0.70
  -7 -16  -5    4.20    0.70
  -7 -16   5    4.40    0.80
  -7  16  -5    3.70    0.70
   7  16   5    4.40    0.70
   7  16   5    3.90    0.60
  -7 -16   5    4.20    0.70
   7  16  -6   51.89    3.60
  -7 -16  -6   52.79    3.70
  -7 -16   6   57.79    3.60
  -7  16  -6   54.99    3.60
  -7 -16   6   53.29    3.50
   7  16   6   58.69    3.60
  -8  16   0   83.89    5.50
  -8 -16   0   89.79    5.60
  -8  16   0   89.39    5.40
   8  16   0   85.29    5.50
   8 -16   0   78.09    5.40
   8  16  -1   57.79    3.80
  -8  16   1   55.09    3.60
   8 -16   1   53.19    3.70
  -8  16   1   54.89    3.70
  -8 -16  -1   53.99    3.80
  -8  16  -1   59.19    3.80
  -8  16  -1   56.39    3.80
  -8  16  -1   56.89    3.70
  -8 -16   1   51.99    3.70
   8  16   1   54.69    3.80
  -8 -16   1   60.19    3.90
  -8  16   2   18.30    1.50
  -8  16   2   16.10    1.40
   8 -16   2   18.60    1.40
   8  16  -2   19.80    1.60
  -8 -16   2   16.40    1.60
   8  16   2   17.30    1.60
  -8  16  -2   18.10    1.50
  -8  16  -2   16.50    1.50
  -8  16  -2   19.50    1.50
  -8 -16   2   15.80    1.50
  -8 -16  -3   18.30    1.70
   8  16  -3   21.30    1.80
   8 -16   3   21.80    1.60
  -8  16  -3   18.90    1.70
   8  16   3   22.10    1.60
  -8  16  -3   19.10    1.70
  -8 -16   3   19.00    1.70
  -8  16  -3   21.30    1.60
   8  16   3   21.40    1.70
  -8 -16   3   22.00    1.80
   8  16  -4    7.00    0.90
  -8 -16  -4    7.10    1.00
  -8 -16   4    8.90    1.10
  -8 -16   4    8.70    1.10
   8  16   4    8.70    1.00
   8  16   4    9.00    0.90
  -8  16  -4    9.10    1.10
  -8  16  -4    8.40    1.00
  -8  16  -4    7.20    0.90
  -8 -16  -5    1.20    0.50
   8  16  -5    1.20    0.50
   8  16  -5    1.10    0.50
   8  16   5    0.70    0.40
  -8 -16   5    2.10    0.60
  -8 -16   5    1.70    0.50
  -8  16  -5    1.40    0.50
  -8 -16  -6    1.40    0.40
  -8  16  -6    1.60    0.40
   8  16   6    1.20    0.40
  -8 -16   6    0.80    0.40
  -9  16   0   -0.20    0.30
   9 -16   0    0.00    0.40
  -9  16   0   -0.50    0.40
  -9  16   0    0.70    0.40
   9  16   0   -0.40    0.50
  -9 -16   0    0.20    0.40
   9  16  -1    2.80    0.70
  -9  16   1    2.00    0.50
   9 -16   1    1.40    0.40
  -9  16   1    2.40    0.60
  -9 -16  -1    2.10    0.60
  -9  16  -1    1.50    0.50
  -9 -16   1    1.90    0.60
  -9  16  -1    2.50    0.60
  -9 -16   1    1.40    0.50
  -9  16  -1    2.50    0.60
   9  16  -2    1.20    0.50
   9 -16   2    1.00    0.40
  -9  16   2    1.50    0.40
  -9 -16   2    1.20    0.50
  -9 -16   2    0.70    0.50
  -9  16  -2    1.20    0.50
  -9  16  -2    0.80    0.50
  -9  16  -2    0.70    0.40
   9 -16   3    0.10    0.40
  -9 -16  -3    0.20    0.40
   9  16  -3    0.40    0.50
   9  16   3    1.00    0.40
  -9 -16   3    0.40    0.40
  -9  16  -3    1.50    0.50
  -9  16  -3    0.60    0.40
  -9 -16   3    0.60    0.50
  -9  16  -3    0.60    0.50
   9  16  -4   11.20    1.20
  -9 -16  -4    9.70    1.20
  -9  16  -4   11.90    1.20
  -9 -16   4   10.60    1.30
  -9 -16   4   11.10    1.10
  -9  16  -4   12.30    1.10
  -9  16  -4   11.90    1.20
   9  16   4   10.30    1.10
   9  16  -5    0.30    0.50
  -9 -16  -5    0.40    0.40
   9  16  -5    0.10    0.40
  -9  16  -5    0.10    0.40
  -9 -16   5    0.80    0.50
  -9 -16   5    0.10    0.40
   9  16   5    0.10    0.30
 -10  16   0   46.60    3.30
 -10  16   0   46.30    3.30
  10 -16   0   46.00    3.20
 -10  16   0   49.20    3.20
 -10 -16   0   52.89    3.50
  10 -16   1   23.20    1.80
  10  16  -1   24.00    2.00
 -10  16   1   24.10    1.90
 -10 -16  -1   22.80    1.90
 -10  16   1   24.70    1.80
 -10 -16   1   20.90    1.80
 -10  16  -1   23.80    1.80
 -10 -16   1   25.40    2.00
 -10  16  -1   24.80    1.90
 -10  16  -1   23.40    1.90
  10  16  -2   62.49    4.20
 -10  16   2   62.19    4.00
  10 -16   2   61.69    4.10
 -10 -16   2   63.59    4.30
 -10  16  -2   62.49    4.20
 -10  16  -2   61.69    4.20
 -10 -16   2   62.89    4.10
 -10  16  -2   60.09    4.10
  10 -16   3    2.80    0.60
  10  16  -3    2.90    0.70
 -10  16   3    3.10    0.60
 -10 -16   3    4.40    0.70
 -10  16  -3    3.80    0.70
 -10 -16   3    4.40    0.80
 -10  16  -3    3.60    0.60
 -10  16  -3    4.10    0.70
  10  16  -4    1.00    0.50
 -10  16  -4    1.50    0.60
 -10  16  -4    0.90    0.40
  10  16   4    2.50    0.50
 -10  16  -4    1.70    0.50
 -10 -16   4    1.10    0.50
 -10 -16   4    1.20    0.50
  10  16  -5    0.40    0.40
  10  16  -5    0.70    0.50
  10  16   5    0.30    0.40
 -10 -16   5    1.00    0.40
 -10  16  -5    0.80    0.40
 -11  16   0    0.60    0.50
 -11  16   0    0.10    0.40
  11 -16   0    0.40    0.40
 -11 -16   0    0.40    0.50
 -11  16   0   -0.10    0.50
 -11  16   1    0.10    0.40
  11 -16   1    2.70    0.50
 -11 -16  -1    0.00    0.50
 -11  16  -1   -0.30    0.50
 -11  16  -1    0.90    0.50
 -11 -16   1    1.10    0.60
 -11  16  -1    0.50    0.40
  11 -16   2   34.70    2.30
  11  16  -2   29.00    2.40
 -11  16   2   33.50    2.30
 -11  16  -2   33.30    2.40
 -11 -16   2   36.80    2.60
 -11 -16   2   32.50    2.40
 -11  16  -2   30.40    2.40
 -11  16  -2   27.90    2.30
  11  16  -3    0.00    0.50
 -11  16   3    0.20    0.40
  11 -16   3    0.70    0.50
 -11  16  -3    0.20    0.50
 -11  16  -3    0.60    0.40
 -11 -16   3    0.30    0.50
 -11 -16   3    0.50    0.40
 -11  16  -3    0.70    0.50
  11  16  -4    7.70    1.00
  11  16  -4    5.90    0.90
 -11  16  -4    7.50    0.80
 -11  16  -4    7.20    0.90
 -11 -16   4    6.40    0.80
  11 -16  -4    6.50    0.70
 -11 -16   4    7.50    1.00
 -11 -16   5   -0.20    0.30
 -11  16  -5   -0.40    0.40
 -12  16   0  194.18   11.50
  12 -16   0  179.08   11.50
 -12 -16   0  186.38   11.60
 -12  16   1    4.10    0.60
 -12 -16  -1    3.60    0.80
  12 -16   1    4.20    0.70
 -12  16  -1    4.80    0.70
 -12  16  -1    5.40    0.80
 -12 -16   1    4.30    0.80
 -12  16  -1    4.50    0.80
 -12  16   2    9.60    0.90
  12 -16   2    7.90    0.90
 -12  16  -2    8.80    1.10
 -12 -16   2    8.50    1.10
 -12 -16   2    9.30    1.00
 -12  16  -2    8.70    1.00
 -12  16  -2    9.80    1.00
  12  16  -3   11.00    1.30
 -12  16   3   13.20    1.10
 -12 -16   3   13.70    1.20
 -12 -16   3   15.10    1.40
 -12  16  -3   14.00    1.20
 -12  16  -3   13.70    1.30
 -12  16  -3   13.00    1.30
  12  16  -4   12.30    1.20
 -12 -16   4   13.20    1.10
 -12  16  -4   12.70    1.20
  12 -16  -4   12.10    1.00
 -12 -16   4   12.30    1.60
 -13 -16   0    0.00    0.50
 -13  16   0    0.00    0.40
  13 -16   0   -0.10    0.40
 -13 -16  -1    6.90    0.90
 -13  16   1    8.80    0.90
  13 -16   1    7.10    0.90
 -13  16  -1    8.30    0.90
 -13 -16   1    7.50    1.00
  13 -16  -1    8.20    0.90
 -13  16   2    4.10    0.60
  13 -16   2    5.00    0.70
 -13  16  -2    4.00    0.60
 -13 -16   2    5.70    0.90
 -13  16  -2    4.90    0.80
 -13  16   3   16.20    1.20
 -13  16  -3   14.00    1.40
 -13 -16   3   15.00    1.40
 -13  16  -3   16.70    1.30
  13 -16  -3   17.00    1.30
  13  16  -4    1.10    0.60
  14 -16   0   54.29    3.60
 -14 -16   0   53.39    3.80
 -14  16   0   59.49    3.70
  14 -16   1   12.50    1.20
 -14  16   1   14.70    1.20
 -14 -16   1   13.40    1.40
 -14  16  -1   15.20    1.20
  14 -16  -1   13.20    1.20
 -14  16   2    9.10    0.90
  14 -16  -2    8.20    0.90
 -14  16  -2   10.60    1.00
 -14 -16   2    9.30    1.10
 -14  16   3    1.20    0.40
 -14  16  -3    0.80    0.40
  14 -16  -3    0.90    0.40
  15 -16   0    0.00    0.30
 -15  16   0   -0.40    0.30
 -15  16   1   16.10    1.30
  15 -16   1   15.00    1.30
 -15  16  -1   17.20    1.30
  15 -16  -1   15.50    1.20
 -15  16   2    5.10    0.60
 -15  16  -2    3.90    0.60
   0  17   0    0.00    0.30
   0  17   0    0.20    0.40
   0 -17   0    0.20    0.30
   0 -17   1    0.20    0.30
   0 -17  -1    0.50    0.30
   0  17   1    1.00    0.40
   0  17  -1    0.20    0.30
   0  17   1   -0.20    0.20
   0  17  -1   -0.10    0.40
   0  17  -2   17.70    1.40
   0  17  -2   18.90    1.60
   0 -17  -2   16.10    1.50
   0  17   2   19.80    1.50
   0  17   2   17.90    1.40
   0 -17   2   19.90    1.40
   0  17  -3    0.40    0.40
   0 -17  -3    0.00    0.40
   0  17  -3   -0.10    0.40
   0  17   3    0.60    0.40
   0  17   3   -0.40    0.30
   0 -17   3    0.90    0.40
   0  17  -3    0.20    0.40
   0  17  -4  147.69    8.70
   0  17   4  124.79    8.60
   0 -17   4  160.38    8.70
   0 -17  -4  147.09    8.70
   0  17   4  112.49    8.60
   0  17   5    1.20    0.50
   0 -17  -5    0.20    0.40
   0 -17   5    0.10    0.40
   0  17   5   -0.40    0.40
   0  17   6    7.60    0.90
   0  17   6    6.50    0.80
   0 -17  -6    6.20    0.90
   0 -17   6    7.00    0.90
   0 -17  -7    0.30    0.40
   1 -17   0  312.97   18.60
  -1  17   0  321.37   18.80
   1  17   0  322.37   18.80
  -1 -17   0  298.07   18.60
  -1  17   0  301.97   18.70
   1  17   0  296.57   18.60
   1  17  -1    2.80    0.60
  -1  17   1    1.20    0.40
  -1 -17  -1    1.70    0.50
   1  17  -1    1.40    0.40
   1 -17   1    1.90    0.40
  -1  17   1    2.10    0.40
   1  17   1    2.20    0.50
   1 -17  -1    2.20    0.40
   1  17   1    1.50    0.40
  -1 -17   1    1.70    0.40
  -1  17  -1    2.10    0.50
  -1  17  -1    2.80    0.60
  -1 -17  -2    1.60    0.50
  -1  17   2    1.40    0.40
  -1  17   2    3.40    0.50
   1  17  -2    1.50    0.40
   1  17  -2    1.50    0.50
   1 -17   2    2.70    0.50
  -1 -17   2    1.70    0.40
  -1  17  -2    1.70    0.50
   1  17   2    1.20    0.40
   1  17   2    1.20    0.40
  -1  17  -2    1.80    0.50
   1 -17  -2    1.60    0.50
   1  17  -3    6.10    0.90
   1 -17   3    7.00    0.80
  -1  17   3    7.90    0.80
  -1 -17  -3    6.90    0.90
  -1  17   3    7.30    0.90
   1  17   3    8.10    0.90
  -1  17  -3    7.40    0.90
  -1 -17   3    6.90    0.80
  -1  17  -3    7.10    0.80
   1  17   3    5.60    0.90
   1 -17  -3    7.80    0.90
  -1  17  -3    8.30    1.00
  -1  17   4   38.60    2.70
   1  17  -4   37.90    2.70
  -1  17   4   39.00    2.60
  -1 -17  -4   39.80    2.70
   1 -17   4   40.10    2.70
   1 -17  -4   38.80    2.70
   1  17   4   32.30    2.50
  -1  17  -4   33.20    2.70
  -1  17  -4   35.80    2.60
  -1 -17   4   38.80    2.70
  -1  17  -4   39.30    2.60
   1  17   4   31.80    2.60
  -1  17   5   14.30    1.40
  -1 -17  -5   13.70    1.40
  -1  17   5   14.50    1.30
   1  17  -5   14.40    1.40
   1 -17   5   14.20    1.40
  -1 -17   5   15.00    1.40
   1 -17  -5   13.90    1.30
   1  17   5   13.80    1.30
   1  17   5   14.20    1.40
  -1  17   6   72.69    4.80
  -1  17   6   68.99    4.60
  -1 -17  -6   73.79    4.80
  -1 -17   6   72.69    4.70
   1 -17  -6   76.09    4.80
   1  17   6   76.39    4.70
   1  17   6   77.49    4.80
  -1 -17   6   63.89    4.70
  -1 -17  -7    4.20    0.60
   1 -17  -7    3.40    0.60
   2  17   0   -0.10    0.30
  -2  17   0   -0.10    0.30
  -2 -17   0    0.40    0.30
   2  17   0    0.10    0.40
  -2  17   0    0.40    0.40
  -2 -17   0   -0.30    0.40
   2 -17   1  240.78   14.30
   2  17  -1  219.38   14.20
   2  17  -1  243.98   14.40
  -2  17   1  243.78   14.30
  -2  17   1  232.58   14.40
  -2 -17  -1  219.08   14.30
  -2  17  -1  239.28   14.30
   2  17   1  224.48   14.20
  -2  17  -1  243.68   14.40
   2  17   1  244.88   14.40
   2 -17  -1  232.18   14.20
  -2 -17   1  234.38   14.30
   2  17  -2    6.40    0.90
   2 -17   2    5.30    0.70
  -2  17   2    6.00    0.70
  -2 -17  -2    5.70    0.80
  -2  17   2    6.50    0.80
  -2 -17   2    5.70    0.70
   2  17   2    6.60    0.80
   2  17   2    6.50    0.80
  -2  17  -2    5.20    0.70
  -2  17  -2    6.10    0.90
  -2  17  -2    6.10    0.80
  -2  17  -2    4.50    1.70
   2  17  -3  270.07   16.40
  -2  17   3  282.47   16.40
  -2 -17  -3  271.17   16.40
  -2  17   3  282.97   16.30
   2 -17   3  273.57   16.30
  -2  17  -3  273.07   16.30
   2  17   3  232.88   16.30
   2  17   3  277.37   16.30
  -2 -17   3  260.67   16.30
  -2  17  -3  255.37   16.40
   2 -17  -3  258.67   16.30
  -2  17  -3  270.87   16.30
  -2  17   4   83.19    5.30
   2 -17   4   82.29    5.30
  -2  17   4   84.09    5.40
   2  17  -4   82.79    5.40
  -2 -17  -4   84.19    5.40
   2  17   4   83.39    5.30
  -2 -17   4   85.49    5.40
   2 -17  -4   80.59    5.30
   2  17   4   74.59    5.30
  -2  17  -4   79.99    5.30
  -2  17  -4   82.09    5.30
   2 -17   5   82.39    5.20
   2  17  -5   77.89    5.20
  -2  17   5   83.09    5.20
  -2  17   5   80.89    5.10
  -2 -17  -5   79.59    5.20
   2  17   5   70.39    5.10
   2  17   5   82.99    5.20
  -2 -17   5   80.69    5.20
   2 -17  -5   80.09    5.20
  -2  17  -5   75.59    5.10
  -2 -17   5   79.39    5.20
  -2 -17  -6   -0.30    0.40
  -2  17   6    0.40    0.40
  -2  17   6    0.20    0.50
   2  17   6    0.40    0.40
   2 -17  -6    0.60    0.40
   2  17   6    0.90    0.40
  -2 -17   6   -0.40    0.50
  -2 -17   6    0.40    0.50
  -2 -17  -7    1.50    0.50
   2 -17  -7    0.80    0.50
  -3 -17   0  186.78   12.00
  -3  17   0  193.98   12.10
  -3 -17   0  202.38   12.00
   3  17   0  211.68   12.10
   3 -17   0  200.98   12.00
  -3  17   0  200.58   12.00
   3  17   0  179.78   11.90
   3  17  -1    2.00    0.50
  -3 -17  -1    2.40    0.60
  -3  17   1    2.50    0.60
  -3  17   1    2.00    0.40
   3 -17   1    1.70    0.40
   3 -17  -1    2.60    0.40
   3  17   1    1.70    0.40
  -3  17  -1    1.80    0.40
  -3  17  -1    1.70    0.60
  -3 -17   1    1.40    0.40
  -3  17  -1    2.10    0.60
   3  17   1    2.00    0.50
  -3  17   2   20.50    1.50
  -3 -17  -2   19.80    1.60
  -3  17   2   17.80    1.60
   3  17  -2   19.60    1.70
   3 -17   2   19.70    1.50
  -3  17  -2   17.70    1.60
  -3 -17   2   20.70    1.50
   3 -17  -2   18.80    1.40
  -3  17  -2   20.90    1.50
  -3  17  -2   17.80    1.50
   3  17   2   19.30    1.60
   3  17   2   20.60    1.50
   3 -17   3   54.69    3.50
  -3 -17  -3   51.19    3.60
  -3  17   3   52.69    3.60
   3  17  -3   54.99    3.60
  -3  17   3   56.09    3.50
  -3 -17   3   42.00    3.50
   3  17   3   53.59    3.50
   3  17   3   55.59    3.60
  -3  17  -3   53.29    3.50
   3 -17  -3   49.80    3.50
  -3  17  -3   53.39    3.50
   3 -17   4   19.50    1.60
  -3  17   4   18.20    1.50
   3  17  -4   17.70    1.60
  -3  17   4   17.80    1.60
  -3 -17  -4   16.00    1.60
  -3 -17   4   19.10    1.60
  -3 -17   4   16.40    1.50
   3  17   4   19.90    1.60
   3  17   4   19.10    1.50
  -3  17  -4   18.50    1.50
  -3  17  -4   18.30    1.50
   3 -17  -4   17.00    1.50
  -3  17   5  117.79    7.50
  -3  17   5  115.59    7.30
   3  17  -5  116.09    7.50
   3 -17   5  120.79    7.40
   3  17   5  111.69    7.40
   3  17   5  120.29    7.50
  -3  17  -5  118.29    7.40
  -3  17  -5  114.09    7.30
   3 -17  -5  111.89    7.40
  -3 -17   5  118.39    7.50
  -3 -17   5  126.39    7.50
  -3 -17  -6    4.50    0.70
  -3  17   6    3.80    0.70
   3  17  -6    2.80    0.70
   3  17   6    4.40    0.70
   3  17   6    4.70    0.70
  -3 -17   6    4.20    0.80
   3 -17  -6    3.90    0.60
  -3  17  -6    3.80    0.70
  -3 -17   6    4.60    0.70
   4  17   0    0.20    0.30
  -4  17   0    0.30    0.30
  -4 -17   0    0.00    0.30
  -4  17   0    1.10    0.50
   4 -17   0    0.40    0.30
  -4 -17   0    0.30    0.40
   4  17   0    0.10    0.40
  -4  17   1  265.97   16.60
  -4 -17  -1  264.97   16.70
  -4  17   1  257.67   16.70
   4 -17   1  287.37   16.60
   4  17  -1  282.77   16.80
   4 -17  -1  288.37   16.60
  -4  17  -1  285.57   16.60
  -4 -17   1  292.87   16.70
  -4 -17   1  263.27   16.60
  -4  17  -1  252.87   16.50
   4  17   1  257.87   16.50
   4  17   1  280.17   16.70
   4 -17   2  135.59    8.30
  -4  17   2  138.29    8.40
  -4  17   2  124.49    8.40
  -4 -17  -2  132.59    8.40
  -4  17  -2  141.89    8.40
  -4  17  -2  127.59    8.30
   4 -17  -2  132.89    8.30
  -4  17  -2  135.59    8.40
  -4 -17   2  130.39    8.40
   4  17   2  136.99    8.30
   4  17   2  140.19    8.40
  -4 -17   2  134.89    8.40
  -4  17   3  398.86   23.50
   4 -17   3  390.46   23.40
  -4 -17  -3  381.26   23.50
  -4  17   3  365.36   23.50
  -4  17  -3  398.96   23.50
  -4  17  -3  377.16   23.40
   4  17   3  394.86   23.50
  -4 -17   3  379.26   23.50
   4  17   3  392.66   23.40
  -4  17  -3  393.16   23.50
  -4 -17  -4    0.40    0.40
   4  17  -4    0.20    0.40
   4 -17   4    0.30    0.40
  -4  17   4    0.40    0.50
  -4  17   4    0.40    0.40
  -4  17  -4    0.60    0.40
   4 -17  -4    0.20    0.40
   4  17   4    0.10    0.40
  -4  17  -4    1.30    0.50
   4  17   4    0.30    0.40
  -4 -17   4    0.30    0.40
  -4 -17   4    1.90    0.50
   4 -17   5    4.60    1.00
  -4  17   5    4.50    0.70
  -4 -17  -5    3.90    0.80
   4  17  -5    5.00    0.80
  -4  17  -5    4.20    0.70
  -4 -17   5    3.90    0.70
   4  17   5    3.80    0.60
  -4  17  -5    4.40    0.70
   4  17   5    4.30    0.70
  -4 -17   5    3.30    0.70
   4 -17  -5    3.90    0.70
   4  17  -6    6.10    0.80
  -4 -17  -6    7.30    0.90
  -4 -17   6    7.60    0.90
   4 -17  -6    6.70    0.80
   4  17   6    6.90    0.90
   4  17   6   10.50    0.90
  -4 -17   6    6.60    0.90
  -4  17  -6    6.60    0.80
   5  17   0   43.80    3.00
  -5 -17   0   37.90    2.80
   5 -17   0   44.00    2.80
  -5 -17   0   45.90    2.90
  -5  17   0   36.90    2.80
  -5  17   0   45.10    2.90
  -5  17   1  127.49    7.70
   5  17  -1  126.19    7.80
   5 -17   1  125.29    7.70
  -5 -17  -1  117.89    7.80
   5 -17  -1  126.89    7.70
  -5  17  -1  117.79    7.60
  -5 -17   1  133.79    7.80
  -5  17  -1  129.49    7.70
  -5 -17   1  121.19    7.70
   5  17   1  111.19    7.60
   5  17   1  122.39    7.80
  -5  17   2    8.80    1.20
  -5  17   2    9.80    1.00
  -5 -17  -2    9.70    1.10
   5 -17   2   10.00    0.90
   5  17  -2    5.40    0.90
  -5 -17   2   10.70    1.00
   5  17   2    8.10    0.90
  -5  17  -2    9.20    1.00
  -5  17  -2    7.70    1.00
  -5  17  -2    8.40    0.90
  -5 -17   2    8.60    1.00
   5 -17  -2    9.10    0.90
   5  17   2    8.40    1.00
  -5 -17  -3  338.67   20.40
   5  17  -3  318.47   20.40
  -5  17   3  321.37   20.40
   5 -17   3  365.46   20.30
  -5  17   3  353.66   20.40
  -5 -17   3  300.47   20.40
  -5  17  -3  348.37   20.30
  -5  17  -3  295.57   20.30
  -5  17  -3  364.26   20.40
  -5 -17   3  309.97   20.40
   5  17   3  348.07   20.30
   5  17   3  352.86   20.40
  -5 -17  -4   25.60    2.10
   5 -17   4   28.20    2.00
  -5  17   4   24.00    2.20
   5  17  -4   24.80    2.10
  -5  17   4   27.70    2.00
  -5 -17   4   25.80    2.10
  -5  17  -4   27.60    2.10
   5  17   4   27.40    2.10
  -5  17  -4   28.00    2.00
  -5 -17   4   27.90    2.10
   5  17   4   29.90    2.00
  -5 -17  -5   15.60    1.50
   5  17  -5   16.10    1.50
  -5 -17   5   16.60    1.50
   5 -17  -5   14.20    1.30
  -5  17  -5   14.50    1.40
  -5 -17   5   15.70    1.40
   5  17   5   17.30    1.40
   5  17   5   16.40    1.40
  -5  17  -5   15.10    1.40
  -5 -17  -6    4.70    0.80
   5  17  -6    4.80    0.70
  -5 -17   6    3.60    0.60
  -5 -17   6    4.20    0.80
   5 -17  -6    5.10    0.70
   5  17   6    4.80    0.70
   5  17   6    3.60    0.70
  -5  17  -6    5.00    0.70
   6  17   0    0.50    0.40
   6 -17   0    0.50    0.40
  -6  17   0    0.40    0.40
  -6 -17   0    0.30    0.40
  -6  17   0   -0.10    0.30
  -6  17   1  146.99    9.10
   6  17  -1  145.09    9.20
  -6 -17  -1  140.29    9.10
   6 -17   1  139.19    9.00
   6 -17  -1  155.98    9.00
  -6  17  -1  153.08    9.10
   6  17   1  129.39    9.00
  -6 -17   1  160.88    9.20
   6  17   1  148.39    9.10
  -6 -17   1  144.89    9.10
  -6  17  -1  144.39    9.00
  -6 -17  -2    2.80    0.60
   6  17  -2    3.70    0.70
  -6  17   2    2.90    0.60
   6 -17   2    3.00    0.50
  -6  17  -2    3.00    0.60
   6 -17  -2    3.60    0.60
  -6  17  -2    1.90    0.50
  -6 -17   2    2.40    0.60
   6  17   2    3.40    0.70
  -6  17  -2    2.70    0.60
  -6 -17   2    3.10    0.70
   6  17   2    2.60    0.50
   6 -17   3  123.19    7.20
  -6  17   3  122.89    7.20
  -6 -17  -3   99.99    7.30
  -6  17  -3  122.39    7.20
  -6 -17   3   98.39    7.20
  -6  17  -3  117.79    7.30
  -6 -17   3  111.19    7.30
   6  17   3  113.39    7.10
   6  17   3  121.89    7.30
   6 -17  -3  110.49    7.10
   6  17  -4   13.40    1.30
  -6 -17  -4   10.10    1.30
   6 -17   4   13.30    1.20
  -6  17   4   14.30    1.30
  -6  17  -4   15.60    1.30
   6  17   4   13.50    1.20
  -6  17  -4   14.70    1.30
  -6 -17   4   15.10    1.40
  -6 -17   4    9.00    1.20
   6  17   4   12.30    1.30
   6  17  -5    7.30    1.00
  -6 -17  -5    7.80    1.00
   6  17   5    7.30    0.90
  -6  17  -5    9.30    1.00
  -6 -17   5    8.00    1.00
  -6 -17   5    8.50    1.00
   6  17   5    7.70    1.00
   6  17  -6    0.50    0.40
  -6 -17  -6    0.50    0.40
  -6 -17   6    0.00    0.30
  -6  17  -6   -0.30    0.40
  -6 -17   6    0.30    0.40
   6  17   6    0.20    0.30
   6  17   6    0.30    0.60
   6 -17  -6   -0.40    0.40
   7  17   0   99.29    6.60
  -7  17   0  106.49    6.50
  -7  17   0  101.59    6.40
  -7 -17   0  106.89    6.60
   7 -17   0   99.39    6.40
  -7  17   1   12.80    1.20
  -7  17   1   15.10    1.30
   7 -17   1   11.50    1.20
   7  17  -1   13.80    1.30
   7 -17  -1   14.30    1.20
  -7  17  -1   13.90    1.20
  -7 -17   1   13.10    1.20
  -7 -17   1   14.10    1.30
   7  17   1   15.40    1.40
  -7  17  -1   13.30    1.30
  -7  17  -1   13.70    1.30
  -7  17   2  102.69    6.30
   7  17  -2  104.69    6.30
  -7 -17  -2   87.69    6.30
   7 -17   2  107.99    6.20
   7  17   2  102.19    6.20
  -7  17  -2   86.99    6.30
  -7  17  -2  102.39    6.20
  -7 -17   2  107.89    6.30
  -7  17  -2   79.29    6.20
   7 -17  -2  105.29    6.20
   7  17   2  100.79    6.30
  -7 -17   2   87.09    6.30
  -7 -17  -3   23.30    2.30
   7  17  -3   32.30    2.40
   7 -17   3   35.10    2.30
  -7  17   3   32.20    2.30
  -7 -17   3   32.70    2.40
   7  17   3   31.80    2.20
  -7  17  -3   31.60    2.30
  -7 -17   3   27.80    2.30
  -7  17  -3   33.20    2.30
   7  17   3   29.90    2.30
   7 -17  -3   33.60    2.20
  -7  17  -3   30.40    2.40
  -7 -17  -4   53.09    4.20
   7  17  -4   62.79    4.30
   7 -17   4   62.29    4.20
  -7  17  -4   60.89    4.20
   7  17   4   64.19    4.20
  -7 -17   4   65.89    4.30
   7  17   4   67.69    4.20
  -7  17  -4   67.79    4.30
  -7 -17   4   68.49    4.30
  -7 -17  -5   16.30    1.50
   7  17  -5   17.40    1.50
  -7 -17   5   16.40    1.60
   7  17   5   17.20    1.40
  -7 -17   5   16.70    1.40
   7  17   5   15.70    1.50
  -7  17  -5   16.50    1.40
  -7 -17  -6    2.50    0.50
   7  17   6    2.40    0.50
  -7 -17   6    2.80    0.50
  -7  17  -6    2.10    0.50
  -8 -17   0    0.50    0.40
   8  17   0    0.00    0.50
  -8  17   0    0.40    0.40
  -8  17   0   -0.70    0.30
   8 -17   0    0.20    0.30
  -8  17   1  218.28   13.30
  -8  17   1  209.18   13.20
   8  17  -1  223.98   13.40
  -8  17  -1  221.18   13.40
  -8 -17   1  205.38   13.30
  -8  17  -1  217.68   13.30
  -8 -17   1  226.18   13.50
   8 -17  -1  215.18   13.20
   8  17   1  210.98   13.40
  -8  17  -1  219.88   13.40
  -8 -17  -2    0.00    0.40
   8 -17   2   -0.10    0.30
   8  17  -2    0.00    0.40
  -8  17   2    0.30    0.40
  -8 -17   2    0.00    0.40
  -8 -17   2    0.10    0.40
  -8  17  -2    0.80    0.50
  -8  17  -2    0.10    0.40
   8  17   2    0.20    0.50
  -8  17  -2    0.40    0.40
   8 -17   3   60.09    3.80
   8  17  -3   59.99    3.90
  -8 -17  -3   49.99    3.90
   8  17   3   56.09    3.80
  -8 -17   3   60.69    3.90
  -8  17  -3   55.09    3.90
  -8  17  -3   60.29    3.80
   8  17   3   56.39    3.90
  -8 -17   3   60.59    4.00
  -8  17  -3   52.89    3.90
  -8 -17  -4    7.80    1.00
   8  17  -4    7.80    1.00
  -8  17  -4    9.10    1.10
   8  17   4    9.90    1.00
  -8  17  -4    9.60    1.10
  -8 -17   4    9.30    1.10
  -8  17  -4    9.10    1.00
   8  17   4    8.60    1.10
  -8 -17   4    9.60    1.10
  -8 -17  -5    0.80    0.50
   8  17  -5    0.90    0.40
  -8  17  -5    0.90    0.40
   8  17   5    1.40    0.40
  -8 -17   5    1.60    0.50
  -8 -17   5    0.90    0.50
   8  17   6    2.80    0.50
  -9  17   0   73.39    4.90
   9  17   0   72.49    4.90
  -9  17   0   72.69    4.80
  -9  17   0   73.39    4.70
  -9 -17   0   79.19    4.90
   9 -17   0   72.39    4.70
  -9  17   1    0.70    0.50
   9  17  -1    0.50    0.50
  -9  17   1    0.30    0.40
   9 -17   1    1.10    0.40
   9 -17  -1    0.50    0.40
  -9  17  -1    1.70    0.50
  -9 -17   1    0.50    0.40
   9  17   1    0.30    0.50
  -9  17  -1    0.70    0.50
  -9  17  -1    0.70    0.40
  -9 -17   1    0.40    0.50
   9  17  -2    0.80    0.50
  -9  17   2    0.70    0.40
   9 -17   2   -0.10    0.40
  -9  17  -2    0.60    0.50
  -9 -17   2    1.00    0.50
  -9 -17   2    0.50    0.50
  -9  17  -2    0.20    0.40
  -9  17  -2    0.60    0.50
  -9 -17  -3    7.20    1.00
   9  17  -3   10.50    1.20
   9 -17   3   10.00    1.00
  -9  17  -3    8.70    1.10
  -9  17  -3    8.60    1.10
  -9 -17   3    8.50    1.00
   9  17   3    8.70    0.90
  -9 -17   3   10.70    1.30
  -9  17  -3    8.40    1.00
   9  17  -4    0.70    0.40
  -9 -17  -4    0.70    0.40
  -9  17  -4    1.20    0.50
  -9  17  -4    1.20    0.50
  -9 -17   4    0.70    0.40
   9  17   4    0.50    0.40
  -9 -17   4    1.30    0.50
  -9  17  -4    1.50    0.50
   9  17  -5    8.90    1.00
   9  17  -5    7.70    0.90
  -9 -17  -5    8.50    1.00
  -9  17  -5    9.40    1.00
  -9 -17   5    8.70    0.90
   9  17   5    9.40    0.90
  -9 -17   5    7.60    1.00
  10 -17   0   -0.20    0.30
 -10  17   0    0.70    0.40
 -10  17   0   -0.10    0.50
 -10  17   0    0.20    0.50
 -10 -17   0   -0.10    0.50
 -10  17   1   71.79    4.90
 -10  17   1   75.89    4.80
  10  17  -1   77.29    5.00
  10 -17   1   74.59    4.80
 -10  17   1   73.69    4.90
  10 -17  -1   74.39    4.80
 -10 -17   1   65.69    4.80
 -10  17  -1   73.89    4.90
 -10  17  -1   81.99    4.90
 -10 -17   1   82.19    5.10
 -10  17  -1   73.59    4.90
 -10  17   2    6.60    0.80
  10  17  -2    6.70    1.00
  10 -17   2    6.60    0.80
 -10  17  -2    5.80    0.80
 -10 -17   2    5.80    0.90
 -10 -17   2    6.00    0.80
 -10  17  -2    6.50    0.90
 -10  17  -2    7.00    0.90
  10  17  -3    0.20    0.50
  10 -17   3    0.00    0.40
 -10 -17   3    0.70    0.40
 -10  17  -3    0.50    0.40
 -10  17  -3    0.60    0.40
 -10 -17   3    0.00    0.50
 -10  17  -3    0.30    0.50
  10  17  -4    4.20    0.70
 -10  17  -4    5.30    0.70
 -10  17  -4    4.70    0.70
 -10 -17   4    4.70    0.70
 -10  17  -4    4.80    0.80
 -10 -17   4    5.50    0.80
  10  17   4    3.80    0.70
 -10 -17   5    5.00    0.60
 -10  17  -5    4.80    0.70
  10  17   5    4.60    0.70
 -11  17   0   10.10    1.10
 -11  17   0   10.10    1.20
 -11 -17   0   11.50    1.20
 -11  17   0    9.60    1.20
  11 -17   1   39.70    2.80
 -11  17   1   43.80    2.80
  11 -17  -1   38.40    2.80
 -11  17  -1   42.80    2.80
 -11  17  -1   39.70    2.90
 -11  17  -1   38.40    2.90
 -11 -17   1   42.10    3.00
  11  17  -2    0.90    0.60
 -11  17   2    0.60    0.40
  11 -17   2    0.10    0.40
 -11  17  -2    0.80    0.50
 -11 -17   2   -0.10    0.40
 -11  17  -2    0.20    0.50
 -11 -17   2    0.80    0.50
 -11  17  -2    0.50    0.40
  11  17  -3    9.30    1.10
 -11  17   3    9.20    0.90
  11 -17   3    8.10    0.90
 -11  17  -3    8.10    1.00
 -11 -17   3    9.50    1.00
 -11  17  -3    9.50    1.10
  11 -17  -3    9.90    0.90
 -11  17  -3    9.00    1.00
 -11 -17   3   10.20    1.20
  11  17  -4    5.30    0.90
  11  17  -4    6.70    0.90
 -11 -17   4    7.20    0.80
 -11 -17   4    8.20    1.00
 -11  17  -4    7.20    0.90
 -12 -17   0    0.70    0.60
  12 -17   0    0.40    0.40
 -12  17   0    0.40    0.40
  12 -17   1  238.48   14.30
 -12  17   1  245.68   14.30
 -12 -17   1  248.78   14.50
 -12  17  -1  209.98   14.30
 -12  17  -1  215.48   14.40
 -12  17  -1  249.58   14.30
  12 -17  -1  232.48   14.30
  12 -17   2    6.70    0.80
 -12  17   2    7.00    0.80
 -12  17  -2    5.40    0.90
 -12  17  -2    6.20    0.80
 -12  17  -2    7.30    0.90
  12 -17  -2    6.50    0.80
 -12 -17   2    6.30    0.80
 -12 -17   2    5.90    0.90
 -12  17   3   23.10    1.70
  12  17  -3   18.00    1.80
 -12  17  -3   22.80    1.80
 -12 -17   3   24.20    1.90
 -12 -17   3   24.40    1.70
 -12  17  -3   24.30    1.70
 -12  17  -3   21.60    1.80
  12 -17  -3   22.50    1.60
  12  17  -4   13.90    1.30
 -12 -17   4   15.00    1.20
 -12  17  -4   14.80    1.20
 -13  17   0   38.80    2.60
 -13 -17   0   35.90    2.70
  13 -17   0   35.60    2.50
 -13  17   1   24.20    1.80
  13 -17   1   22.40    1.80
 -13  17  -1   24.90    1.80
  13 -17  -1   22.50    1.70
 -13 -17   1   23.50    2.00
 -13  17   2   15.60    1.20
  13 -17   2   13.80    1.20
  13 -17  -2   14.50    1.20
 -13 -17   2   15.80    1.40
 -13  17  -2   14.50    1.30
 -13  17  -2   12.90    1.30
 -13  17   3   47.50    3.10
 -13  17  -3   43.80    3.20
  13 -17  -3   45.70    3.00
 -13  17  -3   52.79    3.10
 -14 -17   0    0.40    0.50
  14 -17   0    0.00    0.30
 -14  17   0    0.30    0.30
  14 -17   1   46.50    3.20
 -14  17   1   50.89    3.20
 -14  17  -1   51.59    3.20
 -14 -17   1   48.30    3.30
  14 -17  -1   45.70    3.20
 -14  17   2    4.60    0.60
 -14  17  -2    4.50    0.60
  14 -17  -2    4.80    0.60
 -14  17  -3   33.10    2.30
  15 -17   0   23.30    1.70
 -15  17   0   24.40    1.70
 -15  17   1    4.00    0.50
 -15  17  -1    3.50    0.60
  15 -17  -1    3.00    0.50
   0 -18   0    0.50    0.30
   0  18   0    1.90    0.50
   0  18   0    1.20    0.40
   0  18  -1    0.30    0.40
   0 -18   1    0.40    0.30
   0 -18  -1   -0.10    0.30
   0  18   1   -0.20    0.30
   0  18   1    1.40    0.50
   0  18  -1   -0.30    0.30
   0  18  -2  163.08    9.90
   0  18  -2  175.18   10.10
   0 -18  -2  145.69    9.90
   0 -18   2  167.68    9.90
   0  18   2  169.18    9.90
   0  18   2  144.39   10.00
   0  18  -3   -0.10    0.50
   0 -18   3    0.20    0.30
   0  18  -3    0.70    0.40
   0  18   3    0.50    0.40
   0  18   3   -0.50    0.30
   0 -18  -3    0.40    0.40
   0  18  -3    0.10    0.40
   0 -18   4    2.90    0.60
   0  18   4    2.00    0.50
   0 -18  -4    2.70    0.60
   0  18   4    1.60    0.60
   0  18  -4    2.60    0.70
   0  18   5    0.20    0.40
   0 -18  -5    0.00    0.40
   0  18   5    0.00    0.50
   0 -18   5   -0.30    0.40
   0  18   6    1.40    0.60
   0 -18   6    1.70    0.50
   0  18   6    2.40    0.50
   0 -18  -6    1.40    0.50
  -1  18   0    0.60    0.40
   1 -18   0    1.90    0.40
  -1 -18   0   -0.10    0.30
   1  18   0   -0.30    0.30
   1  18   0    0.20    0.30
  -1  18   0    0.10    0.30
  -1  18   1   17.80    1.40
  -1  18   1   20.10    1.60
   1 -18   1   18.00    1.40
  -1 -18  -1   18.00    1.50
   1  18  -1   18.70    1.60
   1  18  -1   16.80    1.40
  -1 -18   1   18.10    1.40
   1  18   1   19.20    1.40
  -1  18  -1   18.30    1.60
  -1  18  -1   17.60    1.40
   1  18   1   15.40    1.50
   1 -18  -1   20.80    1.40
  -1 -18  -2   10.90    1.20
   1 -18   2   12.30    1.10
   1  18  -2   10.70    1.20
   1  18  -2   11.20    1.10
  -1  18   2   14.60    1.10
  -1  18   2   13.80    1.20
  -1  18  -2   12.40    1.10
   1  18   2   10.30    1.10
  -1  18  -2   11.30    1.30
  -1 -18   2   12.90    1.10
   1  18   2   13.50    1.10
  -1  18   3   32.80    2.40
  -1  18   3   30.60    2.20
   1 -18   3   34.20    2.30
   1  18  -3   33.00    2.40
  -1 -18  -3   32.30    2.40
  -1  18  -3   35.10    2.30
  -1 -18   3   26.60    2.20
   1 -18  -3   32.20    2.30
  -1  18  -3   34.80    2.30
  -1  18  -3   32.50    2.40
   1  18   3   27.00    2.20
   1 -18   4   93.49    5.90
  -1  18   4   99.69    5.90
  -1 -18  -4   91.49    5.90
   1  18  -4   90.19    5.90
  -1  18   4   98.89    6.00
   1  18   4   86.99    5.90
  -1 -18   4   96.29    5.90
  -1  18  -4   90.09    5.80
  -1  18  -4   89.49    5.80
   1 -18  -4   86.29    5.90
  -1  18  -4   82.39    5.90
  -1  18   5   35.50    2.70
   1 -18   5   37.50    2.60
  -1  18   5   34.50    2.50
  -1 -18  -5   36.10    2.60
   1  18  -5   31.20    2.60
  -1 -18   5   37.10    2.60
   1  18   5   37.20    2.60
   1  18   5   37.90    2.60
   1 -18  -5   35.60    2.60
  -1  18   6    2.90    0.60
  -1 -18  -6    3.60    0.60
  -1  18   6    3.40    0.70
   1 -18  -6    3.00    0.60
   1  18   6    3.90    0.60
  -1 -18   6    4.30    0.70
  -1 -18   6    2.80    0.60
   1  18   6    4.30    0.70
  -2 -18   0   39.30    2.70
   2 -18   0   41.20    2.70
  -2 -18   0   43.90    2.70
   2  18   0   38.70    2.70
  -2  18   0   40.30    2.70
   2  18   0   39.00    2.80
  -2  18   0   37.80    2.80
  -2  18   1   55.09    3.40
  -2 -18  -1   47.50    3.50
   2  18  -1   53.29    3.60
   2  18  -1   48.20    3.40
  -2  18   1   55.69    3.60
   2 -18   1   53.89    3.40
   2  18   1   49.70    3.50
  -2  18  -1   53.79    3.40
  -2  18  -1   51.59    3.60
  -2 -18   1   52.59    3.40
   2 -18  -1   53.89    3.40
   2  18   1   50.79    3.40
  -2  18   2   43.50    2.80
  -2 -18  -2   39.50    2.90
   2  18  -2   35.20    2.90
  -2  18   2   49.10    3.00
   2 -18   2   39.80    2.80
  -2  18  -2   39.60    2.80
  -2  18  -2   42.40    2.80
   2  18   2   41.40    2.80
  -2  18  -2   38.50    2.90
  -2 -18   2   41.40    2.80
  -2 -18  -3   67.69    4.50
  -2  18   3   65.49    4.50
  -2  18   3   67.69    4.40
   2  18  -3   71.19    4.60
   2 -18   3   69.29    4.40
   2 -18  -3   67.29    4.40
  -2  18  -3   69.49    4.40
   2  18   3   63.39    4.40
  -2  18  -3   62.69    4.50
  -2  18  -3   70.29    4.40
  -2  18   4   20.50    1.80
   2  18  -4   21.00    1.80
   2 -18   4   21.30    1.70
  -2 -18  -4   20.60    1.80
  -2  18   4   20.20    1.70
  -2  18  -4   20.10    1.70
  -2 -18   4   22.60    1.80
   2 -18  -4   19.90    1.70
   2  18   4   19.80    1.70
   2  18   4   20.40    1.70
  -2  18  -4   23.10    1.70
   2  18  -5   20.70    1.80
  -2 -18  -5   20.90    1.80
  -2  18   5   22.50    1.90
  -2  18   5   21.00    1.70
   2 -18   5   23.60    1.80
   2 -18  -5   20.70    1.70
  -2 -18   5   23.20    1.80
   2  18   5   21.90    1.70
   2  18   5   24.30    1.90
  -2  18  -5   19.10    1.70
  -2 -18   5   24.10    1.80
  -2  18   6    2.80    0.60
  -2 -18  -6    3.20    0.60
  -2  18   6    2.50    0.70
   2  18   6    2.70    0.60
   2  18   6    4.30    0.60
  -2 -18   6    3.60    0.60
   2 -18  -6    3.30    0.60
  -2 -18   6    2.80    0.60
  -3 -18   0   -0.20    0.30
  -3  18   0   -0.30    0.30
   3  18   0    0.20    0.40
   3  18   0    0.00    0.30
  -3 -18   0    0.30    0.30
  -3  18   0   -0.30    0.50
   3 -18   0    0.20    0.30
  -3  18   1   90.59    6.00
   3 -18   1  101.79    5.90
   3  18  -1   86.49    6.00
  -3 -18  -1   88.69    6.00
  -3  18   1   97.49    5.90
   3  18   1   96.59    6.00
  -3 -18   1   98.29    5.90
   3 -18  -1   97.09    5.90
  -3  18  -1   96.49    5.90
  -3  18  -1   92.49    6.00
  -3 -18   1   91.79    5.90
   3  18   1   85.69    5.80
  -3  18   2    7.00    0.80
   3 -18   2    5.30    0.70
   3  18  -2    5.90    0.90
  -3 -18  -2    6.10    0.80
  -3  18   2    5.30    0.80
  -3 -18   2    6.40    0.80
   3  18   2    5.20    0.70
   3 -18  -2    6.70    0.70
  -3  18  -2    6.90    0.80
  -3  18  -2    5.20    0.90
  -3  18  -2    7.00    0.80
   3  18   2    5.10    0.80
  -3  18  -2    5.30    0.70
   3 -18   3   27.10    2.10
  -3  18   3   30.40    2.10
  -3  18   3   28.50    2.20
  -3 -18  -3   29.50    2.20
   3  18  -3   23.60    2.20
  -3  18  -3   27.70    2.10
   3  18   3   27.10    2.00
   3  18   3   28.70    2.20
  -3  18  -3   30.10    2.10
   3  18  -4    2.30    0.70
   3 -18   4    1.70    0.50
  -3  18   4    0.80    0.50
  -3 -18  -4    1.10    0.50
  -3  18   4    1.80    0.60
  -3  18  -4    2.50    0.50
   3  18   4    1.60    0.50
  -3 -18   4    1.30    0.50
   3 -18  -4    0.80    0.50
  -3 -18   4    1.50    0.50
  -3  18  -4    1.30    0.50
   3  18   4    2.20    0.60
  -3 -18  -5  185.98   11.40
   3  18  -5  180.68   11.40
   3 -18   5  190.88   11.30
  -3  18   5  186.48   11.40
  -3  18   5  179.78   11.30
   3 -18  -5  169.58   11.30
  -3 -18   5  196.08   11.40
   3  18   5  188.08   11.40
  -3  18  -5  177.58   11.30
   3  18   5  190.08   11.30
  -3 -18   5  183.58   11.40
  -3  18  -5  170.68   11.20
   3  18  -6    3.40    0.70
  -3  18   6    5.10    0.80
  -3 -18  -6    5.70    0.80
   3  18   6    5.50    0.70
  -3 -18   6    5.30    0.70
   3  18   6    5.00    0.80
  -3 -18   6    4.70    0.80
   3 -18  -6    5.20    0.70
   4  18   0   26.10    2.00
  -4 -18   0   32.50    2.10
   4  18   0   29.90    2.20
  -4 -18   0   26.20    2.00
  -4  18   0   26.90    2.20
   4 -18   0   31.00    2.00
  -4  18   0   31.00    2.10
   4 -18   1   17.20    1.40
   4  18  -1   14.60    1.50
  -4  18   1   18.20    1.60
  -4  18   1   18.40    1.40
  -4 -18  -1   17.10    1.50
   4  18   1   16.80    1.30
  -4  18  -1   13.60    1.30
  -4  18  -1   18.40    1.40
  -4 -18   1   15.80    1.40
   4  18   1   20.50    1.60
  -4 -18   1   19.70    1.50
   4 -18  -1   18.50    1.40
  -4  18   2   10.60    1.00
  -4  18   2    9.10    1.10
  -4 -18  -2    9.90    1.10
   4 -18   2    9.30    0.90
   4  18  -2    8.60    1.10
  -4  18  -2    9.20    1.10
  -4  18  -2    9.40    1.00
  -4  18  -2   10.90    1.10
   4  18   2    9.00    1.10
  -4 -18   2   10.40    1.00
   4 -18  -2    9.40    0.90
   4  18   2   11.20    1.00
  -4 -18   2   11.80    1.10
   4  18  -3   15.70    1.60
  -4  18   3   16.70    1.60
   4 -18   3   18.00    1.40
  -4  18   3   17.70    1.50
  -4 -18  -3   18.30    1.60
  -4  18  -3   16.60    1.50
  -4  18  -3   17.60    1.50
   4  18   3   19.80    1.50
  -4 -18   3   15.30    1.50
   4  18   3   17.70    1.50
  -4 -18   3   16.40    1.50
  -4  18  -3   19.00    1.50
   4  18  -4   30.00    2.30
  -4  18   4   27.10    2.20
  -4 -18  -4   27.80    2.20
   4 -18   4   30.00    2.10
  -4  18   4   29.80    2.10
   4 -18  -4   25.90    2.10
  -4  18  -4   28.60    2.10
  -4 -18   4   28.60    2.20
   4  18   4   31.10    2.20
  -4  18  -4   30.40    2.20
   4  18   4   32.60    2.20
  -4 -18   4   21.70    2.10
  -4  18   5    4.70    0.70
  -4 -18  -5    4.80    0.80
   4  18  -5    5.00    0.80
  -4  18   5    4.00    0.80
   4 -18   5    4.30    0.70
   4 -18  -5    3.80    0.70
  -4  18  -5    4.20    0.70
   4  18   5    5.00    0.70
   4  18   5    3.80    0.70
  -4  18  -5    4.70    0.70
  -4 -18   5    5.20    0.70
  -4 -18   5    4.70    0.80
  -4 -18  -6    0.00    0.40
   4  18  -6    0.30    0.50
  -4  18  -6    0.70    0.50
  -4 -18   6   -0.10    0.40
   4 -18  -6    0.60    0.40
   4  18   6   -0.20    0.40
  -4 -18   6    1.00    0.60
   4  18   6    0.00    0.40
   5 -18   0    0.20    0.30
  -5 -18   0   -0.40    0.40
  -5  18   0    0.30    0.30
   5  18   0    0.30    0.40
  -5 -18   0    0.00    0.40
   5  18  -1  731.13   43.80
  -5 -18  -1  691.83   43.70
  -5  18   1  774.32   43.70
   5 -18   1  690.93   43.60
   5  18   1  679.53   43.50
  -5 -18   1  693.93   43.60
   5  18   1  730.83   43.70
  -5  18  -1  701.53   43.60
  -5  18  -1  755.22   43.70
   5 -18  -1  769.92   43.60
  -5 -18   1  769.42   43.70
   5  18  -2   12.90    1.40
  -5 -18  -2   13.60    1.30
   5 -18   2   14.00    1.20
  -5  18   2   15.50    1.30
  -5 -18   2   15.00    1.30
  -5 -18   2   15.30    1.30
  -5  18  -2   14.90    1.30
  -5  18  -2   10.10    1.20
   5  18   2   14.70    1.40
   5  18   2   14.70    1.20
   5 -18  -2   14.70    1.20
  -5  18  -2   15.30    1.30
  -5  18   3  152.78   10.00
  -5  18   3  164.68    9.70
   5 -18   3  170.98    9.70
  -5 -18  -3  156.38    9.80
   5  18  -3  132.59    9.70
  -5  18  -3  133.99    9.70
  -5  18  -3  167.88    9.70
  -5  18  -3  165.18    9.70
  -5 -18   3  131.79    9.70
   5  18   3  167.98    9.70
   5  18   3  171.78    9.80
   5  18  -4    1.90    0.60
  -5  18   4    2.40    0.60
  -5 -18  -4    2.80    0.70
   5 -18   4    2.50    0.60
  -5 -18   4    2.60    0.60
   5  18   4    2.80    0.60
  -5 -18   4    2.50    0.60
  -5  18  -4    3.10    0.60
  -5  18  -4    2.50    0.60
   5  18   4    3.60    0.70
  -5 -18  -5   85.89    5.70
   5  18  -5   83.99    5.60
  -5 -18   5   91.59    5.60
   5  18   5   93.79    5.60
   5 -18  -5   77.89    5.50
  -5 -18   5   88.69    5.70
  -5  18  -5   88.09    5.60
  -5  18  -5   89.99    5.60
  -5 -18  -6    2.40    0.60
   5  18   6    1.90    0.60
  -5  18  -6    2.30    0.50
  -5 -18   6    2.00    0.50
   5 -18  -6    3.10    0.50
   5  18   6    2.50    0.50
   6 -18   0  311.87   19.00
  -6  18   0  292.77   18.90
  -6 -18   0  324.77   19.10
  -6  18   0  324.97   19.00
   6  18   0  310.27   19.10
   6  18  -1  266.27   16.20
  -6  18   1  274.07   16.10
   6 -18   1  249.58   16.00
  -6  18  -1  230.68   16.10
  -6  18  -1  270.67   16.00
   6  18   1  266.67   16.20
  -6 -18   1  281.07   16.20
   6 -18  -1  283.67   16.10
  -6 -18   1  251.47   16.10
  -6 -18  -2    7.80    1.00
   6  18  -2    8.60    1.00
   6 -18   2    7.90    0.90
  -6  18   2    8.90    1.00
  -6  18  -2    4.50    0.90
  -6  18  -2    8.70    1.00
  -6 -18   2   12.50    1.10
   6 -18  -2    8.20    0.90
   6  18   2    9.00    0.90
  -6 -18   2    6.80    1.00
   6  18   2    8.00    1.00
  -6  18  -2    7.40    1.00
  -6  18   3   90.49    5.30
  -6 -18  -3   70.19    5.40
   6 -18   3   92.99    5.30
   6  18  -3   77.09    5.40
   6  18   3   90.09    5.30
  -6 -18   3   73.79    5.30
  -6  18  -3   90.69    5.30
  -6 -18   3   70.99    5.30
   6  18   3   91.19    5.40
  -6  18  -3   66.79    5.30
  -6  18  -3   90.49    5.40
  -6 -18  -4    9.20    1.20
   6  18  -4   11.80    1.30
  -6  18   4   12.20    1.20
   6 -18   4   11.20    1.10
  -6 -18   4   11.70    1.20
   6  18   4    9.70    1.10
   6  18   4   11.80    1.20
  -6 -18   4   10.30    1.20
  -6  18  -4   11.90    1.10
  -6  18  -4   10.50    1.20
  -6 -18  -5   42.60    3.00
   6  18  -5   41.70    3.00
  -6  18  -5   43.00    3.00
  -6 -18   5   41.40    3.00
   6  18   5   42.10    3.00
   6  18   5   42.10    2.90
  -6 -18   5   47.60    3.00
  -6 -18  -6    1.00    0.40
  -6 -18   6    1.20    0.40
   6  18   6    0.90    0.40
  -6  18  -6    0.30    0.40
  -7 -18   0    0.40    0.40
  -7  18   0    0.10    0.40
   7  18   0   -0.10    0.40
  -7  18   0    0.00    0.40
   7 -18   0    0.10    0.30
   7  18  -1  427.66   25.20
   7 -18   1  396.66   25.00
  -7  18   1  418.06   25.10
  -7 -18   1  436.76   25.20
  -7  18  -1  438.86   25.10
  -7  18  -1  409.56   25.10
  -7 -18   1  392.76   25.10
   7  18   1  428.46   25.20
  -7  18  -1  347.07   25.10
   7 -18  -1  449.76   25.10
   7  18  -2   13.50    1.30
  -7  18   2   13.10    1.20
  -7 -18  -2    9.60    1.20
   7 -18   2   14.40    1.20
   7  18   2   11.90    1.30
  -7  18  -2   12.20    1.20
  -7 -18   2   12.30    1.20
  -7  18  -2    8.80    1.20
   7 -18  -2   12.80    1.10
  -7 -18   2   12.30    1.30
  -7  18  -2   12.90    1.20
   7  18   2   11.70    1.10
  -7  18   3    4.30    0.80
  -7 -18  -3    4.00    0.70
   7  18  -3    4.40    0.80
   7 -18   3    4.90    0.70
  -7  18  -3    4.20    0.70
   7  18   3    4.10    0.80
  -7  18  -3    4.60    0.80
  -7 -18   3    4.00    0.70
  -7  18  -3    5.30    0.80
   7 -18  -3    4.50    0.60
   7  18   3    4.70    0.70
  -7 -18   3    5.10    0.80
   7 -18   4   21.50    1.70
  -7 -18  -4   20.60    1.80
   7  18  -4   21.80    1.80
  -7  18  -4   24.90    1.80
  -7 -18   4   22.00    1.90
   7  18   4   22.30    1.80
  -7 -18   4   22.90    1.80
   7  18   4   23.20    1.70
  -7  18  -4   23.60    1.80
   7  18  -5   26.30    2.10
  -7 -18  -5   28.70    2.20
  -7 -18   5   30.10    2.10
   7  18   5   27.80    2.20
  -7 -18   5   25.00    2.20
  -7  18  -5   30.60    2.10
   7  18   5   30.30    2.00
  -7 -18  -6    7.30    0.90
   7  18   6    8.90    0.80
  -8  18   0   80.79    5.20
  -8 -18   0   80.59    5.40
  -8  18   0   83.09    5.30
   8  18   0   83.99    5.40
  -8  18   1  164.28    9.80
  -8  18   1  149.99    9.60
   8 -18   1  133.89    9.70
   8  18  -1  164.38    9.90
  -8  18  -1  162.88    9.70
   8  18   1  162.78    9.90
   8 -18  -1  159.58    9.70
  -8 -18   1  146.99    9.70
  -8  18  -1  159.48    9.80
  -8 -18   1  169.88    9.90
  -8  18  -1  156.48    9.80
  -8  18   2  104.99    6.70
   8  18  -2  107.99    6.80
   8 -18   2  109.59    6.70
  -8  18  -2   99.99    6.70
  -8 -18   2  103.69    6.70
  -8  18  -2  108.29    6.70
   8 -18  -2  107.99    6.60
   8  18   2  100.59    6.70
  -8 -18  -3    7.30    1.00
   8  18  -3    6.40    0.90
   8 -18   3    9.60    1.00
  -8  18  -3    7.30    1.00
  -8  18  -3    8.00    1.00
  -8 -18   3    7.30    1.00
   8  18   3    8.10    1.00
  -8  18  -3    7.20    0.90
   8 -18  -3    7.30    0.80
   8  18   3    7.60    0.90
  -8 -18   3    7.50    1.00
   8 -18   4   33.00    2.40
  -8 -18  -4   33.40    2.50
   8  18  -4   34.60    2.50
   8  18   4   32.10    2.50
  -8  18  -4   34.50    2.50
   8  18   4   33.30    2.40
  -8 -18   4   34.20    2.60
  -8 -18   4   38.00    2.50
  -8  18  -4   36.60    2.50
  -8 -18  -5   10.40    1.10
   8  18  -5    9.90    1.10
  -8  18  -5   11.60    1.10
  -8 -18   5   11.50    1.10
  -8 -18   5   10.30    1.20
   8  18   5   11.20    1.00
   9  18   0    0.40    0.50
   9 -18   0    0.10    0.30
  -9  18   0   -1.00    0.40
  -9 -18   0    0.40    0.50
  -9  18   0    0.50    0.50
  -9  18   0    0.00    0.40
   9  18  -1    1.20    0.50
   9 -18   1    1.40    0.50
  -9  18   1    1.10    0.50
  -9  18   1    1.10    0.40
  -9  18  -1    1.20    0.50
   9 -18  -1    1.40    0.50
  -9 -18   1    2.20    0.60
   9  18   1    2.90    0.70
  -9 -18   1    0.80    0.50
  -9  18  -1    1.50    0.50
  -9  18  -1    1.50    0.50
   9  18  -2    9.80    1.20
   9 -18   2    9.90    1.00
  -9  18   2    9.10    1.10
  -9  18  -2    8.20    1.00
   9 -18  -2    8.30    0.90
  -9  18  -2    9.60    1.10
  -9 -18   2    9.00    1.00
  -9 -18   2    9.60    1.20
  -9  18  -2   10.10    1.00
   9  18  -3   42.20    3.00
   9 -18   3   41.20    2.90
  -9  18  -3   43.10    2.90
  -9 -18   3   42.40    2.90
  -9  18  -3   43.10    3.00
  -9  18  -3   41.60    3.00
   9 -18  -3   39.00    2.80
  -9 -18   3   43.30    3.10
   9  18  -4   29.80    2.30
  -9 -18   4   31.10    2.30
  -9  18  -4   33.40    2.30
  -9 -18   4   30.40    2.40
  -9  18  -4   31.70    2.30
   9  18   4   28.50    2.20
   9  18  -5    0.30    0.50
  -9  18  -5    1.00    0.40
  -9 -18   5    0.90    0.40
   9  18   5    0.00    0.40
  10 -18   0    1.80    0.40
 -10  18   0    0.70    0.50
 -10  18   0    1.60    0.50
 -10  18   0    2.40    0.60
 -10 -18   0    1.90    0.60
 -10  18   1   16.10    1.30
 -10  18   1   15.00    1.40
  10  18  -1   14.60    1.50
 -10  18   1   13.50    1.40
  10 -18   1   15.50    1.30
 -10  18  -1   14.40    1.40
 -10  18  -1   16.70    1.30
 -10  18  -1   14.70    1.40
 -10 -18   1   15.70    1.50
  10 -18  -1   13.00    1.20
  10 -18   2   66.79    4.30
  10  18  -2   60.59    4.40
 -10  18   2   63.69    4.20
 -10  18  -2   64.79    4.30
  10 -18  -2   65.99    4.20
 -10  18  -2   66.99    4.40
 -10 -18   2   62.99    4.30
 -10 -18   2   68.29    4.50
 -10  18  -2   67.89    4.40
  10 -18   3   10.20    1.00
  10  18  -3    8.10    1.10
 -10  18  -3    9.60    1.00
 -10  18  -3    8.80    1.10
 -10  18  -3   10.10    1.10
 -10 -18   3    9.50    1.00
  10 -18  -3    9.90    0.90
 -10 -18   3    9.80    1.20
  10  18  -4   -0.10    0.50
  10  18  -4    0.70    0.40
 -10  18  -4   -0.10    0.40
 -10 -18   4    0.60    0.50
 -10  18  -4    0.20    0.40
 -10 -18   4    0.30    0.40
 -10 -18   5    2.90    0.50
 -10  18  -5    3.10    0.60
  11 -18   0    0.30    0.40
 -11 -18   0    0.00    0.50
 -11  18   0   -0.40    0.50
 -11  18   0    0.20    0.50
 -11  18   0    0.30    0.40
  11 -18   1    6.00    0.80
 -11  18   1    7.70    0.90
 -11  18  -1    8.90    0.90
  11 -18  -1    6.80    0.80
 -11 -18   1    6.00    1.00
 -11  18  -1    9.10    1.00
 -11  18  -1    7.70    1.00
  11  18  -2    0.60    0.60
 -11  18   2    2.70    0.50
  11 -18   2    1.70    0.50
 -11  18  -2    1.60    0.60
  11 -18  -2    1.20    0.40
 -11 -18   2    1.60    0.50
 -11  18  -2    2.00    0.60
 -11  18  -2    0.90    0.50
 -11 -18   2    1.10    0.60
  11 -18   3    7.10    0.80
  11  18  -3    6.30    0.90
 -11 -18   3    8.50    1.00
  11 -18  -3    7.30    0.80
 -11 -18   3    7.50    0.90
 -11  18  -3    7.20    0.90
 -11  18  -3    7.10    0.90
 -11  18  -3    6.70    0.90
  11  18  -4   18.90    1.60
 -11  18  -4   19.30    1.50
 -11 -18   4   19.60    1.50
 -12  18   0   31.60    2.20
 -12 -18   0   28.70    2.30
  12 -18   0   28.00    2.10
 -12  18   1   41.00    2.80
  12 -18   1   40.30    2.80
 -12 -18   1   43.00    3.00
 -12  18  -1   40.60    2.90
 -12  18  -1   37.70    2.90
  12 -18  -1   38.90    2.70
 -12  18  -1   43.90    2.80
  12 -18   2    0.10    0.40
 -12  18   2    1.40    0.50
 -12  18  -2    0.80    0.60
  12 -18  -2    0.40    0.30
 -12 -18   2    0.60    0.40
 -12 -18   2    1.40    0.60
 -12  18  -2    0.70    0.50
 -12  18  -2    0.60    0.40
 -12 -18   3    8.30    1.00
 -12  18  -3    6.80    0.80
  12 -18  -3    6.40    0.70
 -12  18  -3    6.60    0.90
 -12 -18   3    7.00    0.80
 -12  18  -3    7.50    0.80
 -13 -18   0    0.20    0.50
  13 -18   0    0.10    0.40
 -13  18   0    0.40    0.40
 -13  18   1  190.18   11.40
  13 -18   1  181.38   11.30
 -13 -18   1  183.38   11.50
 -13  18  -1  195.28   11.40
  13 -18  -1  178.28   11.30
  13 -18   2    0.50    0.40
 -13  18   2    0.00    0.40
 -13  18  -2    0.40    0.50
  13 -18  -2    0.10    0.30
 -13  18  -2    0.50    0.40
 -13 -18   2    0.50    0.50
 -13  18  -3   59.49    3.80
 -14  18   0   52.19    3.30
  14 -18   0   48.40    3.30
  14 -18   1    1.20    0.40
 -14  18   1    2.10    0.40
 -14  18  -1    1.00    0.40
  14 -18  -1    1.30    0.40
  14 -18  -2    4.50    0.60
 -14  18  -2    4.20    0.60
   0  19   0    0.10    0.40
   0 -19   0    0.10    0.30
   0  19   0    0.50    0.30
   0 -19  -1    0.90    0.30
   0  19  -1    0.00    0.30
   0  19   1    2.60    0.60
   0  19  -1    0.20    0.40
   0  19   1    0.20    0.30
   0 -19   1    0.70    0.30
   0  19  -2   18.30    1.60
   0  19   2   17.30    1.50
   0 -19   2   16.30    1.40
   0  19   2   18.30    1.40
   0  19  -2   17.80    1.40
   0 -19  -2   15.80    1.50
   0 -19  -3   -0.10    0.40
   0  19  -3    0.50    0.50
   0  19  -3    0.50    0.40
   0  19   3   -0.20    0.40
   0 -19   3    0.00    0.30
   0  19  -3   -0.40    0.40
   0  19   3    0.10    0.30
   0 -19   4  112.29    6.70
   0  19  -4  108.39    6.70
   0  19   4   89.19    6.50
   0 -19  -4  106.89    6.60
   0 -19  -5    0.10    0.40
   0  19   5    0.30    0.40
   0  19   5   -0.60    0.40
   0 -19   5   -0.10    0.40
   0  19   6    0.30    0.50
   0 -19   6    0.40    0.50
   0  19   6    0.50    0.40
   0 -19  -6    1.00    0.40
  -1 -19   0   75.19    4.80
   1  19   0   74.49    4.80
   1 -19   0   78.99    4.80
  -1  19   0   80.39    4.90
   1  19   0   69.09    5.00
  -1  19   0   77.79    5.00
  -1  19   1   93.09    5.70
   1 -19   1   92.09    5.50
  -1  19   1   93.79    5.50
   1  19  -1   85.39    5.70
   1  19  -1   85.59    5.50
   1  19   1   70.69    5.60
   1 -19  -1   85.29    5.40
  -1  19  -1   87.39    5.70
  -1 -19   1   89.09    5.50
  -1  19  -1   86.69    5.50
   1  19   1   88.89    5.50
   1  19  -2  198.08   12.20
   1  19  -2  216.98   12.50
  -1  19   2  212.38   12.40
  -1  19   2  208.78   12.30
  -1 -19  -2  190.18   12.30
   1 -19   2  175.18   12.20
   1  19   2  213.68   12.30
  -1  19  -2  207.18   12.30
   1  19   2  193.28   12.40
  -1  19  -2  204.48   12.40
  -1 -19   2  185.58   12.30
   1 -19   3    9.80    1.20
  -1 -19  -3   14.70    1.30
  -1  19   3   12.00    1.20
  -1  19   3   14.70    1.40
  -1 -19   3   14.70    1.30
  -1  19  -3   14.40    1.30
   1 -19  -3   19.20    1.40
   1  19   3   14.60    1.30
   1  19   3    8.90    1.10
  -1  19  -3   15.30    1.30
  -1  19  -3   15.00    1.40
   1  19  -4   19.40    1.80
  -1  19   4   19.00    1.50
  -1  19   4   19.30    1.70
   1 -19   4   19.20    1.60
  -1 -19  -4   18.90    1.60
   1  19   4   19.70    1.60
  -1  19  -4   18.90    1.60
   1 -19  -4   16.60    1.60
  -1 -19   4   20.20    1.60
  -1  19   5   10.80    1.20
   1 -19   5   10.30    1.10
   1  19  -5    7.20    1.00
  -1  19   5   10.90    1.10
  -1 -19  -5   11.30    1.20
  -1 -19   5   11.60    1.20
   1  19   5   10.20    1.20
   1 -19  -5    9.70    1.10
   1  19   5   10.50    1.10
  -1  19   6   -0.10    0.40
   1 -19   6    0.20    0.40
  -1  19   6    0.10    0.50
  -1 -19  -6    0.40    0.40
   1  19   6    0.20    0.50
   1 -19  -6    0.30    0.40
  -1 -19   6    0.50    0.50
   1  19   6    0.20    0.40
  -1 -19   6   -0.20    0.50
   2  19   0    0.00    0.30
   2 -19   0    0.00    0.30
  -2 -19   0   -0.30    0.30
   2  19   0   -0.10    0.30
  -2  19   0   -0.10    0.40
  -2 -19   0    0.50    0.30
  -2  19   0    0.30    0.30
  -2  19   1  330.37   20.50
  -2 -19  -1  310.47   20.40
   2 -19   1  352.96   20.40
  -2  19   1  350.26   20.40
   2  19  -1  317.37   20.30
   2  19  -1  307.17   20.50
   2  19   1  338.67   20.30
   2 -19  -1  349.47   20.30
  -2  19  -1  347.17   20.50
  -2 -19   1  348.47   20.40
  -2  19  -1  343.27   20.40
  -2  19   2   62.59    4.10
   2 -19   2   54.09    4.00
   2  19  -2   69.69    4.30
  -2  19   2   61.29    4.20
  -2 -19  -2   59.49    4.10
  -2  19  -2   63.79    4.10
   2  19   2   65.59    4.20
  -2 -19   2   58.19    4.00
  -2  19  -2   61.49    4.20
   2  19   2   64.29    4.00
   2 -19   3   19.30    1.60
  -2 -19  -3   21.10    1.70
   2  19  -3   22.80    1.80
  -2  19   3   21.10    1.70
  -2  19   3   20.50    1.60
  -2  19  -3   21.60    1.60
  -2  19  -3   17.30    1.70
   2  19   3   17.70    1.60
   2  19   3   15.70    1.50
   2 -19  -3   18.30    1.80
  -2 -19   3   17.90    1.60
  -2  19  -3   22.50    1.70
   2  19  -4   40.20    3.00
  -2  19   4   42.00    2.90
   2 -19   4   45.00    2.90
  -2  19   4   42.40    3.00
  -2 -19  -4   41.70    3.00
  -2  19  -4   42.80    2.90
   2  19   4   41.80    2.90
  -2  19  -4   40.40    2.90
   2 -19  -4   37.00    2.90
  -2 -19   4   42.50    2.90
  -2  19   5   15.00    1.50
  -2  19   5   13.70    1.30
   2  19  -5   14.70    1.40
   2 -19   5   13.80    1.30
  -2 -19  -5   14.10    1.40
  -2 -19   5   14.20    1.30
  -2 -19   5   14.80    1.30
   2  19   5   13.90    1.40
  -2  19  -5   12.40    1.30
   2 -19  -5   13.20    1.30
   2  19   5   16.60    1.30
  -2  19   6    7.20    0.90
  -2  19   6    6.30    0.70
  -2 -19  -6    5.90    0.80
   2  19   6    6.90    0.90
  -2 -19   6    7.40    0.80
   2 -19  -6    6.30    0.80
   2  19   6    7.00    0.80
  -2 -19   6    4.90    0.90
  -3 -19   0   46.90    3.00
  -3  19   0   46.00    3.10
  -3  19   0   44.90    3.00
   3  19   0   41.80    2.90
   3 -19   0   48.70    2.90
   3  19   0   34.00    3.00
  -3 -19   0   43.40    2.90
  -3  19   1  106.19    6.80
  -3 -19  -1  102.49    6.90
   3 -19   1  113.99    6.80
  -3  19   1  111.79    7.00
  -3  19  -1  113.89    6.90
   3 -19  -1  113.39    6.80
  -3 -19   1  116.19    6.90
  -3  19  -1  104.59    7.00
  -3 -19   1  103.59    6.80
   3  19   1  104.59    6.80
  -3 -19  -2   78.79    4.90
  -3  19   2   76.09    4.90
  -3  19   2   74.49    4.80
   3 -19   2   62.39    4.70
   3  19   2   60.19    4.80
  -3  19  -2   84.29    4.90
  -3 -19   2   77.89    4.80
   3  19   2   76.69    4.80
  -3  19  -2   74.39    4.80
  -3  19  -2   80.49    4.80
  -3 -19  -3   86.19    5.50
  -3  19   3   86.39    5.40
   3  19  -3   77.09    5.50
  -3  19   3   83.69    5.50
   3 -19   3   84.09    5.30
  -3  19  -3   85.39    5.40
  -3  19  -3   85.49    5.40
   3  19   3   84.59    5.50
   3  19   3   84.59    5.30
  -3 -19   3   76.09    5.40
   3 -19   4    0.40    0.40
  -3  19   4    1.00    0.50
  -3 -19  -4    0.20    0.40
  -3  19   4    0.70    0.50
   3  19  -4    0.10    0.50
   3 -19  -4    0.50    0.40
   3  19   4    0.50    0.40
  -3  19  -4    0.90    0.40
  -3 -19   4    0.60    0.40
   3  19   4    0.50    0.50
  -3  19  -4    0.80    0.40
  -3 -19   4    0.80    0.50
   3 -19   5   75.89    4.60
  -3  19   5   67.19    4.60
  -3 -19  -5   68.79    4.60
   3  19  -5   68.09    4.60
  -3  19   5   67.39    4.50
  -3  19  -5   64.79    4.50
  -3 -19   5   75.19    4.60
  -3 -19   5   71.69    4.60
  -3  19  -5   67.59    4.50
   3  19   5   77.89    4.60
   3 -19  -5   64.79    4.50
  -3 -19  -6   16.20    1.40
   3  19   6   14.10    1.30
   3 -19  -6   13.30    1.20
  -3 -19   6   17.30    1.30
   3  19   6   15.60    1.30
  -4 -19   0    0.70    0.40
   4  19   0    0.00    0.40
  -4  19   0   -0.40    0.30
  -4  19   0   -0.10    0.50
  -4 -19   0   -0.10    0.40
   4 -19   0    0.30    0.30
   4  19   0    0.60    0.40
   4 -19   1  205.58   12.50
   4  19  -1  181.48   12.60
  -4  19   1  215.18   12.50
  -4  19   1  192.88   12.60
  -4 -19  -1  194.78   12.60
   4  19   1  195.08   12.60
  -4 -19   1  227.88   12.60
   4  19   1  201.08   12.40
   4 -19  -1  223.18   12.50
  -4 -19   1  197.78   12.50
  -4  19  -1  206.08   12.50
  -4  19   2   54.99    4.00
   4 -19   2   58.79    3.80
   4  19  -2   49.40    3.90
  -4 -19  -2   58.99    4.00
  -4  19   2   60.59    3.90
  -4  19  -2   61.49    3.90
   4 -19  -2   58.89    3.80
   4  19   2   61.99    4.00
  -4 -19   2   60.39    3.90
   4  19   2   56.79    3.80
  -4  19  -2   57.69    3.80
  -4  19  -2   56.99    3.90
  -4 -19   2   61.09    3.90
  -4  19   3    2.20    0.70
   4 -19   3    3.00    0.60
  -4  19   3    1.60    0.50
   4  19  -3    1.90    0.60
  -4 -19  -3    1.90    0.60
  -4 -19   3    1.70    0.50
  -4  19  -3    1.70    0.50
   4  19   3    2.70    0.60
  -4  19  -3    2.20    0.60
  -4 -19   3    1.50    0.50
   4  19   3    1.70    0.50
  -4 -19  -4   21.40    1.80
  -4  19   4   20.50    1.90
   4  19  -4   24.60    1.90
  -4  19   4   22.60    1.70
   4 -19   4   21.40    1.80
   4  19   4   23.20    1.80
  -4 -19   4   18.50    1.70
  -4  19  -4   23.90    1.80
  -4  19  -4   22.40    1.80
   4  19   4   20.80    1.80
  -4 -19   4   23.20    1.80
  -4  19   5   14.80    1.50
   4 -19   5   16.20    1.40
   4  19  -5   15.80    1.50
  -4  19   5   15.70    1.30
  -4 -19  -5   15.30    1.50
   4 -19  -5   15.00    1.30
   4  19   5   18.00    1.40
  -4 -19   5   16.60    1.50
  -4  19  -5   15.20    1.40
  -4 -19   5   18.00    1.40
   4  19   5   15.00    1.40
  -4  19  -5   14.90    1.30
  -4 -19  -6    0.10    0.40
  -4  19  -6    0.60    0.60
   4 -19  -6    0.50    0.40
  -4 -19   6    0.20    0.40
   4  19   6    0.30    0.30
   5 -19   0  286.37   15.80
  -5 -19   0  283.97   15.90
   5  19   0  276.67   16.00
  -5 -19   0  234.58   16.00
  -5  19   0  218.08   15.80
  -5  19   1  184.98   10.80
  -5 -19  -1  171.78   10.80
   5 -19   1  156.18   10.70
   5  19  -1  149.69   10.80
  -5 -19   1  194.48   10.90
   5 -19  -1  191.78   10.70
  -5  19  -1  170.48   10.70
   5  19   1  164.58   10.70
  -5 -19   1  176.58   10.80
  -5  19  -1  164.28   10.80
   5  19   1  192.48   10.90
   5  19  -2   54.69    3.90
  -5  19   2   60.39    3.80
  -5 -19  -2   56.89    3.90
   5  19   2   57.09    3.70
  -5  19  -2   56.79    3.70
  -5 -19   2   59.59    3.90
  -5  19  -2   52.19    3.80
  -5 -19   2   60.09    3.80
   5  19   2   57.79    3.90
  -5  19  -2   50.39    3.80
   5 -19  -2   57.89    3.70
  -5  19   3    0.70    0.40
  -5 -19  -3    1.20    0.50
   5 -19   3    1.60    0.50
   5  19  -3    0.70    0.50
   5  19   3    1.30    0.50
  -5  19  -3    1.30    0.50
  -5 -19   3    1.00    0.50
  -5  19  -3    0.80    0.50
  -5 -19   3    1.90    0.50
   5  19   3    1.00    0.50
  -5  19  -3    0.70    0.40
   5  19  -4    1.40    0.60
  -5  19   4    1.20    0.50
  -5 -19  -4    1.10    0.60
   5 -19   4    1.40    0.50
  -5  19  -4    1.50    0.50
  -5 -19   4    1.00    0.50
  -5 -19   4    1.00    0.50
   5  19   4    1.30    0.50
  -5  19  -4    1.20    0.50
   5  19   4    1.60    0.50
  -5 -19  -5   34.40    2.50
   5  19  -5   31.70    2.50
   5  19   5   36.30    2.40
  -5 -19   5   33.10    2.50
  -5 -19   5   36.20    2.40
  -5  19  -5   31.70    2.40
   5  19   5   33.10    2.50
  -5 -19  -6    2.50    0.50
  -5 -19   6    3.10    0.60
   5  19   6    3.90    0.60
   6 -19   0    0.30    0.30
  -6 -19   0    0.30    0.40
   6  19   0    0.30    0.50
  -6  19   0    0.10    0.40
   6 -19   1    1.90    0.50
   6  19  -1    2.20    0.60
  -6  19   1    2.00    0.50
  -6  19  -1    0.70    0.50
   6  19   1    3.20    0.70
  -6  19  -1    2.00    0.50
  -6 -19   1    2.00    0.60
   6 -19  -1    2.60    0.50
  -6 -19   1    1.70    0.50
   6  19  -2   98.29    6.20
  -6  19   2   95.29    6.00
  -6 -19  -2   89.69    6.10
   6 -19   2   83.19    6.00
   6 -19  -2   96.99    5.90
  -6  19  -2   96.79    6.10
   6  19   2   94.49    6.00
  -6  19  -2   95.49    6.10
  -6 -19   2   94.39    6.10
  -6  19  -2   96.39    6.00
  -6 -19   2   96.79    6.10
   6  19   2   97.29    6.10
  -6 -19  -3   35.40    2.70
   6 -19   3   38.20    2.60
   6  19  -3   37.60    2.70
  -6  19   3   36.00    2.60
  -6  19  -3   38.40    2.60
  -6 -19   3   38.80    2.70
   6  19   3   35.20    2.60
   6  19   3   37.70    2.70
  -6  19  -3   36.00    2.70
  -6 -19   3   35.80    2.70
  -6  19  -3   35.30    2.60
  -6 -19  -4   10.10    1.20
   6 -19   4   12.70    1.20
   6  19  -4   12.60    1.30
  -6  19   4   10.80    1.20
   6  19   4   11.40    1.10
  -6 -19   4   12.40    1.20
  -6  19  -4   12.40    1.20
   6  19   4   12.50    1.30
  -6 -19   4   13.00    1.30
  -6  19  -4   13.40    1.20
  -6 -19  -5   10.30    1.10
   6  19  -5    8.70    1.00
  -6 -19   5   12.20    1.10
  -6 -19   5    9.70    1.10
  -6  19  -5   10.60    1.10
   6  19   5    9.80    1.10
   6  19   5   11.40    1.10
  -6 -19  -6   12.00    1.10
   6  19   6   12.30    1.00
  -7 -19   0   38.80    2.70
  -7  19   0   33.90    2.50
  -7  19   0   35.00    2.60
   7 -19   0   37.30    2.50
   7  19   0   33.90    2.70
  -7  19   1   36.30    2.70
   7  19  -1   38.40    2.80
  -7  19  -1   36.30    2.60
  -7 -19   1   33.90    2.60
  -7  19  -1   38.20    2.70
  -7 -19   1   38.80    2.80
   7  19   1   37.50    2.80
  -7  19  -1   38.60    2.70
   7 -19  -1   38.20    2.60
  -7  19   2  131.09    7.60
  -7 -19  -2  116.09    7.70
   7  19  -2  127.59    7.70
   7 -19   2  126.69    7.60
  -7 -19   2  124.59    7.70
  -7  19  -2  101.59    7.60
   7 -19  -2  121.69    7.50
  -7  19  -2  109.19    7.60
  -7 -19   2  120.89    7.60
   7  19   2  128.79    7.70
   7  19   2  114.89    7.50
  -7  19  -2  124.49    7.60
  -7 -19  -3    8.80    1.10
   7 -19   3    8.70    1.00
  -7  19   3    9.10    1.00
   7  19  -3   11.10    1.20
  -7 -19   3    9.90    1.20
   7  19   3    9.30    1.00
   7 -19  -3    8.60    0.90
  -7  19  -3    7.50    1.00
  -7  19  -3   10.00    1.10
  -7 -19   3   10.50    1.00
  -7  19  -3    8.60    1.00
   7  19   3    9.40    1.10
   7 -19   4   17.90    1.50
   7  19  -4   18.10    1.60
  -7 -19  -4   16.10    1.60
  -7  19  -4   20.00    1.60
  -7 -19   4   18.60    1.50
  -7 -19   4   18.30    1.70
   7  19   4   18.70    1.50
   7  19   4   17.80    1.60
  -7  19  -4   17.90    1.60
   7  19  -5    4.00    0.60
  -7 -19  -5    2.90    0.60
  -7 -19   5    2.10    0.50
  -7  19  -5    2.30    0.50
   7  19   5    2.30    0.70
  -7 -19   5    1.90    0.60
   7  19   5    3.10    0.60
   8 -19   0   -0.20    0.30
  -8  19   0   -0.30    0.40
  -8 -19   0   -0.70    0.40
   8  19   0    0.20    0.50
  -8  19   0    0.60    0.50
  -8  19   1    2.10    0.60
   8  19  -1    2.00    0.60
   8 -19   1    1.30    0.40
   8 -19  -1    1.80    0.50
  -8  19  -1    1.30    0.50
  -8 -19   1    3.10    0.60
  -8 -19   1    1.30    0.60
  -8  19  -1    1.20    0.50
  -8  19  -1    4.80    0.70
   8  19   1    1.40    0.60
   8  19  -2   13.30    1.40
   8 -19   2   14.40    1.20
  -8  19   2   13.60    1.30
   8 -19  -2   13.50    1.20
  -8 -19   2   12.40    1.20
   8  19   2   15.20    1.50
  -8  19  -2   11.60    1.20
  -8  19  -2   12.20    1.30
  -8 -19   2   15.60    1.50
  -8  19  -2   14.50    1.30
  -8 -19  -3   41.20    3.00
   8 -19   3   41.60    2.80
   8  19  -3   40.70    2.90
  -8 -19   3   42.70    2.90
   8 -19  -3   39.70    2.70
  -8  19  -3   45.70    2.90
  -8  19  -3   42.70    2.90
  -8 -19   3   38.50    3.00
  -8  19  -3   42.80    2.90
   8  19   3   40.50    3.00
   8  19   3   39.40    2.80
   8  19  -4    0.40    0.40
   8 -19   4    0.70    0.50
  -8 -19  -4    0.50    0.40
  -8  19  -4    0.60    0.40
   8  19   4    0.30    0.60
   8  19   4    0.20    0.40
  -8  19  -4    0.50    0.40
  -8 -19   4    0.00    0.50
  -8 -19   4    0.20    0.40
  -8 -19  -5   17.00    1.40
   8  19  -5   14.60    1.40
  -8 -19   5   18.50    1.40
  -8  19  -5   17.70    1.40
   8  19   5   18.20    1.40
  -9  19   0   39.70    2.70
   9 -19   0   36.20    2.70
  -9 -19   0   39.80    2.80
  -9  19   0   40.40    2.80
  -9  19   0   38.70    2.80
   9  19   0   37.90    2.90
   9  19  -1   18.60    1.60
  -9  19   1   16.10    1.40
   9 -19   1   16.00    1.40
  -9  19   1   16.20    1.50
  -9 -19   1   18.10    1.60
   9 -19  -1   19.20    1.40
  -9  19  -1   19.70    1.50
  -9 -19   1   15.60    1.40
   9  19   1   15.50    1.70
  -9  19  -1   18.60    1.60
  -9  19  -1   17.50    1.60
  -9  19   2   17.80    1.70
   9  19  -2   19.40    1.70
   9 -19   2   21.40    1.60
  -9 -19   2   20.40    1.60
  -9  19  -2   20.40    1.70
  -9 -19   2   20.40    1.80
  -9  19  -2   21.30    1.60
  -9  19  -2   19.60    1.70
   9 -19  -2   19.40    1.50
   9 -19   3    6.30    0.80
   9  19  -3    6.20    0.90
  -9  19  -3    6.40    0.90
  -9  19  -3    6.10    0.80
  -9 -19   3    6.40    0.90
  -9 -19   3    6.00    0.80
  -9  19  -3    7.80    0.90
   9  19  -4    2.30    0.60
   9  19  -4    1.80    0.60
  -9 -19   4    4.00    0.60
  -9  19  -4    4.20    0.70
  -9 -19   4    3.20    0.70
   9  19   4    2.50    0.50
  -9  19  -4    2.70    0.60
  -9  19  -5    6.10    0.70
  -9 -19   5    5.80    0.70
 -10  19   0    0.20    0.50
  10 -19   0    0.60    0.40
 -10  19   0    0.40    0.40
 -10 -19   0   -0.10    0.50
  10  19   0   -0.10    0.60
 -10  19   0    0.10    0.40
  10 -19   1   10.90    1.00
 -10  19   1   10.60    1.20
 -10  19   1   10.20    1.10
 -10  19   1    9.70    1.00
  10  19  -1    9.70    1.20
 -10 -19   1    9.90    1.20
 -10  19  -1   12.10    1.10
  10 -19  -1   10.00    1.00
 -10  19  -1   10.60    1.20
 -10  19  -1   11.70    1.20
  10 -19   2    7.90    0.90
  10  19  -2    8.70    1.10
 -10  19  -2    7.70    1.00
 -10  19  -2    8.10    0.90
  10 -19  -2    8.70    0.90
 -10 -19   2    9.20    1.10
 -10 -19   2    7.70    0.90
 -10  19  -2    7.80    1.00
  10  19  -3    1.60    0.50
  10 -19   3    1.20    0.40
 -10 -19   3    1.00    0.50
 -10  19  -3    1.20    0.50
 -10 -19   3    1.40    0.50
  10 -19  -3    1.70    0.40
 -10  19  -3    1.30    0.50
 -10  19  -3    1.60    0.60
  10  19  -4    3.10    0.70
  10  19  -4    3.20    0.60
 -10 -19   4    4.00    0.70
 -10  19  -4    3.40    0.60
 -10 -19   4    3.40    0.60
 -11  19   0    6.30    0.90
  11 -19   0    6.50    0.80
 -11  19   0    7.00    0.80
 -11  19   0    6.10    0.90
 -11 -19   0    7.30    1.00
  11 -19   1    2.90    0.50
 -11  19   1    3.50    0.60
  11 -19  -1    4.00    0.60
 -11  19  -1    2.90    0.70
 -11 -19   1    3.50    0.70
 -11  19  -1    4.70    0.70
  11 -19   2   10.60    1.00
 -11  19   2   10.80    1.40
  11  19  -2    9.70    1.20
 -11  19  -2   11.60    1.20
  11 -19  -2   10.00    1.00
 -11  19  -2   11.60    1.10
 -11 -19   2   12.60    1.30
 -11 -19   2   10.80    1.10
 -11  19  -2   11.10    1.20
  11  19  -3    1.00    0.60
  11 -19   3    1.90    0.50
 -11 -19   3    2.10    0.60
 -11  19  -3    1.70    0.50
  11 -19  -3    2.30    0.40
 -11 -19   3    1.70    0.40
 -11  19  -3    1.20    0.50
 -11  19  -3    1.40    0.50
 -11 -19   4    0.90    0.40
 -11  19  -4    0.90    0.40
  12 -19   0    0.00    0.30
 -12  19   0    0.50    0.40
 -12 -19   0   -0.40    0.50
  12 -19   1    1.50    0.40
 -12  19   1    1.10    0.40
 -12  19  -1    0.90    0.40
  12 -19  -1    1.20    0.40
 -12  19  -1    1.10    0.60
 -12 -19   1    0.80    0.50
 -12  19  -1    1.20    0.50
  12 -19   2    5.80    0.70
 -12  19   2    5.40    0.70
 -12  19  -2    5.60    0.80
 -12  19  -2    5.70    0.70
 -12 -19   2    6.30    0.90
  12 -19  -2    6.30    0.70
 -12  19  -2    6.60    0.80
 -12  19  -3   27.40    1.80
 -12 -19   3   25.10    1.80
  12 -19  -3   24.60    1.70
 -12  19  -3   22.60    1.90
  13 -19   0   30.90    2.10
 -13  19   0   31.70    2.20
  13 -19   1    0.40    0.30
 -13  19   1    0.40    0.40
  13 -19  -1   -0.10    0.30
 -13 -19   1    0.10    0.50
 -13  19  -1    0.50    0.40
 -13  19   2    1.20    0.50
  13 -19   2    1.80    0.40
 -13  19  -2    0.60    0.40
 -13  19  -2    1.40    0.50
  13 -19  -2    1.60    0.40
 -13  19  -3    4.30    0.80
  14 -19   0    0.20    0.30
 -14  19   0    0.20    0.40
 -14  19   1   37.90    2.80
 -14  19  -1   40.90    2.60
  14 -19  -1   37.80    2.50
   0  20   0   34.60    2.40
   0 -20   0   34.50    2.40
   0  20   0   37.60    2.70
   0 -20   1    0.00    0.30
   0  20   1    0.10    0.40
   0 -20  -1    0.10    0.30
   0  20  -1   -0.10    0.40
   0  20  -1    0.10    0.30
   0  20   1   -0.20    0.30
   0  20   2  141.19    8.60
   0  20  -2  135.39    8.60
   0 -20   2  124.29    8.40
   0  20  -2  140.79    8.40
   0  20  -3    0.00    0.40
   0  20   3    0.20    0.40
   0  20  -3    0.90    0.40
   0 -20  -3    0.10    0.50
   0 -20   3    0.30    0.40
   0  20   3    0.50    0.40
   0  20  -3    0.00    0.50
   0 -20   4  101.19    6.30
   0  20   4  104.09    6.40
   0  20  -4   90.29    6.30
   0  20   4   97.09    6.20
   0 -20  -4   96.09    6.20
   0 -20   5    0.20    0.40
   0  20   5    0.20    0.40
   0  20   5    0.40    0.50
   0 -20  -5    0.60    0.40
   0  20   6    4.70    0.60
   0 -20  -6    6.10    0.70
   1  20   0    0.50    0.30
  -1  20   0   -0.30    0.30
   1  20   0    0.20    0.40
  -1  20   0    0.80    0.50
   1 -20   0   -0.50    0.30
  -1 -20   0    0.90    0.40
   1  20  -1    3.80    0.80
  -1  20   1    3.90    0.70
   1 -20   1    4.80    0.60
   1  20  -1    3.90    0.60
  -1  20   1    3.70    0.60
  -1  20  -1    3.80    0.60
  -1 -20   1    4.10    0.60
   1  20   1    3.10    0.70
   1 -20  -1    3.40    0.60
  -1  20  -1    4.00    0.70
   1  20   1    4.50    0.60
   1  20  -2   80.49    5.20
   1  20  -2   76.39    5.00
   1 -20   2   70.69    5.00
  -1 -20  -2   72.29    5.00
   1  20  -2   79.99    5.00
  -1  20   2   81.79    5.20
   1  20   2   81.69    5.20
  -1  20  -2   81.79    5.00
   1  20   2   78.29    5.00
  -1  20  -2   83.39    5.10
  -1 -20   2   70.39    5.00
  -1  20  -2   82.79    5.20
  -1  20   3    9.10    1.20
   1  20  -3   13.60    1.40
  -1  20   3   15.00    1.50
  -1 -20  -3   14.50    1.30
   1 -20   3   13.80    1.20
   1 -20  -3   14.80    1.30
  -1  20  -3   14.10    1.40
   1  20   3   13.50    1.40
   1  20   3   15.30    1.30
  -1  20  -3   15.00    1.30
  -1  20  -3   14.80    1.30
  -1 -20   3   14.00    1.30
  -1 -20  -4   21.50    1.80
  -1  20   4   21.10    1.70
   1  20  -4   21.80    1.90
   1 -20   4   21.40    1.70
  -1  20   4   21.90    1.90
   1 -20  -4   18.50    1.70
   1  20   4   20.70    1.70
  -1  20  -4   20.10    1.70
   1  20   4   23.20    1.80
  -1 -20   4   23.60    1.80
  -1 -20  -5    0.30    0.40
  -1  20   5    0.20    0.40
  -1  20   5    0.30    0.50
   1  20  -5   -0.30    0.50
   1 -20   5    0.70    0.40
  -1 -20   5    0.50    0.40
   1  20   5    0.60    0.40
   1 -20  -5   -0.20    0.40
  -1 -20   5    0.10    0.40
   1  20   5    0.70    0.50
  -1 -20  -6    0.40    0.40
  -1  20   6    1.00    0.40
   1 -20  -6    0.00    0.30
   1  20   6   -0.10    0.40
  -1 -20   6   -0.30    0.50
   2  20   0   88.39    6.00
  -2 -20   0   92.59    5.80
  -2 -20   0   93.69    5.90
  -2  20   0   97.89    5.90
   2  20   0   88.19    5.80
   2 -20   0   97.49    5.80
  -2  20   0   90.69    6.00
   2 -20   1    0.10    0.30
  -2 -20  -1   -0.10    0.40
  -2  20   1    1.10    0.50
   2  20  -1    1.10    0.40
  -2  20   1    0.30    0.30
   2  20  -1    0.40    0.40
  -2  20  -1    0.00    0.30
  -2 -20   1    0.70    0.40
  -2  20  -1    0.90    0.50
   2  20   1    0.70    0.40
   2  20   1    0.40    0.30
   2 -20  -1    0.60    0.40
  -2 -20  -2  178.98   11.10
  -2  20   2  188.18   11.20
   2  20  -2  176.48   11.20
  -2  20   2  160.38   11.00
  -2  20  -2  186.18   11.10
  -2  20  -2  189.68   11.10
   2  20   2  171.68   11.10
  -2  20  -2  173.28   11.10
  -2 -20   2  174.98   11.00
   2  20   2  188.48   11.00
  -2 -20  -3    3.50    0.70
   2 -20   3    4.30    0.70
  -2  20   3    3.20    0.70
   2  20  -3    4.10    0.80
  -2  20   3    4.30    0.70
   2  20   3    3.40    0.70
  -2  20  -3    4.20    0.70
  -2 -20   3    3.40    0.60
   2  20   3    4.00    0.60
  -2  20  -3    3.80    0.70
  -2  20   4    2.90    0.70
  -2 -20  -4    5.00    0.80
   2 -20   4    2.90    0.60
  -2  20   4    2.90    0.60
   2  20   4    3.10    0.60
  -2  20  -4    3.70    0.70
  -2  20  -4    2.90    0.60
  -2 -20   4    4.50    0.70
   2 -20  -4    3.00    0.60
  -2 -20   4    3.50    0.70
   2  20   4    2.90    0.70
  -2 -20  -5   15.80    1.40
  -2  20   5   16.80    1.60
   2  20  -5   12.00    1.40
  -2  20   5   17.70    1.40
   2 -20   5   17.30    1.40
  -2 -20   5   16.20    1.40
   2 -20  -5   13.10    1.30
   2  20   5   16.00    1.50
   2  20   5   17.70    1.40
  -2 -20   5   16.10    1.40
  -2  20   6    0.10    0.40
  -2 -20  -6    0.40    0.40
   2  20   6   -0.20    0.30
   2 -20  -6    0.40    0.40
  -2 -20   6    1.20    0.50
   3  20   0    1.10    0.40
  -3 -20   0   -0.30    0.40
   3  20   0    0.80    0.50
  -3  20   0    0.90    0.60
   3 -20   0    0.30    0.30
  -3  20   0    0.10    0.40
  -3 -20   0    0.30    0.30
  -3 -20  -1   30.00    2.40
   3 -20   1   28.90    2.30
  -3  20   1   36.00    2.50
  -3  20   1   29.60    2.30
   3  20   1   32.20    2.50
  -3 -20   1   32.50    2.30
   3 -20  -1   34.30    2.30
  -3  20  -1   34.00    2.50
  -3 -20   1   35.70    2.40
  -3  20  -1   34.80    2.40
   3  20   1   33.70    2.30
  -3  20   2    3.60    0.60
  -3 -20  -2    4.10    0.80
  -3  20   2    5.70    0.90
   3  20  -2    3.70    0.70
   3 -20   2    4.10    0.60
  -3  20  -2    5.60    0.80
  -3  20  -2    4.60    0.70
  -3 -20   2    4.30    0.70
   3  20   2    4.10    0.70
   3  20   2    3.60    0.60
  -3 -20   2    5.40    0.70
   3 -20   3    4.90    0.70
  -3  20   3    7.00    0.90
  -3 -20  -3    5.00    0.80
  -3  20   3    5.50    0.90
   3  20  -3    5.00    0.90
   3  20   3    4.50    0.80
   3  20   3    5.10    0.80
  -3  20  -3    4.90    0.80
  -3 -20   3    5.40    0.80
  -3  20  -3    6.20    0.80
  -3 -20   3    5.00    0.80
  -3  20   4   43.40    2.90
   3  20  -4   44.30    3.10
   3 -20   4   43.20    2.90
  -3 -20  -4   43.90    3.00
  -3  20   4   39.70    3.00
   3  20   4   43.80    3.00
  -3  20  -4   42.30    2.90
  -3  20  -4   42.60    2.90
  -3 -20   4   45.70    3.00
   3  20   4   33.50    2.80
  -3 -20   4   41.60    3.00
  -3  20   5    6.20    0.80
   3 -20   5    6.80    0.80
  -3  20   5    5.60    0.90
  -3 -20  -5    6.40    0.90
   3  20  -5    4.40    0.80
   3  20   5    7.80    0.90
  -3  20  -5    5.90    0.80
  -3 -20   5    5.80    0.80
   3  20   5    6.70    0.90
   3 -20  -5    4.90    0.70
  -3 -20   5    5.10    0.80
  -3 -20  -6    5.70    0.80
   3  20   6    5.60    0.70
   3 -20  -6    5.20    0.90
   4  20   0   11.50    1.40
   4 -20   0   15.50    1.20
  -4 -20   0   10.90    1.10
  -4 -20   0   14.00    1.30
  -4  20   0   13.60    1.70
   4  20   0   13.80    1.10
  -4  20   0   12.30    1.20
   4  20  -1   30.90    2.40
  -4  20   1   29.60    2.40
  -4 -20  -1   28.80    2.30
  -4  20   1   24.60    2.20
   4 -20   1   26.30    2.20
   4  20   1   30.30    2.40
  -4 -20   1   37.50    2.40
  -4 -20   1   34.10    2.30
   4 -20  -1   36.00    2.20
  -4  20  -1   30.90    2.30
   4  20   1   31.40    2.20
   4  20  -2    3.50    0.70
  -4  20   2    3.50    0.80
  -4  20   2    3.30    0.60
   4 -20   2    2.80    0.50
  -4 -20  -2    3.30    0.70
  -4  20  -2    3.50    0.60
   4 -20  -2    2.80    0.50
  -4  20  -2    3.40    0.60
   4  20   2    2.40    0.50
  -4  20  -2    2.60    0.60
   4  20   2    4.50    0.80
  -4 -20   2    3.10    0.60
  -4 -20   2    3.10    0.60
   4  20  -3   41.70    3.00
   4 -20   3   40.90    2.80
  -4  20   3   42.90    2.80
  -4  20   3   38.80    3.00
  -4 -20  -3   42.80    3.00
  -4 -20   3   31.10    2.80
   4  20   3   43.70    3.00
  -4  20  -3   43.90    2.90
  -4 -20   3   41.00    2.90
   4  20   3   40.40    2.80
  -4  20  -3   41.00    2.80
  -4  20   4   45.50    3.50
  -4 -20  -4   49.50    3.50
  -4  20   4   49.50    3.40
   4 -20   4   52.89    3.40
   4  20  -4   53.59    3.50
  -4  20  -4   49.90    3.40
  -4  20  -4   49.60    3.40
  -4 -20   4   48.00    3.40
  -4 -20   4   52.29    3.50
   4  20   4   50.29    3.40
   4  20   4   47.30    3.40
   4 -20   5   14.30    1.20
   4  20  -5   10.20    1.20
  -4  20   5   11.30    1.10
  -4 -20  -5   11.00    1.20
  -4  20  -5   10.80    1.10
  -4 -20   5   11.60    1.20
   4  20   5   12.20    1.20
   4  20   5   13.60    1.20
  -4 -20   5   12.30    1.20
  -4 -20  -6    5.10    0.70
   4  20   6    4.20    0.60
   5  20   0    0.10    0.50
   5 -20   0   -0.10    0.30
  -5  20   0    0.00    0.40
  -5 -20   0    0.70    0.40
   5 -20   1  297.97   18.60
   5  20  -1  301.57   18.80
  -5  20   1  281.47   18.60
  -5 -20   1  305.97   18.70
   5  20   1  329.77   18.80
   5 -20  -1  314.57   18.60
   5  20   1  295.07   18.60
  -5 -20   1  327.97   18.80
   5 -20   2    0.20    0.40
   5  20  -2    0.20    0.40
  -5  20   2   -0.20    0.40
  -5 -20  -2    0.00    0.40
  -5  20  -2    0.80    0.50
  -5  20  -2    0.60    0.40
  -5 -20   2    0.30    0.40
  -5 -20   2    0.30    0.40
   5  20   2    0.00    0.50
   5 -20  -2    0.50    0.30
   5  20   2    0.20    0.40
  -5  20  -2    1.00    0.40
  -5 -20  -3  281.47   18.00
  -5  20   3  302.77   18.00
   5  20  -3  294.67   18.10
   5 -20   3  300.07   17.90
   5  20   3  295.47   17.90
  -5  20  -3  296.27   18.00
  -5 -20   3  274.87   18.00
   5  20   3  303.87   18.10
  -5 -20   3  297.87   18.10
  -5  20  -3  298.37   18.00
   5  20  -4    6.90    0.90
  -5  20   4    5.50    0.80
   5 -20   4    7.30    0.90
  -5 -20  -4    5.60    0.90
  -5 -20   4    5.80    0.90
   5  20   4    6.80    0.80
  -5  20  -4    6.40    0.80
   5  20   4    6.10    0.90
  -5  20  -4    6.70    0.90
  -5 -20   4    5.90    0.80
   5  20  -5    2.20    0.60
  -5 -20  -5    2.70    0.60
   5  20   5    2.90    0.50
  -5 -20   5    2.00    0.60
  -5 -20   5    1.90    0.50
  -5  20  -5    2.40    0.50
   5  20   5    2.50    0.60
   5  20   6    3.40    0.50
   6  20   0   15.30    1.40
  -6 -20   0   13.70    1.40
   6 -20   0   12.40    1.20
  -6  20   0   14.80    1.30
   6 -20   1    6.00    0.80
  -6  20   1    8.40    1.00
   6  20  -1    8.70    1.10
  -6  20  -1    8.20    0.90
  -6  20  -1    6.10    0.90
   6 -20  -1    9.50    0.90
   6  20   1    8.00    1.10
  -6 -20   1    9.40    1.10
  -6 -20   1   10.10    1.00
  -6 -20  -2   13.40    1.40
   6  20  -2   16.60    1.50
   6 -20   2   14.90    1.30
  -6  20   2   15.40    1.40
   6 -20  -2   14.80    1.30
  -6 -20   2   15.50    1.40
   6  20   2   15.60    1.50
  -6  20  -2   17.20    1.40
   6  20   2   15.00    1.30
  -6  20  -2   15.10    1.40
  -6  20  -2   14.20    1.40
  -6 -20   2   17.00    1.50
  -6 -20  -3  171.88   11.20
   6 -20   3  188.18   11.20
   6  20  -3  175.18   11.20
  -6  20   3  179.98   11.20
  -6 -20   3  177.78   11.20
  -6  20  -3  186.98   11.10
  -6 -20   3  184.28   11.30
   6  20   3  181.98   11.30
  -6  20  -3  189.08   11.20
   6  20   3  178.48   11.10
  -6  20  -3  171.68   11.20
  -6  20   4    0.80    0.50
  -6 -20  -4    0.80    0.50
   6 -20   4    0.60    0.50
   6  20  -4    0.90    0.50
  -6 -20   4    0.70    0.40
  -6  20  -4    0.80    0.50
   6  20   4    0.70    0.50
  -6 -20   4    1.10    0.50
  -6  20  -4    0.90    0.40
   6  20   4    0.60    0.40
   6  20  -5   95.79    6.60
  -6 -20  -5  102.09    6.60
  -6 -20   5  103.79    6.60
  -6 -20   5  110.79    6.60
   6  20   5  111.49    6.50
   6  20   5  101.89    6.60
  -6  20  -5  104.79    6.60
  -7  20   0   -0.10    0.40
  -7 -20   0    0.40    0.40
   7  20   0    0.00    0.50
   7 -20   0    0.00    0.30
   7  20  -1  151.18    9.00
  -7  20   1  146.09    8.90
   7 -20   1  147.09    8.80
   7  20   1  145.69    9.00
  -7  20  -1  122.09    8.80
  -7 -20   1  133.39    8.80
  -7  20  -1  145.29    8.80
   7 -20  -1  145.89    8.80
  -7 -20   1  151.08    9.00
  -7  20  -1  125.89    8.80
   7 -20   2    0.30    0.40
   7  20  -2    0.30    0.50
  -7  20   2    0.80    0.50
   7 -20  -2    0.10    0.40
  -7 -20   2   -0.40    0.40
  -7 -20   2    0.70    0.40
  -7  20  -2    0.40    0.40
   7  20   2   -0.30    0.40
  -7  20  -2   -0.20    0.40
  -7  20  -2    0.40    0.40
   7  20   2    0.20    0.50
  -7 -20  -3  128.09    8.70
   7  20  -3  139.79    8.70
   7 -20   3  142.59    8.60
  -7  20   3  140.79    8.70
  -7  20  -3  143.49    8.60
   7  20   3  138.19    8.80
  -7  20  -3  142.99    8.70
   7  20   3  136.79    8.60
  -7 -20   3  139.09    8.80
  -7 -20   3  138.89    8.70
  -7  20  -3  133.09    8.70
   7 -20   4   13.20    1.20
   7  20  -4   13.20    1.30
  -7 -20  -4   11.90    1.30
   7  20   4   13.10    1.40
  -7  20  -4   13.50    1.20
  -7 -20   4   12.50    1.30
   7  20   4   12.40    1.20
  -7 -20   4   15.30    1.30
  -7  20  -4   14.30    1.30
   7  20  -5    1.40    0.50
  -7 -20  -5    0.10    0.40
  -7 -20   5    0.60    0.40
   7  20   5   -0.30    0.40
  -7  20  -5    0.30    0.40
   8 -20   0   27.80    2.30
  -8  20   0   32.30    2.30
   8  20   0   36.50    2.60
  -8 -20   0   36.10    2.50
  -8  20   0   34.60    2.40
   8 -20   1    3.00    0.60
   8  20  -1    2.00    0.60
  -8  20   1    3.20    0.70
  -8  20  -1    2.50    0.60
   8 -20  -1    2.10    0.50
  -8 -20   1    3.00    0.60
  -8  20  -1    2.60    0.60
  -8 -20   1    2.90    0.70
  -8  20  -1    4.70    0.80
   8  20   1    2.40    0.70
   8 -20   2   57.29    3.70
  -8  20   2   58.69    3.80
   8  20  -2   58.59    3.90
  -8  20  -2   54.09    3.80
  -8 -20   2   58.49    3.90
   8 -20  -2   53.49    3.60
  -8  20  -2   56.19    3.80
   8  20   2   55.39    3.90
  -8  20  -2   58.39    3.70
  -8 -20   2   49.90    3.70
   8 -20   3    8.60    0.90
   8  20  -3    7.30    1.00
  -8  20  -3    7.60    0.90
  -8  20  -3    8.00    1.00
   8  20   3    8.20    1.10
  -8 -20   3    7.80    0.90
  -8 -20   3    8.20    1.10
   8 -20  -3    7.20    0.80
   8  20   3    8.60    0.90
  -8  20  -3    7.90    1.00
   8 -20   4   11.90    1.10
  -8 -20  -4   12.30    1.20
   8  20  -4   11.00    1.20
  -8  20  -4   11.40    1.10
   8  20   4   11.90    1.30
   8  20   4   10.80    1.10
  -8  20  -4   11.50    1.20
  -8 -20   4   13.40    1.20
  -8 -20   4   12.30    1.30
  -8 -20   5   41.90    2.70
   8  20   5   39.60    2.60
  -8  20  -5   37.30    2.60
  -9  20   0    0.30    0.40
  -9  20   0    0.20    0.40
   9  20   0    1.30    0.60
  -9 -20   0   -0.30    0.50
   9 -20   0    0.30    0.30
  -9  20   0    0.40    0.40
  -9  20   1   38.20    2.70
   9 -20   1   35.50    2.50
   9  20  -1   34.90    2.70
   9  20   1   37.10    2.80
  -9 -20   1   36.20    2.70
  -9  20  -1   37.90    2.60
   9 -20  -1   38.00    2.60
  -9  20  -1   36.30    2.70
   9  20  -2   24.60    2.00
   9 -20   2   24.80    1.90
  -9  20   2   24.60    2.00
  -9 -20   2   28.20    2.10
  -9 -20   2   23.90    1.90
   9 -20  -2   24.60    1.80
   9  20   2   22.00    2.10
  -9  20  -2   27.20    1.90
  -9  20  -2   26.40    2.00
  -9  20  -2   26.20    2.00
   9  20  -3    0.70    0.50
   9 -20   3    0.50    0.40
   9 -20  -3   -0.10    0.40
  -9 -20   3    1.00    0.50
  -9  20  -3    0.90    0.40
  -9  20  -3    0.20    0.40
  -9 -20   3    0.60    0.40
  -9  20  -3    1.60    0.50
   9  20  -4    5.60    0.80
  -9  20  -4    6.90    0.80
  -9 -20   4    6.10    0.80
   9  20   4    5.50    0.80
  -9 -20   4    7.10    0.80
  -9  20  -4    5.90    0.80
 -10  20   0  134.49    8.30
 -10 -20   0  126.99    8.30
  10 -20   0  137.39    8.20
 -10  20   0  132.99    8.20
 -10  20   0  134.79    8.30
  10  20   0  121.09    8.30
  10 -20   1   41.50    2.80
 -10  20   1   41.10    2.90
  10  20  -1   39.70    3.00
 -10  20   1   39.50    2.90
 -10  20   1   39.50    2.80
 -10  20  -1   42.10    2.90
  10 -20  -1   41.50    2.80
 -10  20  -1   43.10    2.80
 -10 -20   1   40.50    3.00
 -10  20  -1   43.40    2.90
  10  20  -2   36.30    2.70
  10 -20   2   37.30    2.50
  10 -20  -2   36.70    2.50
 -10  20  -2   38.00    2.70
 -10  20  -2   39.70    2.60
 -10 -20   2   37.90    2.70
 -10 -20   2   32.90    2.50
 -10  20  -2   36.50    2.60
  10  20  -3    0.70    0.50
  10 -20   3    0.30    0.40
 -10  20  -3    0.10    0.40
 -10 -20   3    0.20    0.40
 -10  20  -3   -0.10    0.40
 -10 -20   3    0.70    0.50
  10 -20  -3   -0.30    0.30
 -10  20  -3    0.20    0.40
 -10 -20   4    3.50    0.60
 -10  20  -4    3.30    0.60
 -11  20   0    0.00    0.40
 -11  20   0    0.70    0.50
 -11  20   0   -0.20    0.50
 -11 -20   0    2.30    0.60
  11 -20   0    0.00    0.30
 -11  20   1   28.30    2.00
  11 -20   1   28.40    2.00
 -11  20  -1   27.70    2.20
 -11 -20   1   29.50    2.20
  11 -20  -1   27.20    2.00
 -11  20  -1   30.10    2.10
 -11  20  -1   28.40    2.10
  11  20  -2    2.00    0.70
  11 -20   2    3.10    0.50
  11 -20  -2    2.50    0.50
 -11  20  -2    2.70    0.60
 -11 -20   2    2.60    0.50
 -11 -20   2    2.60    0.60
 -11  20  -2    2.60    0.60
 -11  20  -2    2.10    0.50
  11 -20   3   -0.90    0.40
 -11 -20   3   -0.20    0.50
 -11  20  -3    0.20    0.40
 -11 -20   3   -0.10    0.30
 -11  20  -3    0.10    0.40
  11 -20  -3    0.50    0.30
 -11  20  -3    0.20    0.40
  12 -20   0   18.90    1.40
 -12  20   0   21.50    1.50
 -12 -20   0   16.00    1.60
 -12  20   1   10.40    1.00
  12 -20   1    8.50    0.90
 -12  20  -1    8.50    1.00
 -12  20  -1    8.80    1.00
 -12  20  -1    9.20    1.00
 -12 -20   1    8.60    1.00
  12 -20  -1    9.30    0.90
  12 -20   2   16.70    1.30
 -12  20  -2   14.30    1.40
 -12 -20   2   16.90    1.50
 -12  20  -2   16.60    1.30
  12 -20  -2   14.90    1.20
 -12  20  -2   17.30    1.40
 -12  20  -3   35.40    2.40
  13 -20   0   -0.20    0.30
 -13  20   0    0.00    0.40
 -13  20   1   57.19    3.80
  13 -20   1   60.79    3.80
  13 -20  -1   58.99    3.80
 -13  20  -1   61.89    3.80
 -13  20  -2   15.00    1.20
   0  21   0   -0.30    0.30
   0 -21   0    0.60    0.40
   0  21   0   -0.50    0.50
   0  21   1   -0.20    0.40
   0  21  -1   -0.10    0.30
   0  21   1   -0.20    0.30
   0  21  -1    0.00    0.50
   0 -21   1    0.40    0.30
   0 -21  -1    0.90    0.40
   0  21   2  114.09    7.20
   0  21  -2  116.49    7.00
   0  21  -2  114.39    7.00
   0  21  -2  122.29    7.20
   0 -21   2  110.79    7.00
   0  21   2   90.69    6.90
   0 -21  -3    0.50    0.50
   0  21  -3    0.30    0.40
   0  21  -3    0.80    0.50
   0  21   3    0.40    0.50
   0  21   3   -0.20    0.40
   0 -21   3    0.20    0.40
   0 -21  -4    4.50    0.70
   0 -21   4    5.70    0.80
   0  21   4    5.00    0.70
   0  21  -4    3.60    0.80
   0  21   4    4.40    0.80
   0  21   5   -0.20    0.50
   0 -21   5    0.30    0.40
   0  21   5    0.00    0.40
   0 -21  -5    0.40    0.40
   0 -21  -6   35.10    2.70
   0  21   6   39.70    2.50
  -1 -21   0  560.34   33.50
  -1  21   0  559.34   33.70
   1  21   0  554.54   33.50
   1 -21   0  555.44   33.50
   1  21   0  537.15   33.70
  -1  21   0  572.74   33.60
   1 -21   1    0.20    0.30
   1  21  -1    0.50    0.50
  -1  21   1    0.50    0.50
   1  21  -1   -0.30    0.30
  -1  21   1    0.20    0.30
   1 -21  -1    0.90    0.30
   1  21   1    0.30    0.40
  -1  21  -1    0.20    0.40
  -1  21  -1    0.50    0.50
  -1 -21   1    0.40    0.30
   1  21   1    0.30    0.40
  -1  21   2   28.60    2.20
   1  21  -2   31.00    2.30
  -1 -21  -2   26.50    2.10
   1  21  -2   27.10    2.00
   1  21  -2   25.80    2.00
  -1  21   2   27.20    2.00
   1  21   2   27.50    2.00
   1  21   2   23.10    2.20
  -1 -21   2   30.00    2.10
  -1  21  -2   27.80    2.20
  -1  21  -2   29.70    2.10
  -1  21  -2   27.70    2.10
  -1  21   3  104.39    6.30
   1 -21   3   95.59    6.10
   1  21  -3  104.89    6.20
  -1 -21  -3   96.29    6.10
  -1  21   3   83.89    6.00
   1  21   3   96.59    6.20
  -1  21  -3   99.89    6.10
  -1  21  -3   96.79    6.00
  -1 -21   3   83.09    6.00
   1  21   3   97.69    6.10
  -1  21  -3   90.19    6.10
   1  21  -4   98.89    6.90
  -1 -21  -4  104.49    6.90
  -1  21   4  112.29    6.90
  -1  21   4  109.29    7.00
   1 -21   4  117.39    6.90
   1  21   4  117.59    7.00
   1 -21  -4   94.99    6.80
  -1 -21   4  115.09    6.90
  -1  21  -4  107.79    7.30
   1  21   4  112.89    6.90
   1 -21   5   13.60    1.30
  -1 -21  -5   14.00    1.30
  -1  21   5   14.90    1.50
  -1  21   5   15.20    1.30
   1  21   5   15.30    1.30
  -1 -21   5   15.10    1.30
   1  21   5   15.00    1.40
   1 -21  -5   12.70    1.20
  -1 -21   5   14.30    1.30
  -1 -21  -6    2.20    0.50
   1  21   6    2.20    0.50
   2 -21   0    0.40    0.30
  -2  21   0    0.70    0.50
   2  21   0   -0.50    0.40
  -2  21   0    0.50    0.40
  -2 -21   0   -0.20    0.30
   2  21   0    0.70    0.40
   2 -21   1   19.20    1.50
  -2  21   1   13.80    1.40
   2  21  -1   17.80    1.50
   2  21  -1   17.10    1.60
  -2  21   1   19.30    1.70
   2  21   1   16.80    1.60
  -2 -21   1   19.30    1.50
   2 -21  -1   18.80    1.40
   2  21   1   19.40    1.50
  -2  21  -1   19.30    1.50
  -2  21  -1   19.70    1.70
  -2 -21   1   21.60    1.60
  -2  21   2   40.30    3.00
   2  21  -2   47.30    3.20
  -2  21   2   45.80    3.20
  -2 -21  -2   42.90    3.10
  -2  21  -2   45.70    3.10
  -2 -21   2   44.00    3.00
  -2  21  -2   46.30    3.00
  -2  21  -2   42.80    3.10
   2  21   2   40.60    3.20
   2  21   2   44.60    3.00
   2  21  -3   13.40    1.40
   2 -21   3   12.50    1.10
  -2  21   3   12.20    1.30
  -2 -21  -3   10.60    1.20
  -2  21   3    9.00    1.10
  -2 -21   3   11.00    1.10
  -2  21  -3   12.00    1.20
  -2  21  -3   11.60    1.10
   2  21   3    8.50    1.20
   2  21   3   12.60    1.10
  -2  21   4    1.40    0.50
   2 -21   4    1.70    0.50
  -2  21   4    1.50    0.70
   2  21  -4    1.50    0.60
  -2 -21  -4    1.60    0.50
  -2  21  -4    2.10    0.50
   2  21   4    1.70    0.50
  -2 -21   4    1.50    0.50
  -2 -21   4    1.50    0.50
   2  21   4    1.80    0.60
  -2  21  -4    1.30    0.50
  -2  21   5   13.80    1.20
   2 -21   5   15.10    1.30
  -2 -21  -5   14.80    1.30
   2  21  -5   11.50    1.30
  -2  21   5   14.50    1.50
   2  21   5   13.60    1.40
   2 -21  -5   13.60    1.20
  -2 -21   5   14.60    1.30
  -2 -21   5   14.00    1.30
   2  21   5   15.80    1.30
  -2 -21  -6   23.00    1.80
   2  21   6   25.00    1.70
   3 -21   0  296.87   16.50
  -3  21   0  274.57   16.70
   3  21   0  248.28   16.70
   3  21   0  263.07   16.50
  -3  21   0  281.47   16.60
  -3 -21   0  264.87   16.50
  -3  21   1    8.50    1.10
   3 -21   1    7.80    0.90
   3  21  -1    6.40    1.00
  -3  21   1    5.70    0.80
  -3  21  -1    7.80    0.90
  -3  21  -1    5.70    1.00
   3  21   1    9.20    1.10
  -3 -21   1    7.50    0.90
   3 -21  -1    8.40    0.80
   3  21   1    7.70    0.90
  -3 -21   1    7.80    0.90
  -3  21   2    2.50    0.70
  -3  21   2    1.00    0.40
  -3 -21  -2    2.40    0.60
   3 -21   2    1.40    0.40
   3  21  -2    1.80    0.60
  -3 -21   2    3.40    0.60
   3  21   2    3.30    0.60
  -3 -21   2    1.20    0.50
  -3  21  -2    2.80    0.60
   3  21   2    1.70    0.60
  -3  21  -2    1.70    0.50
  -3 -21  -3   71.69    4.70
  -3  21   3   68.79    4.70
  -3  21   3   72.19    4.60
   3  21  -3   68.59    4.70
   3 -21   3   71.49    4.60
  -3 -21   3   70.59    4.60
   3  21   3   70.39    4.60
  -3  21  -3   70.99    4.60
   3  21   3   69.89    4.70
  -3 -21   3   58.99    4.50
  -3  21  -3   74.09    4.60
  -3  21   4    0.60    0.40
   3  21  -4    0.50    0.60
   3 -21   4    1.40    0.50
  -3  21   4    1.10    0.60
  -3 -21  -4   -0.20    0.50
  -3  21  -4    0.90    0.50
  -3  21  -4    1.40    0.50
  -3 -21   4    1.90    0.50
  -3 -21   4    0.80    0.50
   3  21   4    0.60    0.50
   3  21   4    1.10    0.40
  -3 -21  -5   43.60    3.10
  -3  21   5   43.30    3.00
   3 -21   5   49.70    3.10
   3  21  -5   38.80    3.10
  -3  21   5   41.60    3.20
  -3 -21   5   48.80    3.10
   3  21   5   50.49    3.10
  -3 -21   5   47.80    3.10
   3  21   5   47.40    3.20
  -3  21  -5   41.70    3.00
   3  21   6    9.90    1.00
  -4  21   0   -0.30    0.30
   4  21   0    0.20    0.40
   4  21   0    0.80    0.50
  -4 -21   0    0.90    0.40
   4 -21   0    0.00    0.30
  -4 -21   0   -0.50    0.60
   4 -21   1  158.88    9.70
  -4  21   1  152.38    9.80
  -4  21   1  151.98    9.70
  -4 -21   1  153.78    9.70
   4 -21  -1  168.98    9.60
   4  21   1  153.08    9.60
   4  21   1  156.38    9.90
  -4 -21   1  170.58    9.80
  -4  21  -1  139.49    9.70
  -4  21   2   27.90    2.20
   4 -21   2   28.40    2.10
  -4 -21  -2   26.50    2.20
  -4  21   2   25.40    2.30
   4  21  -2   30.30    2.30
   4 -21  -2   30.30    2.10
  -4 -21   2   31.80    2.30
  -4  21  -2   30.60    2.20
  -4 -21   2   30.50    2.20
   4  21   2   32.60    2.40
   4  21   2   29.30    2.10
  -4  21  -2   29.80    2.20
  -4  21   3   61.09    3.90
   4  21  -3   56.59    4.00
  -4  21   3   55.89    4.00
   4 -21   3   60.69    3.90
  -4 -21  -3   58.99    4.00
  -4 -21   3   45.90    3.80
  -4 -21   3   57.79    3.90
   4  21   3   59.79    3.80
   4  21   3   63.29    4.00
  -4  21  -3   60.09    3.90
  -4  21  -3   59.79    3.90
   4 -21   4   64.99    4.10
  -4 -21  -4   60.89    4.20
  -4  21   4   53.79    4.20
   4  21  -4   62.39    4.20
  -4  21   4   58.79    4.00
  -4  21  -4   62.79    4.10
   4  21   4   61.39    4.20
  -4 -21   4   63.89    4.20
   4  21   4   65.89    4.10
  -4 -21   4   63.59    4.10
  -4  21  -4   60.49    4.00
  -4 -21  -5   14.80    1.40
   4 -21   5   15.70    1.30
   4  21  -5   13.50    1.30
  -4  21   5   13.30    1.20
   4  21   5   15.00    1.40
  -4 -21   5   14.50    1.30
   4  21   5   17.50    1.30
  -4  21  -5   14.90    1.30
  -4 -21   5   14.90    1.40
  -5 -21   0   43.00    3.10
   5  21   0   42.70    3.10
   5 -21   0   44.70    3.00
  -5  21   1   15.20    1.30
   5  21  -1    9.40    1.30
   5 -21   1   13.90    1.20
  -5 -21   1   16.60    1.40
   5  21   1   15.30    1.30
  -5  21  -1   13.80    1.30
  -5 -21   1   15.40    1.30
   5  21   1   17.30    1.60
   5 -21  -1   15.60    1.20
   5  21  -2   54.89    3.90
  -5 -21  -2   55.49    3.80
   5 -21   2   55.39    3.70
  -5  21   2   58.09    3.80
   5  21   2   57.39    3.90
  -5 -21   2   57.89    3.80
  -5  21  -2   54.59    3.80
   5 -21  -2   53.59    3.60
  -5  21  -2   56.29    3.80
  -5 -21   2   59.69    3.80
   5  21   2   53.29    3.70
  -5  21  -2   54.39    3.70
   5 -21   3    5.30    0.70
   5  21  -3    4.30    0.80
  -5  21   3    5.00    0.80
  -5 -21  -3    3.30    0.70
  -5 -21   3    4.60    0.80
  -5  21  -3    3.90    0.70
   5  21   3    4.60    0.70
  -5  21  -3    4.10    0.70
   5  21   3    4.50    0.80
  -5 -21   3    4.70    0.80
  -5 -21  -4   14.80    1.50
   5 -21   4   16.60    1.40
  -5  21   4   17.30    1.40
   5  21  -4   17.00    1.60
  -5 -21   4   17.00    1.50
  -5  21  -4   16.50    1.40
  -5 -21   4   17.20    1.50
  -5  21  -4   16.70    1.50
   5  21   4   17.10    1.40
   5  21   4   18.20    1.60
   5  21  -5   19.90    1.60
  -5 -21  -5   20.80    1.70
   5  21   5   19.50    1.70
  -5 -21   5   20.60    1.70
  -5  21  -5   19.80    1.60
   5  21   5   21.40    1.60
  -5 -21   5   19.60    1.60
   6 -21   0    0.30    0.30
  -6  21   0    0.30    0.40
  -6 -21   0    0.00    0.50
   6  21   0    0.00    0.50
  -6  21   1   59.29    3.80
   6 -21   1   51.69    3.70
   6  21  -1   59.09    3.90
   6  21   1   59.89    4.00
  -6 -21   1   55.49    3.70
  -6  21  -1   50.09    3.80
  -6 -21   1   63.39    3.90
  -6  21  -1   52.79    3.80
   6 -21  -1   58.29    3.70
   6 -21   2    1.30    0.50
   6  21  -2    2.00    0.60
  -6  21   2    1.80    0.50
  -6 -21   2    1.40    0.50
   6  21   2    1.60    0.50
  -6  21  -2    2.20    0.60
  -6  21  -2    2.60    0.60
   6  21   2    2.10    0.70
  -6 -21   2    2.00    0.60
   6 -21  -2    1.70    0.40
  -6  21  -2    1.60    0.50
   6  21  -3   75.99    5.20
  -6  21   3   80.29    5.10
   6 -21   3   82.19    5.10
  -6 -21  -3   73.39    5.20
   6  21   3   82.29    5.20
  -6 -21   3   74.69    5.10
   6  21   3   76.49    5.00
  -6 -21   3   80.19    5.20
  -6  21  -3   83.29    5.10
  -6  21  -3   79.59    5.20
  -6  21   4   10.90    1.10
   6 -21   4   12.10    1.20
   6  21  -4   12.40    1.30
  -6 -21  -4   11.00    1.20
   6  21   4   12.00    1.30
  -6 -21   4   13.40    1.20
  -6  21  -4   12.70    1.20
  -6  21  -4   11.40    1.20
  -6 -21   4   12.10    1.30
   6  21   4   13.10    1.10
  -6 -21  -5   26.60    2.00
   6  21   5   28.30    1.90
  -6 -21   5   27.30    1.90
  -6  21  -5   24.70    1.90
   7 -21   0    2.20    0.50
  -7  21   0    0.90    0.50
   7  21   0    1.20    0.60
  -7 -21   0    1.40    0.60
   7  21  -1   15.10    1.50
  -7  21   1   14.10    1.40
   7 -21   1   16.20    1.30
  -7  21  -1   13.70    1.30
  -7  21  -1   14.80    1.30
  -7 -21   1   13.90    1.30
  -7 -21   1   15.10    1.50
   7 -21  -1   15.60    1.20
   7  21   1   17.30    1.50
  -7  21  -1   11.70    1.30
  -7  21   2   14.40    1.30
   7  21  -2   15.40    1.40
   7 -21   2   14.30    1.30
  -7 -21   2   14.70    1.30
  -7  21  -2   10.90    1.30
   7  21   2   14.40    1.50
  -7  21  -2   13.90    1.30
   7 -21  -2   14.40    1.20
  -7  21  -2   15.20    1.30
  -7 -21   2   15.50    1.50
  -7  21   3    1.50    0.50
   7 -21   3    0.10    0.40
  -7 -21  -3    0.30    0.40
   7  21  -3    0.20    0.40
   7  21   3    1.50    0.60
   7  21   3    0.50    0.40
  -7 -21   3    0.70    0.40
  -7 -21   3    0.70    0.50
  -7  21  -3    1.00    0.50
  -7  21  -3    1.00    0.50
  -7 -21  -4    6.10    0.80
   7 -21   4    6.70    0.80
   7  21  -4    5.40    0.80
  -7  21  -4    6.50    0.80
  -7 -21   4    7.80    0.90
   7  21   4    7.00    1.00
  -7 -21   4    7.30    0.90
   7  21   4    7.00    0.80
  -7  21  -4    6.70    0.80
  -7 -21  -5    0.30    0.40
  -7 -21   5    0.20    0.30
   7  21   5    0.50    0.40
  -7  21  -5    0.60    0.40
  -8 -21   0    0.70    0.50
   8 -21   0    0.20    0.30
  -8  21   0    0.30    0.40
  -8  21   0    0.60    0.40
   8  21   0   -0.50    0.40
   8 -21   1   55.29    3.70
  -8  21   1   57.89    3.80
   8  21  -1   62.09    3.90
  -8 -21   1   48.00    3.70
  -8 -21   1   57.29    3.90
   8  21   1   57.39    3.90
  -8  21  -1   56.09    3.80
   8 -21  -1   56.29    3.70
  -8  21  -1   58.69    3.90
  -8  21  -1   55.19    3.70
   8 -21   2    9.70    1.00
  -8  21   2   10.70    1.10
   8  21  -2   11.80    1.20
   8  21   2   10.30    1.20
   8 -21  -2    8.00    0.90
  -8 -21   2    7.70    1.00
  -8  21  -2    9.80    1.10
  -8 -21   2    8.60    1.10
  -8  21  -2    9.00    1.00
  -8  21  -2    9.60    1.00
   8  21  -3    0.20    0.40
   8 -21   3   -0.30    0.40
  -8  21  -3    0.30    0.40
  -8  21  -3    0.90    0.40
  -8 -21   3    0.20    0.50
   8  21   3   -0.10    0.60
  -8 -21   3    0.20    0.40
   8  21  -4    0.10    0.40
   8 -21   4   -0.10    0.40
  -8 -21   4    0.20    0.40
  -8  21  -4    0.20    0.40
  -8 -21   4   -0.10    0.30
   8  21   4    0.00    0.40
  -8  21  -4    0.40    0.40
   9 -21   0  276.87   16.40
  -9  21   0  272.27   16.60
   9  21   0  272.57   16.60
  -9 -21   0  259.97   16.50
  -9  21   0  260.77   16.40
  -9  21   0  280.27   16.60
  -9  21   1    8.00    1.10
  -9  21   1    9.50    1.10
   9 -21   1   10.60    1.00
   9  21  -1    9.00    1.10
  -9  21  -1    9.50    1.10
  -9  21  -1    8.20    1.00
  -9 -21   1    9.10    1.10
   9 -21  -1    9.10    0.90
   9  21   1    8.80    1.20
  -9  21  -1    9.00    1.00
   9 -21   2   17.10    1.40
  -9  21   2   15.40    1.50
   9  21  -2   16.00    1.50
  -9 -21   2   13.40    1.30
  -9  21  -2   18.40    1.50
  -9  21  -2   18.30    1.40
  -9 -21   2   17.80    1.60
  -9  21  -2   18.20    1.50
   9 -21  -2   16.40    1.30
   9  21   2   15.50    1.60
   9 -21   3   -0.40    0.40
   9  21  -3    0.40    0.40
  -9  21  -3    0.60    0.40
  -9 -21   3    0.70    0.50
  -9 -21   3    0.50    0.40
  -9  21  -3    0.50    0.40
  -9  21  -3    0.10    0.40
  -9  21  -4   27.40    1.90
  -9 -21   4   25.70    1.90
  -9  21  -4   25.60    1.90
 -10  21   0   -0.10    0.40
  10  21   0    0.20    0.60
 -10 -21   0    0.60    0.70
 -10  21   0    0.60    0.50
 -10  21   0    0.40    0.50
  10 -21   0    0.70    0.30
 -10  21   1   10.40    1.10
  10  21  -1   10.40    1.20
 -10  21   1   10.30    1.10
  10 -21   1    9.80    1.00
  10 -21  -1   10.90    1.00
 -10 -21   1   10.80    1.20
 -10  21  -1    9.40    1.00
 -10  21  -1   12.80    1.20
 -10  21  -1   12.40    1.20
  10  21  -2   24.00    1.90
  10 -21   2   25.30    1.80
 -10  21  -2   24.20    1.90
 -10  21  -2   23.90    1.80
  10 -21  -2   24.00    1.70
 -10 -21   2   21.90    1.80
 -10 -21   2   23.30    2.00
 -10  21  -2   24.90    1.90
  10 -21   3   13.60    1.10
  10  21  -3   12.50    1.20
 -10  21  -3   13.80    1.20
  10 -21  -3   11.40    1.00
 -10 -21   3   12.10    1.30
 -10  21  -3   12.20    1.20
 -10 -21   3   11.90    1.10
 -11  21   0   99.49    6.50
  11 -21   0  107.49    6.40
 -11  21   0  105.29    6.50
 -11  21   0  100.19    6.50
  11 -21   1    4.20    0.60
 -11 -21   1    4.40    0.70
 -11  21  -1    5.10    0.70
  11 -21  -1    4.30    0.60
 -11  21  -1    4.80    0.80
 -11  21  -1    4.50    0.70
  11 -21   2    3.30    0.50
 -11  21  -2    2.90    0.60
 -11 -21   2    2.70    0.60
  11 -21  -2    3.40    0.50
 -11  21  -2    3.60    0.60
 -11  21  -2    2.70    0.60
 -11  21  -3    4.30    0.60
 -11  21  -3    3.70    0.60
  12 -21   0    0.20    0.30
 -12  21   0   -0.60    0.40
  12 -21   1    2.30    0.50
 -12  21  -1    1.50    0.60
 -12  21  -1    3.60    0.50
 -12  21  -1    2.00    0.60
  12 -21  -1    2.20    0.40
  12 -21   2    2.90    0.50
  12 -21  -2    4.70    0.50
 -12  21  -2    3.90    0.60
 -12  21  -2    3.40    0.60
  13 -21   0    8.50    0.80
   0  22   0   50.09    3.30
   0 -22   0   50.09    3.30
   0  22   0   48.80    3.50
   0 -22   1    0.10    0.30
   0  22  -1    0.90    0.50
   0  22   1   -0.10    0.50
   0  22  -1   -0.40    0.30
   0  22   1    0.10    0.30
   0  22  -2   62.99    4.00
   0  22   2   64.69    4.10
   0  22  -2   59.89    3.80
   0 -22   2   55.49    3.80
   0  22   2   49.50    3.80
   0  22  -2   57.59    3.80
   0  22  -3    0.00    0.50
   0  22  -3    0.10    0.60
   0  22   3    0.20    0.40
   0 -22   3    0.00    0.30
   0  22   3    1.00    0.60
   0  22  -4    1.90    0.70
   0  22   4    1.20    0.50
   0  22   4    1.30    0.60
   0 -22   4    1.30    0.50
   0 -22  -4    1.50    0.50
   0  22   5    0.50    0.40
   0  22   5    0.30    0.50
   0 -22   5   -0.20    0.30
   0 -22  -5    0.20    0.40
   0 -22   5    0.30    0.40
   1  22   0    0.00    0.40
  -1  22   0    0.30    0.50
   1 -22   0   -0.30    0.30
  -1 -22   0   -0.30    0.30
  -1  22   0    0.20    0.40
   1  22   0   -0.40    0.50
  -1  22   1  103.59    6.80
   1  22  -1  104.59    6.70
  -1  22   1  110.89    7.00
   1 -22   1  111.59    6.80
   1  22  -1  112.39    7.00
  -1 -22   1  113.09    6.80
   1 -22  -1  103.39    6.70
   1  22   1  107.49    6.80
  -1  22  -1  104.09    6.90
  -1  22  -1  110.19    6.80
   1  22   1  103.19    7.00
   1  22  -2   39.50    2.80
  -1  22   2   43.20    3.10
   1 -22   2   37.50    2.80
   1  22  -2   43.50    3.10
  -1  22   2   41.20    2.90
   1  22  -2   38.90    2.80
  -1 -22   2   40.10    2.90
  -1  22  -2   43.20    2.90
   1  22   2   44.30    2.90
  -1  22  -2   42.30    2.90
  -1  22  -2   43.70    3.00
   1  22   2   41.00    3.10
   1  22  -3   17.70    1.60
  -1  22   3   14.10    1.30
   1 -22   3   17.90    1.40
  -1  22   3   17.40    1.60
  -1 -22  -3   16.30    1.50
  -1  22  -3   16.80    1.40
  -1 -22   3   15.30    1.40
  -1  22  -3   15.40    1.40
   1  22   3   17.00    1.60
  -1  22  -3   14.60    1.50
   1  22   3   13.00    1.30
  -1 -22  -4   61.89    4.40
   1  22  -4   63.29    4.50
  -1  22   4   71.09    4.50
  -1  22   4   73.59    4.60
   1 -22   4   69.79    4.50
  -1 -22   4   70.79    4.50
  -1 -22   4   72.99    4.50
   1  22   4   72.09    4.50
   1  22   4   70.29    4.60
   1 -22  -4   58.39    4.50
  -1 -22  -5   -0.10    0.40
  -1  22   5    0.40    0.50
  -1  22   5    0.40    0.40
   1 -22   5    0.70    0.40
  -1 -22   5   -0.20    0.40
   1  22   5   -0.50    0.50
  -1 -22   5    0.00    0.40
   1 -22  -5    0.10    0.40
   1  22   5    0.10    0.40
  -2  22   0   55.19    3.90
  -2  22   0   56.59    3.70
   2  22   0   47.60    3.80
  -2 -22   0   53.99    3.70
   2  22   0   59.79    3.70
   2 -22   0   60.39    3.70
  -2  22   1    9.50    1.10
   2 -22   1   10.90    1.00
   2  22  -1   10.80    1.30
  -2  22   1   10.00    1.20
   2  22  -1    9.90    1.00
  -2  22  -1   10.90    1.10
   2  22   1    9.70    1.30
  -2 -22   1   10.00    1.10
  -2  22  -1   10.00    1.20
   2 -22  -1   10.60    1.00
   2  22   1   10.80    1.00
  -2 -22   1   10.20    1.00
   2  22  -2  101.99    6.40
   2 -22   2   92.39    6.20
  -2 -22  -2   90.49    6.20
  -2  22   2  100.69    6.40
  -2  22   2   93.99    6.20
   2  22   2  107.19    6.20
   2  22   2   84.99    6.30
  -2  22  -2  101.99    6.30
  -2 -22   2  103.79    6.30
  -2  22  -2   98.79    6.20
  -2 -22   2  107.09    6.30
  -2  22  -2   91.09    6.30
  -2 -22  -3   82.99    5.60
  -2  22   3   91.79    5.80
   2  22  -3   85.99    5.70
  -2  22   3   77.99    5.60
  -2  22  -3   89.49    5.60
  -2 -22   3   75.69    5.60
   2  22   3   94.49    5.80
  -2 -22   3   92.09    5.70
   2  22   3   89.89    5.60
  -2  22  -3   95.29    5.60
   2 -22   4   20.50    1.60
  -2  22   4   20.50    1.80
   2  22  -4   19.30    1.70
  -2  22   4   18.40    1.50
  -2 -22  -4   17.90    1.60
  -2 -22   4   19.40    1.60
   2  22   4   17.70    1.70
  -2 -22   4   19.80    1.60
  -2  22  -4   16.90    1.50
   2  22   4   19.60    1.50
  -2  22  -4   18.80    1.80
   2 -22   5    2.20    0.50
  -2 -22  -5    1.90    0.50
  -2  22   5    2.90    0.70
  -2  22   5    2.20    0.50
   2  22   5    1.00    0.60
  -2 -22   5    2.50    0.60
   2  22   5    2.10    0.50
  -2 -22   5    2.60    0.50
  -3 -22   0   -0.30    0.40
   3  22   0   -0.60    0.40
  -3  22   0    0.20    0.30
   3 -22   0   -0.10    0.30
  -3  22   0   -0.40    0.60
   3  22   0    0.30    0.50
   3 -22   1   68.39    4.40
   3  22  -1   63.19    4.60
  -3  22   1   68.39    4.60
  -3  22   1   65.49    4.50
   3 -22  -1   71.69    4.40
  -3  22  -1   72.59    4.50
  -3 -22   1   67.49    4.40
   3  22   1   69.29    4.40
  -3 -22   1   78.19    4.50
  -3  22  -1   63.39    4.60
   3  22   1   58.49    4.60
  -3  22   2    2.30    0.70
  -3  22   2    2.70    0.60
   3 -22   2    3.20    0.60
   3  22  -2    3.10    0.70
  -3 -22  -2    3.70    0.70
   3  22   2    3.70    0.60
  -3 -22   2    3.70    0.60
  -3  22  -2    3.80    0.70
  -3 -22   2    3.20    0.70
   3  22   2    3.10    0.70
  -3  22  -2    4.50    0.70
  -3  22   3   51.69    3.80
  -3 -22  -3   50.89    3.70
  -3  22   3   55.49    3.60
   3  22  -3   54.59    3.80
   3 -22   3   50.39    3.60
   3  22   3   55.89    3.80
  -3 -22   3   53.49    3.70
  -3 -22   3   56.29    3.70
  -3  22  -3   53.19    3.60
  -3  22  -3   54.39    3.60
   3  22   3   56.69    3.60
   3 -22   4    0.50    0.40
  -3  22   4   -0.20    0.40
   3  22  -4    0.60    0.50
  -3  22   4   -0.10    0.60
  -3 -22  -4    0.20    0.40
   3  22   4    0.40    0.50
  -3  22  -4    0.80    0.40
  -3 -22   4    0.40    0.40
  -3 -22   4    0.60    0.40
  -3  22  -4    0.20    0.40
   3  22   4   -0.10    0.40
  -3  22   5    1.00    0.40
  -3 -22  -5    0.50    0.40
   3 -22   5    0.20    0.40
  -3 -22   5   -0.10    0.40
   3  22   5    1.00    0.40
  -3 -22   5    0.30    0.40
   3  22   5    0.20    0.50
   4  22   0   27.90    2.30
   4 -22   0   35.00    2.10
  -4  22   0   24.70    2.10
  -4  22   1   14.80    2.00
   4  22  -1   13.80    1.50
   4 -22   1   16.70    1.30
  -4  22   1   13.60    1.30
   4  22   1   17.20    1.60
  -4 -22   1   16.80    1.40
  -4 -22   1   15.00    1.30
   4  22   1   15.50    1.30
  -4  22  -1   14.40    1.40
   4 -22  -1   16.10    1.30
   4  22  -2   50.89    3.50
  -4  22   2   46.40    3.30
  -4  22   2   42.70    3.40
   4 -22   2   46.80    3.20
  -4 -22  -2   45.00    3.30
  -4  22  -2   48.10    3.30
   4  22   2   49.60    3.50
  -4 -22   2   52.29    3.40
   4  22   2   49.10    3.20
  -4  22  -2   50.79    3.30
  -4 -22   2   48.30    3.30
   4  22  -3   85.09    5.60
   4 -22   3   86.19    5.50
  -4  22   3   77.39    5.60
  -4 -22  -3   77.99    5.50
  -4  22   3   91.89    5.50
  -4  22  -3   86.39    5.60
  -4 -22   3   93.49    5.60
   4  22   3   84.29    5.50
  -4  22  -3   86.69    5.50
  -4 -22   3   87.89    5.60
   4  22   3   88.29    5.70
   4 -22   4   31.90    2.20
  -4  22   4   28.20    2.10
   4  22  -4   30.00    2.30
  -4 -22  -4   26.10    2.20
  -4 -22   4   28.90    2.20
  -4  22  -4   30.00    2.10
   4  22   4   28.70    2.30
   4  22   4   30.70    2.10
  -4  22  -4   30.30    2.20
  -4 -22   4   30.10    2.20
   4 -22   5   53.39    3.50
  -4  22   5   49.20    3.50
  -4 -22  -5   52.19    3.60
  -4 -22   5   51.89    3.70
  -4 -22   5   58.69    3.60
  -4  22  -5   51.09    3.50
   4  22   5   58.19    3.50
   4  22   5   55.79    3.60
   5  22   0    0.30    0.50
  -5  22   0   -0.30    0.30
   5 -22   0   -0.40    0.30
  -5  22   1   68.49    4.60
   5 -22   1   60.19    4.50
   5  22  -1   73.09    4.80
  -5  22  -1   67.29    4.60
   5  22   1   78.99    4.90
   5  22   1   70.49    4.60
  -5 -22   1   70.79    4.60
   5 -22  -1   76.69    4.60
  -5 -22   1   75.79    4.70
  -5  22   2    8.80    1.00
   5 -22   2    8.50    0.90
   5  22  -2    6.40    1.00
   5 -22  -2    8.60    0.80
   5  22   2    6.40    0.80
   5  22   2    7.00    1.00
  -5 -22   2    7.90    1.00
  -5 -22   2    8.40    1.00
  -5  22  -2    6.60    0.90
  -5  22  -2    6.70    0.90
  -5  22   3   40.20    2.80
   5  22  -3   38.70    2.90
  -5 -22  -3   34.70    2.80
   5 -22   3   40.40    2.70
  -5  22  -3   39.20    2.80
  -5 -22   3   41.40    2.80
  -5  22  -3   39.30    2.80
  -5 -22   3   38.40    2.80
   5  22   3   39.30    2.70
   5  22   3   42.80    2.90
  -5 -22  -4   14.10    1.40
   5  22  -4   14.60    1.40
   5 -22   4   17.70    1.30
  -5  22   4   14.50    1.30
   5  22   4   13.60    1.50
  -5 -22   4   16.00    1.40
  -5  22  -4   16.40    1.40
   5  22   4   16.00    1.30
  -5  22  -4   13.20    1.30
  -5 -22   4   15.60    1.30
  -5 -22  -5    0.30    0.40
  -5  22  -5    0.00    0.40
  -5 -22   5    0.80    0.40
   5  22   5    0.40    0.30
   6 -22   0   58.79    3.80
  -6  22   0   54.49    3.90
   6  22   0   59.39    4.00
   6 -22   1    0.50    0.40
   6  22  -1    0.70    0.50
  -6  22   1   -0.10    0.40
   6 -22  -1    0.00    0.30
  -6  22  -1   -0.10    0.40
  -6  22  -1   -0.20    0.40
   6  22   1   -0.10    0.50
  -6 -22   1    0.30    0.40
  -6 -22   1    0.20    0.50
   6 -22   2    8.70    0.90
  -6  22   2    9.10    1.00
   6  22  -2    8.30    1.10
  -6 -22   2    8.30    1.00
   6  22   2    8.10    1.10
   6 -22  -2    7.40    0.80
  -6  22  -2    8.70    1.00
  -6  22  -2    7.30    1.00
   6  22   2    7.60    0.90
  -6  22  -2    6.80    0.90
  -6 -22   2    8.50    1.00
   6  22  -3   90.29    5.90
   6 -22   3   95.49    5.80
  -6  22   3   95.79    5.90
  -6 -22  -3   86.69    5.90
  -6 -22   3   92.39    6.00
  -6 -22   3   92.29    5.90
   6  22   3   93.49    6.00
  -6  22  -3   91.59    5.90
  -6  22  -3   94.19    5.90
   6  22   3   87.29    5.80
   6 -22   4   11.70    1.10
  -6  22   4   10.50    1.10
   6  22  -4   10.30    1.10
  -6 -22  -4   10.00    1.10
  -6  22  -4   10.40    1.10
   6  22   4   11.40    1.20
  -6  22  -4   11.30    1.10
  -6 -22   4   10.70    1.10
   6  22   4    9.50    1.00
  -6 -22   4   12.20    1.20
  -6 -22  -5   83.59    5.60
   6  22   5   90.69    5.50
  -6 -22   5   91.19    5.60
   7 -22   0    0.10    0.30
   7  22   0    0.10    0.50
  -7  22   0   -0.40    0.40
   7  22  -1   21.90    1.80
   7 -22   1   20.00    1.60
  -7  22   1   20.20    1.70
  -7  22  -1   21.90    1.70
  -7 -22   1   18.80    1.60
  -7 -22   1   18.70    1.80
   7 -22  -1   21.20    1.60
   7  22   1   21.00    1.80
  -7  22  -1   20.90    1.70
   7 -22   2    0.80    0.40
   7  22  -2    0.90    0.50
  -7  22   2    1.40    0.50
  -7  22  -2    1.40    0.50
  -7  22  -2    0.90    0.50
   7 -22  -2    0.90    0.40
  -7 -22   2    0.50    0.40
   7  22   2    0.60    0.60
  -7 -22   2    0.50    0.50
  -7  22  -2    1.10    0.50
   7  22  -3   38.70    2.70
   7 -22   3   39.10    2.60
  -7  22   3   36.00    2.70
  -7 -22   3   39.40    2.80
  -7 -22   3   37.10    2.60
   7  22   3   39.30    2.80
   7  22   3   34.50    2.60
  -7  22  -3   40.90    2.70
  -7  22  -3   39.50    2.70
   7  22  -4    0.40    0.40
   7 -22   4    0.10    0.40
   7  22   4    0.20    0.60
  -7  22  -4    0.10    0.40
  -7 -22   4    0.00    0.30
  -7  22  -4   -0.10    0.30
  -7 -22   4    0.50    0.40
   7  22   4    0.00    0.40
  -8  22   0   33.50    2.40
   8 -22   0   32.20    2.30
   8  22   0   30.40    2.50
  -8  22   0   34.70    2.40
   8 -22   1   25.40    1.90
  -8  22   1   26.40    2.00
   8  22  -1   27.30    2.10
  -8  22  -1   26.70    2.00
   8 -22  -1   26.20    1.90
  -8  22  -1   26.90    2.00
   8  22   1   26.60    2.20
  -8 -22   1   26.10    2.10
  -8  22  -1   22.70    1.90
  -8  22   2   65.79    4.30
   8  22  -2   64.59    4.30
   8 -22   2   64.59    4.20
  -8 -22   2   66.49    4.30
  -8 -22   2   61.39    4.20
   8  22   2   59.59    4.30
  -8  22  -2   68.29    4.30
  -8  22  -2   65.79    4.30
  -8  22  -2   66.09    4.20
   8 -22  -2   60.69    4.10
   8 -22   3    8.70    0.90
   8  22  -3    9.70    1.10
  -8  22  -3    8.40    1.00
   8  22   3    9.10    1.10
  -8 -22   3    9.30    1.00
  -8  22  -3    9.10    1.00
  -8 -22   3    9.80    1.10
   8 -22   4    4.50    0.70
  -8 -22   4    3.70    0.60
  -8  22  -4    3.90    0.60
   8  22   4    2.80    0.60
  -8  22  -4    4.00    0.60
   9  22   0    0.50    0.50
   9 -22   0    0.00    0.30
  -9  22   0    0.30    0.50
  -9  22   0    0.20    0.40
   9 -22   1    1.30    0.40
  -9  22   1    1.60    0.50
   9  22  -1    1.80    0.60
  -9  22   1    1.50    0.60
  -9  22  -1    1.20    0.50
  -9 -22   1    1.80    0.60
   9 -22  -1    1.60    0.40
  -9  22  -1    1.80    0.50
   9  22   1    2.30    0.70
  -9  22  -1    2.30    0.60
  -9  22   2    2.10    0.60
   9 -22   2    3.40    0.50
   9  22  -2    3.00    0.70
  -9 -22   2    3.40    0.70
  -9  22  -2    3.50    0.60
  -9  22  -2    3.00    0.60
  -9  22  -2    4.10    0.60
   9  22   2    2.10    0.80
  -9 -22   2    2.50    0.50
   9 -22  -2    3.00    0.50
   9  22  -3    3.60    0.70
   9 -22   3    4.10    0.60
  -9  22  -3    3.30    0.60
  -9  22  -3    4.10    0.60
  -9 -22   3    4.20    0.70
  -9 -22   3    4.00    0.60
  -9  22  -4   -0.20    0.60
 -10  22   0   25.00    2.00
  10 -22   0   26.20    1.80
 -10  22   0   26.30    2.00
  10  22   0   23.00    2.00
  10  22  -1    0.80    0.60
 -10  22   1    0.30    0.50
  10 -22   1    0.40    0.30
 -10  22   1    1.40    0.50
 -10  22  -1    0.80    0.40
 -10  22  -1    0.00    0.40
 -10  22  -1    0.20    0.40
 -10 -22   1    0.80    0.50
  10 -22  -1    0.60    0.30
  10  22  -2    4.70    0.80
  10 -22   2    4.60    0.60
 -10 -22   2    2.90    0.60
 -10 -22   2    4.60    0.80
 -10  22  -2    4.70    0.70
 -10  22  -2    5.10    0.70
 -10  22  -2    5.90    0.70
  10 -22  -2    4.40    0.60
  10 -22   3    3.00    0.50
 -10  22  -3    3.50    0.60
 -10 -22   3    3.10    0.50
 -10  22  -3    3.60    0.60
 -11  22   0    0.00    0.70
 -11  22   0   -0.90    0.50
  11 -22   0    0.10    0.30
 -11  22   0    0.50    0.50
  11 -22   1    2.80    0.50
  11 -22  -1    3.30    0.50
 -11  22  -1    1.30    0.50
 -11  22  -1    3.50    0.60
 -11  22  -1    3.30    0.60
  11 -22   2    1.10    0.30
 -11  22  -2    0.90    0.50
  11 -22  -2    1.00    0.30
 -11  22  -2    1.40    0.50
 -11  22  -2    1.20    0.40
 -12  22   0    2.50    0.80
  12 -22   0    3.60    0.50
  12 -22   1    0.30    0.30
 -12  22  -1    1.00    0.40
  12 -22  -1    0.20    0.30
   0  23   0    0.10    0.40
   0 -23   0    0.10    0.30
   0  23   0    0.20    0.50
   0  23   1    0.80    0.60
   0 -23   1    0.00    0.30
   0  23  -1   -0.20    0.40
   0  23  -1    0.00    0.50
   0  23   1    0.20    0.40
   0  23  -2    1.00    0.50
   0 -23   2    0.80    0.40
   0  23   2    0.80    0.40
   0  23  -2    0.70    0.40
   0  23   2    0.60    0.60
   0  23  -2    0.80    0.50
   0 -23   3    0.20    0.40
   0  23   3    0.90    0.60
   0  23   3   -0.20    0.30
   0  23  -3    0.10    0.50
   0  23   4   21.60    1.60
   0 -23  -4   17.00    1.60
   0  23   4   19.10    1.80
   0 -23   4   21.10    1.60
   0 -23  -5    0.60    0.40
   0  23   5   -0.20    0.30
   0 -23   5   -0.20    0.40
   0 -23   5   -0.20    0.40
  -1 -23   0    0.30    0.40
  -1  23   0   -0.60    0.50
   1  23   0    0.20    0.40
   1 -23   0    1.30    0.40
  -1  23   0   -0.20    0.40
   1  23   0    0.50    0.50
  -1  23   1   10.10    1.10
  -1  23   1    8.20    1.10
   1 -23   1    9.30    0.90
   1  23  -1    9.50    1.20
   1  23  -1    8.70    1.00
  -1  23  -1    8.60    1.20
   1  23   1    9.20    1.00
   1 -23  -1    8.80    0.90
  -1  23  -1    8.50    1.00
  -1 -23   1    9.20    1.00
   1  23   1    9.50    1.20
  -1 -23   1   10.20    1.10
   1  23  -2    1.00    0.60
  -1  23   2    1.50    0.50
  -1  23   2    3.20    0.80
   1 -23   2    1.10    0.40
   1  23   2    1.40    0.60
  -1  23  -2    1.50    0.50
   1  23   2    1.80    0.50
  -1  23  -2    1.20    0.60
  -1 -23   2    1.20    0.50
  -1  23  -2    1.60    0.50
  -1 -23  -3    5.80    0.80
  -1  23   3    6.30    0.80
  -1  23   3    6.30    1.00
   1  23  -3    6.60    1.00
   1 -23   3    8.20    0.90
  -1 -23   3    6.30    0.80
  -1  23  -3    6.70    0.80
  -1  23  -3    5.10    0.90
   1  23   3    6.80    0.80
   1  23   3    5.80    1.00
  -1  23  -3    6.20    0.80
  -1  23   4   -0.30    0.60
  -1  23   4   -0.30    0.30
   1 -23   4    0.40    0.40
  -1 -23  -4    0.20    0.40
   1  23  -4    0.10    0.50
  -1 -23   4    0.00    0.40
   1  23   4    0.50    0.60
   1  23   4    0.60    0.40
  -1 -23   4    0.10    0.40
  -1 -23  -5   11.30    1.10
  -1  23   5   13.50    1.10
   1 -23   5   13.10    1.20
  -1 -23   5   12.90    1.20
   1  23   5   13.00    1.10
  -2  23   0    0.30    0.60
  -2 -23   0   -0.20    0.30
  -2  23   0   -0.10    0.30
   2 -23   0    0.50    0.40
   2  23   0    0.20    0.40
   2  23   0   -0.20    0.40
  -2  23   1   95.59    6.30
   2  23  -1  100.59    6.50
   2 -23   1  102.89    6.30
   2  23  -1   95.89    6.20
  -2  23   1   97.99    6.50
   2  23   1   99.89    6.30
  -2 -23   1  105.09    6.40
   2  23   1   90.29    6.50
  -2  23  -1   95.89    6.40
  -2 -23   1   98.29    6.30
  -2  23  -1  105.89    6.30
   2 -23  -1  101.89    6.20
   2 -23   2    0.70    0.40
  -2  23   2    0.60    0.60
  -2  23   2    0.20    0.40
   2  23  -2   -0.20    0.50
  -2  23  -2    0.40    0.40
  -2 -23   2    0.20    0.40
  -2 -23   2    0.10    0.40
   2  23   2    0.10    0.50
  -2  23  -2    1.80    0.50
   2  23   2    0.40    0.40
  -2  23  -2   -0.10    0.60
   2 -23   3   80.29    5.30
   2  23  -3   77.59    5.40
  -2  23   3   81.69    5.30
  -2  23   3   80.99    5.40
  -2 -23  -3   75.29    5.30
   2  23   3   84.09    5.30
  -2  23  -3   79.19    5.20
  -2 -23   3   85.19    5.30
  -2  23  -3   80.69    5.30
  -2 -23   3   86.99    5.30
   2  23   3   86.89    5.50
  -2 -23  -4   19.80    1.70
  -2  23   4   19.70    1.90
   2 -23   4   22.60    1.70
  -2  23   4   21.50    1.70
   2  23  -4   19.80    1.80
  -2  23  -4   20.10    1.60
   2  23   4   24.00    1.70
  -2 -23   4   21.90    1.70
  -2 -23   4   21.40    1.70
   2  23   4   22.20    1.90
   2 -23   5    1.00    0.40
  -2  23   5    1.00    0.40
  -2 -23  -5    0.70    0.40
   2  23   5    1.40    0.40
  -2 -23   5    0.10    0.40
  -3  23   0    1.70    0.50
   3  23   0    1.60    0.60
   3  23   0    2.60    0.60
   3 -23   0    1.70    0.40
  -3  23   0    3.30    0.80
  -3 -23   0    2.20    0.50
  -3  23   1    7.50    1.10
   3  23  -1    6.20    1.00
   3 -23   1    8.50    0.90
  -3  23   1    8.80    1.00
   3 -23  -1    8.10    0.90
  -3  23  -1    8.00    1.00
  -3 -23   1    9.80    1.10
  -3 -23   1    9.00    0.90
   3  23   1    6.20    1.00
   3  23   1    7.80    0.90
   3 -23   2  161.98   10.10
  -3  23   2  165.88   10.10
  -3 -23  -2  143.49   10.10
  -3  23   2  159.38   10.30
   3  23  -2  164.38   10.30
  -3  23  -2  169.68   10.10
  -3 -23   2  169.28   10.20
  -3 -23   2  160.68   10.10
  -3  23  -2  168.28   10.20
   3  23   2  167.28   10.30
   3  23   2  166.28   10.10
  -3 -23  -3   11.10    1.20
   3  23  -3    9.60    1.20
  -3  23   3   11.10    1.30
   3 -23   3   12.10    1.20
  -3  23   3   13.00    1.20
  -3  23  -3   12.90    1.20
   3  23   3   12.70    1.20
   3  23   3   11.10    1.30
  -3 -23   3   12.10    1.20
  -3  23  -3   11.80    1.20
  -3 -23   3   12.00    1.20
  -3  23   4    9.60    1.20
   3 -23   4   10.10    1.00
  -3 -23  -4    8.50    1.00
  -3  23   4    8.80    0.90
   3  23  -4    9.30    1.10
  -3 -23   4   10.50    1.00
  -3 -23   4   10.00    1.10
  -3  23  -4    9.40    1.00
   3  23   4    9.90    1.00
  -3  23  -4    8.00    0.90
   3  23   4    9.20    1.10
  -3  23   5    0.40    0.40
  -3 -23  -5   -0.30    0.30
   3 -23   5    0.50    0.70
   3  23   5    0.20    0.40
  -3 -23   5    0.40    0.40
   4  23   0    0.00    0.50
   4 -23   0    0.00    0.30
  -4  23   0    0.30    0.40
   4 -23   1   25.70    2.00
  -4  23   1   25.00    2.00
   4  23  -1   27.40    2.20
   4  23   1   27.50    2.00
   4  23   1   29.30    2.20
  -4  23  -1   26.70    2.00
  -4 -23   1   28.40    2.10
   4 -23  -1   26.90    1.90
  -4 -23   1   24.50    2.00
   4 -23   2   12.70    1.20
   4  23  -2   13.90    1.50
  -4  23   2   13.00    1.20
  -4 -23   2   13.00    1.30
  -4  23  -2   14.00    1.30
  -4  23  -2   12.50    1.20
   4  23   2   14.80    1.50
  -4 -23   2   11.70    1.20
   4  23   2   12.60    1.20
  -4 -23  -3  123.69    8.60
   4  23  -3  129.39    8.60
   4 -23   3  142.49    8.60
  -4  23   3  143.99    8.60
  -4 -23   3  143.09    8.70
  -4  23  -3  139.09    8.60
   4  23   3  139.89    8.50
  -4  23  -3  139.99    8.60
   4  23   3  134.49    8.70
  -4 -23   3  136.59    8.60
   4  23  -4    8.10    1.00
  -4 -23  -4    9.10    1.00
  -4  23   4    9.00    1.00
   4 -23   4   10.00    1.00
  -4 -23   4   10.30    1.00
   4  23   4    9.50    1.00
  -4 -23   4   10.70    1.10
   4  23   4    9.80    1.10
  -4  23  -4    8.40    0.90
  -4  23  -4   10.60    1.00
  -4 -23  -5    0.50    0.40
   4  23   5    1.10    0.40
  -4 -23   5    0.70    0.40
   5  23   0    0.50    0.50
   5 -23   0    0.40    0.40
  -5  23   0    0.50    0.40
   5 -23   1   63.09    3.80
  -5  23   1   55.49    3.80
   5  23  -1   60.89    4.00
   5  23   1   63.49    4.00
  -5  23  -1   53.89    3.80
  -5 -23   1   56.29    3.80
   5 -23  -1   57.49    3.70
  -5  23  -1   44.80    3.70
   5  23   1   55.09    3.70
  -5 -23   1   61.79    3.90
  -5  23   2   -0.10    0.40
   5  23  -2   -0.20    0.40
   5 -23   2    0.00    0.30
  -5  23  -2    1.00    0.50
  -5 -23   2   -0.10    0.40
   5  23   2    0.30    0.40
  -5  23  -2   -0.20    0.40
  -5 -23   2   -0.10    0.40
   5  23   2    0.90    0.60
   5  23  -3   31.10    2.30
  -5  23   3   28.60    2.20
   5 -23   3   30.50    2.20
  -5 -23  -3   28.30    2.20
  -5 -23   3   30.20    2.30
  -5  23  -3   28.90    2.20
   5  23   3   30.80    2.20
  -5 -23   3   31.00    2.20
  -5  23  -3   29.80    2.20
   5  23   3   31.10    2.40
   5  23  -4    1.10    0.50
  -5  23   4    1.00    0.40
  -5 -23  -4    1.70    0.50
   5 -23   4    0.80    0.40
  -5  23  -4    0.80    0.40
  -5 -23   4    1.40    0.40
   5  23   4    0.90    0.60
  -5  23  -4    0.70    0.40
   5  23   4    0.40    0.40
  -5 -23   4    1.50    0.50
   5  23   5    0.00    0.40
  -6  23   0   -0.30    0.40
   6 -23   0   -0.20    0.30
   6  23   0   -0.50    0.50
   6 -23   1    9.70    1.00
   6  23  -1   11.60    1.30
  -6  23   1    9.90    1.10
  -6  23  -1   10.20    1.10
   6 -23  -1    9.30    0.90
  -6 -23   1   10.00    1.10
  -6 -23   1    8.10    1.00
   6  23   1   10.40    1.30
  -6  23  -1    9.20    1.00
  -6  23   2    1.60    0.50
   6 -23   2    2.10    0.50
   6  23  -2    1.80    0.60
  -6 -23   2    2.20    0.50
  -6  23  -2    2.10    0.50
  -6 -23   2    1.10    0.50
  -6  23  -2    1.90    0.50
   6  23   2    2.30    0.70
   6  23   2    1.30    0.50
   6 -23  -2    1.40    0.40
  -6  23   3   24.40    1.90
   6 -23   3   25.90    1.80
   6  23  -3   21.60    1.90
   6  23   3   24.70    1.80
  -6 -23   3   24.60    2.00
  -6  23  -3   24.80    1.90
  -6  23  -3   24.40    1.90
  -6 -23   3   25.30    1.90
   6  23   3   23.90    2.00
   6  23  -4   -0.10    0.40
  -6  23   4    0.10    0.40
   6 -23   4    0.40    0.40
   6  23   4   -0.40    0.30
  -6  23  -4    0.70    0.40
  -6 -23   4   -0.10    0.40
  -6 -23   4   -0.10    0.30
   6  23   4    0.00    0.50
  -6  23  -4   -0.30    0.30
   7 -23   0   39.90    2.70
  -7  23   0   39.80    2.80
   7  23   0   38.30    2.90
   7 -23   1   27.10    1.90
   7  23  -1   28.20    2.10
  -7  23   1   27.40    2.00
  -7  23  -1   26.00    2.00
   7 -23  -1   24.90    1.90
  -7  23  -1   24.80    2.00
   7  23   1   24.90    2.20
  -7 -23   1   26.30    2.10
  -7  23   2   47.60    3.20
   7 -23   2   48.20    3.10
   7  23  -2   45.20    3.20
  -7  23  -2   46.80    3.10
  -7 -23   2   45.80    3.20
   7 -23  -2   41.50    3.00
  -7  23  -2   47.10    3.20
  -7 -23   2   42.20    3.10
   7  23   2   48.20    3.30
   7 -23   3    0.40    0.40
  -7  23   3    0.00    0.40
   7  23  -3    0.20    0.40
  -7 -23   3   -0.60    0.40
  -7  23  -3    0.90    0.40
   7  23   3    0.20    0.60
   7  23   3    0.30    0.40
  -7 -23   3    0.50    0.40
  -7  23  -3    0.10    0.40
   7 -23   4    1.80    0.50
  -7 -23   4    1.40    0.40
  -7  23  -4    1.20    0.40
   7  23   4    0.80    0.40
  -7  23  -4    0.80    0.40
   8  23   0    0.30    0.50
  -8  23   0    0.00    0.40
  -8  23   0    0.10    0.40
   8 -23   0    0.00    0.30
   8  23  -1   56.79    3.80
  -8  23   1   54.19    3.70
   8 -23   1   56.99    3.70
   8 -23  -1   53.79    3.60
  -8 -23   1   54.19    3.80
   8  23   1   54.79    3.90
  -8  23  -1   56.29    3.80
  -8  23  -1   59.79    3.80
  -8  23   2    4.70    0.70
   8  23  -2    3.10    0.70
   8 -23   2    4.00    0.60
  -8  23  -2    4.20    0.70
  -8  23  -2    3.60    0.60
   8 -23  -2    4.20    0.50
  -8 -23   2    3.10    0.60
  -8  23  -2    3.40    0.60
   8  23   2    4.30    0.80
  -8 -23   2    4.00    0.70
   8 -23   3    1.80    0.40
   8  23  -3    1.60    0.50
  -8 -23   3    1.60    0.60
  -8  23  -3    1.50    0.40
  -8  23  -3    1.60    0.50
  -8 -23   3    1.60    0.40
  -8  23  -4   20.80    1.50
  -9  23   0   85.29    5.40
   9  23   0   81.99    5.50
  -9  23   0   87.39    5.40
   9 -23   0   82.29    5.30
   9  23  -1    8.20    1.00
   9 -23   1    8.00    0.80
  -9  23   1    8.40    1.00
  -9  23   1    8.60    1.00
  -9 -23   1    6.60    1.00
  -9  23  -1    8.70    1.00
   9 -23  -1    8.30    0.80
   9  23   1    8.40    1.10
  -9  23  -1    9.00    1.00
  -9  23   2   40.10    2.80
   9 -23   2   43.10    2.70
  -9  23   2   42.30    2.80
   9  23  -2   40.60    2.90
  -9 -23   2   37.30    2.70
  -9  23  -2   40.10    2.80
  -9  23  -2   44.30    2.80
  -9 -23   2   42.00    2.90
  -9  23  -2   43.20    2.90
   9 -23  -2   38.60    2.70
   9 -23   3    2.80    0.50
  -9  23  -3    3.70    0.60
  -9  23  -3    3.50    0.60
  -9 -23   3    2.20    0.50
  10 -23   0   -0.50    0.30
 -10  23   0    0.30    0.40
  10  23   0    0.40    0.70
 -10  23   0    0.30    0.40
 -10  23   1    1.70    0.50
  10  23  -1    0.70    0.60
  10 -23   1    1.30    0.40
 -10  23   1    0.60    0.50
 -10  23  -1    0.80    0.50
 -10  23  -1    1.80    0.50
 -10  23  -1    0.90    0.80
  10 -23  -1    1.10    0.30
  10 -23   2   16.20    1.20
 -10  23  -2   15.70    1.30
 -10  23  -2   16.40    1.30
  10 -23  -2   13.40    1.10
 -10  23  -3    2.00    0.50
  11 -23   0   -0.30    0.30
 -11  23   0    0.90    0.50
  11 -23   1    2.70    0.40
 -11  23  -1    3.00    0.60
 -11  23  -1    2.50    0.80
  11 -23  -1    2.60    0.40
 -11  23  -1    2.20    0.60
   0  24   0  224.18   13.80
   0  24   0  219.58   13.60
   0 -24   0  219.98   13.50
   0  24   1    0.30    0.50
   0  24  -1   -0.20    0.50
   0 -24   1    0.10    0.40
   0 -24   1    0.20    0.40
   0  24  -1    0.10    0.30
   0  24   1    0.10    0.40
   0 -24   2   80.69    4.90
   0  24   2   76.59    5.10
   0  24  -2   72.49    4.90
   0  24  -2   73.69    4.80
   0  24   2   76.59    4.90
   0  24  -2   71.39    5.00
   0  24  -3    0.30    0.60
   0  24   3    0.50    0.40
   0 -24   3   -0.30    0.30
   0  24   3   -0.10    0.60
   0 -24   4   16.70    1.40
   0 -24   4   15.90    1.40
   0  24   4   17.80    1.40
   0  24   4   16.20    1.60
   0  24   5   -0.20    0.30
  -1  24   0   -0.10    0.40
   1  24   0   -0.40    0.50
  -1  24   0   -0.10    0.50
   1 -24   0    0.30    0.40
   1  24   0   -0.20    0.40
  -1 -24   0    0.30    0.40
   1  24  -1   35.80    2.80
  -1  24   1   37.80    2.90
   1  24  -1   38.30    2.60
   1 -24   1   41.00    2.70
  -1  24   1   39.80    2.70
  -1 -24   1   36.50    2.60
   1  24   1   38.40    2.70
  -1  24  -1   36.30    2.80
   1  24   1   38.50    2.90
  -1 -24   1   38.00    2.70
  -1  24  -1   38.20    2.70
   1 -24   2    8.00    0.90
  -1  24   2    6.60    0.90
  -1  24   2    7.80    1.10
   1  24  -2    6.10    0.90
  -1  24  -2    7.90    0.90
  -1 -24   2    7.10    0.90
  -1 -24   2    7.80    0.90
  -1  24  -2    6.50    1.00
  -1  24  -2    7.10    0.90
   1  24   2    7.10    0.90
   1  24   2    6.10    1.00
  -1  24   3   45.60    3.30
  -1  24   3   49.50    3.20
   1  24  -3   42.40    3.20
   1 -24   3   47.80    3.20
  -1 -24   3   47.20    3.20
  -1  24  -3   43.90    3.10
  -1  24  -3   40.50    3.30
  -1 -24   3   48.70    3.20
   1  24   3   49.80    3.20
   1  24   3   49.10    3.40
   1 -24   4    0.50    0.40
  -1 -24  -4    0.50    0.50
  -1  24   4    0.00    0.40
  -1  24   4    0.50    0.60
   1  24  -4    1.10    0.60
   1  24   4    0.30    0.40
  -1 -24   4    0.40    0.40
  -1 -24   4    0.30    0.40
   1  24   4    0.40    0.50
  -1  24   5    0.40    0.30
   1  24   5    0.00    0.30
  -1 -24   5   -0.60    0.50
   2  24   0    2.80    0.80
  -2  24   0    2.40    0.60
  -2 -24   0    2.60    0.60
   2  24   0    2.80    0.60
  -2  24   0    2.90    0.70
   2 -24   0    3.50    0.60
  -2  24   1   38.00    3.00
   2  24  -1   42.30    3.00
  -2  24   1   42.70    2.80
   2 -24   1   40.90    2.80
   2  24  -1   38.90    2.70
  -2 -24   1   40.60    2.80
  -2  24  -1   39.30    2.80
  -2 -24   1   40.90    2.80
   2 -24  -1   39.30    2.70
   2  24   1   40.40    2.80
  -2  24  -1   36.00    2.90
   2  24   1   38.40    3.00
  -2  24   2   16.80    1.40
  -2  24   2   13.90    1.60
   2 -24   2   15.40    1.30
   2  24  -2   15.80    1.60
  -2 -24   2   15.70    1.50
  -2  24  -2   14.90    1.40
  -2 -24   2   16.50    1.40
   2  24   2   18.30    1.40
  -2  24  -2   15.10    1.40
   2  24   2   17.00    1.70
  -2 -24  -3   12.60    1.40
  -2  24   3   16.60    1.70
   2  24  -3   15.30    1.50
  -2  24   3   18.50    1.40
   2 -24   3   18.90    1.40
   2  24   3   17.20    1.60
  -2 -24   3   16.80    1.50
  -2  24  -3   15.90    1.40
   2  24   3   18.50    1.40
  -2  24  -3   16.80    1.40
  -2 -24   3   17.00    1.40
  -2  24   4    0.30    0.30
   2  24  -4    0.00    0.50
   2 -24   4    0.60    0.40
  -2  24   4   -0.20    0.60
  -2 -24  -4    0.00    0.40
   2  24   4    0.30    0.30
   2  24   4    0.50    0.50
  -2 -24   4    0.30    0.40
  -2 -24   4    0.00    0.40
   2  24   5   28.40    2.00
  -3  24   0   -0.10    0.40
  -3  24   0   -1.70    0.50
   3  24   0   -0.30    0.50
   3  24   0    0.50    0.40
   3 -24   0    0.50    0.40
   3  24  -1  180.78   11.40
   3 -24   1  195.28   11.20
  -3  24   1  165.68   11.30
  -3  24   1  175.78   11.20
  -3 -24   1  178.08   11.20
   3 -24  -1  176.08   11.10
   3  24   1  175.98   11.10
   3  24   1  189.08   11.40
  -3 -24   1  188.48   11.20
  -3  24  -1  189.28   11.20
   3 -24   2    0.70    0.40
  -3  24   2    0.50    0.40
  -3  24   2   -0.70    0.60
   3  24  -2    0.30    0.50
  -3 -24   2    0.50    0.40
  -3  24  -2    0.20    0.40
  -3 -24   2    0.10    0.50
   3  24   2    0.80    0.40
   3  24   2    0.90    0.60
  -3  24  -2    1.00    0.50
  -3  24   3   12.40    1.40
   3 -24   3   13.00    1.20
   3  24  -3   13.40    1.30
  -3 -24  -3   11.00    1.20
  -3  24   3   13.20    1.20
   3  24   3   12.50    1.10
   3  24   3   12.90    1.40
  -3  24  -3   10.70    1.10
  -3 -24   3   10.70    1.20
  -3 -24   3   12.30    1.20
  -3  24  -3   10.80    1.10
  -3  24   4    4.20    0.60
  -3  24   4    2.80    1.10
  -3 -24  -4    4.50    0.60
   3 -24   4    4.60    0.70
   3  24  -4    4.30    0.70
  -3 -24   4    3.80    0.70
  -3  24  -4    4.30    0.70
  -3  24  -4    3.70    0.70
   3  24   4    6.00    0.70
   3  24   4    3.80    0.70
   3  24   5   11.30    1.30
   4 -24   0    7.60    0.80
  -4  24   0    6.40    0.90
   4  24   0    6.20    1.00
   4 -24   1   57.69    3.50
   4  24  -1   55.19    3.70
  -4  24   1   49.99    3.50
  -4 -24   1   49.30    3.40
   4 -24  -1   50.09    3.40
  -4 -24   1   50.39    3.50
   4  24   1   48.10    3.40
   4  24   1   57.19    3.70
  -4  24  -1   49.90    3.50
  -4  24  -1   52.39    3.50
   4  24  -2    4.10    0.80
  -4  24   2    4.10    0.70
   4 -24   2    4.50    0.70
  -4  24  -2    4.30    0.70
  -4 -24   2    6.00    0.80
  -4 -24   2    4.60    0.70
   4  24   2    4.60    0.70
   4  24   2    4.50    0.90
  -4  24  -2    4.30    0.70
  -4  24   3   16.70    1.40
   4 -24   3   18.10    1.40
   4  24  -3   17.00    1.50
  -4 -24   3   16.80    1.40
   4  24   3   17.40    1.60
  -4  24  -3   16.40    1.40
  -4 -24   3   16.20    1.50
   4  24   3   18.00    1.40
  -4  24  -3   14.80    1.40
  -4  24   4    0.40    0.40
   4 -24   4   -0.10    0.40
   4  24  -4   -0.20    0.40
  -4 -24  -4    0.40    0.40
   4  24   4    0.40    0.40
   4  24   4   -0.10    0.50
  -4  24  -4    0.00    0.40
  -4 -24   4    0.30    0.40
  -4 -24   4    0.80    0.40
  -4  24  -4   -0.10    0.40
   5  24   0    0.20    0.50
   5 -24   0    0.40    0.40
  -5  24   0    0.10    0.40
  -5  24   1  198.18   12.20
   5  24  -1  202.18   12.30
   5 -24   1  205.78   12.10
  -5  24  -1  202.18   12.20
   5  24   1  207.18   12.30
  -5 -24   1  182.98   12.10
   5 -24  -1  188.78   12.00
  -5 -24   1  200.18   12.20
  -5  24  -1  189.28   12.10
   5  24  -2    0.50    0.50
  -5  24   2   -0.30    0.40
   5 -24   2    0.30    0.30
   5  24   2    0.00    0.60
  -5  24  -2   -0.10    0.40
   5  24   2    0.30    0.40
  -5 -24   2    0.10    0.40
  -5 -24   2    0.60    0.40
  -5  24  -2   -0.10    0.40
  -5  24   3    8.10    1.00
   5  24  -3    9.90    1.10
   5 -24   3    9.40    1.00
  -5 -24   3    9.40    1.10
   5  24   3    8.90    1.20
  -5 -24   3    8.40    1.00
  -5  24  -3    8.80    1.00
   5  24   3    8.90    0.90
  -5  24  -3    9.00    1.00
  -5  24   4    0.60    0.40
   5 -24   4    0.10    0.40
  -5 -24   4   -0.10    0.60
  -5  24  -4    0.40    0.40
  -5  24  -4    0.30    0.40
   5  24   4    0.50    0.40
  -5 -24   4    0.30    0.40
  -6  24   0    5.40    0.80
   6 -24   0    5.80    0.70
   6  24   0    5.90    0.90
   6  24  -1  103.49    6.80
   6 -24   1  108.59    6.60
  -6  24   1  114.19    6.70
  -6 -24   1   88.59    6.60
   6 -24  -1  100.59    6.50
  -6  24  -1  108.79    6.70
  -6  24  -1  109.39    6.70
   6  24   1  109.09    6.80
  -6 -24   1  103.49    6.70
   6  24  -2   16.90    1.60
  -6  24   2   17.70    1.50
   6 -24   2   18.30    1.40
  -6  24  -2   19.60    1.50
  -6 -24   2   17.10    1.50
   6  24   2   17.40    1.70
  -6 -24   2   17.80    1.60
  -6  24  -2   17.50    1.50
   6 -24   3    3.10    0.50
  -6  24   3    2.40    0.60
   6  24  -3    3.50    0.60
  -6 -24   3    2.30    0.60
   6  24   3    2.50    0.70
  -6 -24   3    2.60    0.50
  -6  24  -3    1.70    0.50
   6  24   3    3.20    0.50
  -6  24  -3    2.60    0.50
   6 -24   4    1.90    0.50
  -6 -24   4    2.40    0.50
   6  24   4    1.90    0.40
  -6  24  -4    2.50    0.50
  -6  24  -4    1.70    0.40
  -7  24   0    0.00    0.40
  -7  24   0    0.40    0.40
   7 -24   0   -0.10    0.30
   7  24   0   -0.40    0.50
   7  24  -1   95.09    6.10
  -7  24   1   94.59    6.10
   7 -24   1   95.69    6.00
   7  24   1   95.39    6.20
  -7 -24   1   93.49    6.10
  -7  24  -1   93.09    6.10
  -7  24  -1   98.19    6.10
   7 -24  -1   93.89    5.90
   7 -24   2    4.10    0.60
  -7  24   2    4.10    0.70
   7  24  -2    3.20    0.70
  -7  24  -2    4.00    0.70
  -7 -24   2    3.30    0.60
   7 -24  -2    3.80    0.50
   7  24   2    4.20    0.80
  -7  24  -2    4.50    0.70
  -7 -24   2    3.30    0.70
   7  24  -3    4.90    0.80
  -7  24   3    5.30    0.70
   7 -24   3    4.70    0.60
   7  24   3    3.20    0.80
  -7 -24   3    4.20    0.70
  -7  24  -3    4.30    0.70
  -7  24  -3    5.50    0.70
  -7 -24   3    4.80    0.60
   8 -24   0    0.40    0.30
  -8  24   0    0.40    0.40
   8  24   0    0.80    0.50
  -8  24   0    0.30    0.40
  -8  24   1   10.00    1.00
   8 -24   1    8.80    0.90
  -8  24   1    9.50    1.00
   8  24  -1    9.20    1.10
  -8  24  -1    8.70    1.00
  -8  24  -1    7.70    1.00
  -8 -24   1    8.20    1.00
   8 -24  -1    8.40    0.80
   8  24   1    8.10    1.10
   8  24  -2    8.40    1.00
  -8  24   2    7.40    0.90
   8 -24   2    9.10    0.90
  -8  24  -2   10.00    1.00
   8  24   2    7.80    1.00
  -8 -24   2    7.80    1.00
  -8 -24   2    7.80    0.80
   8 -24  -2    8.00    0.80
  -8  24  -2    9.20    1.00
   8 -24   3    2.70    0.50
  -8  24  -3    1.70    0.50
  -8  24  -3    2.90    0.50
  -8 -24   3    1.50    0.40
   9  24   0    0.40    0.50
  -9  24   0    0.70    0.40
   9 -24   0   -0.30    0.30
  -9  24   0    0.30    0.40
  -9  24   1    2.90    0.60
   9  24  -1    1.90    0.60
  -9  24   1    2.80    0.60
   9 -24   1    2.90    0.50
  -9  24  -1    3.40    0.60
   9  24   1    2.60    0.80
  -9  24  -1    3.20    0.60
   9 -24  -1    2.40    0.40
  -9  24   2    1.70    0.50
  -9  24   2    2.30    0.60
   9 -24   2    2.30    0.50
  -9  24  -2    2.90    0.50
  -9  24  -2    2.60    0.50
   9 -24  -2    2.00    0.40
  -9  24  -3   10.60    1.00
 -10  24   0    1.40    0.50
  10 -24   0    0.60    0.30
 -10  24   0    1.00    0.50
 -10  24   1   10.50    1.10
  10 -24   1   11.30    0.90
  10 -24  -1   11.30    0.90
 -10  24  -1   11.60    1.10
 -10  24  -1   11.80    1.10
 -10  24  -2    0.40    0.40
   0  25   0   -0.10    0.40
   0 -25   0    0.20    0.40
   0  25   0    0.10    0.50
   0  25  -1    0.00    0.50
   0  25   1    0.70    0.60
   0  25   1    0.00    0.40
   0  25  -1    0.00    0.40
   0 -25   1    0.00    0.30
   0  25  -2    3.70    0.70
   0  25  -2    3.30    0.60
   0 -25   2    2.70    0.60
   0  25  -2    2.50    0.60
   0  25   2    2.90    0.80
   0  25   2    3.60    0.60
   0 -25   2    3.90    0.60
   0 -25   3    0.00    0.30
   0  25   3    0.30    0.40
   0  25  -3   -0.50    0.60
   0  25   3    0.00    0.60
   0 -25   3    0.10    0.40
   0  25   4   22.50    2.00
   0  25   4   27.10    1.80
   0 -25   4   26.40    1.90
   0 -25   4   24.00    1.90
   1  25   0    3.10    0.80
  -1  25   0    3.20    0.60
   1  25   0    3.00    0.60
  -1 -25   0    3.90    0.60
   1 -25   0    3.30    0.60
  -1  25   0    2.60    0.70
  -1  25   1   35.40    2.40
   1 -25   1   35.70    2.40
   1  25  -1   31.60    2.40
  -1  25   1   31.90    2.60
   1  25  -1   35.20    2.60
  -1  25  -1   29.60    2.50
  -1  25  -1   33.60    2.40
  -1 -25   1   32.70    2.40
   1  25   1   32.10    2.60
   1  25   1   34.60    2.40
  -1  25   2   66.49    4.70
   1 -25   2   72.69    4.50
  -1  25   2   74.09    4.50
   1  25  -2   65.19    4.60
   1  25   2   71.59    4.70
  -1 -25   2   71.09    4.50
  -1 -25   2   73.39    4.60
  -1  25  -2   68.99    4.50
   1  25   2   72.59    4.50
  -1  25  -2   59.19    4.60
  -1  25  -2   65.39    4.50
  -1  25   3    0.30    0.40
   1  25  -3    0.60    0.60
  -1  25   3    0.10    0.60
   1 -25   3    0.50    0.40
  -1 -25   3    0.00    0.40
   1  25   3    0.10    0.60
   1  25   3    0.40    0.40
  -1 -25   3   -0.20    0.40
   1 -25   4    0.90    0.40
  -1  25   4    1.00    0.40
   1 -25   4    0.80    0.40
  -1 -25   4    0.90    0.40
   1  25   4    1.00    0.60
  -1 -25   4    1.30    0.40
   1  25   4    1.10    0.40
   2 -25   0   -0.10    0.30
  -2  25   0   -0.20    0.40
  -2  25   0   -1.00    0.50
   2  25   0    0.40    0.40
   2  25   0    0.50    0.50
   2 -25   1   30.30    2.10
   2  25  -1   29.20    2.30
  -2  25   1   27.10    2.10
  -2  25   1   26.70    2.30
  -2 -25   1   28.90    2.40
  -2 -25   1   26.70    2.00
   2  25   1   27.80    2.00
   2  25   1   29.80    2.30
  -2  25  -1   26.30    2.00
  -2  25  -1   24.20    2.20
  -2  25   2    0.90    0.60
   2 -25   2    0.40    0.40
   2  25  -2    0.20    0.50
  -2  25   2    0.80    0.40
  -2 -25   2    1.60    0.50
  -2  25  -2    0.30    0.40
   2  25   2    0.30    0.60
  -2 -25   2    0.70    0.50
   2  25   2    0.30    0.40
  -2  25  -2    0.00    0.40
  -2  25   3   -0.10    0.60
  -2  25   3    0.00    0.40
   2  25  -3    0.70    0.50
   2 -25   3    0.40    0.30
  -2 -25   3    0.60    0.40
  -2  25  -3    0.50    0.40
   2  25   3    0.40    0.60
   2  25   3    0.90    0.40
  -2 -25   3    0.60    0.40
  -2  25  -3    0.90    0.40
   2 -25   4   32.10    2.30
  -2  25   4   33.00    2.30
  -2 -25   4   33.30    2.50
   2  25   4   34.40    2.30
   2  25   4   29.50    2.40
  -2 -25   4   32.50    2.30
   3 -25   0    2.70    0.50
   3  25   0    2.10    0.50
   3  25   0    3.30    0.80
  -3  25   0    3.60    0.60
  -3  25   1    8.20    1.00
  -3  25   1    5.10    1.00
   3 -25   1    8.20    0.90
   3  25  -1    8.10    1.10
   3  25   1    8.20    1.10
  -3 -25   1    9.20    1.00
  -3  25  -1    7.40    0.90
   3  25   1    7.40    0.90
  -3  25  -1    8.50    1.00
  -3 -25   1    7.90    0.90
   3 -25  -1    7.80    0.80
   3 -25   2   17.30    1.40
  -3  25   2   13.90    1.60
  -3  25   2   16.30    1.40
   3  25  -2   15.20    1.50
  -3 -25   2   15.90    1.50
  -3 -25   2   16.20    1.40
   3  25   2   16.50    1.40
   3  25   2   18.40    1.70
  -3  25  -2   15.20    1.40
  -3  25  -2   16.00    1.40
  -3  25   3    2.00    0.50
  -3  25   3    1.40    0.80
   3  25  -3    1.80    0.60
   3 -25   3    2.50    0.50
  -3  25  -3    2.10    0.50
  -3 -25   3    2.30    0.60
  -3 -25   3    2.90    0.60
   3  25   3    2.70    0.50
  -3  25  -3    1.90    0.50
   3  25   3    2.30    0.70
  -3  25   4    0.40    0.40
   3 -25   4    0.80    0.40
  -3 -25   4    0.10    0.30
   3  25   4    0.40    0.40
   4  25   0   -0.30    0.50
  -4  25   0   -0.20    0.40
   4 -25   0    0.60    0.40
   4 -25   1    1.00    0.40
   4  25  -1    1.40    0.60
  -4  25   1    1.40    0.50
   4  25   1    1.70    0.60
  -4 -25   1    0.90    0.50
  -4 -25   1    1.00    0.40
  -4  25  -1    1.80    0.50
  -4  25  -1    1.40    0.50
   4 -25  -1    1.60    0.40
   4  25   1    0.80    0.50
  -4  25   2    0.80    0.40
   4  25  -2    0.30    0.50
   4 -25   2    0.30    0.30
  -4  25  -2    0.60    0.40
   4  25   2    0.60    0.50
   4  25   2    1.00    0.40
  -4 -25   2   -0.20    0.40
  -4 -25   2   -0.10    0.40
  -4  25  -2   -0.10    0.40
   4 -25   3   33.00    2.20
   4  25  -3   27.50    2.30
  -4  25   3   31.10    2.20
  -4  25  -3   29.90    2.20
  -4  25  -3   30.20    2.20
  -4 -25   3   31.20    2.30
   4  25   3   30.20    2.20
  -4 -25   3   32.40    2.20
   4  25   3   30.10    2.40
   4 -25   4   16.20    1.30
  -4  25   4   15.20    1.30
  -4 -25   4   17.00    1.30
   4  25   4   15.10    1.30
   5 -25   0    7.10    0.80
   5  25   0    6.50    1.00
  -5  25   0    6.40    0.80
  -5  25   1    9.30    1.00
   5 -25   1    7.80    0.90
   5  25  -1    6.90    1.00
  -5 -25   1    6.00    0.80
  -5  25  -1    5.90    0.80
  -5  25  -1    7.60    0.90
   5 -25  -1    6.40    0.70
   5  25   1    7.40    1.10
  -5 -25   1    7.10    1.00
  -5  25   2    4.50    0.70
   5  25  -2    3.80    0.70
   5 -25   2    4.10    0.60
  -5 -25   2    3.80    0.60
   5  25   2    3.70    0.60
  -5  25  -2    4.00    0.70
  -5 -25   2    4.20    0.80
  -5  25  -2    4.90    0.70
   5  25   2    3.00    0.80
   5 -25   3    4.70    0.60
   5  25  -3    5.00    0.80
  -5  25   3    4.30    0.60
  -5  25  -3    4.60    0.70
  -5 -25   3    4.10    0.60
  -5 -25   3    3.80    0.70
   5  25   3    4.30    0.80
  -5  25  -3    4.70    0.70
   5  25   3    3.90    0.60
  -5 -25   4    6.20    0.70
   5  25   4    6.10    1.00
   6 -25   0   -0.10    0.30
   6  25   0   -0.30    0.50
  -6  25   0    0.30    0.40
  -6  25   0    0.30    0.40
   6 -25   1    2.70    0.50
  -6  25   1    2.90    0.60
   6  25  -1    2.70    0.70
   6  25   1    2.50    0.70
   6 -25  -1    2.30    0.50
  -6  25  -1    2.10    0.50
  -6  25  -1    2.80    0.60
   6  25  -2    1.00    0.50
  -6  25   2    0.70    0.40
   6 -25   2    0.80    0.40
   6  25   2    1.10    0.60
  -6 -25   2    0.90    0.40
  -6 -25   2    0.20    0.50
  -6  25  -2    1.20    0.40
  -6  25  -2    0.40    0.40
   6 -25   3    5.80    0.70
  -6  25   3    4.70    0.70
   6  25  -3    4.30    0.70
  -6 -25   3    4.90    1.00
  -6  25  -3    5.20    0.70
  -6  25  -3    5.60    0.70
   6  25   3    5.00    0.70
  -6 -25   3    4.50    0.60
  -7  25   0   43.70    2.90
   7 -25   0   41.60    2.80
   7  25   0   39.70    3.00
  -7  25   0   42.70    2.90
  -7  25   1    5.90    0.80
   7  25  -1    7.80    1.00
   7 -25   1    6.10    0.70
  -7  25  -1    7.40    0.90
  -7  25  -1    6.80    0.90
   7  25   1    7.80    1.00
   7 -25  -1    6.00    0.70
   7 -25   2   22.10    1.60
  -7  25   2   21.40    1.70
   7  25  -2   18.80    1.70
  -7  25  -2   22.00    1.70
   7  25   2   22.20    1.80
  -7 -25   2   21.80    1.70
  -7 -25   2   19.60    1.60
  -7  25  -2   22.20    1.60
   7 -25   3   28.60    1.90
  -7 -25   3   23.60    1.80
  -7  25  -3   27.90    1.90
  -7  25  -3   26.00    1.90
  -8  25   0    0.10    0.40
  -8  25   0    0.30    0.40
   8  25   0    0.10    0.50
   8 -25   0    0.20    0.30
   8 -25   1   10.40    0.90
  -8  25   1    9.80    1.00
  -8  25   1   10.70    1.00
   8  25  -1    8.90    1.10
   8 -25  -1    9.00    0.90
  -8  25  -1   10.30    1.00
   8  25   1    9.80    1.10
  -8  25  -1   10.30    1.00
   8 -25   2   29.30    2.00
  -8  25   2   26.60    2.00
  -8  25   2   30.20    2.10
  -8  25  -2   27.10    2.10
  -8  25  -2   29.30    2.00
  -8  25  -3   34.90    2.50
  -9  25   0   14.00    1.20
  -9  25   0   13.30    1.20
   9 -25   0   13.50    1.10
  -9  25   1    2.10    0.50
  -9  25   1    2.30    0.50
   9 -25   1    1.60    0.40
  -9  25  -1    1.80    0.50
  -9  25  -1    1.80    0.50
   9 -25  -1    1.60    0.40
   9 -25   2   42.20    2.80
  -9  25  -2   42.00    2.80
  10 -25   0   -0.30    0.40
   0 -26   0  127.69    8.10
   0  26   0  129.69    8.40
   0  26   0  136.79    8.20
   0  26  -1   -0.20    0.40
   0 -26   1   -0.10    0.30
   0  26  -1    0.10    0.40
   0  26   1   -0.20    0.50
   0  26   1    0.20    0.40
   0  26  -1    0.10    0.50
   0  26   2    0.20    0.40
   0 -26   2   -0.40    0.30
   0  26  -2   -0.20    0.50
   0 -26   2   -0.20    0.40
   0  26   2    0.20    0.60
   0 -26   3    0.10    0.40
   0  26   3   -1.00    0.60
   0  26   3   -0.30    0.30
   0 -26   3    0.20    0.30
   0 -26   4    8.90    0.90
   0  26   4    8.50    0.90
  -1  26   0    0.10    0.40
   1  26   0    0.80    0.50
  -1 -26   0   -0.70    0.40
   1  26   0    0.00    0.40
  -1  26   0    0.00    0.50
   1 -26   0    0.00    0.40
   1  26  -1    7.50    0.90
  -1  26   1    7.80    0.90
   1  26  -1    6.80    1.00
   1  26  -1    5.90    0.80
  -1  26   1    5.80    1.10
   1 -26   1    7.00    0.80
  -1  26  -1    7.60    1.00
  -1  26  -1    7.40    0.90
   1  26   1    6.50    0.80
   1  26   1    7.00    1.00
  -1 -26   1    6.70    0.80
  -1  26  -1    7.10    0.90
  -1  26   2   27.90    2.40
   1  26  -2   28.70    2.30
   1 -26   2   33.20    2.20
   1 -26   2   29.70    2.20
  -1  26   2   31.90    2.20
   1  26   2   31.80    2.20
  -1 -26   2   30.10    2.20
  -1  26  -2   30.90    2.20
  -1 -26   2   32.10    2.30
  -1  26  -2   30.40    2.20
   1  26   2   32.70    2.50
  -1  26   3    0.90    0.40
   1 -26   3    0.80    0.40
   1  26  -3    0.70    0.60
  -1  26   3    0.50    0.60
   1 -26   3    1.20    0.40
  -1 -26   3    1.00    0.40
  -1 -26   3    1.30    0.40
   1  26   3    0.80    0.60
   1  26   3    0.50    0.40
   1 -26   4    0.20    0.30
  -1  26   4    1.30    0.40
   1  26   4    0.90    0.40
  -1 -26   4    0.30    0.30
   2  26   0   57.29    3.90
   2  26   0   65.39    4.20
  -2  26   0   55.39    4.10
  -2  26   0   64.19    4.00
   2 -26   0   60.99    3.90
   2 -26   1    5.90    0.80
  -2  26   1    7.40    0.90
   2  26  -1    5.80    0.90
  -2  26   1    4.60    0.90
   2  26   1    7.40    1.10
  -2  26  -1    6.00    0.80
  -2 -26   1    6.60    0.80
   2  26   1    5.80    0.80
  -2  26  -1    7.00    0.80
  -2  26   2   11.50    1.30
   2 -26   2   11.70    1.10
  -2  26   2   12.60    1.10
   2  26  -2    9.70    1.20
   2  26   2   10.80    1.30
  -2  26  -2   10.20    1.10
   2  26   2   12.80    1.10
  -2 -26   2   10.80    1.20
  -2  26  -2   11.70    1.10
  -2 -26   2   13.30    1.10
   2  26  -3    7.30    1.00
  -2  26   3    8.00    0.90
   2 -26   3    9.30    0.90
  -2  26   3    8.60    1.10
  -2  26  -3    8.80    1.00
  -2 -26   3    9.10    0.90
  -2 -26   3    8.20    0.90
   2  26   3    9.00    1.10
  -2  26  -3    7.10    0.80
   2  26   3    9.40    0.90
   2 -26   4    3.40    0.50
  -2  26   4    4.50    0.60
  -2 -26   4    3.90    0.60
   2  26   4    3.60    0.50
   3 -26   0   -0.10    0.30
  -3  26   0   -0.10    0.40
   3  26   0    0.40    0.50
   3  26  -1   27.50    2.20
   3 -26   1   29.90    2.10
  -3  26   1   28.10    2.10
   3  26   1   31.10    2.40
  -3 -26   1   26.80    2.10
  -3  26  -1   30.60    2.10
   3  26   1   28.10    2.10
  -3  26  -1   27.90    2.10
  -3  26   2   14.40    1.20
   3  26  -2   11.10    1.30
   3 -26   2   14.40    1.20
  -3 -26   2   12.60    1.20
  -3 -26   2   14.30    1.30
  -3  26  -2   12.10    1.20
  -3  26  -2   13.30    1.20
   3  26   2   14.30    1.20
   3  26   2   12.70    1.40
   3  26  -3    5.90    0.80
   3 -26   3    6.90    0.80
  -3  26   3    7.70    0.80
  -3 -26   3    6.80    0.80
  -3  26  -3    7.30    0.80
   3  26   3    6.40    0.70
  -3 -26   3    7.10    0.90
   3  26   3    6.50    1.00
  -3  26  -3    6.20    0.80
   3  26   4    0.10    0.40
  -4  26   0   61.09    4.00
   4  26   0   59.29    4.20
   4 -26   0   61.99    3.90
   4  26  -1    1.80    0.60
   4 -26   1    1.90    0.40
  -4  26   1    1.70    0.50
   4  26   1    1.70    0.70
   4  26   1    0.50    0.50
  -4  26  -1    1.10    0.40
   4 -26  -1    1.70    0.40
  -4 -26   1    1.10    0.50
  -4  26  -1    1.90    0.50
   4  26  -2    3.20    0.70
  -4  26   2    3.00    0.60
   4 -26   2    3.80    0.60
   4  26   2    2.40    0.50
  -4  26  -2    4.30    0.60
   4  26   2    2.80    0.70
  -4 -26   2    3.00    0.50
  -4 -26   2    3.10    0.60
  -4  26  -2    3.50    0.60
   4  26  -3   11.50    1.40
  -4  26   3   12.90    1.20
   4 -26   3   14.50    1.20
   4  26   3   13.50    1.40
  -4 -26   3   15.00    1.20
  -4  26  -3   12.70    1.20
   4  26   3   13.00    1.10
  -4  26  -3   14.50    1.20
   5 -26   0   -0.40    0.30
   5  26   0   -0.30    0.50
  -5  26   0   -0.10    0.40
   5  26  -1   26.70    2.10
   5 -26   1   28.80    2.00
  -5  26   1   27.40    2.00
   5 -26  -1   24.90    1.90
  -5  26  -1   28.70    2.10
  -5  26  -1   29.70    2.10
   5  26   1   26.30    2.20
   5 -26   2   12.10    1.10
  -5  26   2   11.50    1.10
   5  26  -2   11.60    1.20
  -5 -26   2    9.70    1.00
  -5  26  -2   12.60    1.10
   5  26   2   10.40    1.10
  -5  26  -2   12.30    1.10
  -5 -26   2   12.00    1.20
   5  26   2   12.60    1.30
  -5  26   3   28.90    2.10
   5 -26   3   30.80    2.10
   5  26   3   28.70    2.00
  -5 -26   3   29.20    2.10
  -5  26  -3   28.90    2.10
  -5  26  -3   29.70    2.00
  -6  26   0    1.90    0.50
  -6  26   0    2.20    0.50
   6  26   0    0.90    0.60
   6 -26   0    2.00    0.40
  -6  26   1    4.80    0.70
   6  26  -1    5.60    0.90
   6 -26   1    5.50    0.70
   6  26   1    5.00    0.80
   6 -26  -1    4.60    0.60
  -6  26  -1    5.10    0.70
  -6  26  -1    5.60    0.70
  -6  26   2    1.40    0.50
   6 -26   2    1.60    0.40
   6  26  -2    1.70    0.50
   6  26   2    1.20    0.60
  -6 -26   2    1.50    0.40
  -6  26  -2    1.60    0.50
  -6  26  -2    1.00    0.40
   6 -26   3    5.30    0.60
  -6  26  -3    6.00    0.70
  -6  26  -3    5.40    0.80
  -7  26   0    0.00    0.40
   7  26   0   -0.30    0.50
  -7  26   0    0.20    0.40
   7 -26   0    0.50    0.30
  -7  26   1    7.90    0.90
   7 -26   1    7.90    0.80
  -7  26   1    7.90    0.90
   7  26  -1    7.40    0.90
  -7  26  -1    8.30    0.90
   7  26   1    6.80    1.00
  -7  26  -1    9.80    0.90
   7 -26  -1    6.90    0.70
  -7  26   2    3.10    0.60
   7 -26   2    3.50    0.50
  -7  26  -2    3.60    0.60
  -7  26  -2    4.20    0.60
  -8  26   0   62.69    4.00
   8 -26   0   59.19    3.90
  -8  26   0   63.39    4.00
  -8  26   1    0.20    0.40
   8 -26   1    0.30    0.30
  -8  26   1    0.30    0.40
  -8  26  -1    0.60    0.40
  -8  26  -1    0.20    0.40
   8 -26  -1    0.30    0.30
  -8  26  -2    9.20    0.90
   0  27   0    0.00    0.50
   0  27   0   -0.10    0.40
   0 -27   0    0.20    0.40
   0 -27   1   -0.40    0.30
   0  27  -1   -0.50    0.40
   0  27   1    0.30    0.60
   0  27  -1    0.30    0.40
   0  27  -1    0.70    0.50
   0  27   1    0.00    0.40
   0 -27   2   23.40    1.80
   0 -27   2   25.30    1.80
   0  27   2   26.20    1.80
   0  27  -2   21.60    2.00
   0  27   2   23.50    2.00
   0  27   3   -0.30    0.30
   0 -27   3    0.40    0.40
   1  27   0   99.49    6.10
   1  27   0   95.29    6.30
   1 -27   0   93.19    6.00
  -1  27   0   88.49    6.20
  -1  27   0  106.49    6.10
   1 -27   1    2.20    0.50
  -1  27   1    1.90    0.60
   1  27  -1    0.90    0.60
  -1  27   1    1.70    0.50
  -1 -27   1    1.70    0.50
  -1  27  -1    1.50    0.60
   1  27   1    1.90    0.70
  -1  27  -1    1.20    0.50
   1  27   1    1.40    0.50
  -1  27  -1    1.60    0.50
  -1  27   2    0.20    0.40
   1 -27   2    0.40    0.50
   1  27  -2    0.10    0.50
  -1  27   2    1.50    0.60
   1 -27   2    0.00    0.30
  -1 -27   2    0.40    0.40
   1  27   2    0.60    0.60
  -1 -27   2    0.20    0.50
   1  27   2    0.10    0.40
  -1  27  -2    1.10    0.40
  -1  27  -2    0.60    0.40
   1 -27   3    0.00    0.30
  -1  27   3    0.40    0.30
   1  27   3   -0.60    0.30
  -1 -27   3   -0.40    0.30
   2  27   0   -0.20    0.40
   2  27   0    0.00    0.50
  -2  27   0    0.00    0.40
   2 -27   0    0.00    0.30
  -2  27   1   11.70    1.10
   2 -27   1   10.80    1.00
   2  27  -1    9.90    1.20
  -2  27   1    6.50    1.10
   2  27   1   11.10    1.00
   2  27   1   10.60    1.30
  -2 -27   1    9.50    1.00
  -2  27  -1   11.30    1.00
  -2  27  -1    9.70    1.00
  -2  27   2   16.20    1.90
   2  27  -2   21.30    1.80
  -2  27   2   24.10    1.70
   2 -27   2   24.30    1.70
   2 -27   2   20.00    1.80
  -2 -27   2   21.60    1.70
  -2  27  -2   23.50    1.70
  -2 -27   2   22.80    1.70
   2  27   2   23.90    1.70
  -2  27  -2   22.80    1.70
   2  27   2   24.30    1.90
  -2  27   3    0.00    0.40
   2 -27   3    1.00    0.40
  -2 -27   3    0.50    0.40
   2  27   3    0.50    0.40
   3  27   0   64.19    4.30
   3 -27   0   61.49    4.10
  -3  27   0   66.29    4.20
  -3  27   1    1.60    0.50
   3  27  -1    1.20    0.50
   3 -27   1    1.90    0.40
   3  27   1    1.10    0.60
  -3 -27   1    1.90    0.50
  -3  27  -1    1.30    0.50
   3  27   1    1.70    0.50
  -3  27  -1    0.80    0.40
   3  27  -2    1.00    0.50
   3 -27   2    0.80    0.40
  -3  27   2    0.00    0.30
  -3  27  -2    0.10    0.40
  -3 -27   2    0.20    0.40
   3  27   2    0.40    0.50
   3  27   2    0.50    0.40
  -3  27  -2    0.70    0.40
   3 -27   3   22.20    1.60
  -3  27   3   23.00    1.60
   3  27   3   21.10    1.60
  -3 -27   3   22.60    1.60
   4  27   0   -0.10    0.50
  -4  27   0    0.00    0.40
   4 -27   0    0.20    0.30
  -4  27   1   50.09    3.20
   4 -27   1   48.90    3.10
   4  27  -1   43.60    3.20
   4  27   1   46.90    3.30
  -4  27  -1   44.70    3.10
  -4  27  -1   45.60    3.20
   4  27  -2    9.70    1.10
  -4  27   2   10.40    1.00
   4 -27   2   12.00    1.00
  -4  27  -2    9.70    1.00
   4  27   2   10.20    1.20
  -4  27  -2   10.20    1.00
  -4 -27   2    8.80    1.00
   4  27   2    9.40    0.90
   4 -27   3    3.80    0.60
  -4  27   3    2.90    0.50
   5  27   0    0.80    0.60
   5 -27   0    1.00    0.40
  -5  27   0    1.20    0.40
  -5  27   0    1.20    0.40
  -5  27   1    2.50    0.50
   5  27  -1    1.90    0.60
   5 -27   1    2.40    0.50
   5 -27  -1    2.00    0.40
   5  27   1    1.90    0.60
  -5  27  -1    1.90    0.50
  -5  27  -1    2.60    0.60
  -5  27   2    0.70    0.40
   5 -27   2    0.80    0.30
  -5  27  -2    0.70    0.40
  -5 -27   2    0.00    0.40
  -5  27  -2    0.60    0.40
  -6  27   0   -0.20    0.30
  -6  27   0    0.40    0.40
   6  27   0   -0.30    0.50
   6 -27   0   -0.20    0.30
   6 -27   1    0.30    0.30
  -6  27   1   -0.20    0.30
   6  27  -1    0.50    0.60
  -6  27   1    0.50    0.40
  -6  27  -1    0.10    0.40
  -6  27  -1   -0.50    0.40
   6 -27  -1    0.80    0.30
   6 -27   2    4.70    0.60
  -6  27   2    4.40    0.60
  -6  27  -2    4.80    0.60
  -6  27  -2    4.30    0.60
  -7  27   0   67.59    4.10
  -7  27   0   64.69    4.10
   7 -27   0   59.19    4.00
  -7  27   1    0.80    0.40
   7 -27   1    1.20    0.30
  -7  27   1    1.00    0.40
  -7  27  -1    1.50    0.40
  -7  27  -1    1.20    0.40
   0  28   0   10.50    1.00
   0  28   0    9.30    1.20
   0  28   1    0.20    0.40
   0  28   1    0.20    0.60
   0  28  -1    0.00    0.60
   0  28  -1    0.30    0.40
   0 -28   1    0.10    0.30
   0  28  -1    0.50    0.40
   0  28   2   57.69    3.60
   0 -28   2   54.49    3.60
   0  28   3    0.20    0.30
  -1  28   0    1.00    0.60
   1  28   0   -0.50    0.40
   1  28   0    0.00    0.50
  -1  28   0   -0.10    0.40
   1 -28   1   -0.20    0.30
  -1  28   1   -0.10    0.40
  -1  28   1    0.70    0.60
   1  28  -1    0.90    0.60
  -1  28  -1    0.50    0.40
  -1  28  -1    0.30    0.40
   1  28   1    0.20    0.50
  -1 -28   1   -0.10    0.40
   1  28   1    0.10    0.40
  -1  28   2    0.20    0.30
   1 -28   2    0.40    0.30
   1  28   2    0.00    0.30
  -1 -28   2    0.10    0.30
  -1  28   3    4.50    0.60
   1  28   3    4.70    0.80
  -2  28   0    0.20    0.40
   2 -28   0    0.30    0.40
   2  28   0   -0.20    0.50
  -2  28   1    4.00    0.60
   2  28  -1    3.50    0.70
   2 -28   1    3.50    0.50
   2  28   1    3.30    0.60
  -2  28  -1    4.10    0.60
  -2 -28   1    4.00    0.60
  -2  28  -1    3.60    0.60
   2  28   1    3.80    0.80
   2 -28   2   23.50    1.70
  -2  28   2   24.10    1.70
  -2  28  -2   19.60    1.60
   2  28   2   23.20    1.70
  -2 -28   2   22.40    1.70
  -2  28  -2   21.50    1.70
   3  28   0   -0.10    0.50
   3 -28   0   -0.10    0.30
  -3  28   0    0.10    0.30
  -3  28   0   -0.20    0.30
  -3  28   1    8.30    0.90
   3  28  -1    7.40    0.90
   3 -28   1    8.10    0.80
   3  28   1    6.90    0.80
   3  28   1    8.20    1.00
  -3  28  -1    8.60    0.90
  -3  28  -1    8.50    0.90
   3 -28   2    0.00    0.30
  -3  28   2    0.80    0.40
  -3  28  -2    1.00    0.40
  -3  28  -2    0.10    0.40
   3  28   2    0.70    0.40
  -3 -28   2    0.70    0.40
   4 -28   0    1.90    0.40
   4  28   0    1.80    0.60
  -4  28   0    1.90    0.50
  -4  28   0    2.60    0.50
  -4  28   1    9.90    1.00
   4 -28   1    9.60    0.90
  -4  28  -1    9.60    1.00
  -4  28  -1    8.90    0.90
   4 -28   2    5.70    0.70
  -4  28   2    6.30    0.70
  -4  28  -2    5.90    0.70
  -5  28   0    0.00    0.30
  -5  28   0    0.30    0.30
   5 -28   0    0.60    0.30
   5 -28   1    4.00    0.50
  -5  28   1    3.30    0.60
  -5  28   1    3.30    0.60
  -5  28  -1    2.90    0.50
  -5  28  -1    3.20    0.50
  -6  28   0   10.60    1.00
  -6  28   0   11.00    1.00
  -6  28   1    1.60    0.40
  -6  28  -1    0.80    0.40
   0  29   0   -0.50    0.40
   0  29   0   -0.30    0.40
   0  29   1    0.00    0.30
   0  29   2    0.80    0.40
  -1  29   0    0.40    0.40
   1  29   0    1.20    0.50
  -1  29   0   -0.20    0.40
  -1  29   1    0.20    0.40
   1 -29   1    1.10    0.50
   1  29   1    0.30    0.40
  -1  29  -1    0.50    0.40
  -1  29   2   -0.40    0.30
  -2  29   0   -0.20    0.30
  -2  29   0   -0.40    0.30
  -2  29   1    7.30    0.80
  -2  29  -1    6.00    0.70
  -2  29   2    1.60    0.60
  -3  29   0    1.20    0.40
  -3  29   0    0.20    0.30
  -3  29   1   10.40    1.00
  -3  29  -1   10.20    1.00
  -4  29   0    0.60    0.40
  -4  29   0    0.20    0.40
  -4  29   1   37.90    2.60
_computing_structure_solution     'SHELXT 2014/4 (Sheldrick, 2014)'
;
_shelx_hkl_checksum              57771
_shelx_res_file
;
    shelx.res created by SHELXL-2014/7
TITL se.res in Pccn
CELL  1.54178  15.9745  25.7276   7.4153   90.000   90.000   90.000
ZERR     8.00   0.0006   0.0010   0.0003    0.000    0.000    0.000
LATT   1
SYMM  1/2 - X, 1/2 - Y,   Z
SYMM  - X, 1/2 + Y, 1/2 - Z
SYMM  1/2 + X, - Y, 1/2 - Z
SFAC  C    H    N    O    S    CL
UNIT  128 112 8 8 8 8
MERG   2
FMAP   2
PLAN   20
ACTA
BOND   $H
CONF
L.S.  10
WGHT    0.079000    1.446900
FVAR       0.34976
MOLE    1
S11   5    0.806923    0.467786    0.210160    11.00000    0.03977    0.04375 =
         0.05430    0.00109    0.00009    0.01219
O8    4    0.541414    0.538615    0.207754    11.00000    0.03434    0.04548 =
         0.09306    0.00053   -0.00260    0.00233
N13   3    0.642271    0.458138    0.189560    11.00000    0.03860    0.03373 =
         0.05786    0.00169   -0.00297    0.00456
AFIX  43
H13   2    0.593014    0.471608    0.187019    11.00000   -1.20000
AFIX   0
C10   1    0.704797    0.491993    0.215373    11.00000    0.03680    0.03756 =
         0.03345    0.00328   -0.00086    0.00425
C14   1    0.644845    0.403620    0.165834    11.00000    0.03933    0.03395 =
         0.04149    0.00210    0.00236    0.00028
C15   1    0.593795    0.382000    0.034962    11.00000    0.04197    0.04650 =
         0.05511    0.00938   -0.00737   -0.00836
AFIX  43
H15   2    0.559741    0.403232   -0.035188    11.00000   -1.20000
AFIX   0
C1    1    0.637787    0.662684    0.221276    11.00000    0.04968    0.04092 =
         0.05281   -0.00300   -0.00638    0.00736
C6    1    0.592902    0.620724    0.287949    11.00000    0.04000    0.04294 =
         0.04322   -0.00254   -0.00432    0.01233
C18   1    0.693673    0.318562    0.242199    11.00000    0.06131    0.03703 =
         0.06780    0.00577   -0.00902    0.00458
AFIX  43
H18   2    0.727563    0.297127    0.311971    11.00000   -1.20000
AFIX   0
C16   1    0.593510    0.329021    0.008799    11.00000    0.05939    0.05262 =
         0.05814   -0.00268   -0.00748   -0.01928
AFIX  43
H16   2    0.558906    0.314610   -0.078793    11.00000   -1.20000
AFIX   0
C9    1    0.687547    0.544348    0.240243    11.00000    0.03447    0.03495 =
         0.04713   -0.00102    0.00035    0.00188
AFIX  43
H9    2    0.732053    0.567001    0.259203    11.00000   -1.20000
AFIX   0
C12   1    0.869630    0.525010    0.222592    11.00000    0.03471    0.06161 =
         0.07523    0.00373   -0.00526    0.00354
AFIX  33
H12A  2    0.927756    0.515554    0.220562    11.00000   -1.50000
H12B  2    0.857455    0.547043    0.121454    11.00000   -1.50000
H12C  2    0.857439    0.543241    0.332453    11.00000   -1.50000
AFIX   0
C19   1    0.694067    0.371501    0.271992    11.00000    0.06092    0.03876 =
         0.04801    0.00101   -0.01364    0.00095
AFIX  43
H19   2    0.727197    0.385560    0.362856    11.00000   -1.20000
AFIX   0
C2    1    0.622215    0.713349    0.278855    11.00000    0.06867    0.04274 =
         0.07668   -0.01013   -0.02129    0.01263
AFIX  43
H2    2    0.653110    0.740898    0.232338    11.00000   -1.20000
AFIX   0
C7    1    0.605641    0.564824    0.238112    11.00000    0.03581    0.03881 =
         0.04538    0.00248    0.00132    0.00344
C17   1    0.643959    0.297157    0.111050    11.00000    0.06031    0.03597 =
         0.06955   -0.00620    0.00403   -0.00628
AFIX  43
H17   2    0.644303    0.261460    0.091331    11.00000   -1.20000
AFIX   0
C5    1    0.530316    0.631850    0.414359    11.00000    0.05837    0.06995 =
         0.06008   -0.00445    0.00376    0.02319
AFIX  43
H5    2    0.498001    0.604916    0.460732    11.00000   -1.20000
AFIX   0
C4    1    0.515783    0.682075    0.471260    11.00000    0.07992    0.10157 =
         0.06484   -0.02243    0.00600    0.04663
AFIX  43
H4    2    0.474432    0.688640    0.556555    11.00000   -1.20000
AFIX   0
C3    1    0.561720    0.722103    0.403093    11.00000    0.08530    0.06229 =
         0.07484   -0.02572   -0.01898    0.02909
AFIX  43
H3    2    0.551423    0.755837    0.442321    11.00000   -1.20000
AFIX   0
CL20  6    0.712974    0.655725    0.054995    11.00000    0.09628    0.05495 =
         0.09539    0.01245    0.04389    0.00473
HKLF 4
REM  se.res in Pccn
REM R1 =  0.0478 for    2372 Fo > 4sig(Fo)  and  0.0497 for all    2521 data
REM    181 parameters refined using      0 restraints
END
WGHT      0.0790      1.4471
REM Highest difference peak  0.488,  deepest hole -0.456,  1-sigma level  0.060
Q1    1   0.4859  0.6122  0.4853  11.00000  0.05    0.49
Q2    1   0.6580  0.6485 -0.0139  11.00000  0.05    0.44
Q3    1   0.6850  0.7034  0.1475  11.00000  0.05    0.24
Q4    1   0.6807  0.6601  0.1605  11.00000  0.05    0.23
Q5    1   0.8404  0.4310  0.1316  11.00000  0.05    0.22
Q6    1   0.8236  0.4402  0.3720  11.00000  0.05    0.22
Q7    1   0.6356  0.3956  0.0748  11.00000  0.05    0.17
Q8    1   0.7491  0.4797  0.2249  11.00000  0.05    0.17
Q9    1   0.9265  0.5224  0.1027  11.00000  0.05    0.16
Q10   1   0.7271  0.6078  0.0099  11.00000  0.05    0.16
Q11   1   0.8564  0.4909  0.1051  11.00000  0.05    0.15
Q12   1   0.8466  0.5599  0.1467  11.00000  0.05    0.15
Q13   1   0.6014  0.3996  0.1472  11.00000  0.05    0.15
Q14   1   0.8384  0.4875  0.3667  11.00000  0.05    0.14
Q15   1   0.5807  0.3206 -0.1773  11.00000  0.05    0.14
Q16   1   0.5771  0.6470  0.3389  11.00000  0.05    0.14
Q17   1   0.6667  0.7504  0.1859  11.00000  0.05    0.14
Q18   1   0.8727  0.5874  0.1560  11.00000  0.05    0.13
Q19   1   0.5774  0.7014  0.3236  11.00000  0.05    0.13
Q20   1   0.8924  0.5425  0.3605  11.00000  0.05    0.13
;
_shelx_res_checksum              77175
loop_
_space_group_symop_operation_xyz
'x, y, z'
'-x+1/2, -y+1/2, z'
'-x, y+1/2, -z+1/2'
'x+1/2, -y, -z+1/2'
'-x, -y, -z'
'x-1/2, y-1/2, -z'
'x, -y-1/2, z-1/2'
'-x-1/2, y, z-1/2'
loop_
_atom_site_type_symbol
_atom_site_label
_atom_site_fract_x
_atom_site_fract_y
_atom_site_fract_z
_atom_site_U_iso_or_equiv
_atom_site_adp_type
_atom_site_calc_flag
_atom_site_occupancy
S S11 0.80692(3) 0.46779(2) 0.21016(8) 0.0459(2) Uani d 1
O O8 0.54141(10) 0.53861(6) 0.2078(3) 0.0576(5) Uani d 1
N N13 0.64227(11) 0.45814(7) 0.1896(3) 0.0434(4) Uani d 1
H H13 0.5930 0.4716 0.1870 0.052 Uiso calc 1
C C10 0.70480(13) 0.49199(8) 0.2154(2) 0.0359(5) Uani d 1
C C14 0.64485(12) 0.40362(7) 0.1658(3) 0.0383(5) Uani d 1
C C15 0.59380(14) 0.38200(9) 0.0350(3) 0.0479(5) Uani d 1
H H15 0.5597 0.4032 -0.0352 0.057 Uiso calc 1
C C1 0.63779(15) 0.66268(9) 0.2213(3) 0.0478(5) Uani d 1
C C6 0.59290(13) 0.62072(9) 0.2879(3) 0.0421(5) Uani d 1
C C18 0.69367(16) 0.31856(10) 0.2422(4) 0.0554(6) Uani d 1
H H18 0.7276 0.2971 0.3120 0.066 Uiso calc 1
C C16 0.59351(17) 0.32902(10) 0.0088(4) 0.0567(6) Uani d 1
H H16 0.5589 0.3146 -0.0788 0.068 Uiso calc 1
C C9 0.68755(13) 0.54435(8) 0.2402(3) 0.0389(5) Uani d 1
H H9 0.7321 0.5670 0.2592 0.047 Uiso calc 1
C C12 0.86963(15) 0.52501(10) 0.2226(4) 0.0572(6) Uani d 1
H H12A 0.9278 0.5156 0.2206 0.086 Uiso calc 1
H H12B 0.8575 0.5470 0.1215 0.086 Uiso calc 1
H H12C 0.8574 0.5432 0.3325 0.086 Uiso calc 1
C C19 0.69407(16) 0.37150(9) 0.2720(3) 0.0492(6) Uani d 1
H H19 0.7272 0.3856 0.3629 0.059 Uiso calc 1
C C2 0.62222(19) 0.71335(10) 0.2789(4) 0.0627(7) Uani d 1
H H2 0.6531 0.7409 0.2323 0.075 Uiso calc 1
C C7 0.60564(13) 0.56482(8) 0.2381(3) 0.0400(5) Uani d 1
C C17 0.64396(15) 0.29716(9) 0.1111(4) 0.0553(6) Uani d 1
H H17 0.6443 0.2615 0.0913 0.066 Uiso calc 1
C C5 0.53032(18) 0.63185(11) 0.4144(4) 0.0628(7) Uani d 1
H H5 0.4980 0.6049 0.4607 0.075 Uiso calc 1
C C4 0.5158(2) 0.68208(15) 0.4713(4) 0.0821(10) Uani d 1
H H4 0.4744 0.6886 0.5566 0.099 Uiso calc 1
C C3 0.5617(2) 0.72210(12) 0.4031(4) 0.0741(9) Uani d 1
H H3 0.5514 0.7558 0.4423 0.089 Uiso calc 1
Cl Cl20 0.71297(6) 0.65572(3) 0.05499(12) 0.0822(3) Uani d 1
loop_
_atom_site_aniso_label
_atom_site_aniso_U_11
_atom_site_aniso_U_22
_atom_site_aniso_U_33
_atom_site_aniso_U_12
_atom_site_aniso_U_13
_atom_site_aniso_U_23
S11 0.0398(4) 0.0438(4) 0.0543(4) 0.0122(2) 0.0001(2) 0.0011(2)
O8 0.0343(9) 0.0455(9) 0.0931(13) 0.0023(7) -0.0026(8) 0.0005(8)
N13 0.0386(10) 0.0337(9) 0.0579(11) 0.0046(7) -0.0030(8) 0.0017(8)
C10 0.0368(11) 0.0376(11) 0.0335(10) 0.0042(8) -0.0009(7) 0.0033(8)
C14 0.0393(11) 0.0339(10) 0.0415(10) 0.0003(8) 0.0024(8) 0.0021(8)
C15 0.0420(12) 0.0465(12) 0.0551(13) -0.0084(9) -0.0074(10) 0.0094(10)
C1 0.0497(13) 0.0409(12) 0.0528(13) 0.0074(10) -0.0064(10) -0.0030(9)
C6 0.0400(11) 0.0429(12) 0.0432(11) 0.0123(9) -0.0043(9) -0.0025(9)
C18 0.0613(16) 0.0370(12) 0.0678(15) 0.0046(10) -0.0090(12) 0.0058(11)
C16 0.0594(15) 0.0526(13) 0.0581(13) -0.0193(11) -0.0075(12) -0.0027(11)
C9 0.0345(11) 0.0350(11) 0.0471(11) 0.0019(8) 0.0003(8) -0.0010(9)
C12 0.0347(12) 0.0616(15) 0.0752(17) 0.0035(11) -0.0053(11) 0.0037(12)
C19 0.0609(15) 0.0388(12) 0.0480(12) 0.0009(10) -0.0136(10) 0.0010(9)
C2 0.0687(17) 0.0427(13) 0.0767(17) 0.0126(12) -0.0213(14) -0.0101(12)
C7 0.0358(11) 0.0388(11) 0.0454(11) 0.0034(9) 0.0013(8) 0.0025(8)
C17 0.0603(15) 0.0360(11) 0.0696(15) -0.0063(10) 0.0040(12) -0.0062(11)
C5 0.0584(15) 0.0699(16) 0.0601(14) 0.0232(13) 0.0038(12) -0.0044(13)
C4 0.080(2) 0.102(3) 0.0648(17) 0.047(2) 0.0060(15) -0.0224(17)
C3 0.085(2) 0.0623(17) 0.0748(18) 0.0291(16) -0.0190(16) -0.0257(15)
Cl20 0.0963(6) 0.0550(4) 0.0954(6) 0.0047(3) 0.0439(4) 0.0124(3)
loop_
_atom_type_symbol
_atom_type_description
_atom_type_scat_dispersion_real
_atom_type_scat_dispersion_imag
_atom_type_scat_source
C C 0.0181 0.0091 'International Tables Vol C Tables 4.2.6.8 and 6.1.1.4'
H H 0.0000 0.0000 'International Tables Vol C Tables 4.2.6.8 and 6.1.1.4'
N N 0.0311 0.0180 'International Tables Vol C Tables 4.2.6.8 and 6.1.1.4'
O O 0.0492 0.0322 'International Tables Vol C Tables 4.2.6.8 and 6.1.1.4'
S S 0.3331 0.5567 'International Tables Vol C Tables 4.2.6.8 and 6.1.1.4'
Cl Cl 0.3639 0.7018 'International Tables Vol C Tables 4.2.6.8 and 6.1.1.4'
loop_
_geom_angle_atom_site_label_1
_geom_angle_atom_site_label_2
_geom_angle_atom_site_label_3
_geom_angle
C10 S11 C12 103.25(11)
C10 N13 C14 129.89(18)
C10 N13 H13 115.1
C14 N13 H13 115.1
N13 C10 C9 120.16(19)
N13 C10 S11 117.49(16)
C9 C10 S11 122.32(16)
C15 C14 C19 119.5(2)
C15 C14 N13 117.94(18)
C19 C14 N13 122.49(19)
C16 C15 C14 119.9(2)
C16 C15 H15 120.0
C14 C15 H15 120.0
C6 C1 C2 121.8(2)
C6 C1 Cl20 122.15(17)
C2 C1 Cl20 116.0(2)
C1 C6 C5 116.7(2)
C1 C6 C7 126.07(19)
C5 C6 C7 117.3(2)
C17 C18 C19 120.8(2)
C17 C18 H18 119.6
C19 C18 H18 119.6
C15 C16 C17 120.7(2)
C15 C16 H16 119.7
C17 C16 H16 119.7
C10 C9 C7 123.1(2)
C10 C9 H9 118.5
C7 C9 H9 118.5
S11 C12 H12A 109.5
S11 C12 H12B 109.5
H12A C12 H12B 109.5
S11 C12 H12C 109.5
H12A C12 H12C 109.5
H12B C12 H12C 109.5
C18 C19 C14 119.7(2)
C18 C19 H19 120.2
C14 C19 H19 120.2
C3 C2 C1 119.4(3)
C3 C2 H2 120.3
C1 C2 H2 120.3
O8 C7 C9 124.24(19)
O8 C7 C6 116.82(19)
C9 C7 C6 118.79(19)
C18 C17 C16 119.4(2)
C18 C17 H17 120.3
C16 C17 H17 120.3
C4 C5 C6 121.1(3)
C4 C5 H5 119.4
C6 C5 H5 119.4
C3 C4 C5 120.3(3)
C3 C4 H4 119.9
C5 C4 H4 119.9
C2 C3 C4 120.8(3)
C2 C3 H3 119.6
C4 C3 H3 119.6
loop_
_geom_bond_atom_site_label_1
_geom_bond_atom_site_label_2
_geom_bond_distance
S11 C10 1.747(2)
S11 C12 1.783(3)
O8 C7 1.248(3)
N13 C10 1.339(3)
N13 C14 1.414(3)
N13 H13 0.8600
C10 C9 1.387(3)
C14 C15 1.384(3)
C14 C19 1.386(3)
C15 C16 1.377(3)
C15 H15 0.9300
C1 C6 1.387(3)
C1 C2 1.394(3)
C1 Cl20 1.731(3)
C6 C5 1.400(3)
C6 C7 1.499(3)
C18 C17 1.371(4)
C18 C19 1.380(3)
C18 H18 0.9300
C16 C17 1.377(4)
C16 H16 0.9300
C9 C7 1.411(3)
C9 H9 0.9300
C12 H12A 0.9600
C12 H12B 0.9600
C12 H12C 0.9600
C19 H19 0.9300
C2 C3 1.354(5)
C2 H2 0.9300
C17 H17 0.9300
C5 C4 1.379(4)
C5 H5 0.9300
C4 C3 1.362(5)
C4 H4 0.9300
C3 H3 0.9300
loop_
_geom_hbond_atom_site_label_D
_geom_hbond_atom_site_label_H
_geom_hbond_atom_site_label_A
_geom_hbond_site_symmetry_A
_geom_hbond_distance_DH
_geom_hbond_distance_HA
_geom_hbond_distance_DA
_geom_hbond_angle_DHA
_geom_hbond_publ_flag
N13 H13 O8 . 0.86 1.92 2.627(2) 139 yes
C12 H12A O8 4_565 0.96 2.35 3.237(3) 153 yes
C15 H15 O8 5_665 0.93 2.55 3.475(3) 176 yes
loop_
_geom_torsion_atom_site_label_1
_geom_torsion_atom_site_label_2
_geom_torsion_atom_site_label_3
_geom_torsion_atom_site_label_4
_geom_torsion
C14 N13 C10 C9 -178.4(2)
C14 N13 C10 S11 3.3(3)
C12 S11 C10 N13 173.40(17)
C12 S11 C10 C9 -4.9(2)
C10 N13 C14 C15 -137.6(2)
C10 N13 C14 C19 44.6(3)
C19 C14 C15 C16 -1.3(3)
N13 C14 C15 C16 -179.2(2)
C2 C1 C6 C5 0.8(3)
Cl20 C1 C6 C5 -176.24(18)
C2 C1 C6 C7 -178.7(2)
Cl20 C1 C6 C7 4.2(3)
C14 C15 C16 C17 -0.4(4)
N13 C10 C9 C7 -0.7(3)
S11 C10 C9 C7 177.57(16)
C17 C18 C19 C14 -1.3(4)
C15 C14 C19 C18 2.1(3)
N13 C14 C19 C18 179.9(2)
C6 C1 C2 C3 0.0(4)
Cl20 C1 C2 C3 177.2(2)
C10 C9 C7 O8 -2.6(3)
C10 C9 C7 C6 172.84(19)
C1 C6 C7 O8 -135.6(2)
C5 C6 C7 O8 44.8(3)
C1 C6 C7 C9 48.6(3)
C5 C6 C7 C9 -131.0(2)
C19 C18 C17 C16 -0.4(4)
C15 C16 C17 C18 1.2(4)
C1 C6 C5 C4 -1.2(4)
C7 C6 C5 C4 178.4(2)
C6 C5 C4 C3 0.9(4)
C1 C2 C3 C4 -0.4(4)
C5 C4 C3 C2 0.0(5)

_cod_database_fobs_code 1544819
