#------------------------------------------------------------------------------
#$Date: 2017-02-04 04:24:38 +0200 (Sat, 04 Feb 2017) $
#$Revision: 191379 $
#$URL: file:///home/coder/svn-repositories/cod/cif/1/54/49/1544978.cif $
#------------------------------------------------------------------------------
#
# This file is available in the Crystallography Open Database (COD),
# http://www.crystallography.net/
#
# All data on this site have been placed in the public domain by the
# contributors.
#
data_1544978
loop_
_publ_author_name
'Chen, Wei'
'Bai, Ya-Li'
'Luo, Yong-Chun'
'Xu, Peng-Fei'
_publ_section_title
;
 Rh(II) Catalyzed High Order Cycloadditions of 8-Azaheptafulvenes with
 N-Sulfonyl 1,2,3-Triazloes or \a-Oxo Diazocompounds.
;
_journal_issue                   2
_journal_name_full               'Organic letters'
_journal_page_first              364
_journal_page_last               367
_journal_paper_doi               10.1021/acs.orglett.6b03542
_journal_volume                  19
_journal_year                    2017
_chemical_formula_moiety         'C29 H26 N2 O2 S'
_chemical_formula_sum            'C29 H26 N2 O2 S'
_chemical_formula_weight         466.58
_space_group_crystal_system      monoclinic
_space_group_IT_number           14
_space_group_name_Hall           '-P 2ybc'
_space_group_name_H-M_alt        'P 1 21/c 1'
_symmetry_space_group_name_Hall  '-P 2ybc'
_symmetry_space_group_name_H-M   'P 1 21/c 1'
_atom_sites_solution_hydrogens   geom
_atom_sites_solution_primary     direct
_audit_creation_date             2016-03-14
_audit_creation_method
;
Olex2 1.2
(compiled 2016.02.19 svn.r3266 for OlexSys, GUI svn.r5155)
;
_cell_angle_alpha                90
_cell_angle_beta                 91.983(7)
_cell_angle_gamma                90
_cell_formula_units_Z            4
_cell_length_a                   9.6591(7)
_cell_length_b                   15.8903(12)
_cell_length_c                   16.1514(12)
_cell_measurement_reflns_used    1368
_cell_measurement_temperature    290.83(10)
_cell_measurement_theta_max      21.7530
_cell_measurement_theta_min      3.9920
_cell_volume                     2477.5(3)
_computing_cell_refinement
;
CrysAlisPro, Agilent Technologies,
Version 1.171.37.35 (release 13-08-2014 CrysAlis171 .NET)
(compiled Aug 13 2014,18:06:01)
;
_computing_data_collection
;
CrysAlisPro, Agilent Technologies,
Version 1.171.37.35 (release 13-08-2014 CrysAlis171 .NET)
(compiled Aug 13 2014,18:06:01)
;
_computing_data_reduction
;
CrysAlisPro, Agilent Technologies,
Version 1.171.37.35 (release 13-08-2014 CrysAlis171 .NET)
(compiled Aug 13 2014,18:06:01)
;
_computing_molecular_graphics    'Olex2 (Dolomanov et al., 2009)'
_computing_publication_material  'Olex2 (Dolomanov et al., 2009)'
_computing_structure_refinement  'ShelXL (Sheldrick, 2015)'
_computing_structure_solution    'ShelXS (Sheldrick, 2008)'
_diffrn_ambient_environment      air
_diffrn_ambient_temperature      290.83(10)
_diffrn_detector                 'CCD plate'
_diffrn_detector_area_resol_mean 16.0733
_diffrn_detector_type            Eos
_diffrn_measured_fraction_theta_full 0.998
_diffrn_measured_fraction_theta_max 0.998
_diffrn_measurement_details
;
#__ type_ start__ end____ width___ exp.time_
  1 omega  -52.00   65.00   1.0000    4.0000
omega____ theta____ kappa____ phi______ frames
    -       20.5854  -19.0000 -120.0000 117

#__ type_ start__ end____ width___ exp.time_
  2 omega  -20.00   25.00   1.0000    4.0000
omega____ theta____ kappa____ phi______ frames
    -      -17.1479  -99.0000  -90.0000 45

#__ type_ start__ end____ width___ exp.time_
  3 omega   47.00   97.00   1.0000    4.0000
omega____ theta____ kappa____ phi______ frames
    -       20.5854 -178.0000 -120.0000 50

#__ type_ start__ end____ width___ exp.time_
  4 omega   43.00   69.00   1.0000    4.0000
omega____ theta____ kappa____ phi______ frames
    -       20.5854 -178.0000  -60.0000 26
;
_diffrn_measurement_device       'four-circle diffractometer'
_diffrn_measurement_device_type  'SuperNova, Dual, Cu at zero, Eos'
_diffrn_measurement_method       '\w scans'
_diffrn_orient_matrix_UB_11      -0.0096426000
_diffrn_orient_matrix_UB_12      -0.0102516000
_diffrn_orient_matrix_UB_13      0.0421580000
_diffrn_orient_matrix_UB_21      -0.0180710000
_diffrn_orient_matrix_UB_22      -0.0417295000
_diffrn_orient_matrix_UB_23      -0.0116015000
_diffrn_orient_matrix_UB_31      0.0705572000
_diffrn_orient_matrix_UB_32      -0.0120897000
_diffrn_orient_matrix_UB_33      0.0044009000
_diffrn_radiation_monochromator  mirror
_diffrn_radiation_probe          x-ray
_diffrn_radiation_type           MoK\a
_diffrn_radiation_wavelength     0.71073
_diffrn_reflns_av_R_equivalents  0.0519
_diffrn_reflns_av_unetI/netI     0.0916
_diffrn_reflns_Laue_measured_fraction_full 0.998
_diffrn_reflns_Laue_measured_fraction_max 0.998
_diffrn_reflns_limit_h_max       11
_diffrn_reflns_limit_h_min       -11
_diffrn_reflns_limit_k_max       19
_diffrn_reflns_limit_k_min       -17
_diffrn_reflns_limit_l_max       19
_diffrn_reflns_limit_l_min       -19
_diffrn_reflns_number            10299
_diffrn_reflns_point_group_measured_fraction_full 0.998
_diffrn_reflns_point_group_measured_fraction_max 0.998
_diffrn_reflns_theta_full        26.000
_diffrn_reflns_theta_max         26.020
_diffrn_reflns_theta_min         3.321
_diffrn_source                   'SuperNova (Mo) X-ray Source'
_exptl_absorpt_coefficient_mu    0.159
_exptl_absorpt_correction_T_max  1.00000
_exptl_absorpt_correction_T_min  0.99462
_exptl_absorpt_correction_type   multi-scan
_exptl_absorpt_process_details
;
CrysAlisPro, Agilent Technologies,
Version 1.171.37.35 (release 13-08-2014 CrysAlis171 .NET)
(compiled Aug 13 2014,18:06:01)
Empirical absorption correction using spherical harmonics,
 implemented in SCALE3 ABSPACK scaling algorithm.
;
_exptl_crystal_colour            'clear dark brown'
_exptl_crystal_colour_lustre     clear
_exptl_crystal_colour_modifier   dark
_exptl_crystal_colour_primary    brown
_exptl_crystal_density_diffrn    1.251
_exptl_crystal_description       block
_exptl_crystal_F_000             984
_exptl_crystal_size_max          0.27
_exptl_crystal_size_mid          0.22
_exptl_crystal_size_min          0.21
_refine_diff_density_max         0.203
_refine_diff_density_min         -0.344
_refine_diff_density_rms         0.050
_refine_ls_extinction_method     none
_refine_ls_goodness_of_fit_ref   1.064
_refine_ls_hydrogen_treatment    constr
_refine_ls_matrix_type           full
_refine_ls_number_parameters     309
_refine_ls_number_reflns         4859
_refine_ls_number_restraints     36
_refine_ls_restrained_S_all      1.085
_refine_ls_R_factor_all          0.1318
_refine_ls_R_factor_gt           0.0653
_refine_ls_shift/su_max          0.000
_refine_ls_shift/su_mean         0.000
_refine_ls_structure_factor_coef Fsqd
_refine_ls_weighting_details
'w=1/[\s^2^(Fo^2^)+(0.0441P)^2^+0.5750P] where P=(Fo^2^+2Fc^2^)/3'
_refine_ls_weighting_scheme      calc
_refine_ls_wR_factor_gt          0.1251
_refine_ls_wR_factor_ref         0.1689
_reflns_Friedel_coverage         0.000
_reflns_number_gt                2566
_reflns_number_total             4859
_reflns_threshold_expression     'I > 2\s(I)'
_cod_data_source_file            ol6b03542_si_003.cif
_cod_data_source_block           chenwei_0311
_cod_depositor_comments          'Adding full bibliography for 1544978.cif.'
_cod_database_code               1544978
_shelx_space_group_comment
;
The symmetry employed for this shelxl refinement is uniquely defined
by the following loop, which should always be used as a source of
symmetry information in preference to the above space-group names.
They are only intended as comments.
;
_reflns_odcompleteness_completeness 99.73
_reflns_odcompleteness_iscentric 1
_reflns_odcompleteness_theta     26.32
_olex2_refinement_description
;
1. Fixed Uiso
 At 1.2 times of:
  All C(H) groups
 At 1.5 times of:
  All C(H,H,H) groups
2. Uiso/Uaniso restraints and constraints
Uanis(C12) \\sim Ueq, Uanis(C11) \\sim Ueq, Uanis(C13) \\sim Ueq, Uanis(C14)
\\sim Ueq, Uanis(C15) \\sim Ueq, Uanis(C10) \\sim Ueq: with sigma of 0.01 and
sigma for terminal atoms of 0.02
3.a Ternary CH refined with riding coordinates:
 C7(H7), C8(H8)
3.b Aromatic/amide H refined with riding coordinates:
 C2(H2), C3(H3), C4(H4), C5(H5), C6(H6), C11(H11), C12(H12), C13(H13),
 C14(H14), C15(H15), C17(H17), C18(H18), C20(H20), C21(H21), C24(H24), C25(H25),
  C27(H27), C28(H28)
3.c Idealised Me refined as rotating group:
 C22(H22A,H22B,H22C), C29(H29A,H29B,H29C)
;
_shelx_res_file
;
    chenwei_0311.res created by SHELXL-2014/7

TITL chenwei_0311 in P21/c #14
REM reset to P21/c #14
CELL 0.71073 9.659097 15.890264 16.151394 90 91.983 90
ZERR 4 0.000664 0.00116 0.001185 0 0.0066 0
LATT 1
SYMM -X,0.5+Y,0.5-Z
SFAC C H N O S
UNIT 116 104 8 8 4
ISOR 0.01 0.02 C12 C11 C13 C14 C15 C10

L.S. 10
PLAN  20
BOND $H
HTAB
CONF
MORE -1
fmap 2
acta 52
SHEL 999 0.81
REM <olex2.extras>
REM <HklSrc "%.\\chenwei_0311.hkl">
REM </olex2.extras>

WGHT    0.044100    0.575000
FVAR       4.98254
S1    5    0.713912    0.238689    0.170530    11.00000    0.05371    0.04578 =
         0.04696   -0.00133    0.00962   -0.00659
O1    4    0.608680    0.204663    0.221386    11.00000    0.06324    0.06382 =
         0.05258    0.00946    0.01531   -0.01532
O2    4    0.817388    0.181433    0.142131    11.00000    0.06118    0.04388 =
         0.06827   -0.00606    0.01493    0.00227
N1    3    0.951947    0.408629    0.264118    11.00000    0.04483    0.04015 =
         0.05359   -0.01099    0.00683    0.00414
N2    3    0.777956    0.318587    0.221992    11.00000    0.04882    0.05107 =
         0.04290   -0.01049    0.00663   -0.00502
C1    1    1.095917    0.423177    0.258617    11.00000    0.04631    0.04127 =
         0.04822   -0.00101    0.00500    0.00257
C2    1    1.168735    0.485752    0.293588    11.00000    0.05598    0.04730 =
         0.05860   -0.00987    0.00284    0.00230
AFIX  43
H2    2    1.120987    0.528510    0.319645    11.00000   -1.20000
AFIX   0
C3    1    1.317902    0.490593    0.293111    11.00000    0.05780    0.06526 =
         0.06721   -0.01172    0.00732   -0.01553
AFIX  43
H3    2    1.357293    0.543997    0.293051    11.00000   -1.20000
AFIX   0
C4    1    1.404662    0.424609    0.292747    11.00000    0.05069    0.07821 =
         0.05698   -0.01512    0.01006   -0.00462
AFIX  43
H4    2    1.498871    0.436310    0.291163    11.00000   -1.20000
AFIX   0
C5    1    1.365112    0.337943    0.294578    11.00000    0.05209    0.07641 =
         0.05284   -0.00499    0.00349    0.01447
AFIX  43
H5    2    1.425155    0.301345    0.322861    11.00000   -1.20000
AFIX   0
C6    1    1.250776    0.304342    0.259799    11.00000    0.05599    0.04974 =
         0.05182   -0.00320    0.01452    0.01073
AFIX  43
H6    2    1.230859    0.247982    0.269350    11.00000   -1.20000
AFIX   0
C7    1    1.153514    0.355432    0.205592    11.00000    0.04827    0.04578 =
         0.04589   -0.00426    0.01106   -0.00202
AFIX  13
H7    2    1.204736    0.380934    0.160665    11.00000   -1.20000
AFIX   0
C8    1    1.025776    0.308254    0.168916    11.00000    0.04895    0.04413 =
         0.04777   -0.00964    0.00987   -0.00019
AFIX  13
H8    2    1.036300    0.247928    0.180065    11.00000   -1.20000
AFIX   0
C9    1    0.905778    0.342240    0.217652    11.00000    0.04713    0.04084 =
         0.03960    0.00048    0.00714    0.00184
C10   1    1.005549    0.321720    0.076173    11.00000    0.05583    0.05419 =
         0.04590   -0.01006    0.01006   -0.01696
C11   1    0.939482    0.391476    0.043979    11.00000    0.09078    0.06385 =
         0.05428    0.00373    0.00407   -0.02027
AFIX  43
H11   2    0.902721    0.431184    0.079365    11.00000   -1.20000
AFIX   0
C12   1    0.927171    0.403136   -0.041768    11.00000    0.11863    0.08905 =
         0.07003    0.01925   -0.00655   -0.03789
AFIX  43
H12   2    0.881150    0.450024   -0.063478    11.00000   -1.20000
AFIX   0
C13   1    0.983310    0.345074   -0.093649    11.00000    0.14022    0.13396 =
         0.05103   -0.00021    0.01322   -0.06606
AFIX  43
H13   2    0.975455    0.353100   -0.150654    11.00000   -1.20000
AFIX   0
C14   1    1.050084    0.276153   -0.063128    11.00000    0.12363    0.13568 =
         0.06568   -0.03794    0.04265   -0.04045
AFIX  43
H14   2    1.088460    0.237361   -0.098842    11.00000   -1.20000
AFIX   0
C15   1    1.060678    0.263976    0.022311    11.00000    0.08593    0.08861 =
         0.06843   -0.02695    0.02755   -0.01165
AFIX  43
H15   2    1.105426    0.216376    0.043413    11.00000   -1.20000
AFIX   0
C16   1    0.630748    0.285975    0.083669    11.00000    0.04985    0.04563 =
         0.04082   -0.00104    0.00675   -0.00622
C17   1    0.527198    0.343676    0.095741    11.00000    0.08480    0.07853 =
         0.04138   -0.00425    0.01161    0.01714
AFIX  43
H17   2    0.502806    0.358059    0.149114    11.00000   -1.20000
AFIX   0
C18   1    0.459786    0.380059    0.028015    11.00000    0.08566    0.08735 =
         0.06028    0.00716    0.00615    0.02738
AFIX  43
H18   2    0.388666    0.418354    0.035984    11.00000   -1.20000
AFIX   0
C19   1    0.496921    0.360145   -0.051592    11.00000    0.07373    0.07395 =
         0.04392    0.00278    0.00112   -0.01277
C20   1    0.600232    0.302190   -0.061864    11.00000    0.06619    0.08772 =
         0.03899   -0.01148    0.00703   -0.00822
AFIX  43
H20   2    0.625030    0.287639   -0.115117    11.00000   -1.20000
AFIX   0
C21   1    0.667681    0.265281    0.004939    11.00000    0.05567    0.06722 =
         0.04229   -0.01281    0.00703   -0.00427
AFIX  43
H21   2    0.738016    0.226467   -0.003100    11.00000   -1.20000
AFIX   0
C22   1    0.420716    0.400999   -0.124717    11.00000    0.11915    0.10804 =
         0.06475    0.01603   -0.01319    0.00008
AFIX 137
H22A  2    0.463274    0.384607   -0.175079    11.00000   -1.50000
H22B  2    0.424917    0.461089   -0.119008    11.00000   -1.50000
H22C  2    0.325697    0.383174   -0.126373    11.00000   -1.50000
AFIX   0
C23   1    0.866192    0.456817    0.318067    11.00000    0.04661    0.03804 =
         0.04546   -0.00517    0.00436    0.00471
C24   1    0.856940    0.435064    0.399562    11.00000    0.10256    0.07551 =
         0.05179    0.01789    0.01627    0.04673
AFIX  43
H24   2    0.904810    0.388439    0.420370    11.00000   -1.20000
AFIX   0
C25   1    0.775968    0.482706    0.451162    11.00000    0.11630    0.08634 =
         0.04403    0.01169    0.02824    0.04395
AFIX  43
H25   2    0.769479    0.467186    0.506411    11.00000   -1.20000
AFIX   0
C26   1    0.705488    0.552037    0.422432    11.00000    0.06116    0.05020 =
         0.04937   -0.00880    0.01134    0.00926
C27   1    0.715499    0.571775    0.341080    11.00000    0.07063    0.05413 =
         0.05500    0.00175    0.00654    0.02283
AFIX  43
H27   2    0.666663    0.617903    0.319970    11.00000   -1.20000
AFIX   0
C28   1    0.796182    0.525335    0.288587    11.00000    0.07091    0.06444 =
         0.04159    0.00755    0.00717    0.02039
AFIX  43
H28   2    0.802455    0.540965    0.233354    11.00000   -1.20000
AFIX   0
C29   1    0.616286    0.604248    0.478253    11.00000    0.09769    0.08249 =
         0.07854   -0.01662    0.03547    0.02265
AFIX 137
H29A  2    0.616596    0.661814    0.460225    11.00000   -1.50000
H29B  2    0.652615    0.600918    0.534238    11.00000   -1.50000
H29C  2    0.523149    0.583080    0.475653    11.00000   -1.50000
AFIX   0
HKLF 4

REM  chenwei_0311 in P21/c #14
REM R1 =  0.0653 for    2566 Fo > 4sig(Fo)  and  0.1318 for all    4859 data
REM    309 parameters refined using     36 restraints

END

WGHT      0.0440      0.5762

REM Instructions for potential hydrogen bonds
EQIV $1 -x+2, y+1/2, -z+1/2
HTAB C2 O2_$1

REM Highest difference peak  0.203,  deepest hole -0.344,  1-sigma level  0.050
Q1    1   0.5653  0.5659  0.5377  11.00000  0.05    0.20
Q2    1   0.8819  0.3432 -0.1616  11.00000  0.05    0.20
Q3    1   1.3437  0.5645  0.3398  11.00000  0.05    0.19
Q4    1   0.5180  0.4387 -0.1752  11.00000  0.05    0.19
Q5    1   1.1043  0.3038 -0.1537  11.00000  0.05    0.18
Q6    1   1.0457  0.2243  0.1851  11.00000  0.05    0.18
Q7    1   1.0393  0.4349  0.2526  11.00000  0.05    0.17
Q8    1   0.8288  0.4381 -0.0336  11.00000  0.05    0.17
Q9    1   1.2041  0.2333  0.0639  11.00000  0.05    0.16
Q10   1   0.6644  0.1651  0.0161  11.00000  0.05    0.16
Q11   1   0.6582  0.2596  0.1038  11.00000  0.05    0.16
Q12   1   0.8252  0.5570 -0.0650  11.00000  0.05    0.16
Q13   1   0.7032  0.6525  0.5393  11.00000  0.05    0.16
Q14   1   0.7203  0.5045  0.2205  11.00000  0.05    0.16
Q15   1   0.8148  0.3419  0.2235  11.00000  0.05    0.16
Q16   1   0.6362  0.1267  0.2615  11.00000  0.05    0.16
Q17   1   0.4316  0.4640  0.0462  11.00000  0.05    0.15
Q18   1   0.8657  0.6004  0.1768  11.00000  0.05    0.15
Q19   1   0.5223  0.3423  0.1162  11.00000  0.05    0.15
Q20   1   0.7281  0.4442  0.1500  11.00000  0.05    0.15
;
_shelx_res_checksum              52729
_shelx_hkl_file
;
   0   0   3-42.4727 98.4359   1
   0   0   4 226699. 4241.30   1
   0   0   5-42.8796 139.747   1
   0   0   6 19972.5 1584.11   1
   0   0   7 1979.22 631.741   1
   0   0   8 113177. 4349.84   1
   0   0   9 449.534 322.714   1
   0   0  10 185.469 303.184   1
   0   0  11 783.872 538.993   1
   0   0  12 2206.19 838.276   1
   0   0  13 932.956 636.987   1
   0   0  14 2008.09 918.897   1
   0   0  15 880.514 675.310   1
   0   0  16 7456.79 1716.52   1
   0   0  17 895.378 606.444   1
   0   0  18 5135.81 1466.97   1
   0   0  19-783.066 636.460   1
   0   0  20 591.268 592.983   1
   0   1   3 244459. 3824.16   1
   0  -1   3 242425. 3977.57   1
   0   1   4 165364. 3662.49   1
   0  -1   4 167304. 3792.35   1
   0  -1   5 210140. 4727.31   1
   0   1   5 206673. 4589.59   1
   0  -1   6 21949.3 1690.68   1
   0   1   6 21273.4 1613.48   1
   0   1   7 22633.4 1798.81   1
   0  -1   7 21800.0 1812.18   1
   0   1   8 23654.0 1983.98   1
   0  -1   8 26828.3 2147.75   1
   0   1   9 13061.2 1572.23   1
   0  -1   9 10816.2 1473.50   1
   0   1  10 923.670 431.171   1
   0  -1  10 71.8398 144.425   1
   0   1  11-267.160 427.284   1
   0  -1  11 199.109 136.645   1
   0   1  12 1710.67 618.182   1
   0  -1  12 2626.44 862.433   1
   0  -1  13 550.765 430.768   1
   0   1  13 367.752 256.428   1
   0   1  14 33236.4 3262.02   1
   0  -1  14 34601.7 3356.22   1
   0  -1  15-806.409 548.548   1
   0   1  15-39.6933 314.617   1
   0   1  16-144.268 354.121   1
   0  -1  16-174.928 342.809   1
   0  -1  17 192.538 265.265   1
   0   1  17 213.044 335.749   1
   0   1  18-379.754 434.666   1
   0  -1  18-695.219 572.595   1
   0  -1  19 679.964 585.539   1
   0   1  19 498.953 515.067   1
   0   1  20 2162.62 1067.44   1
   0  -1  20 1245.40 708.691   1
   0   2   2 16846.8 946.622   1
   0  -2   3 339406. 5094.87   1
   0   2   3 335381. 4742.89   1
   0   2   4 7571.62 806.931   1
   0  -2   4 8108.97 883.232   1
   0  -2  -4 6930.67 472.121   4
   0  -2  -4 7610.78 452.497   2
   0  -2  -5 113653. 1925.60   2
   0  -2   5 110749. 3551.47   1
   0   2   5 113626. 3455.96   1
   0  -2  -6 13558.7 728.075   2
   0  -2   6 12247.7 1284.28   1
   0   2   6 11458.5 1201.65   1
   0   2   7 12616.3 1344.35   1
   0  -2   7 12899.1 1412.24   1
   0  -2   8-110.456 251.947   1
   0   2   8 237.812 186.771   1
   0   2   9 13520.7 1609.32   1
   0  -2   9 13895.7 1676.87   1
   0   2  10 3723.49 894.868   1
   0  -2  10 3456.81 888.073   1
   0  -2  11 8432.53 1436.31   1
   0   2  11 7653.69 1391.86   1
   0   2  12 35457.0 3081.27   1
   0  -2  12 34885.9 3096.18   1
   0   2  13 911.091 442.068   1
   0  -2  13 2125.34 830.663   1
   0   2  14-160.109 362.795   1
   0  -2  14 75.5958 513.970   1
   0  -2  15 1064.36 661.063   1
   0   2  15 85.6724 424.812   1
   0   2  16 418.229 462.868   1
   0  -2  16-329.445 387.839   1
   0  -2  17 774.206 632.397   1
   0   2  17 554.359 496.071   1
   0  -2  18 2819.72 1185.48   1
   0   2  18 3884.83 1327.82   1
   0   2  19 1074.11 731.236   1
   0  -2  19-519.745 521.732   1
   0   2  20 1522.54 896.065   1
   0  -2  20 2784.18 1261.19   1
   0  -3   0 20.1970 40.4913   3
   0   3   1 651748. 6396.19   1
   0   3   2 205314. 3766.73   1
   0   3   3 4660.89 603.561   1
   0   3   3 4376.92 409.809   2
   0   3   4 146302. 3693.31   1
   0   3   4 141693. 2231.39   2
   0  -3  -5 2928.62 323.251   2
   0   3   5 3974.98 667.297   1
   0  -3   5 2574.75 563.218   1
   0  -3   6 4953.90 909.786   1
   0  -3  -6 4412.03 425.499   2
   0   3   6 5880.29 917.121   1
   0  -3  -6 4646.60 474.664   4
   0  -3  -7 211715. 3055.07   2
   0  -3  -7 210064. 3531.56   4
   0  -3   7 222962. 6079.52   1
   0   3   7 215036. 5695.75   1
   0  -3   8 2986.32 751.371   1
   0   3   8 3068.50 699.684   1
   0  -3  -8 3463.87 415.639   2
   0  -3  -8 3936.58 535.666   4
   0  -3  -9 1209.63 270.204   2
   0   3   9 1618.38 647.691   1
   0  -3   9 1842.12 694.087   1
   0  -3  -9 1624.84 418.823   4
   0   3  10-370.907 298.823   1
   0  -3 -10 141.895 156.320   4
   0  -3  10-75.8629 209.947   1
   0  -3 -10 7.23975 63.8892   2
   0  -3  11 903.573 417.066   1
   0  -3 -11 1722.70 342.100   2
   0   3  11 2297.97 790.002   1
   0  -3 -11 1563.53 431.874   4
   0   3  12 2770.15 913.009   1
   0  -3  12 3453.36 989.043   1
   0  -3 -12 2304.65 420.154   2
   0  -3 -12 2344.32 553.355   4
   0   3  13 15.5066 240.239   1
   0  -3 -13 41.2927 83.7545   4
   0  -3 -13-70.5400 89.9966   2
   0  -3  13 17.4131 187.742   1
   0   3  14 7384.60 1541.40   1
   0  -3  14 5877.54 1416.61   1
   0  -3 -14 4747.89 857.676   4
   0   3  15 976.618 505.767   1
   0  -3  15 2825.89 998.084   1
   0   3  16 9981.50 1948.66   1
   0  -3  16 7848.59 1776.24   1
   0   3  17 1033.66 613.163   1
   0  -3  17 125.754 294.782   1
   0  -3  18 1535.25 829.120   1
   0   3  18 704.494 483.599   1
   0   3  19 1306.15 780.863   1
   0  -3  19 1810.79 946.839   1
   0   3  20 1172.08 787.031   1
   0  -3  20-632.807 607.364   1
   0   4   0 716.374 185.509   3
   0  -4   0 639.815 180.325   3
   0   4  -1 147.396 75.3481   3
   0   4   1 194.985 107.870   1
   0   4   2 35122.2 1741.80   1
   0   4   3-0.58595 110.588   1
   0   4   4 289.913 125.390   2
   0   4   4 67.7976 84.9995   1
   0   4   4 175.536 88.1016   4
   0   4   5-23.1807 132.001   1
   0   4   5 12.4855 43.2868   2
   0   4   6 45704.5 2513.76   1
   0   4   7 313.613 203.318   1
   0   4   8 20649.4 1937.35   1
   0  -4  -8 20600.7 1085.05   4
   0  -4   8 22543.4 2132.53   1
   0   4   9 6203.81 1093.24   1
   0  -4  -9 4741.27 570.881   4
   0  -4   9 4607.33 1011.98   1
   0  -4  -9 4924.91 500.591   2
   0  -4 -10 2140.66 413.930   4
   0   4  10 2750.76 766.037   1
   0  -4  10 2367.99 760.112   1
   0  -4 -10 1817.47 304.560   2
   0  -4 -11 1683.33 308.687   2
   0  -4 -11 1691.25 404.852   4
   0  -4  11 2656.77 945.249   1
   0   4  11 1008.25 542.110   1
   0  -4  12 19267.3 2405.00   1
   0   4  12 18895.3 2294.65   1
   0  -4 -12 18894.2 1411.56   4
   0  -4 -12 17113.8 1008.15   2
   0   4  13 1012.85 621.772   1
   0  -4 -13 512.902 242.701   4
   0  -4  13 684.368 525.163   1
   0  -4  14 187.035 337.863   1
   0   4  14 215.809 167.891   1
   0   4  15 8718.88 1774.54   1
   0  -4  15 13010.9 2214.15   1
   0  -4  16 3085.90 1176.92   1
   0   4  16 1229.06 715.616   1
   0  -4  17 417.489 586.506   1
   0   4  17-720.809 570.698   1
   0  -4  18 2512.86 1126.40   1
   0   4  18 4567.04 1443.70   1
   0  -4  19 871.031 647.356   1
   0   4  19 464.043 499.070   1
   0   4  20 1419.32 943.176   1
   0  -5   0 207.804 127.019   3
   0  -5  -1 1275.36 308.118   3
   0   5  -1 1014.43 227.020   3
   0   5   1 1391.59 400.720   1
   0   5  -2 1266.97 260.104   3
   0   5   2 1031.25 350.839   1
   0   5   3 29980.4 1838.58   1
   0   5   4 14.3205 160.129   1
   0   5   5 41537.5 2350.82   1
   0   5   5 41637.9 1606.58   2
   0   5   5 39469.5 1237.46   4
   0   5   6 5650.56 562.175   2
   0   5   6 5648.62 945.114   1
   0   5   7 905.290 424.095   1
   0   5   8 35618.5 2581.70   1
   0   5   9 1291.29 515.345   1
   0   5  10 31940.0 2729.18   1
   0   5  11 20311.4 2245.98   1
   0   5  12 209.903 305.160   1
   0   5  13 20002.2 2455.00   1
   0   5  14 4735.68 1287.69   1
   0   5  15 742.720 634.739   1
   0   5  16 711.274 416.554   1
   0   5  17-184.598 308.906   1
   0   5  18 750.241 582.572   1
   0   5  19-163.282 344.922   1
   0  -6   0 7727.73 716.997   3
   0   6   1 4215.19 712.182   1
   0   6  -1 4249.88 511.176   3
   0  -6   1 4112.42 484.526   3
   0  -6  -1 4001.27 555.571   3
   0   6   2 57639.8 2707.65   1
   0   6  -2 60121.7 1925.57   3
   0   6  -3 2676.24 450.259   3
   0   6   3 4516.63 817.667   1
   0   6   4 1748.11 477.388   1
   0   6   5 87.2700 99.1935   2
   0   6   5-85.4596 219.926   1
   0   6   6 44720.2 1809.52   2
   0   6   6 43209.5 1375.31   4
   0   6   6 46119.4 2738.20   1
   0   6   7 3088.65 759.259   1
   0   6   7 2317.51 383.380   2
   0   6   8 11838.2 1544.51   1
   0   6   9 2559.38 806.640   1
   0   6  10 12264.7 1707.85   1
   0   6  11 10.5459 266.464   1
   0   6  12 24149.0 2629.79   1
   0   6  13 4713.38 1256.34   1
   0   6  14 26724.1 2997.09   1
   0   6  15 2592.58 999.248   1
   0   6  16 2050.80 930.182   1
   0   6  17 533.997 520.989   1
   0   6  18 497.243 458.741   1
   0   6  19-149.352 329.159   1
   0  -7   0 2543.82 471.874   3
   0  -7   1 5198.64 588.656   3
   0   7   1 5153.12 857.704   1
   0  -7  -1 5448.61 689.577   3
   0   7  -1 5080.17 610.049   3
   0   7  -2 696.282 228.830   3
   0   7   2 314.359 159.565   1
   0  -7  -2 602.152 251.385   3
   0   7   3 72279.7 3285.33   1
   0   7  -3 67907.4 2299.57   3
   0   7   4-88.1140 190.446   1
   0   7   5 4955.31 908.022   1
   0   7   6 11026.2 1004.00   2
   0   7   6 11110.3 759.640   4
   0   7   6 11519.6 1446.58   1
   0   7   7 1672.73 571.271   1
   0   7   7 1902.86 397.343   2
   0   7   8 55455.1 3408.30   1
   0   7   8 49210.8 1857.46   2
   0   7   9 1773.99 606.947   1
   0   7  10 12759.3 1822.68   1
   0   7  11 264.960 572.421   1
   0   7  12 25853.2 2757.45   1
   0   7  13 1993.04 833.428   1
   0   7  14 174.885 193.281   1
   0   7  15 10663.0 1996.57   1
   0   7  16 2078.46 884.145   1
   0   7  17-319.566 411.348   1
   0   7  18-177.793 341.738   1
   0   7  19-758.764 636.762   1
   0  -8   0 15928.6 1167.54   3
   0   8   1 27839.4 2168.59   1
   0  -8  -1 28795.7 1677.07   3
   0   8  -1 27087.5 1508.94   3
   0   8   2 45642.0 2776.10   1
   0  -8  -2 44555.8 2272.47   3
   0   8  -2 43814.5 1880.10   3
   0   8   3 286.343 190.099   1
   0   8  -3 855.486 259.694   3
   0   8  -4 10214.5 978.034   3
   0   8   4 12349.3 1503.49   1
   0   8   5 7747.14 1188.25   1
   0   8   6 55033.3 2472.56   2
   0   8   6 62153.6 3498.75   1
   0   8   7 23340.2 1117.67   4
   0   8   7 25245.9 2286.57   1
   0   8   7 23645.9 1547.78   2
   0   8   8 6218.13 1178.89   1
   0   8   8 6574.43 758.176   2
   0   8   9 8932.96 1490.73   1
   0   8   9 7845.36 768.549   2
   0   8  10 216.654 181.707   1
   0   8  11 2821.11 916.045   1
   0   8  12 6476.48 1436.56   1
   0   8  13 1487.26 675.975   1
   0   8  14 4877.95 1297.71   1
   0   8  15-91.6944 375.755   1
   0   8  16 69.6495 317.299   1
   0   8  17 769.980 712.197   1
   0   8  18 682.453 576.267   1
   0  -9   0 186.136 176.398   3
   0   9   1 13995.9 1635.51   1
   0  -9  -1 13245.8 1197.16   3
   0   9  -2-181.699 134.807   3
   0  -9  -2-22.9373 119.710   3
   0   9   2-83.8866 326.132   1
   0  -9  -3 20443.2 1732.34   3
   0   9  -3 17696.5 1286.56   3
   0   9   3 22225.2 2096.18   1
   0   9   4 3621.75 821.787   1
   0   9  -4 5065.89 708.090   3
   0   9   5 14225.1 1701.42   1
   0   9  -5 12188.1 1161.04   3
   0   9   6 2613.62 580.927   2
   0   9   6 3207.80 842.179   1
   0   9   7 9942.97 795.667   4
   0   9   7 10050.4 1097.18   2
   0   9   8-3.07094 57.9009   2
   0   9   8 155.912 256.045   1
   0   9   9 1638.54 625.791   1
   0   9   9 2163.04 447.898   2
   0   9  10 335.183 303.032   1
   0   9  11-1259.58 628.786   1
   0   9  12 1063.28 514.131   1
   0   9  13 914.375 659.776   1
   0   9  14 371.735 504.668   1
   0   9  15 1886.65 887.263   1
   0   9  16 640.706 594.958   1
   0   9  17 280.443 384.562   1
   0   9  18 442.551 499.096   1
   0 -10   0 504.416 236.179   3
   0 -10  -1 34262.9 2015.48   3
   0  10   1 37375.3 2828.21   1
   0  10   2-148.429 285.397   1
   0 -10  -2 130.340 113.171   3
   0  10  -2-292.584 177.581   3
   0  10   3 22484.6 2195.79   1
   0  10  -3 23607.2 1535.66   3
   0 -10  -3 26590.1 2032.90   3
   0  10  -4 14605.8 1241.69   3
   0  10   4 18482.1 1997.93   1
   0 -10  -4 15561.1 1650.34   3
   0  10  -5 5456.32 798.827   3
   0  10   5 5717.95 1153.33   1
   0  10   6 11566.9 1619.21   1
   0  10   7 2594.67 788.110   1
   0  10   8 9140.40 1562.83   1
   0  10   9 1947.84 772.364   1
   0  10  10 8311.46 1568.74   1
   0  10  11 3559.17 1046.09   1
   0  10  12 2155.74 878.201   1
   0  10  13 704.760 685.297   1
   0  10  14 603.631 428.492   1
   0  10  15 1534.68 884.596   1
   0  10  16-252.897 382.024   1
   0  10  17 1981.76 969.508   1
   0  10  18 19.1858 156.592   1
   0 -11   0-77.5756 107.043   3
   0  11   0-341.827 406.647   1
   0 -11  -1 45.2402 86.3656   3
   0  11   1 271.661 192.153   1
   0  11   2 5578.88 1170.31   1
   0 -11  -2 6878.97 991.684   3
   0 -11  -3 6360.60 1011.79   3
   0  11   3 5905.16 1191.97   1
   0  11  -3 5854.35 800.151   3
   0  11  -4 3297.92 614.655   3
   0  11   4 4999.93 1107.12   1
   0 -11  -4 4377.59 897.304   3
   0 -11  -5 883.851 413.309   3
   0  11   5 918.135 496.318   1
   0  11   6-27.0434 416.156   1
   0  11   7 472.904 513.119   1
   0  11   8 3219.77 950.870   1
   0  11   9 16482.8 2216.34   1
   0  11  10 4943.79 1240.16   1
   0  11  11 7007.09 1529.63   1
   0  11  12-790.301 542.263   1
   0  11  13-502.902 461.369   1
   0  11  14 183.513 287.252   1
   0  11  15 1928.25 946.921   1
   0  11  16 381.920 438.038   1
   0  11  17-27.9674 219.784   1
   0 -12   0 16598.0 1438.18   3
   0  12   0 18908.4 2225.80   1
   0 -12  -1 5075.65 827.708   3
   0  12   1 3114.05 928.187   1
   0 -12  -2 13214.9 1419.67   3
   0  12   2 15427.7 2011.43   1
   0  12   3 193.891 270.610   1
   0 -12  -3 102.106 130.222   3
   0 -12  -4 2902.46 779.452   3
   0  12   4 2001.96 772.629   1
   0 -12  -5-876.800 441.575   3
   0  12   5-202.867 240.183   1
   0  12   6 2164.73 763.807   1
   0 -12  -6 1890.89 726.661   3
   0  12   7 10902.7 1743.26   1
   0  12   8 2253.16 830.878   1
   0  12   9-227.763 378.258   1
   0  12  10 3.11364 250.681   1
   0  12  11 9775.85 1845.53   1
   0  12  12 152.892 379.726   1
   0  12  13 1509.06 769.690   1
   0  12  14-201.879 228.853   1
   0  12  15 1997.89 931.382   1
   0  12  16 701.916 585.812   1
   0 -13   0-32.4515 130.323   3
   0  13   0 37.1649 242.791   1
   0  13   1 268.787 287.591   1
   0 -13  -1 92.1383 131.426   3
   0 -13  -2 2943.48 714.559   3
   0  13   2 2068.63 740.370   1
   0  13   3 6235.16 1329.41   1
   0 -13  -3 7903.69 1193.39   3
   0  13   4 539.385 497.764   1
   0 -13  -4 435.244 315.904   3
   0 -13  -5 876.440 464.948   3
   0  13   5 139.679 446.303   1
   0  13   6 47.1085 356.521   1
   0 -13  -6 335.813 330.344   3
   0  13   7-364.516 359.489   1
   0 -13  -7-460.487 391.912   3
   0  13   8 6969.68 1477.49   1
   0  13   9 9703.71 1782.64   1
   0  13  10 251.678 347.151   1
   0  13  11 690.311 582.034   1
   0  13  12 528.040 531.572   1
   0  13  13 372.785 438.103   1
   0  13  14 2295.01 1079.06   1
   0  13  15 3332.64 1190.44   1
   0  13  16-7.78237 154.627   1
   0  14   0 2461.23 858.246   1
   0 -14  -1-300.089 219.131   3
   0  14   1-76.7212 307.237   1
   0  14  -1 93.7079 238.138   1
   0 -14  -2 357.698 184.932   3
   0  14   2 791.903 474.564   1
   0 -14  -3 607.085 343.171   3
   0  14   3 86.7383 167.701   1
   0 -14  -4 616.011 349.565   3
   0  14   4 1710.62 756.254   1
   0  14   5 13992.2 2118.54   1
   0 -14  -5 13275.8 1757.27   3
   0 -14  -6 9263.52 1574.01   3
   0  14   6 8846.31 1673.70   1
   0  14   7 5111.03 1312.13   1
   0 -14  -7 5080.14 1222.47   3
   0  14   8-228.266 471.637   1
   0 -14  -8 560.158 485.445   3
   0  14   9 14.6481 276.059   1
   0 -14  -9 452.142 390.868   3
   0  14  10 1797.70 832.218   1
   0  14  11 3168.01 1086.73   1
   0  14  12-253.220 359.182   1
   0  14  13 7577.42 1828.40   1
   0  14  14 206.657 131.926   1
   0  14  15 830.156 731.261   1
   0  15   0 202.010 306.766   1
   0  15   1-1076.85 626.316   1
   0  15  -1-844.862 562.651   1
   0  15   2 4041.20 1152.66   1
   0  15   3 6984.05 1560.88   1
   0 -15  -4-160.264 195.125   3
   0  15   4 223.305 279.454   1
   0  15   5 710.582 463.842   1
   0 -15  -5 1615.44 639.523   3
   0  15   6 934.337 607.928   1
   0 -15  -6 1810.28 706.285   3
   0  15   7 470.748 509.300   1
   0 -15  -7 241.289 329.430   3
   0  15   8 1560.04 726.139   1
   0 -15  -8 2209.72 873.538   3
   0  15   9 8533.12 1809.65   1
   0 -15  -9 7465.20 1596.45   3
   0 -15 -10 140.050 309.107   3
   0  15  10 798.471 571.412   1
   0  15  11 2422.30 1031.10   1
   0 -15 -11 2283.25 972.758   3
   0  15  12-597.149 537.311   1
   0  15  13 482.722 484.264   1
   0  15  14 474.028 436.172   1
   0  16   0 524.266 446.732   1
   0  16   1 6252.08 1491.70   1
   0  16  -1 4913.91 1365.97   1
   0  16   2 131.620 431.860   1
   0  16  -2 643.064 565.033   1
   0  16   3 1311.22 756.052   1
   0  16   4 1568.70 802.536   1
   0  16   5 1032.50 631.992   1
   0  16   6 1855.56 857.226   1
   0  16   7 102.471 164.309   1
   0  16   8 31.3190 275.641   1
   0  16   9-682.368 554.982   1
   0  16  10 1975.00 916.619   1
   0  16  11 2151.59 970.121   1
   0 -16 -12-447.343 475.148   3
   0  16  12 18.9656 148.226   1
   0 -16 -13 2688.64 1174.05   3
   0  16  13 1863.21 980.285   1
   0 -16 -14 796.611 659.946   3
   0  17   0 417.721 265.270   1
   0  17  -1-145.048 387.033   1
   0  17   1 903.079 610.330   1
   0  17  -2 604.455 380.225   1
   0  17   2 239.625 259.217   1
   0  17   3 4582.89 1350.31   1
   0  17   4 2416.18 999.720   1
   0  17   5-388.586 422.842   1
   0  17   6 2572.10 1079.81   1
   0  17   7-166.345 310.243   1
   0  17   8 1998.54 868.748   1
   0  17   9 5112.78 1480.33   1
   0  17  10 682.131 567.853   1
   0  17  11 1059.72 830.575   1
   0  17  12-1184.23 785.797   1
   0  18   0 723.264 627.091   1
   0  18  -1 2407.81 1000.90   1
   0  18   1 3985.82 1288.17   1
   0  18   2 4145.46 1327.27   1
   0  18  -2 2924.60 1232.56   1
   0  18   3 233.081 293.848   1
   0  18  -3 558.200 582.643   1
   0  18   4 45.9430 347.885   1
   0  18   5 3613.34 1290.41   1
   0  18   6 15.1298 269.634   1
   0  18   7 720.203 556.690   1
   0  18   8-80.3032 235.781   1
   0  18   9 595.071 542.204   1
   0  18  10 1479.08 966.212   1
   0  19   0 51.3958 227.085   1
   0  19   1 491.730 488.212   1
   0  19  -1 344.170 348.843   1
   0  19   2-579.954 528.253   1
   0  19  -2 522.941 517.181   1
   0  19  -3 4039.58 1448.56   1
   0  19   3 3291.91 1212.86   1
   0  19  -4-337.273 450.729   1
   0  19   4-644.359 579.836   1
   0  19   5 548.431 548.173   1
   0  19   6 458.605 486.519   1
   0  19   7-476.524 493.178   1
   0  19   8-223.451 363.205   1
   0  20   0 743.899 652.418   1
   0  20   1 1234.02 801.936   1
   0  20  -1 811.955 704.948   1
   0  20  -2-630.361 584.030   1
   0  20   2-20.1330 169.431   1
   0  20  -3 610.318 489.060   1
   0  20   3 961.838 664.064   1
   0  20  -4 319.536 438.454   1
   0  20   4-540.385 544.857   1
   0  20   5 203.152 352.399   1
  -1   0  20-117.242 292.158   1
  -1   0  19-134.241 312.264   1
  -1   0  18 1118.08 800.911   1
  -1   0  17 54.0986 193.673   1
  -1   0  16 379.425 274.218   1
  -1   0  15 651.798 465.071   1
  -1   0  14 12130.3 1937.83   1
  -1   0  13-277.763 299.508   1
  -1   0  12 10835.8 1707.31   1
  -1   0  11-0.73678 190.711   1
  -1   0  10 31907.9 2609.04   1
  -1   0   9 107.224 144.198   1
  -1   0   8 18613.6 1745.48   1
  -1   0   7 124.197 166.409   1
  -1   0   6 50778.1 2460.76   1
  -1   0   5 78.9082 104.108   1
  -1   0   4 487863. 6181.26   1
  -1   0   3 22.3663 45.2442   1
   1   0   2 988.273 213.545   1
   1   0   3 30.3969 85.1960   1
   1   0   4 302232. 5145.32   1
   1   0   5 86.7045 192.617   1
   1   0   6 7633.88 997.589   1
   1   0   7 107.539 221.652   1
   1   0   8 28846.4 2245.71   1
   1   0   9-290.178 263.072   1
   1   0  10-27.4147 276.573   1
   1   0  11 53.5755 321.817   1
   1   0  12 347.307 324.707   1
   1   0  13 546.590 465.965   1
   1   0  14 1217.67 652.899   1
   1   0  15 50.8192 196.948   1
   1   0  16 1294.55 642.215   1
   1   0  17-322.149 584.677   1
   1   0  18-152.014 529.903   1
   1   0  19 190.722 233.732   1
   1   0  20 739.834 727.151   1
  -1   1  20-1025.24 736.851   1
  -1  -1  20-1814.74 973.983   1
  -1   1  19 208.819 254.198   1
  -1  -1  19 465.763 500.772   1
  -1   1  18 6894.86 1717.91   1
  -1  -1  18 6346.72 1693.42   1
  -1  -1  17 442.005 339.144   1
  -1   1  17 310.603 185.942   1
  -1  -1  16-92.1595 237.280   1
  -1   1  16-1152.69 670.574   1
  -1   1  15 1161.81 591.599   1
  -1  -1  15 123.078 319.023   1
  -1   1  14 8754.14 1663.87   1
  -1  -1  14 10979.8 1864.90   1
  -1   1  13 601.255 337.394   1
  -1  -1  13 147.540 222.654   1
  -1  -1  12 2495.93 796.340   1
  -1   1  12 3063.11 912.615   1
  -1   1  11 2781.22 780.419   1
  -1  -1  11 3151.49 952.244   1
  -1   1  10 241.173 134.276   1
  -1  -1  10 10.7635 197.039   1
  -1  -1   9 544.262 331.628   1
  -1   1   9-14.7978 267.828   1
  -1   1   8 4910.00 872.254   1
  -1  -1   8 3943.52 787.460   1
  -1  -1   7 5537.80 877.292   1
  -1   1   7 6430.30 941.594   1
  -1   1   6 49727.2 2393.96   1
  -1  -1   6 46746.3 2416.70   1
  -1   1   5 18956.1 1345.29   1
  -1  -1   5 21082.6 1490.09   1
   1  -1  -4 118036. 2811.56   4
  -1   1   4 116015. 2910.61   1
  -1  -1   4 117623. 3160.52   1
  -1  -1   3 82582.9 2347.48   1
   1  -1  -3 87426.2 2194.74   4
  -1   1   3 85158.4 2160.09   1
  -1   1   2 985.650 175.697   1
   1  -1  -2 977.847 214.840   4
   1  -1   2 1652.06 281.909   1
   1   1   2 2142.98 332.573   1
   1   1   3 175676. 3508.25   1
   1  -1   3 182925. 3501.31   1
   1   1   4 255.101 105.816   1
   1  -1   4-64.4210 113.372   1
   1   1   5 39141.5 2066.89   1
   1  -1   5 42110.2 2150.09   1
   1   1   6 1103.96 368.037   1
   1  -1   6 1596.60 476.318   1
   1  -1   7 13479.5 1419.74   1
   1   1   7 14535.7 1479.90   1
   1   1   8 23178.9 2015.08   1
   1  -1   8 22546.0 2010.18   1
   1  -1   9 1955.95 649.944   1
   1   1   9 2410.23 717.045   1
   1  -1  10 377.531 246.582   1
   1   1  10 625.816 401.838   1
   1  -1  11 1682.91 664.089   1
   1   1  11 1263.31 569.225   1
   1   1  12 20847.6 2388.07   1
   1  -1  12 19139.5 2309.36   1
   1  -1  13 952.726 549.837   1
   1   1  13 858.915 548.840   1
   1   1  14 11690.4 1933.40   1
   1  -1  14 13952.7 2176.96   1
   1  -1  15 688.556 553.274   1
   1   1  15 603.947 521.870   1
   1   1  16 5386.34 1492.26   1
   1  -1  16 2462.82 980.110   1
   1   1  17 3930.52 1277.26   1
   1  -1  17 5272.76 1468.84   1
   1  -1  18 3412.88 1228.28   1
   1   1  18 5704.15 1601.65   1
   1  -1  19 2925.14 1179.83   1
   1   1  19 2079.77 939.342   1
   1   1  20 3403.10 1359.95   1
   1  -1  20 3950.77 1421.60   1
  -1  -2  20 1274.46 770.070   1
  -1   2  20 1575.58 1332.79   1
  -1  -2  19 3443.40 1302.20   1
  -1   2  19 3938.06 1358.05   1
  -1   2  18 2199.97 958.424   1
  -1  -2  18 1117.83 648.742   1
  -1  -2  17-765.180 582.097   1
  -1   2  17 548.840 381.951   1
  -1  -2  16 4169.64 1241.27   1
   1  -2 -16 3860.96 926.749   4
  -1   2  16 4087.77 1223.01   1
  -1   2  15 1873.15 836.483   1
  -1  -2  15 1113.26 609.818   1
   1  -2 -15 1612.40 562.711   4
  -1  -2  14 6031.70 1426.10   1
  -1   2  14 5557.64 1267.48   1
   1  -2 -14 5574.71 1047.47   4
   1  -2 -13 1.71166 115.589   4
  -1  -2  13 108.519 182.875   1
  -1   2  13-83.6447 216.701   1
  -1  -2  12 249.765 325.491   1
   1  -2 -12 226.319 243.857   4
  -1   2  12-137.921 389.278   1
   1  -2 -11 11001.9 1292.30   4
  -1  -2  11 8407.18 1443.40   1
  -1   2  11 9883.36 1508.89   1
  -1  -2  10 9433.55 1432.00   1
   1  -2 -10 9076.48 1115.52   4
  -1   2  10 8804.16 1345.44   1
  -1  -2   9 12016.7 1521.94   1
  -1   2   9 12132.7 1478.02   1
   1  -2  -9 13482.1 1288.11   4
   1  -2  -8 4616.49 717.314   4
  -1  -2   8 2672.82 714.498   1
  -1   2   8 3581.27 752.077   1
  -1   2   7 34687.4 2182.16   1
  -1  -2   7 35342.5 2341.95   1
   1  -2  -7 36889.1 1905.70   4
   1  -2  -6 3.13635 79.3378   4
  -1  -2   6 121.304 214.550   1
  -1   2   6 328.521 232.967   1
   1  -2  -6 126.223 140.715   1
   1  -2  -5 106178. 3164.35   1
   1  -2  -5 103850. 2721.49   4
  -1  -2   5 102487. 3449.54   1
  -1   2   5 105340. 3163.46   1
  -1   2   4 943.729 273.344   1
   1  -2  -4 1055.77 250.744   4
  -1   2   3 401.915 166.913   4
  -1   2   3 232.664 127.312   1
  -1   2   2 153166. 2483.14   1
  -1   2   1 245647. 2673.84   1
   1  -2  -1 254020. 3875.16   3
   1  -2   0 9267.46 689.746   3
   1   2   1 52684.2 1729.90   2
   1   2   1 55326.4 1764.31   1
   1   2   2 513527. 5738.55   1
   1   2   2 498875. 5295.86   2
   1  -2   2 504356. 5363.70   1
  -1  -2  -3 77775.9 2123.08   2
   1   2   3 77379.2 2480.19   1
   1  -2   3 79137.9 2420.79   1
   1   2   3 77631.2 2087.13   2
  -1  -2  -4 67678.3 2043.16   2
   1   2   4 65922.9 2501.96   1
   1  -2   4 67426.6 2541.04   1
  -1  -2  -5 3199.65 463.097   2
   1  -2   5 3394.30 639.922   1
   1   2   5 2443.85 534.555   1
   1  -2   6 37848.3 2280.99   1
   1   2   6 36183.7 2192.02   1
  -1  -2  -6 34788.8 1593.64   2
   1  -2   7 37775.3 2480.21   1
   1   2   7 39030.7 2450.41   1
  -1  -2  -7 38679.6 1753.77   2
   1   2   8 3642.02 788.129   1
   1  -2   8 3065.72 780.561   1
   1   2   9 330.114 189.211   1
   1  -2   9 1006.52 441.511   1
   1   2  10 12838.8 1684.67   1
   1  -2  10 12317.7 1707.96   1
   1  -2  11 1559.83 662.736   1
   1   2  11 2266.82 747.701   1
   1   2  12 2641.17 881.504   1
   1  -2  12 4159.90 1124.03   1
  -1  -2 -13 6482.88 921.608   2
   1   2  13 4883.41 1202.42   1
   1  -2  13 5405.09 1345.41   1
   1   2  14 19253.6 2516.85   1
   1  -2  14 14634.4 2229.36   1
  -1  -2 -14 18613.6 1602.31   2
   1   2  15 1862.74 846.073   1
   1  -2  15 1341.32 721.664   1
   1  -2  16 6384.90 1573.99   1
   1   2  16 6945.23 1663.98   1
   1   2  17 242.639 397.908   1
   1  -2  17 104.243 350.847   1
   1  -2  18-101.040 376.550   1
   1   2  18 695.496 513.912   1
   1   2  19 495.959 530.008   1
   1  -2  19 1048.55 869.466   1
   1   2  20 386.167 599.166   1
  -1   3  20 3831.44 1368.62   1
  -1  -3  20 3746.59 1415.32   1
  -1  -3  19-75.3587 246.370   1
  -1   3  19 57.2554 200.995   1
  -1   3  18 4729.66 1423.73   1
  -1  -3  18 1157.95 746.131   1
  -1   3  17-11.5700 276.488   1
  -1  -3  17 211.677 187.029   1
  -1   3  16 1193.10 729.609   1
  -1  -3  16 915.283 567.149   1
   1  -3 -15 2530.75 684.421   4
  -1  -3  15 1747.88 734.376   1
  -1   3  15 2221.21 880.140   1
  -1  -3  14 12692.2 2103.65   1
  -1   3  14 16636.6 2265.01   1
   1  -3 -14 13366.2 1547.34   4
  -1  -3  13 786.132 554.130   1
   1  -3 -13-43.8124 195.376   4
  -1   3  13-50.7260 344.686   1
  -1   3  12 20373.3 2304.46   1
   1  -3 -12 21687.9 1824.17   4
  -1  -3  12 23550.0 2557.28   1
  -1   3  11 2461.40 756.006   1
  -1  -3  11 2181.91 769.687   1
   1  -3 -11 2249.94 537.712   4
   1  -3 -10 4069.69 708.982   4
  -1  -3  10 3152.63 845.980   1
  -1   3  10 3982.60 905.312   1
   1  -3  -9 7092.96 890.739   4
  -1   3   9 6284.49 1070.41   1
  -1  -3   9 6816.04 1210.75   1
  -1   3   8 1642.36 512.899   1
   1  -3  -8 1109.75 340.264   4
  -1  -3   8 903.695 353.864   1
  -1   3   7 8878.92 1115.56   1
   1  -3  -7 7833.23 820.698   4
  -1  -3   7 8351.26 1179.19   1
   1  -3  -6 78462.8 2467.91   4
   1  -3  -6 76790.7 3002.76   1
  -1   3   6 74823.6 2988.92   1
  -1   3   5 43506.5 2111.18   1
   1  -3  -5 45729.3 2132.86   1
  -1   3   4 5843.19 604.386   4
  -1   3   4 6088.78 706.106   1
   1  -3  -4 6112.29 719.989   1
  -1   3   3 17255.5 1079.00   1
   1  -3  -3 18226.0 1117.74   1
   1  -3  -2 35694.4 1425.02   1
  -1   3   2 35807.4 1414.54   1
   1  -3  -1 118842. 2881.03   3
  -1   3   1 116438. 2385.78   1
   1  -3   0 400955. 4986.79   3
   1   3   1 33315.9 1564.34   2
   1   3   1 34299.2 1607.04   1
   1   3   2 53153.6 1910.60   2
   1   3   2 53023.3 2082.37   1
   1   3   3 108917. 3198.57   1
  -1  -3  -3 113626. 2774.17   2
   1   3   3 109770. 2699.40   2
  -1  -3  -4 21143.7 1211.17   2
   1  -3   4 20899.1 1481.34   1
   1   3   4 18596.6 1405.40   1
   1   3   4 21988.9 1204.03   2
   1  -3   5 103739. 3596.28   1
   1   3   5 99098.2 3505.24   1
  -1  -3  -5 99336.6 2689.58   2
   1  -3   6 40089.9 2424.48   1
   1   3   6 42315.5 2464.89   1
  -1  -3  -6 42881.6 1812.32   2
   1   3   7 60577.0 3124.05   1
  -1  -3  -7 60540.6 2210.57   2
   1  -3   7 63298.3 3243.93   1
   1   3   8 20416.9 1921.04   1
   1  -3   8 17164.8 1789.85   1
  -1  -3  -8 20834.1 1351.16   2
   1   3   9 57.8548 195.029   1
  -1  -3  -9 344.892 191.300   2
   1  -3   9 199.764 218.880   1
   1  -3  10-183.399 395.311   1
  -1  -3 -10 154.735 154.763   2
   1   3  10-115.613 334.600   1
   1   3  11 9242.03 1538.96   1
   1  -3  11 8647.06 1468.82   1
  -1  -3 -11 7768.43 922.689   2
  -1  -3 -12 3059.27 588.397   2
   1  -3  12 2531.24 815.780   1
   1   3  12 2533.05 809.456   1
   1   3  13 32.9240 251.359   1
  -1  -3 -13-21.4030 89.1294   2
   1  -3  13-65.6017 261.274   1
   1   3  14 1157.70 576.737   1
   1  -3  14 1879.63 884.477   1
   1   3  15 603.846 618.053   1
   1  -3  15 563.038 477.328   1
   1   3  16-262.939 367.838   1
   1  -3  16 179.984 217.469   1
   1  -3  17 885.368 659.788   1
   1   3  17 1121.75 662.912   1
   1  -3  18 739.173 840.318   1
   1   3  18 278.337 459.800   1
   1  -3  19 343.092 447.802   1
   1   3  19 535.373 543.639   1
  -1   4  20 29.4098 223.688   1
  -1   4  19 2856.37 1142.71   1
  -1   4  18 1455.83 791.760   1
  -1   4  17 369.582 297.727   1
  -1  -4  17 315.014 401.796   1
  -1   4  16 1854.84 809.213   1
  -1  -4  16 1956.86 907.330   1
  -1   4  15 677.367 416.849   1
  -1  -4  15 137.393 227.245   1
  -1   4  14 11645.7 1899.18   1
  -1  -4  14 12848.0 2122.72   1
   1  -4 -14 11464.5 1349.53   4
  -1   4  13 12606.8 1901.35   1
  -1  -4  13 11997.7 1976.14   1
   1  -4 -13 12758.3 1367.25   4
  -1   4  12 10034.3 1641.31   1
  -1  -4  12 12571.0 1906.57   1
   1  -4 -12 11523.0 1257.24   4
  -1   4  11 1955.35 700.898   1
  -1  -4  11 1628.59 701.155   1
   1  -4 -11 1038.69 376.637   4
  -1   4  10 11166.3 1533.70   1
   1  -4 -10 10908.2 1102.87   4
  -1   4   9 5993.61 1053.83   1
   1  -4  -9 4763.25 692.031   4
  -1   4   8 5089.98 938.412   1
  -1   4   7 7302.14 1035.64   1
  -1   4   6 3734.95 693.510   1
  -1   4   5-87.7331 82.4192   4
  -1   4   5-38.0521 76.6249   1
   1  -4  -5 1.73013 76.6835   1
   1  -4  -4 48128.7 2165.11   1
  -1   4   4 49790.6 2158.73   1
  -1   4   3 78.3255 64.8711   1
   1  -4  -3 242.031 121.087   1
   1  -4  -2 2183.65 402.153   1
   1  -4  -2 2746.53 514.660   3
  -1   4   2 2420.23 417.266   1
  -1   4   1 14560.2 1013.55   1
   1  -4  -1 13705.0 1058.28   3
   1  -4   0 1979.08 378.147   3
  -1   4  -1-25.6979 106.134   3
   1   4   1 13.6407 118.983   1
   1  -4   1-68.2538 165.434   3
   1   4   2 189130. 4352.51   1
  -1   4  -2 188073. 3823.60   3
   1   4   2 186060. 3970.47   2
   1   4   3 88996.8 2700.29   2
   1   4   3 92488.9 3167.47   1
   1   4   4 77104.3 3030.47   1
   1   4   4 77338.0 2472.97   2
  -1  -4  -5 24059.2 1406.57   2
   1   4   5 25110.0 1825.89   1
   1   4   5 24147.3 1370.36   2
  -1  -4  -6 36157.5 1726.43   2
   1  -4   6 36214.9 2367.03   1
   1   4   6 39496.5 2444.38   1
   1  -4   7 99765.9 4208.98   1
   1   4   7 99257.6 4118.05   1
  -1  -4  -7 95774.3 2874.60   2
  -1  -4  -8 1078.62 299.480   2
   1  -4   8 1362.62 535.818   1
   1   4   8 1399.15 539.069   1
  -1  -4  -8 980.574 168.675   4
  -1  -4  -9 17310.3 861.013   4
   1   4   9 18957.4 1998.63   1
  -1  -4  -9 18451.6 1321.67   2
   1  -4   9 16996.1 1950.47   1
  -1  -4 -10 5922.49 576.946   4
   1   4  10 5307.69 1109.95   1
   1  -4  10 6917.62 1303.03   1
  -1  -4 -10 5514.86 735.602   2
  -1  -4 -11 163.160 92.7001   4
   1  -4  11-339.350 327.094   1
  -1  -4 -11 177.071 167.525   2
   1   4  11-175.729 239.607   1
   1   4  12-140.987 396.889   1
   1  -4  12 431.456 545.302   1
  -1  -4 -12 237.350 82.1494   2
  -1  -4 -12-31.6189 86.6131   4
   1  -4  13 5713.51 1351.86   1
  -1  -4 -13 4766.49 731.221   2
   1   4  13 4660.51 1174.10   1
   1  -4  14 2858.17 968.888   1
   1   4  14 2795.57 948.587   1
   1  -4  15 1784.02 862.534   1
   1   4  15 1859.97 848.926   1
   1  -4  16-108.466 240.509   1
   1   4  16 131.211 214.618   1
   1  -4  17 2995.52 1154.85   1
   1   4  17 4563.56 1369.28   1
   1   4  18-623.396 555.139   1
   1  -4  18-240.376 386.917   1
   1   4  19 2367.55 1101.80   1
   1  -4  19 3107.39 1246.73   1
  -1   5  20 1262.55 851.006   1
  -1   5  19 371.665 450.219   1
  -1   5  18 751.158 601.482   1
  -1   5  17 1568.80 771.608   1
  -1   5  16 1584.74 825.052   1
  -1   5  15 2761.20 981.806   1
  -1   5  14 9103.74 1711.29   1
  -1   5  13 12850.0 1938.76   1
  -1   5  12 31740.9 2901.60   1
  -1   5  11 2220.33 761.090   1
  -1   5  10 6781.23 1197.72   1
  -1   5   9 20965.0 2015.27   1
  -1   5   8 5048.14 951.944   1
  -1   5   7 738.191 345.842   1
  -1   5   6 4460.60 582.995   4
  -1   5   6 5162.78 379.207   2
  -1   5   6 3777.40 706.712   1
  -1   5   5 10820.4 1136.98   1
  -1   5   5 12204.5 952.659   4
  -1   5   4 4266.95 670.230   1
   1  -5  -4 5265.57 766.450   1
   1  -5  -3 50975.3 2284.25   1
  -1   5   3 51277.8 2241.16   1
  -1   5   2 14560.9 1153.16   1
   1  -5  -2 14828.4 1251.03   3
  -1   5   1 62188.8 2361.41   1
   1  -5  -1 63978.8 2452.90   3
   1  -5   0 11765.6 988.810   3
  -1  -5   0 10916.5 564.353   3
  -1   5   0 11271.3 999.788   3
  -1   5  -1 105653. 3001.68   3
   1  -5   1 107674. 2945.90   3
   1   5   1 108713. 3574.45   1
   1   5   2 56236.9 2602.46   1
  -1   5  -2 56057.7 2211.53   3
   1   5   3 21146.8 1451.21   2
   1   5   3 22120.8 1662.92   1
   1   5   4 16739.1 1510.09   1
   1   5   4 16383.7 1248.98   2
   1   5   5 43124.4 2522.19   1
   1   5   5 41158.5 1934.40   2
   1   5   6 151550. 4944.47   1
   1   5   6 146504. 3567.07   2
   1   5   7 4585.49 894.811   1
  -1  -5  -8 9128.41 929.740   2
   1   5   8 10488.1 1458.47   1
   1  -5   9 1584.55 607.642   1
  -1  -5  -9 1251.96 370.577   2
   1   5   9 958.670 422.402   1
   1   5  10 495.782 199.477   1
  -1  -5 -10 112.274 133.675   2
   1  -5  10 280.583 207.266   1
  -1  -5 -11 101.840 130.433   2
   1   5  11 67.9298 343.506   1
   1  -5  11-197.287 234.883   1
  -1  -5 -12 54.9698 84.7515   2
   1   5  12-106.170 370.152   1
   1  -5  12 182.648 245.690   1
   1   5  13 337.968 263.897   1
   1  -5  13 1128.04 576.691   1
   1  -5  14 15748.0 2377.32   1
   1   5  14 11673.7 2020.96   1
   1  -5  15 1144.84 584.747   1
   1   5  15 925.689 628.068   1
   1  -5  16 267.661 348.496   1
   1   5  16 12.5797 153.984   1
   1   5  17 424.810 450.728   1
   1  -5  17 427.457 368.024   1
   1  -5  18 2013.26 969.904   1
   1   5  18 2743.29 1101.07   1
   1   5  19 1033.32 746.203   1
  -1   6  19 813.624 521.098   1
  -1   6  18 1471.82 759.767   1
  -1   6  17 1813.91 862.191   1
  -1   6  16 6065.34 1513.93   1
  -1   6  15 4705.41 1285.85   1
  -1   6  14 4447.41 1211.77   1
  -1   6  13 13596.6 2009.36   1
  -1   6  12 3687.51 1072.39   1
  -1   6  11 550.609 164.276   1
  -1   6  10 4823.11 1039.08   1
  -1   6   9 4057.50 921.994   1
  -1   6   8 8305.71 1241.35   1
  -1   6   7 17129.1 750.047   2
  -1   6   7 17580.2 1219.53   4
  -1   6   7 18010.1 1727.04   1
  -1   6   6 23042.2 1371.49   4
  -1   6   6 21880.0 1073.14   2
  -1   6   6 25365.3 1944.58   1
  -1   6   5 4467.73 779.462   1
  -1   6   4 13376.5 1289.07   1
  -1   6   3 252.621 216.763   1
   1  -6  -3 184.791 205.168   1
   1  -6  -3 539.001 301.799   3
  -1   6   2 12311.9 1173.22   1
   1  -6  -2 11057.0 1155.62   3
   1  -6  -1 5446.77 746.276   3
  -1   6   1 6138.89 824.712   1
  -1  -6   0 1823.75 267.019   3
  -1   6   0 2064.84 463.314   3
   1  -6   0 2350.09 469.499   3
  -1   6  -1 9731.95 959.933   3
   1  -6   1 9291.44 917.590   3
   1   6   1 9123.35 1137.05   1
  -1   6  -2 393.440 194.415   3
   1   6   2 575.690 273.808   1
   1   6   3 1568.13 411.923   2
   1   6   3 2339.43 600.091   1
  -1   6  -3 1646.96 409.369   3
   1   6   4 31802.1 1869.87   2
   1   6   4 34629.0 2313.10   1
   1   6   5 208.115 164.580   1
   1   6   5 246.952 173.704   2
   1   6   6 29429.3 1717.83   2
   1   6   6 31218.8 2350.14   1
   1   6   7 17070.1 1821.11   1
   1   6   7 18970.5 1348.10   2
   1   6   8 22998.4 2210.36   1
   1   6   9 16350.5 1937.63   1
   1   6  10 48844.7 3538.13   1
   1   6  11-107.326 350.158   1
   1   6  12 895.792 606.930   1
   1   6  13 1166.48 603.710   1
   1   6  14 3468.59 1108.64   1
   1   6  15 2217.10 902.709   1
   1   6  16 785.590 466.184   1
   1   6  17 1042.54 689.505   1
   1   6  18 73.2455 341.338   1
   1   6  19 794.919 578.342   1
  -1   7  19 1108.91 744.904   1
  -1   7  18 446.642 458.452   1
  -1   7  17 266.811 190.080   1
  -1   7  16 780.255 574.814   1
  -1   7  15 3478.19 1112.22   1
  -1   7  14 5420.57 1354.25   1
  -1   7  13 247.442 283.682   1
  -1   7  12 24694.2 2637.81   1
  -1   7  11 3335.12 947.677   1
  -1   7  10 407.747 424.879   1
  -1   7   9 574.665 341.401   1
  -1   7   8 13090.2 1598.94   1
  -1   7   8 12612.2 672.560   2
  -1   7   7 4181.60 490.936   2
  -1   7   7 4055.70 596.374   4
  -1   7   7 4850.66 929.280   1
  -1   7   6 1813.44 397.678   4
  -1   7   6 1881.97 509.298   1
  -1   7   5 16030.6 1555.57   1
  -1   7   4 5833.34 922.711   1
   1  -7  -3 2345.94 579.695   3
   1   7  -3 3480.72 385.614   3
  -1   7   3 3167.52 673.539   1
  -1   7   2 32598.3 2071.14   1
   1  -7  -2 31014.9 2001.05   3
   1   7  -2 28161.8 967.437   3
   1  -7  -1 6072.50 850.216   3
  -1   7   1 5813.13 868.403   1
  -1  -7   0 812.967 196.020   3
   1  -7   0 670.250 285.127   3
  -1   7   0 670.160 260.269   3
   1   7   1 4169.56 828.356   1
  -1  -7  -1 4862.90 565.795   3
   1  -7   1 4578.33 676.540   3
  -1   7  -1 4993.35 723.792   3
   1   7   2-186.179 195.687   1
  -1   7  -2 75.6737 81.9211   3
  -1   7  -3 21207.3 1532.28   3
   1   7   3 21239.7 1885.82   1
   1   7   4 48.1210 347.812   1
   1   7   4-3.64069 156.744   2
  -1   7  -4 121.453 98.8512   3
   1   7   5 779.691 313.605   2
   1   7   5 1070.63 460.630   1
   1   7   6 26794.5 1774.79   2
   1   7   6 27950.8 2321.24   1
   1   7   7 673.098 347.064   1
   1   7   7 68.5434 62.9440   2
   1   7   8 2299.32 496.750   2
   1   7   8 3251.20 838.981   1
   1   7   9 24234.7 2430.91   1
   1   7  10 635.920 466.051   1
   1   7  11 1161.70 492.163   1
   1   7  12 395.843 421.196   1
   1   7  13 645.970 347.785   1
   1   7  14 558.338 409.877   1
   1   7  15 670.768 384.799   1
   1   7  16 153.289 288.159   1
   1   7  17 1089.34 751.667   1
   1   7  18 2711.31 1153.31   1
  -1   8  19-342.338 440.684   1
  -1   8  18-92.6851 265.732   1
  -1   8  17 944.516 542.434   1
  -1   8  16 24.0646 292.464   1
  -1   8  15 27.1035 205.557   1
  -1   8  14-461.660 414.670   1
  -1   8  13 1771.50 740.143   1
  -1   8  12 22575.4 2559.00   1
  -1   8  11 196.389 203.842   1
  -1   8  10 48659.7 3500.54   1
  -1   8   9 1936.67 717.069   1
  -1   8   8 16728.6 1903.93   1
  -1   8   8 16503.9 1243.44   4
  -1   8   8 17253.1 1027.58   2
  -1   8   7 514.606 184.947   1
  -1   8   7 685.986 237.996   2
  -1   8   7 516.777 199.500   4
  -1   8   6-24.8366 173.816   1
  -1   8   5 6388.77 1039.64   1
   1  -8  -4 8263.65 1184.43   3
   1   8  -4 7551.68 665.839   3
  -1   8   4 9407.06 1233.25   1
   1  -8  -3 9038.75 1184.02   3
  -1   8   3 9865.58 1246.38   1
   1   8  -3 9821.77 670.174   3
   1  -8  -2 11424.1 1252.79   3
  -1   8   2 13351.4 1436.47   1
   1  -8  -1 24765.4 1770.39   3
  -1   8   1 25798.6 1994.07   1
  -1   8   0 11771.9 1196.27   3
   1  -8   0 10323.2 1101.10   3
  -1  -8   0 10861.2 758.770   3
   1   8   1 3780.18 833.625   1
   1  -8   1 2622.84 537.233   3
  -1   8  -1 3573.49 645.818   3
  -1  -8  -1 3583.68 513.892   3
  -1   8  -2 11518.3 1162.40   3
   1   8   2 12622.3 1528.33   1
   1   8   3 48946.7 3037.35   1
  -1   8  -3 49326.9 2437.02   3
   1   8   4 1704.21 506.573   1
  -1   8  -4 1996.45 505.808   3
   1   8   5 4976.65 983.425   1
   1   8   6 7241.43 1281.24   1
   1   8   7 29413.1 2573.70   1
   1   8   7 27976.4 1884.38   2
   1   8   8 2532.07 803.517   1
   1   8   8 3010.43 584.887   2
   1   8   9 12734.2 1196.59   2
   1   8   9 15921.8 2019.81   1
   1   8  10 21864.0 2455.08   1
   1   8  11-64.6838 351.316   1
   1   8  12 434.672 518.502   1
   1   8  13 3303.81 1049.37   1
   1   8  14 3149.08 1074.98   1
   1   8  15 590.564 477.989   1
   1   8  16 1284.90 765.821   1
   1   8  17-1.45949 453.646   1
   1   8  18 1101.35 740.305   1
  -1   9  18 174.598 242.727   1
  -1   9  17-319.502 402.127   1
  -1   9  16 409.884 447.573   1
  -1   9  15 1117.11 632.749   1
  -1   9  14 5619.88 1436.77   1
  -1   9  13 527.819 454.530   1
  -1   9  12 10028.0 1735.63   1
  -1   9  11-171.345 453.386   1
  -1   9  10 977.760 466.087   1
  -1   9   9 15983.5 973.526   2
  -1   9   9 16340.6 1991.35   1
  -1   9   8 4563.34 1020.37   1
  -1   9   8 5283.41 716.618   4
  -1   9   8 5036.80 650.172   2
  -1   9   7 10309.4 1030.34   4
  -1   9   7 11816.5 1108.31   2
  -1   9   7 11219.0 1536.21   1
  -1   9   6 49584.0 3152.36   1
  -1   9   5 2505.55 677.126   1
   1   9  -5 1581.64 352.413   3
   1  -9  -5 2763.99 763.077   3
  -1   9   4 1237.55 475.783   1
   1   9  -4 1475.10 300.120   3
   1  -9  -4 1842.27 594.226   3
  -1   9   3 683.450 328.240   1
   1  -9  -3 197.280 261.615   3
   1   9  -3 688.014 182.428   3
  -1   9   2 4945.57 931.514   1
   1  -9  -2 4940.39 844.549   3
   1  -9  -1 21022.0 1708.28   3
  -1   9   1 23241.8 2014.28   1
   1  -9   0-30.3538 129.747   3
  -1  -9   0-143.697 100.104   3
   1   9   1 17073.4 1864.55   1
  -1   9  -1 17863.6 1524.96   3
   1  -9   1 17519.4 1475.30   3
  -1  -9  -1 18191.4 1198.97   3
   1   9   2 12440.0 1600.13   1
  -1   9  -2 10136.7 1139.55   3
  -1  -9  -2 10918.2 1074.42   3
   1   9   3 8913.70 1349.67   1
  -1   9  -3 8117.83 1032.55   3
   1   9   4 3453.21 837.216   1
   1   9   5 1830.04 721.864   1
   1   9   6 1008.53 427.883   1
   1   9   7 198.999 259.197   1
   1   9   8 2826.66 865.095   1
   1   9   9 432.844 359.464   1
   1   9  10 22954.6 2601.86   1
   1   9  11 760.737 630.760   1
   1   9  12 32446.6 3291.10   1
   1   9  13 8296.71 1680.58   1
   1   9  14 11891.0 2133.31   1
   1   9  15 1994.62 950.913   1
   1   9  16 2038.14 1003.98   1
   1   9  17 4145.73 1420.82   1
   1   9  18-293.678 417.097   1
  -1  10  18 314.374 406.531   1
  -1  10  17 2503.61 1050.34   1
  -1  10  16 2038.64 926.386   1
  -1  10  15 1181.35 691.773   1
  -1  10  14 308.654 297.844   1
  -1  10  13 1116.50 656.691   1
  -1  10  12 4604.49 1219.69   1
  -1  10  11 2839.50 910.568   1
  -1  10  10 13783.9 1958.66   1
  -1  10   9 6046.60 1274.94   1
  -1  10   8 14552.1 1892.10   1
  -1  10   8 11227.0 1083.82   2
  -1  10   7 11240.4 1594.69   1
   1 -10  -6-133.062 228.565   3
   1  10  -6 82.0815 94.1500   3
  -1  10   6-139.671 361.943   1
   1 -10  -5 28057.9 2451.51   3
  -1  10   5 31526.1 2580.35   1
   1  10  -5 27268.3 1443.89   3
  -1  10   4 168.353 174.493   1
   1  10  -4 417.497 166.930   3
   1 -10  -4 320.266 234.395   3
  -1  10   3 4461.07 923.650   1
   1 -10  -3 6063.84 1036.30   3
  -1  10   2-97.8885 258.248   1
   1 -10  -2 46.3544 202.320   3
  -1  10   1 2351.52 703.799   1
   1 -10  -1 1843.25 533.473   3
   1  10   0 120.475 271.681   1
  -1 -10   0 60.0859 58.4972   3
   1 -10   0 81.9428 161.602   3
   1  10   1 77.1113 254.123   1
  -1 -10  -1 0.55482 96.1369   3
   1  10   2 1900.62 606.428   1
  -1 -10  -2 2095.78 489.414   3
   1  10   3 7640.21 1315.76   1
  -1 -10  -3 5769.56 878.343   3
   1  10   4 87.7716 198.696   1
   1  10   5 1670.33 664.337   1
   1  10   6 357.068 232.026   1
   1  10   7 1711.57 238.033   4
   1  10   7 1752.90 667.674   1
   1  10   8 15336.1 2065.51   1
   1  10   9 5449.82 1249.82   1
   1  10  10 21.2316 355.610   1
   1  10  11 2430.87 888.967   1
   1  10  12 220.788 212.938   1
   1  10  13-126.956 261.468   1
   1  10  14 759.732 446.638   1
   1  10  15 3401.22 1197.34   1
   1  10  16 2527.02 1032.35   1
   1  10  17-717.098 614.787   1
  -1  11  17 821.224 631.116   1
  -1  11  16-431.581 457.665   1
  -1  11  15-531.302 474.615   1
  -1  11  14 1451.97 736.048   1
  -1  11  13 3189.41 1028.43   1
  -1  11  12-315.510 353.450   1
  -1  11  11 2390.62 910.108   1
  -1  11  10 6847.32 1434.67   1
  -1  11   9 4385.91 1106.55   1
  -1  11   8 2151.63 769.098   1
   1 -11  -7 4315.11 1066.73   3
  -1  11   7 5001.51 1114.94   1
   1 -11  -6 31970.1 2814.30   3
  -1  11   6 39920.1 3081.87   1
   1 -11  -5 1242.07 487.316   3
   1  11  -5 2308.75 421.095   3
  -1  11   5 1252.71 599.109   1
  -1  11   4 2047.73 681.812   1
   1 -11  -4 2079.63 662.943   3
   1  11  -4 2009.62 358.955   3
   1 -11  -3 6263.66 1098.45   3
  -1  11   3 6467.30 1206.84   1
   1 -11  -2 9210.77 1259.14   3
  -1  11   2 8235.33 1369.73   1
  -1  11   1 4023.34 955.472   1
   1 -11  -1 3293.89 713.735   3
   1  11   0 3556.31 947.274   1
  -1 -11   0 2380.98 420.307   3
   1 -11   0 3007.61 649.248   3
  -1 -11  -1 2365.08 482.180   3
   1  11   1 2665.18 823.666   1
  -1 -11  -2 1998.11 493.991   3
   1  11   2 1076.78 518.511   1
  -1 -11  -3-301.155 214.230   3
   1  11   3 74.0028 258.223   1
   1  11   4-146.956 375.053   1
   1  11   5 495.824 386.141   1
   1  11   6-301.093 452.959   1
   1  11   7 1356.61 586.037   1
   1  11   8 1476.67 593.565   1
   1  11   9 233.171 343.817   1
   1  11  10 720.809 536.817   1
   1  11  11 1468.66 618.157   1
   1  11  12 2133.89 895.013   1
   1  11  13 312.643 417.507   1
   1  11  14-577.749 511.927   1
   1  11  15-825.025 622.373   1
   1  11  16 1367.26 726.365   1
   1  11  17 1285.73 782.574   1
  -1  12  17-514.053 522.298   1
  -1  12  16 44.8969 228.931   1
  -1  12  15 1427.81 820.952   1
  -1  12  14 1656.31 840.626   1
  -1  12  13 127.097 376.912   1
  -1  12  12 885.889 533.106   1
  -1  12  11 365.335 358.554   1
  -1  12  10 199.394 379.708   1
  -1  12   9 581.117 419.802   1
   1 -12  -8 1081.42 615.941   3
  -1  12   8-330.899 325.968   1
  -1  12   7 4565.79 1097.26   1
   1 -12  -7 3404.84 1005.25   3
   1 -12  -6 23156.0 2437.67   3
  -1  12   6 26701.7 2618.96   1
   1 -12  -5 17891.5 2039.20   3
  -1  12   5 17266.3 2087.53   1
  -1  12   4 31054.5 2774.43   1
   1 -12  -4 29866.5 2538.71   3
  -1  12   3 1375.41 556.011   1
   1 -12  -3 2116.25 696.892   3
  -1  12   2 7939.01 1380.55   1
   1 -12  -2 10960.9 1416.38   3
  -1  12   1 555.636 412.263   1
   1 -12  -1 260.260 95.2083   3
   1 -12   0 6685.88 1030.41   3
   1  12   0 7173.68 1424.58   1
  -1  12   0 5078.24 1121.84   1
  -1 -12   0 6589.21 730.317   3
   1  12   1-1077.41 557.810   1
  -1 -12  -1 49.7677 134.770   3
   1  12   2 10289.9 1695.14   1
  -1 -12  -2 10094.2 1124.67   3
   1  12   3 8057.98 1502.96   1
  -1 -12  -3 9203.85 1169.96   3
   1  12   4 1128.92 505.067   1
  -1 -12  -4 1255.92 493.677   3
   1  12   5 7240.51 1434.71   1
   1  12   6 981.008 593.414   1
   1  12   7 787.171 538.416   1
   1  12   8 1788.54 739.562   1
   1  12   9-53.7397 332.003   1
   1  12  10 8336.32 1716.47   1
   1  12  11 858.674 485.602   1
   1  12  12-138.400 171.797   1
   1  12  13-542.433 499.207   1
   1  12  14-515.565 490.014   1
   1  12  15 1134.85 765.096   1
   1  12  16 1365.95 823.492   1
  -1  13  16 168.434 319.704   1
  -1  13  15 407.779 597.792   1
  -1  13  14 33.3465 162.165   1
  -1  13  13 607.751 461.481   1
  -1  13  12 136.546 370.777   1
  -1  13  11-72.5081 217.241   1
  -1  13  10 5409.12 1335.58   1
   1 -13 -10 5638.26 1441.45   3
  -1  13   9 3402.06 1082.32   1
   1 -13  -9 2718.45 991.190   3
   1 -13  -8 966.515 592.083   3
  -1  13   8 2126.96 821.099   1
   1 -13  -7 6960.16 1420.62   3
  -1  13   7 4402.09 1152.29   1
  -1  13   6 273.265 218.161   1
   1 -13  -6 602.117 428.573   3
   1 -13  -5 1244.99 539.662   3
  -1  13   5 978.957 538.462   1
  -1  13   4 129.159 160.641   1
   1 -13  -4-12.8090 284.780   3
   1 -13  -3 8261.64 1317.42   3
  -1  13   3 9375.25 1588.51   1
  -1  13   2 1268.93 593.532   1
   1 -13  -2 594.274 355.328   3
   1 -13  -1 6323.52 1066.30   3
  -1  13   1 4621.20 1105.32   1
   1  13   0 3024.30 955.664   1
   1 -13   0 3268.13 740.690   3
  -1  13   0 2665.12 808.631   1
   1  13   1 6181.26 1362.44   1
  -1 -13  -1 5628.92 773.310   3
  -1 -13  -2 2030.39 513.784   3
   1  13   2 3396.58 998.937   1
   1  13   3 118.757 265.386   1
  -1 -13  -3 409.462 304.587   3
   1  13   4 543.437 310.973   1
  -1 -13  -4 896.478 387.500   3
  -1 -13  -5 3484.74 853.814   3
   1  13   5 5230.55 1282.33   1
  -1 -13  -6 4567.50 1033.84   3
   1  13   6 3287.54 1015.05   1
   1  13   7 5668.18 1355.40   1
   1  13   8-160.117 283.854   1
   1  13   9 2383.04 906.910   1
   1  13  10 3768.71 1149.79   1
   1  13  11 1063.18 640.887   1
   1  13  12 2762.95 1089.90   1
   1  13  13 120.653 307.531   1
   1  13  14 1296.59 783.006   1
   1  13  15 1884.28 967.213   1
  -1  14  15 2016.87 985.454   1
  -1  14  14 374.375 426.728   1
  -1  14  13 846.349 621.901   1
  -1  14  12-105.212 239.642   1
   1 -14 -12 68.2413 232.801   3
  -1  14  11-507.646 451.087   1
   1 -14 -11 205.102 328.973   3
   1 -14 -10 157.101 297.252   3
  -1  14  10-446.792 411.956   1
  -1  14   9 16535.2 2359.17   1
   1 -14  -9 12522.3 2108.95   3
  -1  14   8 7476.74 1577.86   1
   1 -14  -8 11038.9 1906.54   3
   1 -14  -7 1914.77 797.769   3
  -1  14   7 1499.33 653.167   1
   1 -14  -6 1332.82 626.300   3
  -1  14   6 26.1118 274.885   1
  -1  14   5 1381.81 597.186   1
   1 -14  -5 3059.01 898.574   3
  -1  14   4 1132.04 535.546   1
   1 -14  -4 1452.66 652.095   3
  -1  14   3 421.071 291.191   1
   1 -14  -3 916.021 457.547   3
  -1  14   2 2087.82 816.815   1
   1 -14  -2 1551.85 531.895   3
  -1  14   1-85.0433 238.644   1
   1  14  -1 8.42367 420.974   1
   1 -14  -1 61.1016 138.488   3
   1  14   0 3483.87 1070.56   1
  -1  14   0 4537.76 1145.86   1
  -1  14  -1 342.441 317.603   1
   1  14   1 416.960 363.166   1
   1  14   2 5978.96 1412.75   1
   1  14   3 3643.47 1130.05   1
  -1 -14  -3 3582.09 759.972   3
  -1 -14  -4 4794.81 933.129   3
   1  14   4 3205.54 1047.78   1
   1  14   5 51.9257 205.244   1
  -1 -14  -5 203.305 122.342   3
  -1 -14  -6 2652.28 781.462   3
   1  14   6 1610.08 803.006   1
   1  14   7-226.137 524.811   1
  -1 -14  -7 244.591 365.280   3
   1  14   8-230.093 201.314   1
   1  14   9 59.3150 337.171   1
   1  14  10 1045.15 614.425   1
   1  14  11 657.750 596.559   1
   1  14  12 740.032 640.152   1
   1  14  13 36.0042 205.879   1
   1  14  14-126.731 520.524   1
   1 -15 -15 333.376 490.593   3
  -1  15  15-111.374 263.409   1
  -1  15  14 529.328 514.528   1
   1 -15 -14 1440.93 866.367   3
   1 -15 -13 2771.71 1124.17   3
  -1  15  13 1512.83 826.094   1
  -1  15  12 937.749 663.380   1
   1 -15 -12 1223.65 760.274   3
   1 -15 -11 1992.59 984.768   3
  -1  15  11 3242.08 1163.36   1
   1 -15 -10-724.448 553.215   3
  -1  15  10-552.166 475.477   1
   1 -15  -9 1421.55 673.476   3
  -1  15   9 803.478 532.126   1
  -1  15   8 708.181 510.440   1
   1 -15  -8 1082.74 617.625   3
  -1  15   7 1502.33 715.696   1
   1 -15  -7 2684.93 942.488   3
  -1  15   6 1903.25 805.469   1
   1 -15  -6 2665.33 902.050   3
   1 -15  -5 13928.3 1947.90   3
  -1  15   5 13530.6 2107.39   1
   1 -15  -4 908.230 534.988   3
  -1  15   4-72.2244 223.140   1
  -1  15   3 11473.2 1908.85   1
   1 -15  -3 9759.30 1502.94   3
   1 -15  -2 4272.88 953.100   3
  -1  15   2 4357.30 1152.09   1
   1  15  -1-264.139 345.116   1
  -1  15   1-420.554 538.511   1
   1 -15  -1 326.819 159.533   3
  -1  15   0 6052.55 1404.84   1
   1  15   0 6854.62 1584.95   1
   1  15   1 2817.38 1068.12   1
  -1  15  -1 2381.88 951.776   1
   1  15   2 11198.9 1989.28   1
   1  15   3-276.127 581.205   1
   1  15   4 2350.60 984.680   1
   1  15   5 6228.01 1548.05   1
   1  15   6 8628.36 1801.54   1
   1  15   7 3553.78 1135.30   1
  -1 -15  -8 263.389 301.426   3
   1  15   8-62.6841 234.216   1
  -1 -15  -9 183.863 244.101   3
   1  15   9 449.754 439.964   1
   1  15  10 931.155 641.411   1
   1  15  11 958.442 668.220   1
   1  15  12-161.083 328.285   1
   1  15  13 5340.61 1571.62   1
  -1  16  14 322.656 430.739   1
   1 -16 -14 468.369 590.222   3
  -1  16  13-343.590 411.974   1
   1 -16 -13 204.476 355.019   3
   1 -16 -12 1056.20 813.496   3
  -1  16  12 170.450 321.179   1
  -1  16  11-79.8773 369.140   1
   1 -16 -11-735.469 579.793   3
  -1  16  10 434.395 394.333   1
   1 -16 -10 28.3103 186.367   3
   1 -16  -9 1031.01 517.413   3
  -1  16   9 1301.49 734.166   1
   1 -16  -8 292.982 394.426   3
  -1  16   8 550.528 495.271   1
  -1  16   7-359.239 394.718   1
   1 -16  -7 78.5705 327.458   3
  -1  16   6 563.711 394.542   1
   1 -16  -6 602.841 455.771   3
  -1  16   5 3696.22 1135.79   1
   1 -16  -5 4816.86 1162.97   3
  -1  16   4 61.8878 430.993   1
  -1  16   3 18552.9 2537.00   1
   1  16  -2 430.248 721.277   1
  -1  16   2-215.010 213.314   1
   1  16  -1 1876.26 821.925   1
  -1  16   1 672.593 471.070   1
   1  16   0 312.646 389.443   1
  -1  16   0-162.653 333.186   1
   1  16   1-53.3709 212.269   1
  -1  16  -1-612.741 485.846   1
  -1  16  -2 3256.18 1100.50   1
   1  16   2 2517.82 946.252   1
   1  16   3 3368.35 1147.16   1
   1  16   4 8398.00 1813.57   1
   1  16   5-808.997 573.956   1
   1  16   6 57.6356 228.122   1
   1  16   7 617.763 484.316   1
   1  16   8 440.785 483.877   1
   1  16   9 3161.28 1153.45   1
   1  16  10 1068.80 684.770   1
   1  16  11-110.500 278.649   1
   1  16  12 696.442 679.572   1
  -1  17  12 480.313 485.093   1
  -1  17  11 1042.82 808.256   1
  -1  17  10 1070.68 682.784   1
  -1  17   9-269.500 363.263   1
  -1  17   8 351.274 397.717   1
  -1  17   7 320.009 379.016   1
  -1  17   6-429.090 428.584   1
  -1  17   5 5727.02 1466.01   1
  -1  17   4 663.208 441.870   1
  -1  17   3 611.966 494.626   1
   1  17  -2 4098.25 1313.10   1
  -1  17   2 4956.49 1385.51   1
   1  17  -1 3596.33 1224.59   1
  -1  17   1 2825.35 1005.00   1
   1  17   0 360.845 420.140   1
  -1  17   0 424.517 475.639   1
  -1  17  -1 1665.68 808.320   1
   1  17   1-600.289 523.128   1
  -1  17  -2 1076.07 628.210   1
   1  17   2 637.706 361.190   1
   1  17   3 60.0379 232.604   1
   1  17   4 1084.61 741.157   1
   1  17   5 715.492 481.496   1
   1  17   6-814.699 600.299   1
   1  17   7 4241.65 1324.96   1
   1  17   8-119.592 294.388   1
   1  17   9 852.842 645.324   1
   1  17  10 54.9637 200.546   1
   1  17  11 1290.12 727.306   1
  -1  18  11 1765.38 887.705   1
  -1  18  10 314.693 327.656   1
  -1  18   9 62.8183 218.155   1
  -1  18   8-226.922 345.220   1
  -1  18   7 1054.31 643.023   1
  -1  18   6 648.615 573.948   1
  -1  18   5-990.655 649.460   1
  -1  18   4 833.807 561.340   1
   1  18  -3 2102.23 976.928   1
  -1  18   3 1481.21 781.679   1
  -1  18   2-291.898 371.970   1
   1  18  -2 457.247 497.425   1
   1  18  -1 1216.01 752.193   1
  -1  18   1 2109.39 923.927   1
  -1  18   0 649.345 466.507   1
   1  18   0-236.057 261.447   1
   1  18   1 1475.61 800.228   1
  -1  18  -1 1341.39 784.181   1
   1  18   2 1127.79 724.449   1
  -1  18  -2 386.355 299.867   1
   1  18   3 1111.05 852.481   1
  -1  18  -3 89.9772 245.999   1
   1  18   4-592.082 542.128   1
   1  18   5 1124.06 823.800   1
   1  18   6 2135.25 1048.16   1
   1  18   7-129.226 365.537   1
   1  18   8 1117.85 735.713   1
   1  18   9 3163.98 1284.81   1
  -1  19   9-191.831 316.983   1
  -1  19   8-262.833 378.810   1
  -1  19   7 2156.31 1006.19   1
  -1  19   6-564.216 531.873   1
  -1  19   5 1639.48 872.952   1
   1  19  -4-528.490 543.249   1
  -1  19   4 763.390 601.127   1
   1  19  -3 774.714 645.200   1
  -1  19   3 512.764 326.935   1
   1  19  -2 414.107 519.660   1
  -1  19   2 104.774 263.805   1
   1  19  -1 2056.52 1009.01   1
  -1  19   1 2881.00 1124.55   1
  -1  19   0 1090.15 710.707   1
   1  19   0-623.547 576.413   1
   1  19   1 1132.94 755.944   1
  -1  19  -1 845.534 631.956   1
   1  19   2 60.0364 241.693   1
  -1  19  -2 559.193 515.619   1
   1  19   3 1825.24 991.283   1
  -1  19  -3 1688.71 886.420   1
  -1  19  -4 77.7319 307.680   1
   1  19   4-604.211 558.699   1
   1  19   5 255.831 381.277   1
   1  19   6-237.275 368.744   1
   1  19   7 428.406 496.937   1
  -1  20   7 880.164 667.348   1
  -1  20   6-790.566 612.374   1
  -1  20   5 1782.50 915.234   1
  -1  20   4-1378.64 813.384   1
  -1  20   3 3856.52 1323.86   1
   1  20  -3 2187.97 1066.78   1
  -1  20   2 53.4991 261.656   1
   1  20  -2-485.636 538.719   1
   1  20  -1 484.387 610.025   1
  -1  20   1-1241.26 780.690   1
  -1  20   0 291.760 403.020   1
   1  20   0 199.485 349.925   1
  -1  20  -1 1958.52 991.338   1
   1  20   1 4053.43 1422.72   1
   1  20   2 1156.77 768.073   1
  -1  20  -2 403.060 418.151   1
   1  20   3 978.480 795.091   1
  -1  20  -3 1683.67 907.428   1
  -1  20  -4 63.4464 261.763   1
  -1  21   2-531.221 529.669   1
  -1  21   1 569.465 549.744   1
  -1  21   0-136.968 297.382   1
  -2   0  20-584.025 569.025   1
  -2   0  19-408.338 462.194   1
   2   0 -18 5861.22 1368.69   4
  -2   0  18 5237.58 1506.11   1
  -2   0  17-12.7087 380.179   1
   2   0 -17 19.3433 148.782   4
  -2   0  16-45.5832 185.854   1
  -2   0  15 12.8608 157.664   1
  -2   0  14 574.597 455.423   1
  -2   0  13 47.2011 319.907   1
  -2   0  12 7985.76 1429.10   1
  -2   0  11-54.4277 134.269   1
  -2   0  10 2860.07 770.097   1
  -2   0   9 63.5725 145.895   1
  -2   0   8 43170.3 2645.91   1
  -2   0   7-104.701 90.4537   1
  -2   0   6 27043.0 1792.86   1
   2   0  -6 27869.5 1769.02   1
   2   0  -5-165.668 129.420   1
   2   0  -5 42.4812 70.0319   2
  -2   0   5-66.4241 105.746   1
   2   0  -5 78.9808 123.896   4
   2   0  -4 135328. 3170.21   1
   2   0  -4 131402. 3701.96   4
   2   0  -4 128935. 2848.52   2
  -2   0   4 129366. 3146.73   1
   2   0  -3-33.6110 71.9227   1
  -2   0   3-39.4785 60.0549   2
  -2   0   3-263.213 125.388   1
   2   0  -3 94.1652 138.311   4
   2   0  -3 13.3090 50.3232   2
   2   0  -2 977107. 8820.93   4
   2   0  -2 976305. 7681.42   2
   2   0  -2 962648. 6192.28   1
   2   0  -2 956566. 8503.22   3
   2   0  -1-73.6919 86.4194   4
   2   0  -1-43.1045 90.5975   2
   2   0  -1-11.5200 58.4822   3
  -2   0   0 1895.12 228.911   1
   2   0   0 2078.86 369.922   2
   2   0   0 1218.52 293.062   3
   2   0   0 1561.55 198.663   1
  -2   0  -1 57.1527 55.4192   1
   2   0   1-43.1047 70.3092   1
   2   0   2 57125.2 1784.67   1
   2   0   3-81.0108 75.4035   1
   2   0   4 112710. 3260.31   1
   2   0   5-4.61150 166.660   1
   2   0   6 187050. 5049.05   1
   2   0   7 300.867 360.786   1
   2   0   8 29650.5 2318.17   1
   2   0   9-78.1006 308.776   1
   2   0  10-236.644 354.004   1
   2   0  11-28.3805 216.660   1
   2   0  12 30046.5 2919.28   1
   2   0  13-77.1733 273.015   1
   2   0  14 3060.16 1020.88   1
   2   0  15-394.110 404.541   1
   2   0  16 47.8640 223.486   1
   2   0  17-120.408 219.232   1
   2   0  18 491.175 522.128   1
   2   0  19 253.891 448.777   1
  -2  -1  20-1.62772 157.428   1
  -2   1  20 212.451 370.663   1
  -2   1  19-1236.48 777.426   1
  -2  -1  19 81.3398 198.004   1
  -2   1  18 1488.40 889.475   1
  -2  -1  18 2566.56 1047.48   1
  -2  -1  17 217.217 209.932   1
   2  -1 -17-117.985 231.074   4
  -2  -1  16 248.844 317.148   1
   2  -1 -16-104.936 201.809   4
   2  -1 -15-16.8847 218.526   4
  -2  -1  15-368.806 447.590   1
  -2   1  15 146.765 268.127   1
  -2   1  14 49.5082 373.047   1
   2  -1 -14-333.745 370.636   4
  -2  -1  14-284.687 441.288   1
   2  -1 -13 568.986 344.941   4
  -2  -1  13 195.670 431.921   1
  -2   1  13 382.591 290.468   1
   2  -1 -12 5927.64 1095.24   4
  -2  -1  12 5064.04 1147.05   1
  -2   1  12 3517.69 917.242   1
  -2   1  11 4495.65 1021.08   1
   2  -1 -11 3585.93 823.569   4
  -2  -1  11 5859.74 1192.21   1
  -2   1  10 6083.96 1102.25   1
  -2  -1  10 6393.59 1166.00   1
   2  -1 -10 5811.17 997.292   4
  -2  -1   9 308.663 274.756   1
   2  -1  -9 187.670 204.877   4
  -2   1   9 679.854 391.782   1
   2  -1  -8 291.905 137.027   2
  -2  -1   8 252.869 191.212   1
  -2   1   8 287.904 289.100   1
   2  -1  -8 558.874 315.490   4
   2  -1  -7 19317.4 1606.08   4
   2  -1  -7 17987.8 971.603   2
  -2   1   7 17649.7 1535.82   1
  -2  -1   7 17725.2 1600.58   1
   2  -1  -6 2859.10 544.014   1
   2  -1  -6 2608.13 360.726   2
  -2   1   6 2451.03 544.488   1
  -2  -1   6 2386.52 545.029   1
   2  -1  -6 2000.20 490.175   4
   2   1  -6 2937.39 601.451   1
   2  -1  -5 29501.9 1778.04   4
   2   1  -5 31336.3 1804.83   1
   2  -1  -5 29459.6 1172.18   2
  -2  -1   5 29810.4 1780.59   1
  -2   1   5 29694.7 1640.49   1
   2  -1  -5 30252.5 1629.39   1
   2  -1  -4 17456.5 891.674   2
   2   1  -4 18178.6 1245.60   1
   2  -1  -4 18519.5 1118.36   1
  -2   1   4 18173.7 1132.45   1
   2  -1  -4 17453.6 1297.46   4
   2   1  -3 21431.7 1219.64   1
  -2   1   3 20911.5 1018.70   1
   2  -1  -3 22463.0 1393.07   4
   2  -1  -3 20000.7 1422.09   3
   2  -1  -3 20523.9 992.014   1
  -2   1   3 21282.8 1028.64   2
   2   1  -3 20300.2 1246.04   2
   2  -1  -3 20711.2 996.701   2
  -2   1   2 141469. 2003.48   1
  -2   1   2 140620. 2704.78   2
   2   1  -2 141292. 3006.12   3
   2   1  -2 137077. 3424.62   4
   2  -1  -2 135979. 3426.54   3
   2   1  -2 135767. 3188.68   2
   2  -1  -2 138420. 1972.40   1
   2   1  -1 222206. 3493.63   3
   2   1  -1 224572. 4029.06   4
   2  -1  -1 220385. 4131.72   3
   2   1  -1 222566. 4042.04   2
   2  -1   0 9704.26 845.495   3
   2   1   0 9312.23 831.171   2
   2   1   0 8556.23 735.348   4
   2   1   0 9409.86 652.727   1
  -2   1  -1 608957. 4344.93   1
   2   1   1 607579. 5602.48   1
   2  -1   1 617518. 4377.38   1
   2   1   1 610539. 6822.19   2
  -2   1  -2 48272.2 1572.86   1
   2   1   2 50526.3 1792.26   1
   2  -1   2 48396.2 1592.48   1
   2   1   3 60895.8 2202.85   1
   2  -1   3 61454.9 2109.12   1
  -2   1  -3 60914.4 2080.66   1
  -2   1  -4 71672.4 2547.19   1
  -2  -1  -4 72089.9 2580.66   2
   2   1   4 69484.9 2638.07   1
   2  -1   4 70637.8 2554.17   1
   2  -1   5 7596.04 930.499   1
   2   1   5 5892.42 850.993   1
   2   1   6 2935.47 636.989   1
   2  -1   6 2815.45 602.163   1
   2  -1   7 928.130 388.285   1
   2   1   7 653.291 315.569   1
   2   1   8 19317.7 1869.23   1
   2  -1   8 16796.3 1741.82   1
   2  -1   9 51303.5 3246.18   1
   2   1   9 44072.1 3037.36   1
   2   1  10 8431.78 1376.02   1
   2  -1  10 8042.37 1356.69   1
   2   1  11 3053.29 923.163   1
   2  -1  11 2651.62 780.813   1
   2  -1  12 31437.6 2968.88   1
   2   1  12 31908.1 2991.01   1
   2   1  13 3065.96 956.376   1
   2  -1  13 3997.05 1090.40   1
   2  -1  14-88.4756 308.172   1
   2   1  14-110.424 195.927   1
   2  -1  15 347.914 351.079   1
   2   1  15 32.2448 281.545   1
   2  -1  16 4755.57 1363.72   1
   2   1  16 6551.86 1642.23   1
   2  -1  17 3330.53 1126.64   1
   2   1  17 3096.98 1198.35   1
   2  -1  18-958.709 689.354   1
   2   1  18 821.596 702.563   1
   2  -1  19 2668.18 1156.19   1
   2   1  19 632.667 519.595   1
  -2  -2  20 674.146 521.669   1
  -2   2  20 967.378 731.418   1
  -2   2  19-151.972 308.039   1
  -2  -2  19 191.609 345.979   1
  -2   2  18-359.289 402.246   1
  -2  -2  18-308.320 402.433   1
  -2  -2  17 519.662 396.013   1
  -2   2  17 521.389 333.240   1
  -2  -2  16 699.517 572.788   1
   2  -2 -16-172.853 309.165   4
  -2   2  15 232.081 260.484   1
   2  -2 -15-123.299 250.981   4
  -2  -2  15 79.8733 162.774   1
   2  -2 -14 29918.2 2607.06   4
  -2   2  14 30164.1 3026.84   1
  -2  -2  14 33471.4 3285.47   1
  -2  -2  13 3050.94 948.629   1
  -2   2  13 2989.28 892.115   1
   2  -2 -13 2982.47 787.016   4
  -2  -2  12 1138.71 503.343   1
  -2   2  12 3021.81 837.149   1
   2  -2 -12 2347.83 293.928   2
   2  -2 -12 3317.86 803.450   4
  -2   2  11 26543.2 2455.37   1
   2  -2 -11 24572.0 940.118   2
   2  -2 -11 30429.7 2325.02   4
  -2  -2  11 30856.0 2724.04   1
  -2  -2  10 1542.46 589.835   1
   2  -2 -10 730.062 154.988   2
   2  -2 -10 440.000 250.644   4
  -2   2  10 1096.14 495.650   1
  -2   2   9 1698.35 514.318   1
   2  -2  -9 1166.71 458.935   4
  -2  -2   9 2178.56 662.498   1
   2  -2  -9 1749.43 224.669   2
  -2  -2   8 24340.8 2068.83   1
   2  -2  -8 22082.8 1725.27   4
  -2   2   8 19847.5 1753.16   1
  -2  -2   7 3074.95 697.862   1
  -2   2   7 2532.66 582.815   1
   2  -2  -7 2427.09 553.352   4
  -2   2   6 14641.0 1272.97   1
   2  -2  -6 16965.4 1345.86   1
   2  -2  -6 15534.7 1329.54   4
   2   2  -5 18227.1 1453.54   1
   2  -2  -5 17682.9 1351.75   4
   2  -2  -5 16684.1 1212.06   1
  -2   2   5 16701.6 1209.61   1
   2  -2  -4 17136.1 1072.08   1
   2   2  -4 19113.1 1369.36   1
  -2   2   4 17475.6 818.673   2
  -2   2   4 16885.2 1275.10   4
  -2   2   4 16352.1 1063.70   1
   2  -2  -3 31963.6 1881.83   3
  -2   2   3 31447.9 1251.31   1
   2  -2  -3 32639.7 1245.70   1
  -2   2   3 33523.7 1199.68   2
   2  -2  -2 64875.6 1389.18   1
   2   2  -2 66188.0 2440.14   2
   2  -2  -2 62419.5 2480.52   3
   2   2  -2 65489.6 1838.43   3
  -2   2   2 66350.2 1395.25   1
   2   2  -1 953.300 196.444   3
   2   2  -1 1354.30 357.562   2
   2  -2  -1 939.516 308.118   3
  -2  -2   1 994.712 212.546   3
   2   2   0 19577.4 1303.96   2
   2   2   0 21822.2 1206.24   1
  -2  -2   0 22010.4 1026.03   3
   2   2   0 21798.8 1229.75   4
   2  -2   0 19270.1 1280.50   3
   2   2   1 110332. 3094.39   2
   2   2   1 118110. 2856.81   1
  -2   2  -1 111782. 2005.40   1
   2  -2   1 111605. 2030.45   1
  -2  -2  -1 110415. 2560.62   4
   2   2   1 108072. 2475.96   4
   2   2   2 84178.2 2564.01   1
   2   2   2 89364.9 2772.19   2
   2  -2   2 82309.0 2190.06   1
  -2   2  -2 85272.6 2160.40   1
  -2  -2  -2 80683.8 2019.03   4
   2  -2   3 19075.6 1213.04   1
   2   2   3 18621.9 1281.50   2
  -2   2  -3 20238.6 1223.61   1
   2   2   3 18508.8 1307.14   1
  -2  -2  -4 703.906 258.565   2
  -2   2  -4 808.177 283.961   1
   2   2   4 395.802 229.630   1
   2  -2   4 583.000 209.602   1
   2  -2   5 4918.21 768.601   1
  -2   2  -5 5961.97 825.573   1
   2   2   5 4117.27 723.659   1
  -2  -2  -5 5220.02 722.767   2
   2  -2   6 46911.4 2573.68   1
   2   2   6 47388.1 2642.85   1
  -2  -2  -6 43574.5 2164.66   2
   2   2   7-4.04868 149.745   1
   2  -2   7 579.290 308.917   1
  -2  -2  -7 516.107 246.421   2
  -2  -2  -8 36451.0 2108.37   2
   2   2   8 34917.2 2544.00   1
   2  -2   8 36302.7 2631.42   1
   2   2   9-38.8834 283.328   1
   2  -2   9-232.789 364.266   1
  -2  -2  -9 76.9386 176.661   2
   2   2  10 10357.7 1564.26   1
  -2  -2 -10 11114.4 1243.16   2
   2  -2  10 13055.0 1742.23   1
   2   2  11 4664.95 1111.10   1
  -2  -2 -11 3973.97 767.447   2
   2  -2  11 3940.02 969.011   1
   2  -2  12 13799.1 2007.71   1
   2   2  12 13393.4 1930.59   1
   2  -2  13 6158.66 1408.34   1
   2   2  13 6541.89 1399.25   1
   2   2  14-144.650 253.733   1
   2  -2  14-270.139 325.435   1
   2  -2  15 6290.80 1517.84   1
   2   2  15 7667.53 1696.15   1
   2  -2  16-76.4175 486.149   1
   2   2  16 15.0855 317.563   1
   2   2  17 299.447 195.128   1
   2  -2  17-812.553 617.013   1
   2  -2  18-143.169 317.903   1
   2   2  18 1007.38 647.649   1
   2  -2  19-350.582 451.158   1
   2   2  19 2246.88 944.410   1
  -2   3  20-974.921 715.531   1
  -2   3  19 2472.22 1049.68   1
  -2   3  18 1105.78 620.455   1
  -2  -3  17 908.746 639.728   1
  -2   3  17 572.390 332.555   1
  -2  -3  16 3779.74 1201.60   1
  -2   3  16 2905.17 1010.42   1
   2  -3 -15 2888.78 786.260   4
  -2  -3  15 3879.53 1190.08   1
  -2   3  15 3492.83 1071.97   1
  -2  -3  14 821.522 502.695   1
  -2   3  14 703.575 451.338   1
   2  -3 -14 1641.08 582.349   4
  -2  -3  13 8600.64 1610.75   1
  -2   3  13 7005.47 1406.50   1
   2  -3 -13 8348.08 1268.41   4
   2  -3 -12 8614.72 1234.67   4
  -2   3  12 7565.42 1367.45   1
  -2  -3  12 7398.62 1438.36   1
  -2  -3  11 4950.79 1137.02   1
  -2   3  11 5771.20 1153.34   1
   2  -3 -11 5309.66 937.465   4
   2  -3 -10 4950.11 860.839   4
  -2   3  10 5565.11 1081.43   1
  -2  -3  10 7023.15 1274.19   1
   2  -3  -9 15588.6 1468.97   4
  -2   3   9 13753.6 1574.27   1
   2  -3  -8 1445.29 431.335   4
  -2   3   8 1705.48 511.657   1
  -2   3   7 13357.9 1328.36   1
   2  -3  -7 12499.3 1211.52   4
   2  -3  -6 2274.69 490.659   1
  -2   3   6 2425.73 527.341   1
  -2   3   5 196675. 4533.55   4
   2  -3  -5 194015. 4174.95   1
  -2   3   5 192043. 2266.37   2
  -2   3   5 198216. 4235.04   1
   2  -3  -4 4273.00 557.828   1
  -2   3   4 3642.73 515.095   1
  -2   3   4 4276.49 392.547   2
  -2   3   4 4478.28 658.626   4
   2  -3  -3 42781.4 2303.83   3
  -2   3   3 41739.0 1523.89   1
   2  -3  -3 41552.2 1541.37   1
   2  -3  -2 96394.4 3250.60   3
   2  -3  -2 91996.3 1999.44   1
   2   3  -2 92816.9 1905.39   3
  -2   3   2 91176.5 1925.98   1
  -2   3   1 93663.1 1770.54   1
  -2  -3   1 92161.5 1769.05   3
   2  -3  -1 91298.5 3029.76   3
   2   3  -1 93194.6 3130.94   2
   2   3   0 967208. 9288.12   1
   2  -3   0 956791. 9756.28   3
   2   3   1 127084. 3533.54   2
   2   3   1 120477. 3293.23   1
  -2   3  -1 123659. 2463.24   1
   2   3   1 122467. 2753.26   4
   2   3   2 84280.8 2838.24   1
   2   3   2 85246.4 2889.30   2
  -2   3  -2 84980.8 2359.35   1
   2   3   2 84234.5 2031.08   4
   2  -3   3 29890.5 1589.15   1
  -2  -3  -3 29752.3 1734.29   2
   2   3   3 29898.7 1770.80   1
  -2   3  -3 30730.2 1601.15   1
   2   3   3 28055.6 1658.52   2
   2   3   4 592.808 233.415   2
  -2  -3  -4 313.346 185.917   2
  -2  -3  -4 605.921 146.110   4
   2   3   4 864.520 318.228   1
  -2   3  -4 534.405 229.610   1
   2  -3   4 941.006 317.032   1
   2   3   5 1008.18 368.057   1
   2  -3   5 1011.94 312.489   1
  -2  -3  -5 928.152 308.754   2
  -2   3  -5 782.296 316.485   1
   2   3   6 4243.29 822.181   1
  -2  -3  -6 4599.42 729.471   2
   2  -3   6 4951.19 850.554   1
   2  -3   7 7196.72 1103.83   1
  -2  -3  -7 7051.72 904.140   2
   2   3   7 7723.52 1168.64   1
   2  -3   8 56031.6 3283.77   1
   2   3   8 56013.2 3277.98   1
  -2  -3  -8 48394.2 2441.73   2
  -2  -3  -9 17004.9 1491.62   2
   2  -3   9 16006.1 1850.92   1
   2   3   9 16069.9 1852.68   1
  -2  -3 -10 13737.9 1371.75   2
   2  -3  10 16084.3 1957.78   1
   2   3  10 12875.9 1767.87   1
  -2  -3 -11 2105.38 544.484   2
   2  -3  11 1785.75 713.173   1
   2   3  11 2935.56 868.441   1
   2   3  12 1864.84 713.433   1
  -2  -3 -12 1084.48 436.584   2
   2  -3  12 1150.07 592.619   1
   2  -3  13 760.719 523.574   1
   2   3  13 630.672 475.958   1
   2   3  14 1102.07 680.197   1
   2  -3  14 571.964 432.533   1
   2  -3  15 2228.84 990.794   1
   2   3  15 833.970 532.922   1
   2   3  16 59.4512 291.909   1
   2  -3  16 369.669 247.332   1
   2  -3  17 998.280 664.097   1
   2   3  17 39.7806 303.498   1
   2  -3  18-511.100 422.623   1
   2   3  18 1097.57 740.583   1
   2  -3  19 798.229 619.759   1
   2   3  19 993.962 705.754   1
  -2   4  20-161.677 327.838   1
  -2   4  19 265.870 360.707   1
  -2   4  18-411.915 453.216   1
  -2   4  17 462.271 468.299   1
  -2   4  16-436.167 418.471   1
  -2   4  15 6495.91 1466.86   1
   2  -4 -15 6129.70 1109.47   4
   2  -4 -14 22616.5 2078.26   4
  -2   4  14 18983.9 2411.75   1
  -2   4  13 1719.62 602.295   1
   2  -4 -13 2428.35 664.041   4
   2  -4 -12 178.926 217.866   4
  -2   4  12 176.791 347.393   1
  -2   4  11 1196.09 508.711   1
   2  -4 -11 726.627 313.759   4
  -2   4  10 1131.45 470.131   1
   2  -4 -10 1560.84 500.128   4
  -2   4   9 4338.91 892.047   1
  -2   4   8 56912.3 3004.68   1
  -2   4   7 3585.44 698.921   1
   2  -4  -6 15003.0 1318.77   1
  -2   4   6 14247.0 1286.28   1
  -2   4   6 14625.5 1284.25   4
  -2   4   5 27943.0 1662.47   1
  -2   4   5 28282.2 1718.61   4
   2  -4  -5 26350.0 1612.44   1
   2  -4  -4 12785.3 1033.23   1
  -2   4   4 14337.5 1082.39   1
  -2   4   4 14311.6 1194.41   4
  -2   4   3 20625.3 1181.38   1
   2  -4  -3 20720.9 1214.97   1
   2  -4  -3 21938.0 1717.78   3
  -2   4   2 4320.40 507.979   1
   2  -4  -2 3498.28 642.534   3
   2   4  -2 3953.42 326.131   3
  -2   4   1 106034. 2408.26   1
   2  -4  -1 106847. 3475.54   3
   2   4   0 511364. 7742.85   2
   2  -4   0 513821. 7348.59   3
   2   4   1-28.3192 160.238   2
   2   4   1 284.050 225.884   1
   2  -4   1-78.5468 246.673   3
   2   4   2 1238.86 382.313   2
   2   4   2 2063.36 345.767   4
   2   4   2 1386.52 426.302   1
  -2   4  -2 2183.58 412.509   1
   2   4   3 132541. 4032.32   1
   2   4   3 132161. 3826.47   2
   2   4   3 134376. 2338.26   4
  -2   4  -3 135320. 3590.22   1
  -2  -4  -3 128900. 3846.77   2
  -2   4  -4 5098.39 759.677   1
   2   4   4 7161.29 989.235   1
   2   4   4 5788.79 791.918   2
  -2  -4  -4 5773.89 820.374   2
   2   4   5 197961. 4647.16   2
   2  -4   5 199356. 5174.27   1
  -2  -4  -5 204473. 4876.18   2
   2   4   5 211437. 5560.16   1
   2   4   6 17333.0 1716.58   1
   2  -4   6 16454.9 1608.93   1
  -2  -4  -6 15637.2 1366.75   2
   2  -4   7 31066.6 2327.91   1
   2   4   7 36031.0 2565.26   1
  -2  -4  -7 36728.4 2138.17   2
   2   4   8 297.189 235.488   1
   2  -4   8 308.859 303.783   1
  -2  -4  -8 233.944 167.530   2
   2  -4   9 6948.02 1244.63   1
  -2  -4  -9 7279.92 989.534   2
   2   4   9 6866.59 1216.88   1
   2  -4  10 1103.89 418.470   1
   2   4  10 1021.62 532.432   1
  -2  -4 -10 1182.54 413.915   2
   2  -4  11 206.606 135.126   1
  -2  -4 -11-14.2049 85.1586   2
   2   4  11 34.9600 354.885   1
  -2  -4 -12 2177.93 578.879   2
   2   4  12 1021.21 554.145   1
   2  -4  12 2672.77 898.322   1
   2  -4  13-90.6526 199.027   1
  -2  -4 -13 350.954 202.875   2
   2   4  14 236.830 499.616   1
   2  -4  14 213.264 374.873   1
   2   4  15 1014.35 665.777   1
   2  -4  15 1525.88 769.748   1
   2   4  16 209.471 207.945   1
   2  -4  16 2118.35 919.185   1
   2  -4  17-124.377 280.799   1
   2   4  17 1.38393 268.328   1
   2   4  18 2045.84 1006.65   1
   2  -4  18 3383.31 1263.83   1
   2  -4  19 278.991 309.557   1
   2   4  19 14.5836 329.624   1
  -2   5  20-274.016 402.114   1
  -2   5  19 4721.46 1485.75   1
  -2   5  18 2661.21 1098.83   1
  -2   5  17 977.558 633.038   1
  -2   5  16 1207.07 674.355   1
  -2   5  15 8.54433 218.301   1
  -2   5  14 11706.9 1910.51   1
  -2   5  13 10525.8 1719.03   1
  -2   5  12-114.440 283.318   1
  -2   5  11 1010.21 518.890   1
  -2   5  10 34841.4 2703.82   1
  -2   5   9 1850.97 620.623   1
  -2   5   8 9968.38 1274.56   1
  -2   5   7 23105.2 1670.45   4
  -2   5   7 22205.5 1784.24   1
  -2   5   6 5871.06 861.515   1
  -2   5   6 4786.06 734.780   4
  -2   5   5 977.446 291.470   1
   2  -5  -5 1280.52 375.500   1
  -2   5   5 1082.17 342.703   4
   2  -5  -4 4039.83 637.109   1
  -2   5   4 2903.88 530.188   1
   2  -5  -4 3011.63 718.591   3
   2  -5  -3 8396.35 856.900   1
   2  -5  -3 8042.03 1091.48   3
  -2   5   3 8713.45 851.391   1
   2  -5  -2 26283.7 1857.81   3
  -2   5   2 23863.2 1365.76   1
   2  -5  -1 1987.94 489.368   3
  -2   5   1 3512.29 512.528   1
   2  -5   0 49454.1 2403.17   3
  -2   5   0 46775.1 2352.83   3
   2   5   1 75784.9 3134.56   1
   2   5   1 74773.6 3131.38   2
  -2   5  -1 75136.8 2979.70   3
   2  -5   1 78716.4 3026.82   3
   2   5   2 44131.5 2427.13   1
   2   5   2 45613.3 2397.13   2
  -2   5  -2 47273.7 2373.01   3
  -2   5  -3 98981.9 3523.66   3
   2   5   3 93760.3 2175.74   4
   2   5   3 99941.4 3770.63   1
   2   5   3 102493. 3570.50   2
  -2   5  -3 100971. 3305.85   1
   2   5   4 65974.9 2849.06   2
  -2   5  -4 64226.5 2849.38   1
   2   5   4 73398.8 3323.08   1
   2   5   5 30147.1 2218.97   1
   2   5   5 28721.9 1864.80   2
  -2  -5  -5 28019.7 1892.28   2
   2   5   6 3132.14 754.996   1
  -2  -5  -6 4365.31 745.996   2
   2   5   6 4716.00 751.749   2
  -2  -5  -7 2606.79 599.396   2
   2   5   7 2596.19 709.096   1
   2  -5   8 373.776 217.557   1
   2   5   8-185.649 140.982   1
  -2  -5  -8 75.0619 191.224   2
   2  -5   9-138.533 353.750   1
  -2  -5  -9 333.263 217.913   2
   2   5   9-318.354 295.662   1
   2   5  10 5366.06 1181.00   1
   2  -5  10 5891.77 1226.53   1
  -2  -5 -10 5632.69 897.788   2
   2   5  11 1204.13 568.928   1
   2  -5  11 1951.52 776.485   1
  -2  -5 -11 2189.82 581.297   2
   2  -5  12 784.728 590.123   1
  -2  -5 -12 365.210 298.016   2
   2   5  12 49.7278 418.663   1
   2  -5  13-53.4729 217.778   1
   2   5  13-193.042 464.075   1
  -2  -5 -13-152.193 168.305   2
   2   5  14 3297.29 1104.38   1
   2  -5  14 2003.42 852.139   1
   2   5  15 440.806 332.345   1
   2  -5  15-736.596 565.684   1
   2  -5  16 95.2425 170.230   1
   2   5  16 90.6830 359.475   1
   2   5  17-681.137 574.798   1
   2  -5  17 937.182 673.314   1
   2   5  18 215.292 499.868   1
   2  -5  18-226.304 410.311   1
   2   5  19 477.433 523.880   1
   2  -5  19 244.772 552.897   1
  -2   6  20 743.204 610.867   1
  -2   6  19 243.022 364.229   1
  -2   6  18 631.679 565.690   1
  -2   6  17-1089.60 675.962   1
  -2   6  16-803.401 565.309   1
  -2   6  15 151.375 289.940   1
  -2   6  14 5652.03 1325.09   1
  -2   6  13-74.1599 241.089   1
  -2   6  12 41722.7 3312.33   1
  -2   6  11 9429.56 1504.54   1
  -2   6  10 537.315 373.230   1
  -2   6   9 1790.56 566.886   1
  -2   6   8 23114.1 2001.59   1
  -2   6   7 1297.13 392.598   4
  -2   6   7 2033.72 572.492   1
  -2   6   6 28323.4 1813.67   4
  -2   6   6 31642.0 2080.09   1
  -2   6   5 465.243 254.699   1
  -2   6   4 74244.7 2862.50   1
   2  -6  -4 73733.9 2928.73   1
   2  -6  -3 1865.61 551.961   3
  -2   6   3 2262.30 475.540   1
   2  -6  -2 112.974 147.618   3
  -2   6   2-12.8405 119.609   1
  -2   6   1 28459.7 1655.58   1
   2  -6  -1 31097.2 2040.82   3
  -2   6   0 1462.25 435.462   3
   2  -6   0 1229.38 399.137   3
   2   6   1 101610. 3917.43   1
   2  -6   1 98455.8 3502.59   3
  -2   6  -1 100695. 3608.96   3
  -2   6  -2 74758.9 3125.95   3
   2   6   2 77777.4 3454.52   1
  -2   6  -3 23197.6 1715.29   1
   2   6   3 23466.8 1971.14   1
   2   6   4 130468. 2349.55   4
   2   6   4 132588. 4787.88   1
   2   6   5 110641. 4482.12   1
   2   6   6 3719.47 854.278   1
   2   6   7 20377.0 2045.95   1
   2   6   8 6383.17 1175.15   1
  -2  -6  -8 5910.41 923.667   2
   2   6   9 21857.7 2329.46   1
  -2  -6  -9 16499.6 1559.89   2
   2   6  10 2450.84 745.465   1
  -2  -6 -10 2487.21 617.679   2
   2   6  11 751.564 508.072   1
  -2  -6 -11 240.538 256.542   2
   2   6  12 31705.7 3118.27   1
  -2  -6 -12 29762.3 2140.24   2
   2   6  13 416.619 428.796   1
   2   6  14 235.954 347.418   1
   2   6  15 105.309 236.099   1
   2   6  16 221.051 498.273   1
   2   6  17 382.375 468.250   1
   2   6  18 833.718 657.617   1
  -2   7  19 180.089 335.635   1
  -2   7  18 1742.20 876.352   1
  -2   7  17 2751.01 1052.94   1
  -2   7  16 4556.21 1325.74   1
  -2   7  15 869.576 619.556   1
  -2   7  14 1643.24 685.540   1
  -2   7  13 4482.36 1151.19   1
  -2   7  12 6368.75 1313.63   1
  -2   7  11 3817.80 968.569   1
  -2   7  10 12603.2 1678.06   1
  -2   7   9 3218.16 801.464   1
  -2   7   8 418.811 304.435   1
  -2   7   7 13716.6 1508.68   1
  -2   7   6 16324.4 1566.50   1
   2  -7  -5-201.466 224.234   3
  -2   7   5 40.2327 131.469   1
  -2   7   4 41331.7 2289.58   1
   2  -7  -4 40352.9 2714.90   3
  -2   7   3 1844.10 476.508   1
   2  -7  -3 1650.09 547.754   3
   2  -7  -2 84.4539 182.418   3
  -2   7   2 203.703 86.8991   1
  -2   7   1 13274.5 1255.21   1
   2  -7  -1 14953.9 1473.07   3
   2  -7   0 7563.56 1026.78   3
   2  -7   1 4529.05 775.464   3
   2   7   1 6297.69 1055.20   1
   2   7   2 55598.2 3167.55   1
   2   7   3 18326.0 1845.29   1
   2   7   4 714.592 333.746   1
   2   7   5 905.287 328.270   1
   2   7   5 1995.98 244.290   4
   2   7   6 9445.03 1407.56   1
   2   7   7 19290.6 2089.70   1
   2   7   8 3238.98 891.833   1
   2   7   9 29174.1 2782.71   1
   2   7  10 19540.2 2349.72   1
   2   7  11 4692.37 1195.14   1
   2   7  12 1979.26 787.097   1
   2   7  13-911.691 572.599   1
   2   7  14 432.149 334.023   1
   2   7  15 1032.32 616.936   1
   2   7  16 6411.60 1638.14   1
   2   7  17-813.411 634.474   1
   2   7  18 903.679 696.270   1
  -2   8  19-134.655 319.807   1
  -2   8  18-483.173 493.722   1
  -2   8  17 265.295 359.768   1
  -2   8  16 105.314 264.806   1
  -2   8  15 2276.50 940.218   1
  -2   8  14 1550.55 738.917   1
  -2   8  13-455.129 390.382   1
  -2   8  12 16573.6 2137.49   1
  -2   8  11 1714.59 607.206   1
  -2   8  10 8903.51 1427.68   1
  -2   8   9 1695.77 644.645   1
  -2   8   8 26663.8 1073.95   2
  -2   8   8 28573.5 2363.14   1
  -2   8   7 11837.8 1455.52   1
  -2   8   6 17167.5 1695.12   1
   2  -8  -6 19582.0 2124.17   3
   2  -8  -5-124.702 240.554   3
  -2   8   5-385.153 256.033   1
  -2   8   4 352.685 198.185   1
   2  -8  -4 927.084 482.449   3
  -2   8   3 37657.3 2299.14   1
   2  -8  -3 36830.7 2583.60   3
  -2   8   2 29446.6 2018.88   1
   2  -8  -2 33150.1 2344.44   3
  -2   8   1 6512.70 936.995   1
   2  -8  -1 8111.53 1135.66   3
   2   8   0 390.690 288.479   1
   2  -8   0 318.769 252.881   3
   2   8   1 10873.7 1460.66   1
   2  -8   1 10081.8 1211.33   3
   2   8   2 729.591 364.445   1
   2   8   3 1707.13 593.375   1
   2   8   4 2442.92 697.051   1
   2   8   5 2008.96 660.680   1
   2   8   6 1446.69 507.133   1
   2   8   7 10972.0 1625.33   1
   2   8   8 1426.45 582.063   1
   2   8   9 6648.95 1331.58   1
   2   8  10 640.517 490.275   1
   2   8  11-174.141 279.149   1
   2   8  12 106.990 188.895   1
   2   8  13 9596.25 1863.90   1
   2   8  14 203.766 320.494   1
   2   8  15-108.655 578.369   1
   2   8  16-897.906 649.459   1
   2   8  17 1513.99 831.452   1
   2   8  18 902.930 772.077   1
  -2   9  19-526.349 531.164   1
  -2   9  18 426.684 466.813   1
  -2   9  17 1083.96 762.197   1
  -2   9  16 1841.71 844.576   1
  -2   9  15-514.195 457.632   1
  -2   9  14-246.211 438.712   1
  -2   9  13 3009.23 972.216   1
  -2   9  12-59.6662 167.242   1
  -2   9  11 1351.73 598.191   1
  -2   9  10 7959.14 1409.53   1
  -2   9   9 9822.74 1511.55   1
  -2   9   8 3501.21 867.080   1
  -2   9   8 4758.68 578.802   2
  -2   9   7 154.915 263.234   1
   2  -9  -7 14.0799 166.199   3
   2  -9  -6 13374.5 1801.20   3
  -2   9   6 12084.1 1485.04   1
   2   9  -5 25617.5 1012.28   3
   2  -9  -5 29437.2 2577.13   3
  -2   9   5 26809.7 2153.61   1
   2  -9  -4 4140.57 936.785   3
  -2   9   4 3759.91 770.032   1
  -2   9   3 0.50437 163.724   1
   2  -9  -3-94.4241 133.712   3
  -2   9   2 2432.44 620.688   1
   2  -9  -2 993.811 488.112   3
  -2   9   1 528.045 313.743   1
   2  -9  -1 1071.73 399.190   3
  -2  -9   0 10440.1 548.170   3
   2  -9   0 10753.2 1325.66   3
   2   9   0 12942.5 1695.56   1
   2   9   1 14.9435 168.977   1
  -2  -9  -1 29.3939 68.4764   3
   2  -9   1-90.6639 115.817   3
   2   9   2 2138.71 687.090   1
   2   9   3 66.7719 284.270   1
   2   9   4 145.702 215.170   1
   2   9   5 19488.9 2145.02   1
   2   9   6 10578.7 1611.81   1
   2   9   7 706.139 482.835   1
   2   9   8 300.333 216.633   1
   2   9   9-94.2634 401.024   1
   2   9  10 14817.9 2149.28   1
   2   9  11 10522.4 1894.31   1
   2   9  12 3028.83 1044.58   1
   2   9  13 3048.28 1046.07   1
   2   9  14 240.688 469.727   1
   2   9  15 2445.76 1070.95   1
   2   9  16 975.645 677.947   1
   2   9  17 349.548 453.439   1
  -2  10  18 224.856 348.997   1
  -2  10  17 781.196 652.804   1
  -2  10  16 305.457 387.487   1
  -2  10  15-142.419 288.754   1
  -2  10  14 690.624 546.924   1
  -2  10  13 500.224 537.844   1
  -2  10  12 336.763 394.812   1
  -2  10  11 1832.84 716.889   1
  -2  10  10 166.054 187.119   1
  -2  10   9 699.998 452.577   1
   2 -10  -8 22023.1 2569.73   3
  -2  10   8 20527.9 2165.49   1
  -2  10   7 2328.11 757.278   1
   2 -10  -7 1777.08 758.244   3
   2 -10  -6 7772.88 1413.68   3
  -2  10   6 7329.72 1203.39   1
   2  10  -6 5868.04 576.100   3
  -2  10   5 474.984 340.511   1
   2 -10  -5 59.5538 247.487   3
  -2  10   4-148.141 294.013   1
   2 -10  -4 239.212 295.897   3
  -2  10   3 32639.4 2449.43   1
   2 -10  -3 33063.2 2592.82   3
   2 -10  -2 4910.32 985.419   3
  -2  10   2 4634.97 944.063   1
  -2  10   1 57.9402 145.600   1
   2 -10  -1-272.286 238.653   3
   2 -10   0 8286.31 1182.97   3
   2  10   0 9680.01 1521.14   1
  -2 -10   0 8237.26 491.391   3
   2  10   1 806.895 463.825   1
  -2 -10  -1 1763.07 327.908   3
   2  10   2 1955.32 708.223   1
   2  10   3 2911.11 841.181   1
   2  10   4 4214.48 1045.59   1
   2  10   5 1142.87 586.490   1
   2  10   6 11655.0 1749.48   1
   2  10   7 332.340 172.487   1
   2  10   8-224.427 440.290   1
   2  10   9 203.830 230.901   1
   2  10  10 4681.23 1203.56   1
   2  10  11 2715.89 964.880   1
   2  10  12 12743.6 2150.07   1
   2  10  13 3990.30 1304.38   1
   2  10  14 75.1008 235.691   1
   2  10  15 198.831 317.319   1
   2  10  16-800.471 636.216   1
   2  10  17 645.010 731.783   1
  -2  11  18-539.784 525.365   1
  -2  11  17 2363.13 1021.70   1
  -2  11  16-13.5307 192.388   1
  -2  11  15 325.473 500.416   1
  -2  11  14 859.455 494.554   1
  -2  11  13 199.819 361.789   1
  -2  11  12 135.433 230.983   1
  -2  11  11 1304.91 623.086   1
  -2  11  10 12457.3 1879.76   1
   2 -11  -9 3995.93 1143.03   3
  -2  11   9 4763.33 1118.76   1
   2 -11  -8 10139.7 1769.10   3
  -2  11   8 12464.5 1759.56   1
  -2  11   7 6122.40 1179.08   1
   2 -11  -7 4769.86 1167.99   3
   2 -11  -6 18066.2 2241.81   3
  -2  11   6 19489.2 2093.20   1
   2 -11  -5 21441.7 2312.11   3
  -2  11   5 18782.1 2009.26   1
   2 -11  -4 4362.30 989.939   3
  -2  11   4 5554.81 1101.13   1
  -2  11   3 119.215 129.212   1
   2 -11  -3-34.5905 188.423   3
  -2  11   2 25313.9 2284.28   1
   2 -11  -2 27869.7 2376.16   3
   2 -11  -1 253.361 191.602   3
  -2  11   1 47.9104 149.738   1
  -2  11   0 1696.07 602.320   1
   2 -11   0 2147.15 645.644   3
   2  11   0 3212.07 934.165   1
   2  11   1 2600.36 811.077   1
  -2 -11  -1 2193.05 378.252   3
  -2 -11  -2 548.150 234.287   3
   2  11   2 186.464 316.556   1
   2  11   3-518.110 391.298   1
   2  11   4 6738.26 1359.30   1
   2  11   5 905.028 425.607   1
   2  11   6 1016.25 653.908   1
   2  11   7 111.471 297.923   1
   2  11   8 1431.88 710.361   1
   2  11   9 376.475 453.879   1
   2  11  10 1179.07 710.754   1
   2  11  11-249.052 348.364   1
   2  11  12 458.252 382.937   1
   2  11  13 1739.49 910.915   1
   2  11  14 7013.39 1762.05   1
   2  11  15 3312.93 1242.09   1
   2  11  16 5862.23 1696.23   1
  -2  12  17 656.247 644.051   1
  -2  12  16-511.331 485.498   1
  -2  12  15 975.086 663.584   1
  -2  12  14 294.675 256.065   1
  -2  12  13 2619.65 985.450   1
  -2  12  12 983.241 584.344   1
   2 -12 -11 648.325 426.646   3
  -2  12  11 183.420 270.946   1
   2 -12 -10-648.863 520.315   3
  -2  12  10-434.336 375.207   1
  -2  12   9 4039.32 1051.52   1
   2 -12  -9 4263.86 1260.22   3
  -2  12   8 10037.3 1622.66   1
   2 -12  -8 9281.97 1730.15   3
   2 -12  -7 6874.52 1423.64   3
  -2  12   7 5447.91 1146.49   1
   2 -12  -6 13260.4 1939.30   3
  -2  12   6 11568.6 1676.68   1
  -2  12   5 622.794 372.404   1
   2 -12  -5 26.1521 247.678   3
   2 -12  -4 4698.34 1035.79   3
  -2  12   4 6383.26 1211.28   1
  -2  12   3 3517.99 905.738   1
   2 -12  -3 5225.06 1087.79   3
   2 -12  -2-7.40271 213.325   3
  -2  12   2 209.002 171.805   1
   2 -12  -1 1324.52 529.579   3
  -2  12   1 805.684 420.843   1
   2 -12   0 2083.85 665.267   3
  -2  12   0 1635.67 616.012   1
   2  12   0 1763.63 689.316   1
   2  12   1 9615.98 1685.80   1
  -2 -12  -1 9619.23 793.614   3
  -2 -12  -2 768.719 277.139   3
   2  12   2 1054.42 530.686   1
   2  12   3 510.907 379.822   1
  -2 -12  -3 89.9118 137.972   3
   2  12   4-213.298 397.531   1
   2  12   5 244.093 410.685   1
   2  12   6 14500.1 2117.56   1
   2  12   7-68.7306 426.353   1
   2  12   8 119.429 194.171   1
   2  12   9 2727.00 978.874   1
   2  12  10 509.280 461.423   1
   2  12  11-701.758 530.650   1
   2  12  12 1907.07 903.432   1
   2  12  13-834.495 615.194   1
   2  12  14-18.8158 169.493   1
   2  12  15 679.059 498.361   1
  -2  13  17 569.020 551.830   1
  -2  13  16 772.592 604.118   1
  -2  13  15-631.037 539.832   1
   2 -13 -14-12.8533 176.131   3
  -2  13  14-532.547 480.635   1
   2 -13 -13 179.128 414.446   3
  -2  13  13-796.306 563.885   1
  -2  13  12 882.745 603.925   1
   2 -13 -12 1172.45 758.201   3
   2 -13 -11 1470.09 786.079   3
  -2  13  11 3093.60 997.840   1
   2 -13 -10 1425.10 802.112   3
  -2  13  10 1166.41 652.409   1
  -2  13   9-44.4257 261.935   1
   2 -13  -9-490.526 444.423   3
  -2  13   8 557.916 535.277   1
   2 -13  -8 79.0927 213.646   3
   2 -13  -7 346.851 359.348   3
  -2  13   7 746.097 506.299   1
  -2  13   6 741.040 359.293   1
   2 -13  -6 447.071 421.321   3
   2 -13  -5 3932.36 1005.11   3
  -2  13   5 4260.15 1073.71   1
  -2  13   4 16852.5 2082.97   1
   2 -13  -4 21303.5 2363.40   3
  -2  13   3 8227.19 1435.05   1
   2 -13  -3 7457.41 1338.96   3
  -2  13   2 516.314 389.717   1
   2 -13  -2-17.8347 280.674   3
   2 -13  -1-208.508 178.549   3
   2  13  -1-28.3573 189.436   1
  -2  13   1-380.363 336.132   1
  -2  13   0 3434.30 945.028   1
   2 -13   0 3898.31 920.137   3
   2  13   0 2415.55 897.352   1
   2  13   1 568.896 539.982   1
   2  13   2-127.353 269.376   1
  -2 -13  -3 2451.43 582.345   3
   2  13   3 2225.51 914.697   1
   2  13   4 2869.09 946.926   1
  -2 -13  -4 3235.90 721.712   3
   2  13   5 452.430 461.224   1
   2  13   6 3391.43 1074.43   1
   2  13   7-356.181 374.362   1
   2  13   8 169.731 171.364   1
   2  13   9 443.598 423.688   1
   2  13  10 1130.50 679.410   1
   2  13  11 524.561 399.779   1
   2  13  12-33.7296 239.807   1
   2  13  13 236.291 369.196   1
   2  13  14 2511.71 1060.10   1
   2  13  15 245.971 398.576   1
  -2  14  16 1012.24 707.811   1
  -2  14  15 111.868 269.357   1
   2 -14 -15 107.761 329.321   3
  -2  14  14 313.279 380.936   1
   2 -14 -14-481.247 534.947   3
  -2  14  13 1163.62 686.854   1
   2 -14 -13 1263.13 829.735   3
   2 -14 -12-602.634 545.321   3
  -2  14  12-465.016 446.782   1
  -2  14  11 578.526 632.759   1
   2 -14 -11-97.0548 317.119   3
   2 -14 -10 358.670 405.849   3
  -2  14  10 784.188 494.686   1
   2 -14  -9 1247.71 671.125   3
  -2  14   9 1891.48 737.095   1
   2 -14  -8 1682.52 744.174   3
  -2  14   8 667.223 413.371   1
  -2  14   7-446.187 378.303   1
   2 -14  -7 878.953 574.828   3
  -2  14   6 626.198 471.790   1
   2 -14  -6-198.971 221.969   3
  -2  14   5 1168.18 594.457   1
   2 -14  -5 215.693 321.679   3
  -2  14   4 1194.54 546.473   1
   2 -14  -4 3435.45 953.510   3
   2 -14  -3 19437.4 2214.27   3
  -2  14   3 17172.8 2186.49   1
   2 -14  -2 878.649 381.309   3
  -2  14   2 709.965 495.121   1
  -2  14   1 8998.41 1580.30   1
   2 -14  -1 9456.74 1460.70   3
   2  14  -1 10057.7 1877.76   1
   2  14   0 556.927 388.090   1
  -2  14   0 708.013 413.691   1
  -2  14  -1 1293.17 549.512   1
   2  14   1 1687.51 683.028   1
   2  14   2 5990.41 1407.81   1
   2  14   3 39.9602 348.380   1
   2  14   4 1011.98 639.010   1
   2  14   5 270.261 343.968   1
   2  14   6 150.033 392.883   1
   2  14   7-53.6616 220.980   1
   2  14   8 1579.58 808.399   1
   2  14   9 3668.08 1218.02   1
   2  14  10 1808.74 900.203   1
   2  14  11 2106.21 996.300   1
   2  14  12-910.253 656.815   1
   2  14  13 699.127 598.427   1
   2  14  14-742.239 629.167   1
  -2  15  15-476.471 500.295   1
   2 -15 -14-523.495 554.219   3
  -2  15  14 576.836 519.611   1
  -2  15  13 601.958 511.736   1
   2 -15 -13-389.015 477.009   3
  -2  15  12-5.07826 150.102   1
   2 -15 -12-1180.23 764.740   3
   2 -15 -11 1796.92 898.645   3
  -2  15  11 2079.65 915.725   1
  -2  15  10 796.072 503.713   1
   2 -15 -10-43.5352 213.685   3
  -2  15   9 348.975 173.312   1
   2 -15  -9 829.344 587.781   3
  -2  15   8-545.826 446.124   1
   2 -15  -8 1.14639 165.638   3
  -2  15   7 321.596 369.783   1
   2 -15  -7 622.330 430.877   3
  -2  15   6 805.353 518.053   1
   2 -15  -6 338.608 341.462   3
  -2  15   5 1489.66 664.438   1
   2 -15  -5 896.364 559.877   3
   2 -15  -4 752.724 390.300   3
  -2  15   4-21.1540 357.934   1
  -2  15   3 282.590 289.364   1
   2 -15  -3-98.2858 147.656   3
  -2  15   2 898.674 487.610   1
   2 -15  -2 336.801 392.257   3
   2  15  -2-421.493 682.980   1
  -2  15   1 904.700 486.458   1
   2 -15  -1 465.363 343.679   3
   2  15  -1 178.096 206.238   1
  -2  15   0 1035.27 547.669   1
   2  15   0 2231.76 845.359   1
   2  15   1 6541.64 1552.93   1
  -2  15  -1 8664.68 1645.55   1
   2  15   2-32.8103 567.413   1
   2  15   3 8636.10 1787.97   1
   2  15   4 585.302 550.604   1
   2  15   5-542.307 466.877   1
   2  15   6 976.158 678.716   1
   2  15   7 807.118 553.111   1
   2  15   8-372.811 406.942   1
   2  15   9 1013.54 684.671   1
   2  15  10-244.803 357.279   1
   2  15  11 40.1522 263.618   1
   2  15  12-1044.30 717.110   1
   2  15  13 361.866 516.271   1
   2 -16 -14-249.371 406.123   3
  -2  16  14 645.189 566.780   1
   2 -16 -13-214.592 373.477   3
  -2  16  13 422.395 444.606   1
   2 -16 -12-604.913 557.922   3
  -2  16  12 737.854 226.183   1
  -2  16  11 94.1249 220.332   1
   2 -16 -11 416.123 458.618   3
  -2  16  10 670.531 513.570   1
   2 -16 -10-331.482 405.211   3
  -2  16   9 1802.68 806.571   1
   2 -16  -9 1468.02 814.673   3
   2 -16  -8 30.8644 193.444   3
  -2  16   8-520.729 442.891   1
  -2  16   7 1959.10 815.798   1
   2 -16  -7 1072.12 589.183   3
  -2  16   6 708.341 436.529   1
   2 -16  -6-181.326 279.829   3
  -2  16   5 115.048 262.285   1
   2 -16  -5-50.1027 181.993   3
  -2  16   4-21.9536 169.109   1
   2 -16  -4 277.033 310.240   3
   2 -16  -3 274.570 337.546   3
  -2  16   3 235.600 312.480   1
  -2  16   2 628.403 392.676   1
   2 -16  -2 768.905 464.244   3
   2  16  -2 888.564 396.591   1
   2  16  -1 3088.96 1118.19   1
   2 -16  -1 1613.61 621.511   3
  -2  16   1 2393.14 893.037   1
  -2  16   0 4257.63 1185.81   1
   2  16   0 3651.50 1225.69   1
   2  16   1 2293.57 976.028   1
  -2  16  -1 2294.89 860.775   1
   2  16   2 4003.52 1208.83   1
  -2  16  -2 2507.98 887.397   1
   2  16   3 2190.25 822.438   1
   2  16   4-14.0957 241.193   1
   2  16   5-1213.71 714.678   1
   2  16   6-122.251 280.137   1
   2  16   7 2217.11 960.143   1
   2  16   8 968.007 669.764   1
   2  16   9 369.068 574.136   1
   2  16  10 574.424 469.797   1
   2  16  11 379.882 485.969   1
  -2  17  13 227.468 351.155   1
   2 -17 -12 1269.70 705.557   3
  -2  17  12 1204.41 729.258   1
   2 -17 -11 915.905 666.503   3
  -2  17  11 417.283 431.898   1
  -2  17  10 733.748 558.976   1
   2 -17 -10-70.9979 260.091   3
   2 -17  -9-252.440 352.911   3
  -2  17   9 853.080 639.720   1
  -2  17   8 145.151 261.477   1
   2 -17  -8 77.4952 246.482   3
  -2  17   7-1505.21 696.674   1
  -2  17   6 704.922 552.630   1
  -2  17   5 979.546 495.844   1
  -2  17   4 888.386 569.055   1
  -2  17   3 1967.12 831.813   1
   2  17  -3 4041.44 1362.27   1
  -2  17   2 533.066 412.204   1
   2  17  -2 803.044 586.618   1
  -2  17   1 1115.17 665.527   1
   2  17  -1 827.407 514.186   1
   2  17   0 4957.69 1496.07   1
  -2  17   0 3968.02 1174.05   1
   2  17   1 2154.40 994.271   1
  -2  17  -1 2119.85 833.185   1
  -2  17  -2 1654.21 784.789   1
   2  17   2 1251.60 592.230   1
   2  17   3 1111.72 672.934   1
   2  17   4 1474.73 773.276   1
   2  17   5-122.637 443.549   1
   2  17   6-35.2610 203.975   1
   2  17   7 409.207 473.396   1
   2  17   8 291.548 358.991   1
   2  17   9 2588.22 1110.90   1
   2  17  10-76.0531 276.717   1
  -2  18  11 508.930 488.629   1
  -2  18  10 199.687 316.704   1
  -2  18   9 472.051 473.373   1
  -2  18   8-588.211 499.402   1
  -2  18   7 35.5675 208.190   1
  -2  18   6 441.913 440.214   1
  -2  18   5 1885.76 852.105   1
  -2  18   4 326.039 278.925   1
   2  18  -3-312.687 424.308   1
  -2  18   3-281.012 345.321   1
  -2  18   2-124.353 247.027   1
   2  18  -2 298.479 390.217   1
   2  18  -1 738.077 629.050   1
  -2  18   1 401.460 375.945   1
   2  18   0-601.978 559.552   1
  -2  18   0-111.321 274.705   1
  -2  18  -1 540.103 501.142   1
   2  18   1 668.308 560.641   1
   2  18   2 579.534 377.955   1
  -2  18  -2-870.912 621.288   1
   2  18   3 2378.52 1053.07   1
  -2  18  -3 1136.91 671.728   1
   2  18   4 796.415 649.999   1
   2  18   5 3867.76 1342.90   1
   2  18   6-577.159 561.799   1
   2  18   7 4193.33 1375.42   1
   2  18   8 241.846 381.901   1
  -2  19   9 745.394 587.401   1
  -2  19   8 285.271 377.547   1
  -2  19   7 922.544 641.758   1
  -2  19   6-220.752 328.768   1
  -2  19   5 843.588 610.110   1
  -2  19   4 479.109 363.155   1
   2  19  -4-270.452 418.401   1
  -2  19   3 5455.35 1488.97   1
   2  19  -3 5528.08 1734.43   1
  -2  19   2-168.803 411.974   1
   2  19  -2-885.139 695.015   1
   2  19  -1 1179.17 781.948   1
  -2  19   1 1438.56 700.919   1
   2  19   0 593.903 560.433   1
  -2  19   0 1391.03 791.043   1
   2  19   1-277.074 394.178   1
  -2  19  -1 223.797 386.416   1
   2  19   2-915.794 687.076   1
  -2  19  -2-455.432 470.181   1
   2  19   3 170.307 342.171   1
  -2  19  -3 308.206 397.179   1
   2  19   4-1128.56 777.150   1
  -2  19  -4 873.477 678.772   1
   2  19   5-745.527 635.582   1
  -2  20   7 1032.62 689.151   1
  -2  20   6-291.215 388.186   1
  -2  20   5 1595.57 842.772   1
  -2  20   4-673.022 555.833   1
  -2  20   3-244.626 348.820   1
  -2  20   2 820.962 612.036   1
  -2  20   1-143.711 289.792   1
  -2  20   0-65.0347 216.809   1
  -2  20  -1 500.939 495.431   1
  -2  20  -2 948.934 714.968   1
  -2  20  -3 29.1895 176.969   1
  -2  20  -4 1435.36 911.718   1
  -2  21   3 345.249 437.307   1
  -2  21   2-145.754 289.080   1
  -2  21   1 590.425 552.832   1
  -2  21   0-391.199 476.875   1
  -2  21  -1 1036.82 732.113   1
  -2  21  -2-1.60528 367.679   1
  -3   0  20 3221.31 1291.82   1
  -3   0  19-545.524 530.196   1
   3   0 -18 7872.12 1656.99   4
  -3   0  18 7448.80 1767.26   1
   3   0 -17-372.975 374.186   4
  -3   0  17 344.200 377.499   1
   3   0 -16 2388.67 836.311   4
  -3   0  16 2710.01 983.609   1
  -3   0  15 301.226 363.815   1
   3   0 -15-256.449 314.334   4
  -3   0  14 10667.4 1818.89   1
   3   0 -14 8311.24 1520.33   4
   3   0 -13-261.117 265.677   4
  -3   0  13 306.541 259.565   1
  -3   0  12 98968.5 4991.40   1
   3   0 -12 95710.1 4831.69   4
   3   0 -11 83.6776 149.790   2
   3   0 -11-526.267 366.887   4
  -3   0  11 228.905 291.756   1
   3   0 -10 2500.93 495.419   2
   3   0 -10 1686.35 585.761   4
  -3   0  10 2875.04 783.588   1
   3   0  -9 34.6561 212.407   4
   3   0  -9 10.3302 113.106   2
  -3   0   9 50.2003 141.348   1
   3   0  -8 33229.4 2472.42   4
   3   0  -8 30066.4 1704.46   2
  -3   0   8 31613.5 2229.11   1
   3   0  -7-144.192 123.806   2
  -3   0   7-55.9829 122.585   1
   3   0  -7-5.78606 130.457   4
   3   0  -6 3498.40 768.841   4
   3   0  -6 5981.89 822.731   1
   3   0  -6 5030.96 687.636   2
  -3   0   6 4944.05 791.208   1
   3   0  -5 79.9114 222.499   4
   3   0  -5-4.99948 44.4763   2
  -3   0   5-35.5435 90.9526   1
   3   0  -5-147.029 120.185   1
   3   0  -4-205.332 138.314   2
  -3   0   4 29.2469 51.5474   2
   3   0  -4-23.8152 161.646   3
   3   0  -4 218.326 214.279   4
   3   0  -4 21.9809 37.9808   1
   3   0  -3 93.7595 114.974   4
   3   0  -3 45.6080 97.4814   2
  -3   0   3 80.5777 148.497   2
   3   0  -3 126.127 104.196   1
   3   0  -3 39.2917 99.5433   3
  -3   0   2 15820.8 1236.48   2
   3   0  -2 16798.5 1316.04   3
   3   0  -2 18946.4 1463.94   4
   3   0  -2 17244.2 1250.74   2
   3   0  -1-50.5503 140.748   3
   3   0  -1 85.0391 90.2879   2
   3   0   0 64753.4 1564.64   1
   3   0   0 64307.1 2492.11   3
   3   0   1-17.6674 45.8283   1
  -3   0  -1 87.8704 93.8241   1
   3   0   2 16955.8 1048.09   1
  -3   0  -2 16830.6 1048.07   1
  -3   0  -3 70.4628 110.139   1
   3   0   3-10.5505 62.3356   1
   3   0   4 4362.63 660.369   1
  -3   0  -4 3963.28 629.567   1
   3   0   5-47.5945 163.193   1
   3   0   6 276.312 222.249   1
   3   0   7 508.914 330.442   1
   3   0   8 78958.3 3864.41   1
   3   0   9 5.25341 269.534   1
   3   0  10 3661.53 916.177   1
   3   0  11 35.1308 373.593   1
   3   0  12 12534.8 1913.23   1
   3   0  13-465.226 416.001   1
   3   0  14 3419.31 1124.13   1
   3   0  15 321.470 486.465   1
   3   0  16 4165.86 1312.00   1
   3   0  17 164.207 303.678   1
   3   0  18 81.9181 246.676   1
   3   0  19 57.2520 250.027   1
  -3  -1  20 1413.98 895.552   1
  -3   1  20 2575.40 1082.67   1
   3   1 -19 437.932 436.276   4
  -3  -1  19-188.823 347.182   1
  -3   1  19 185.300 353.522   1
  -3  -1  18 1304.76 801.776   1
   3   1 -18 1131.65 662.808   4
  -3   1  18 1412.98 754.671   1
   3  -1 -17 646.628 470.039   4
  -3   1  17 521.223 519.737   1
  -3  -1  17-288.174 534.024   1
   3   1 -17 199.942 317.935   4
   3   1 -16 4931.31 1284.47   4
  -3  -1  16 2558.90 1013.75   1
  -3   1  16 4862.01 1298.73   1
   3  -1 -16 4916.95 1208.51   4
  -3   1  15 636.372 499.150   1
  -3  -1  15 450.275 277.470   1
   3   1 -15 113.630 256.014   4
   3  -1 -15 459.726 380.923   4
   3  -1 -14 12182.1 1802.85   4
  -3  -1  14 12984.4 2035.13   1
  -3   1  14 14216.2 2067.58   1
  -3   1  13 3819.67 1032.75   1
  -3  -1  13 5700.58 1238.91   1
   3  -1 -13 4947.88 1073.04   4
   3  -1 -12-3.62587 158.755   4
  -3  -1  12 520.438 440.458   1
  -3   1  12-100.925 484.189   1
  -3   1  11 1570.56 608.813   1
   3  -1 -11 948.530 271.584   2
  -3  -1  11 1025.44 515.162   1
   3  -1 -11 651.410 451.887   4
   3  -1 -10 22857.7 1322.30   2
   3  -1 -10 23609.3 2185.64   4
  -3  -1  10 24361.6 2262.51   1
  -3   1  10 27363.7 2329.60   1
  -3  -1   9 5678.27 1034.57   1
   3  -1  -9 3929.80 544.104   2
   3  -1  -9 4256.99 918.289   4
  -3   1   9 4073.71 853.200   1
   3   1  -8 37753.9 2127.74   2
   3  -1  -8 37664.8 2541.97   4
  -3   1   8 36984.1 2378.09   1
   3  -1  -8 39405.2 1717.42   2
  -3  -1   8 39321.7 2575.25   1
   3   1  -7 15310.5 1321.46   2
  -3   1   7 15711.1 1433.25   1
  -3  -1   7 15143.1 1479.56   1
   3  -1  -7 15744.4 1608.34   4
   3  -1  -7 16263.7 1089.84   2
   3  -1  -6 99036.1 2686.72   2
   3  -1  -6 98446.0 3202.11   1
  -3   1   6 99181.5 3289.23   1
   3   1  -6 100536. 3506.45   1
   3   1  -6 93871.1 3214.52   2
   3   1  -6 104031. 4139.88   4
   3  -1  -6 101195. 3861.75   4
   3   1  -5-7.98997 61.3571   2
   3  -1  -5 19.1156 108.614   4
   3  -1  -5 8.94065 81.7626   1
  -3   1   5-55.0173 83.6765   1
   3   1  -5 128.569 220.937   4
   3   1  -5 113.408 123.536   1
   3  -1  -5 41.1792 89.4747   2
   3  -1  -4 5268.21 635.922   2
   3   1  -4 5138.53 773.324   3
   3  -1  -4 5948.55 883.826   4
   3   1  -4 6160.93 807.066   2
   3  -1  -4 6240.63 634.805   1
  -3   1   4 5369.50 597.900   1
   3   1  -4 5448.19 693.787   1
   3  -1  -4 6302.70 940.293   3
  -3   1   4 5767.52 691.009   2
   3   1  -4 4941.72 834.275   4
   3   1  -3 10557.9 1039.95   2
  -3  -1   3 10346.1 1048.95   2
   3  -1  -3 10672.0 695.692   1
   3   1  -3 10511.1 1039.93   3
  -3   1   3 10676.5 948.068   2
   3   1  -3 11243.7 1189.22   4
   3  -1  -3 10390.7 1136.14   3
   3  -1  -3 11057.9 938.184   2
   3  -1  -2 707.894 144.061   1
  -3   1   2 920.766 267.426   2
   3   1  -2 1126.84 353.942   2
   3   1  -2 1155.32 349.692   4
  -3  -1   2 808.351 272.522   3
   3   1  -2 720.523 254.180   3
   3  -1  -2 434.802 228.998   3
   3   1  -1 14945.9 1239.79   2
   3   1  -1 15713.0 1288.45   4
   3   1  -1 14640.8 1127.72   3
   3  -1  -1 15850.7 1310.60   3
  -3  -1   1 14260.1 1132.24   3
   3   1   0 14625.1 1244.99   2
   3  -1   0 14173.7 1229.34   3
   3   1   0 15356.2 946.090   1
  -3  -1   0 15594.8 1184.21   3
   3   1   1 5156.95 578.219   1
  -3  -1  -1 5574.68 614.922   1
  -3  -1  -1 5544.42 707.088   4
  -3  -1  -1 5463.85 719.569   3
  -3   1  -1 5088.04 448.196   1
   3  -1   1 4884.26 436.310   1
   3   1   1 5801.55 789.287   2
  -3   1  -2 9607.10 746.395   1
   3  -1   2 9216.46 736.961   1
  -3  -1  -2 9886.01 881.871   1
   3   1   2 7792.87 767.278   1
  -3  -1  -3 466.414 204.450   1
  -3   1  -3 709.407 242.985   1
   3   1   3 672.485 260.632   1
   3  -1   3 614.348 208.360   1
   3  -1   4 1570.62 406.797   1
   3   1   4 1800.42 443.051   1
  -3  -1  -4 1421.44 391.861   1
  -3   1  -4 1380.13 374.765   1
   3  -1   5 47395.4 2391.34   1
  -3   1  -5 46742.4 2349.90   1
   3   1   5 45830.9 2408.50   1
  -3  -1  -5 43913.5 2410.09   2
   3  -1   6 145612. 4541.79   1
  -3  -1  -6 146445. 4548.41   2
   3   1   6 145999. 4622.41   1
   3  -1   7 2039.16 598.491   1
   3   1   7 3145.34 756.423   1
   3  -1   8 10491.0 1393.96   1
   3   1   8 8490.38 1283.31   1
   3  -1   9-137.895 267.153   1
   3   1   9 297.816 328.117   1
   3   1  10 24990.4 2450.78   1
   3  -1  10 17447.4 2055.60   1
   3   1  11 3291.72 973.781   1
   3  -1  11 2151.10 826.766   1
   3   1  12 3978.65 1094.09   1
   3  -1  12 4024.02 1063.91   1
   3   1  13-930.949 554.348   1
   3  -1  13-112.976 229.982   1
  -3  -1 -14 472.435 478.803   2
   3  -1  14 244.269 224.261   1
   3   1  14 224.900 358.795   1
   3   1  15 238.353 216.190   1
  -3  -1 -15 374.882 246.709   2
   3  -1  16 1755.07 786.823   1
   3   1  16 421.261 449.447   1
   3   1  17-691.018 567.512   1
   3  -1  17 728.448 584.694   1
   3   1  18 1256.73 719.524   1
   3  -1  18 3015.98 1213.10   1
   3  -1  19-150.448 319.908   1
   3   1  19-27.8370 245.778   1
  -3   2  20-1188.39 782.633   1
  -3   2  19 630.211 548.581   1
   3   2 -19 728.139 626.207   4
   3   2 -18 3784.65 1229.94   4
  -3   2  18 3860.20 1253.20   1
   3  -2 -17 502.664 345.892   4
  -3  -2  17 411.003 413.524   1
  -3   2  17 32.1555 191.573   1
  -3  -2  16 1545.53 739.979   1
   3  -2 -16 1441.97 633.659   4
  -3   2  16 1027.39 621.233   1
  -3   2  15-1.04132 315.713   1
  -3  -2  15 414.203 318.741   1
   3  -2 -15 72.0643 186.865   4
   3  -2 -14 80.9736 198.036   4
  -3  -2  14-53.8404 305.772   1
  -3   2  14-164.140 318.382   1
  -3   2  13 14780.5 2011.00   1
  -3  -2  13 13595.5 1992.59   1
   3  -2 -13 13551.7 1783.87   4
   3  -2 -12 6003.08 1152.28   4
  -3  -2  12 5810.28 1255.00   1
  -3   2  12 5395.40 1144.52   1
  -3  -2  11 4300.22 1043.26   1
   3  -2 -11 5576.61 1054.80   4
   3  -2 -11 4684.01 426.424   2
  -3   2  11 6151.31 1153.67   1
   3  -2 -10 136.252 238.737   4
   3  -2 -10 2.30579 24.1515   2
   3  -2  -9 202.397 99.8553   2
   3  -2  -9 242.315 225.499   4
  -3   2   9 189.462 159.154   1
   3  -2  -8 582.876 179.894   2
   3  -2  -8 1124.88 438.062   4
  -3   2   8 514.807 245.678   1
   3  -2  -7 113.287 140.714   1
   3  -2  -7-82.5694 195.166   4
  -3   2   7-80.2729 186.825   1
  -3   2   6 28611.5 1742.29   1
   3   2  -6 28421.6 1923.38   2
   3  -2  -6 29347.2 2048.81   4
   3  -2  -6 27330.2 1659.03   1
   3  -2  -5-94.3040 233.475   3
  -3   2   5 20.2434 59.0759   2
   3   2  -5-29.6584 87.1585   2
  -3   2   5-138.414 116.261   1
   3  -2  -5-25.7482 46.2506   1
   3   2  -5 20.8966 83.0658   1
  -3   2   4 5275.64 574.517   1
   3  -2  -4 5568.79 577.136   1
   3   2  -4 4717.61 755.257   2
   3  -2  -4 5014.99 884.523   3
   3   2  -4 5847.11 780.739   1
  -3   2   4 4835.24 600.843   2
   3   2  -4 4614.13 708.269   3
  -3   2   3 13723.1 747.596   1
  -3   2   3 14037.7 1042.85   2
   3  -2  -3 14184.7 738.816   1
   3   2  -3 12844.3 1091.92   3
   3  -2  -3 13901.1 1387.26   3
   3   2  -3 15307.9 1348.34   2
   3   2  -3 15129.3 1429.27   4
   3   2  -2 69238.2 2848.84   2
  -3  -2   2 62949.5 2311.41   3
   3   2  -2 69937.4 2907.87   4
   3   2  -2 65043.3 2295.69   3
   3  -2  -2 64868.5 2881.81   3
  -3   2   2 71078.2 2434.58   2
   3   2  -1 843.923 312.699   4
   3   2  -1 1548.55 426.240   2
  -3  -2   1 1130.75 316.313   3
   3   2  -1 639.190 207.123   3
   3  -2  -1 1234.30 363.121   3
   3   2   0 211021. 4938.55   2
   3   2   0 212322. 4560.27   4
   3   2   0 212461. 4119.20   1
  -3  -2   0 216443. 4138.75   3
   3  -2   0 208502. 4928.14   3
   3   2   1 43712.4 1921.87   1
   3   2   1 47109.4 2330.15   2
   3  -2   1 43121.7 1283.43   1
  -3  -2  -1 43098.8 1935.40   1
  -3   2  -1 44565.6 1268.15   1
  -3  -2  -1 44707.5 2004.91   4
  -3  -2  -2 35674.1 1842.47   1
  -3  -2  -2 37642.9 1768.69   4
  -3   2  -2 36688.2 1443.25   1
   3   2   2 37455.8 2109.27   2
   3   2   2 37215.0 1838.83   1
   3  -2   2 35952.7 1481.44   1
   3   2   3 30520.7 1923.76   2
  -3  -2  -3 26237.1 1678.11   1
  -3  -2  -3 28030.4 1478.01   4
  -3   2  -3 28231.0 1469.09   1
   3  -2   3 27017.6 1471.07   1
   3   2   3 26011.6 1629.77   1
  -3   2  -4 18866.4 1348.97   1
  -3  -2  -4 18562.1 1560.96   2
   3  -2   4 20467.9 1434.75   1
  -3  -2  -4 21467.3 1608.45   1
   3   2   4 20210.0 1551.24   1
  -3  -2  -5 7.60577 165.311   2
   3  -2   5-25.9638 164.745   1
  -3   2  -5-35.7254 104.216   1
   3  -2   6 3184.41 678.774   1
   3   2   6 3625.72 756.685   1
  -3  -2  -6 2324.03 579.387   2
  -3  -2  -7 7686.46 1066.90   2
   3  -2   7 6363.87 1018.39   1
   3   2   7 6727.62 1093.16   1
   3   2   8 66898.2 3628.20   1
   3  -2   8 62614.7 3470.57   1
   3  -2   9 16767.1 1892.84   1
   3   2   9 16638.4 1887.53   1
   3  -2  10 12461.1 1723.16   1
   3   2  10 13995.6 1837.90   1
   3   2  11 3245.01 994.512   1
   3  -2  11 3659.98 1032.42   1
   3   2  12 9830.95 1694.57   1
   3  -2  12 10562.7 1761.30   1
  -3  -2 -13 446.959 318.102   2
   3  -2  13 1179.03 522.593   1
   3   2  13 943.982 563.794   1
  -3  -2 -14 2735.46 789.067   2
   3  -2  14 2951.04 958.457   1
   3   2  14 2614.06 965.556   1
   3   2  15 372.985 403.912   1
  -3  -2 -15 1498.66 591.404   2
   3  -2  15 1775.97 817.096   1
   3   2  16 3253.67 1154.78   1
   3  -2  16 2792.32 1099.84   1
   3  -2  17 653.307 639.940   1
   3   2  17 2133.19 959.845   1
   3   2  18-1323.75 810.672   1
   3  -2  18 21.3317 244.192   1
   3   2  19 8.23588 200.152   1
   3  -2  19 82.0550 263.122   1
   3   3 -20 636.539 617.545   4
  -3   3  20 245.497 374.540   1
  -3   3  19 1425.18 782.379   1
  -3   3  18-130.084 229.809   1
  -3   3  17-9.89427 171.968   1
   3  -3 -16 455.884 363.958   4
  -3   3  16 256.820 321.246   1
   3  -3 -15 924.705 493.375   4
  -3   3  15 944.571 557.892   1
  -3   3  14 16664.3 2240.35   1
   3  -3 -14 15079.3 1874.68   4
  -3   3  13 5890.65 1265.49   1
   3  -3 -13 4782.12 1038.23   4
   3  -3 -12 4537.33 983.921   4
  -3   3  12 5328.61 1170.46   1
   3  -3 -11 11726.3 1512.23   4
  -3   3  11 10969.3 1540.55   1
   3  -3 -10 1818.14 594.180   4
  -3   3  10 2239.76 628.322   1
   3  -3  -9 26202.5 2141.10   4
  -3   3   9 25371.0 2082.73   1
  -3   3   8 26756.5 1989.66   1
   3  -3  -8 27670.9 2135.69   4
  -3   3   7 36524.7 2141.22   1
  -3   3   6 10519.7 1041.25   1
  -3   3   6 11147.6 778.631   2
   3  -3  -6 11691.2 1072.33   1
  -3   3   5 118304. 2712.66   2
  -3   3   5 114400. 3074.96   1
   3  -3  -5 114508. 3041.29   1
   3  -3  -5 111690. 4488.69   3
   3   3  -4 667.737 267.351   3
  -3   3   4 372.782 137.312   2
  -3   3   4 336.447 154.677   1
   3  -3  -4 448.961 169.139   1
   3  -3  -4 373.064 284.873   3
  -3   3   3 894.225 198.236   1
   3   3  -3 818.860 348.962   2
   3  -3  -3 722.800 177.338   1
   3  -3  -3 1198.34 440.214   3
   3   3  -3 760.697 248.987   3
   3   3  -2 816.335 332.358   2
   3  -3  -2 1064.94 441.588   3
  -3   3   2 959.082 160.047   1
   3   3  -2 1245.86 299.548   3
  -3  -3   2 1094.37 287.376   3
   3   3  -1 597.338 293.583   2
  -3  -3   1 568.605 184.746   3
   3   3  -1 259.560 219.461   4
   3  -3  -1 509.181 235.051   3
   3   3   0 56598.6 2384.35   1
   3  -3   0 56383.1 2706.30   3
  -3   3   0 52239.8 1175.63   1
   3   3   0 55185.8 2390.64   4
  -3  -3   0 56309.8 1994.30   3
   3   3   0 55818.5 2676.09   2
  -3   3  -1 7002.18 547.953   1
   3   3   1 6610.04 924.805   2
   3   3   1 5416.13 729.899   1
   3   3   1 7602.03 825.417   4
  -3  -3  -2 6538.06 737.077   4
   3   3   2 5740.85 849.866   2
   3   3   2 6407.43 836.667   1
   3  -3   2 5765.52 612.449   1
  -3  -3  -2 6059.29 835.665   1
  -3   3  -2 6326.67 625.799   1
  -3  -3  -3 18283.6 1175.04   4
   3  -3   3 16786.8 1190.59   1
  -3  -3  -3 18307.4 1489.06   1
   3   3   3 18181.6 1481.42   1
  -3   3  -3 17201.6 1188.31   1
   3  -3   4 81289.5 2932.98   1
  -3   3  -4 78591.7 2828.01   1
   3   3   4 80503.0 3236.36   1
  -3  -3  -4 83440.7 3409.36   2
  -3  -3  -4 79711.5 2338.76   4
   3   3   5 66078.5 3104.77   1
  -3  -3  -5 62472.8 2013.66   4
   3  -3   5 61676.6 2793.41   1
  -3  -3  -5 60840.0 2957.24   2
  -3  -3  -6 56665.8 2885.39   2
   3  -3   6 55810.2 2871.53   1
   3   3   6 57711.0 3090.41   1
  -3  -3  -7 13005.4 1418.52   2
   3   3   7 10231.6 1378.31   1
   3  -3   7 14432.5 1568.18   1
   3  -3   8 22336.7 2093.49   1
   3   3   8 20494.6 2058.01   1
   3  -3   9 4559.22 1005.65   1
   3   3   9 3994.45 990.252   1
   3   3  10 2373.15 782.399   1
   3  -3  10 3239.46 905.180   1
   3   3  11 11.9574 428.106   1
   3  -3  11-142.054 461.432   1
   3   3  12 12657.3 1941.25   1
   3  -3  12 12054.7 1895.41   1
   3  -3  13 7041.90 1518.06   1
  -3  -3 -13 7337.03 1235.20   2
   3   3  13 7146.35 1543.81   1
   3  -3  14-248.309 232.791   1
   3   3  14-125.658 344.953   1
  -3  -3 -14 220.396 230.363   2
   3   3  15-4.80848 169.046   1
   3  -3  15 822.822 575.232   1
   3   3  16 773.842 487.831   1
   3  -3  16 540.308 502.889   1
   3   3  17-175.427 309.423   1
   3  -3  17 105.282 355.461   1
   3   3  18 2183.69 1033.67   1
   3  -3  18 1591.10 895.284   1
   3  -3  19 1770.72 990.756   1
   3   3  19 870.304 696.146   1
  -3   4  20 1451.12 866.866   1
  -3   4  19 184.879 326.377   1
  -3   4  18 2930.39 1134.96   1
  -3   4  17-189.854 311.086   1
  -3   4  16 3116.41 1064.35   1
   3  -4 -15 1259.53 597.186   4
  -3   4  15 490.996 444.968   1
   3  -4 -14 286.703 199.900   4
  -3   4  14-329.324 423.331   1
   3  -4 -13 891.270 400.502   4
  -3   4  13 861.911 500.180   1
  -3   4  12 15681.4 1967.32   1
  -3   4  11 1381.35 542.277   1
  -3   4  10 4957.98 964.677   1
  -3   4   9 8457.37 1195.81   1
  -3   4   8 1855.47 538.274   1
  -3   4   7 18686.0 1549.68   1
  -3   4   6 2710.40 375.854   2
  -3   4   6 3295.32 594.924   1
   3  -4  -6 2276.95 492.650   1
   3  -4  -6 2676.12 809.806   3
   3  -4  -5 99967.4 4385.99   3
  -3   4   5 103455. 3012.01   1
  -3   4   5 102962. 2508.03   2
   3  -4  -5 100007. 2963.36   1
  -3   4   4 83075.4 2403.17   1
   3  -4  -4 85621.7 2463.06   1
   3   4  -4 80889.3 2567.73   3
   3  -4  -4 83963.9 3862.42   3
  -3   4   3 5817.16 560.099   1
   3  -4  -3 5511.74 555.510   1
   3   4  -3 5847.49 617.551   3
   3  -4  -3 4821.26 900.008   3
   3   4  -2 30971.0 1309.02   3
   3  -4  -2 33469.1 2251.31   3
  -3   4   2 32745.9 1161.05   1
  -3   4   1 22304.3 922.911   1
   3  -4  -1 24658.6 1877.37   3
  -3  -4   1 24278.4 1157.60   3
   3  -4   0 50644.4 2670.55   3
   3   4   0 52096.9 2509.43   1
  -3  -4   0 49762.6 1739.62   3
   3   4   0 47414.5 2274.03   4
  -3   4  -1 42.0656 60.8350   1
   3   4   1 54.4046 157.959   4
   3   4   1 75.2764 142.911   1
   3   4   2 3118.15 622.257   1
   3   4   2 3923.84 585.664   4
  -3   4  -2 3395.13 505.164   1
  -3   4  -3 130238. 3443.57   1
  -3  -4  -3 132506. 4410.51   2
   3   4   3 131115. 4232.24   1
  -3  -4  -4 28940.9 2098.25   2
   3   4   4 28109.9 2044.85   1
   3  -4   4 27872.4 1768.01   1
  -3   4  -4 25605.5 1672.37   1
   3   4   5 1491.50 454.796   1
  -3  -4  -5 1278.61 433.555   2
  -3  -4  -5 975.428 242.067   4
   3  -4   5 1771.31 499.666   1
  -3  -4  -6 19759.4 1753.82   2
  -3  -4  -6 17696.3 968.339   4
   3  -4   6 17205.6 1633.47   1
   3   4   6 20280.7 1903.75   1
   3   4   7 207.425 272.974   1
  -3  -4  -7 451.440 333.835   2
  -3  -4  -7 210.745 96.7093   4
   3  -4   7 157.043 136.374   1
  -3  -4  -8 8998.78 646.592   4
   3  -4   8 8798.32 1340.78   1
   3   4   8 9114.98 1409.67   1
   3   4   9 3646.18 946.205   1
   3  -4   9 4273.68 977.557   1
   3  -4  10 4301.05 1004.52   1
   3   4  10 3564.69 1001.82   1
   3   4  11 22576.1 2505.92   1
   3  -4  11 19761.3 2337.04   1
   3  -4  12 255.831 199.528   1
   3   4  12 1817.53 791.883   1
   3   4  13 166.188 383.035   1
   3  -4  13 724.764 627.775   1
   3   4  14 822.774 524.947   1
  -3  -4 -14 265.410 298.405   2
   3  -4  14 342.990 521.609   1
   3   4  15 106.009 238.709   1
   3  -4  15-1.23017 322.286   1
   3  -4  16 609.242 484.945   1
   3   4  16 1627.83 774.860   1
   3   4  17 2627.94 1059.32   1
   3  -4  17 387.205 338.347   1
   3  -4  18-788.097 635.397   1
   3   4  18 490.131 624.618   1
   3   4  19-203.207 368.303   1
   3  -4  19 595.693 600.983   1
  -3   5  20-441.503 484.044   1
  -3   5  19-48.2886 236.761   1
  -3   5  18 3629.76 1265.59   1
  -3   5  17 1383.02 803.898   1
  -3   5  16 103.134 222.487   1
  -3   5  15 1416.57 634.069   1
  -3   5  14 16238.2 2208.71   1
  -3   5  13-100.083 374.080   1
  -3   5  12 1463.71 575.623   1
  -3   5  11 3892.67 933.709   1
  -3   5  10 332.321 288.105   1
  -3   5   9 1285.46 484.829   1
  -3   5   8-123.809 152.667   1
  -3   5   7 1084.65 200.367   2
  -3   5   7 1096.14 396.399   1
  -3   5   6 2821.86 551.908   1
   3  -5  -6 1537.84 603.597   3
  -3   5   6 2228.46 345.768   2
   3  -5  -6 1985.63 491.130   1
   3  -5  -5 10913.1 1474.88   3
   3  -5  -5 9208.56 961.122   1
  -3   5   5 8638.77 919.981   1
   3  -5  -4 44587.3 1955.16   1
  -3   5   4 45814.8 1916.59   1
   3  -5  -4 47538.4 2986.77   3
   3   5  -4 47054.7 1778.83   3
  -3   5   3 103.835 88.0388   1
   3   5  -3 2.17742 64.8598   3
   3  -5  -3-23.4167 200.571   3
  -3   5   2 96722.0 2421.79   1
   3  -5  -2 98960.6 4046.85   3
   3  -5  -1 90869.1 3743.33   3
  -3   5   1 85920.1 2267.73   1
  -3  -5   1 87868.4 1956.42   3
  -3  -5   0 7649.78 634.750   3
   3  -5   0 7745.92 1079.59   3
   3   5   0 9063.92 1137.37   1
   3  -5   1 48511.2 2685.52   3
   3   5   1 45392.4 2172.34   4
  -3   5  -1 45833.7 1836.52   1
   3   5   1 46575.8 2594.75   1
   3   5   2 124199. 4292.09   1
  -3   5  -2 130861. 3397.56   1
   3   5   2 125511. 3376.70   4
   3   5   3 43.1014 85.5713   4
  -3  -5  -3-59.4467 192.365   2
  -3   5  -3-9.17187 106.128   1
   3   5   3 298.244 234.575   1
  -3  -5  -4 25762.0 2037.35   2
  -3   5  -4 24312.9 1724.35   1
   3   5   4 24804.8 2035.14   1
   3   5   5 7979.83 1197.19   1
  -3  -5  -5 7825.84 1134.42   2
   3   5   6 3940.48 867.601   1
  -3  -5  -6 5029.37 906.759   2
   3  -5   7 1083.51 409.298   1
   3   5   7 638.884 409.868   1
   3  -5   8 1773.82 635.373   1
   3   5   8 576.571 296.797   1
   3   5   9 3828.83 957.632   1
   3  -5   9 2693.14 754.052   1
   3   5  10 7058.25 1375.15   1
   3  -5  10 5650.46 1167.55   1
   3  -5  11 311.301 267.274   1
   3   5  11 1077.01 547.827   1
   3   5  12 11186.6 1904.21   1
   3  -5  12 9687.12 1714.22   1
   3   5  13 11805.8 2036.03   1
   3  -5  13 10040.0 1844.02   1
   3  -5  14 581.107 487.370   1
   3   5  14 94.1607 257.485   1
   3   5  15 387.292 352.945   1
   3  -5  15 783.496 595.014   1
   3   5  16-238.340 239.991   1
   3  -5  16 164.693 183.737   1
   3  -5  17 608.335 607.704   1
   3   5  17 331.017 417.615   1
   3  -5  18 660.720 592.405   1
   3   5  18 1336.29 829.674   1
   3  -5  19 754.321 596.728   1
  -3   6  20-160.557 319.505   1
  -3   6  19 829.495 686.545   1
  -3   6  18 522.322 586.473   1
  -3   6  17 1041.57 672.414   1
  -3   6  16 1518.00 765.608   1
  -3   6  15 6359.40 1459.01   1
  -3   6  14 2668.46 923.544   1
  -3   6  13 307.266 229.477   1
  -3   6  12 6773.32 1305.20   1
  -3   6  11 6533.68 1218.55   1
  -3   6  10 4342.20 947.975   1
  -3   6   9 3590.08 803.155   1
  -3   6   8 5747.00 954.679   1
  -3   6   7 5897.27 504.878   2
  -3   6   7 5953.65 909.025   1
   3  -6  -7 7832.22 1397.72   3
  -3   6   6 44263.2 2360.15   1
   3  -6  -6 48563.8 3384.97   3
  -3   6   5 18160.6 1399.24   1
   3  -6  -5 18502.5 1992.43   3
   3   6  -5 19491.3 1199.68   3
   3  -6  -5 18304.5 1443.88   1
  -3   6   4 96.2832 133.764   1
   3  -6  -4 155.970 130.992   1
   3   6  -4 250.721 108.942   3
   3  -6  -4 170.961 221.100   3
   3  -6  -3 7446.06 1209.29   3
   3   6  -3 5968.54 434.463   3
  -3   6   3 7053.83 786.477   1
  -3   6   2 1199.57 304.408   1
   3  -6  -2 1432.03 463.150   3
   3  -6  -1 3546.17 773.987   3
  -3   6   1 3402.51 530.767   1
  -3  -6   1 3337.95 315.875   3
   3   6   0 79303.7 3623.27   1
  -3  -6   0 81764.8 1907.81   3
   3  -6   0 79092.2 3616.56   3
   3   6   1-134.975 234.829   1
   3  -6   1 59.3392 212.189   3
   3   6   2 2468.29 505.728   4
  -3   6  -2 2907.34 549.302   1
  -3   6  -3 535.339 261.866   1
   3   6   3 804.150 288.597   4
   3   6   3 840.414 464.106   1
   3   6   4 7655.78 1184.80   1
   3   6   5 1167.45 462.239   1
   3   6   6 7590.63 1286.79   1
   3   6   7 13498.1 1727.40   1
   3   6   8 1780.89 665.452   1
   3   6   9 8699.17 1506.96   1
   3   6  10 657.499 400.982   1
   3   6  11 362.465 366.694   1
   3  -6  11 1153.87 641.176   1
   3  -6  12 1916.48 793.669   1
   3   6  12 1496.66 724.925   1
   3  -6  13 1238.81 670.695   1
   3   6  13 314.936 335.942   1
   3  -6  14 1397.47 805.023   1
   3   6  14 451.467 406.316   1
   3   6  15 290.021 374.511   1
   3  -6  15 356.196 492.167   1
   3   6  16 740.577 587.228   1
   3  -6  16 648.812 510.356   1
   3   6  17-234.099 489.367   1
   3  -6  17 187.235 341.288   1
   3   6  18 2306.52 1082.08   1
  -3   7  20 2481.84 1128.22   1
  -3   7  19-22.4206 159.122   1
  -3   7  18 715.538 590.041   1
  -3   7  17 1183.26 660.723   1
  -3   7  16-581.155 479.806   1
  -3   7  15 3845.74 1090.48   1
  -3   7  14 1537.94 695.098   1
  -3   7  13 4284.76 1108.06   1
  -3   7  12 2559.36 799.589   1
  -3   7  11 3283.96 854.180   1
  -3   7  10-182.545 292.294   1
  -3   7   9 2414.34 695.930   1
  -3   7   8 7034.04 1101.39   1
   3  -7  -8 5738.54 1265.69   3
   3  -7  -7 2663.27 792.615   3
  -3   7   7 2535.34 627.181   1
  -3   7   6 9374.78 1133.19   1
   3  -7  -6 9664.98 1526.72   3
  -3   7   5 1527.46 431.085   1
   3   7  -5 1241.93 274.143   3
   3  -7  -5 1663.40 645.155   3
   3  -7  -4 7911.40 1287.73   3
  -3   7   4 6246.84 848.226   1
   3   7  -4 6624.20 446.851   3
  -3   7   3 932.596 323.257   1
   3  -7  -3 1475.54 554.623   3
  -3   7   2 14923.4 1228.06   1
   3  -7  -2 15761.7 1712.67   3
  -3   7   1 33721.4 1860.61   1
   3  -7  -1 33901.8 2477.75   3
   3   7   0 35956.4 2619.29   1
   3  -7   0 37960.4 2549.52   3
  -3  -7   0 31569.3 1050.16   3
   3  -7   1 4861.67 912.972   3
   3   7   1 4454.36 956.284   1
   3   7   2 2549.39 690.214   1
   3   7   3 14514.4 1678.36   1
   3   7   3 12060.4 1066.17   4
   3   7   4 15546.9 1765.87   1
   3   7   4 14138.3 1011.66   4
   3   7   5 4318.19 950.373   1
   3   7   6 2606.15 765.898   1
   3   7   7 287.912 288.096   1
   3   7   8 36.9049 205.892   1
   3   7   9 198.617 342.680   1
   3   7  10 4656.26 1160.29   1
   3   7  11-145.464 261.425   1
   3   7  12 3402.35 1147.47   1
   3   7  13 417.823 497.124   1
   3   7  14-1135.70 682.489   1
   3   7  15 470.522 565.011   1
   3   7  16 148.215 314.387   1
   3   7  17-192.088 362.144   1
   3   7  18 1616.36 913.967   1
  -3   8  19 1717.91 907.630   1
  -3   8  18 1822.60 900.305   1
  -3   8  17-228.762 327.861   1
  -3   8  16 527.870 459.865   1
  -3   8  15-439.820 414.686   1
  -3   8  14-536.494 427.754   1
  -3   8  13 465.726 400.701   1
  -3   8  12 4801.81 1140.74   1
  -3   8  11 8111.23 1404.07   1
  -3   8  10 2144.18 695.249   1
  -3   8   9 18428.0 1929.73   1
   3  -8  -9 21932.8 2658.43   3
  -3   8   8 9758.52 1346.04   1
   3  -8  -8 10298.2 1729.48   3
  -3   8   7 2242.45 616.265   1
   3  -8  -7 2403.23 773.928   3
   3  -8  -6 26690.4 2611.81   3
  -3   8   6 20196.8 1756.15   1
  -3   8   5 3400.08 703.261   1
   3   8  -5 3319.11 348.252   3
   3  -8  -5 4124.66 1017.81   3
   3  -8  -4 18662.8 2040.77   3
  -3   8   4 19092.2 1572.18   1
   3  -8  -3 46.9064 201.903   3
  -3   8   3 25.5820 122.981   1
  -3   8   2 533.873 243.668   1
   3  -8  -2 1467.95 564.915   3
  -3   8   1 3765.97 690.148   1
   3  -8  -1 3420.85 811.419   3
   3   8   0 302.126 241.244   1
   3  -8   0 1298.43 481.012   3
   3   8   1 2387.56 677.482   1
   3  -8   1 2863.12 719.033   3
   3   8   2 5497.06 1073.14   1
   3   8   3 317.054 165.095   1
   3   8   4 3416.58 534.164   4
   3   8   4 2983.92 819.294   1
   3   8   5 129.871 98.7564   4
   3   8   5 573.024 383.804   1
   3   8   6 6624.43 1263.25   1
   3   8   7 7177.30 1338.95   1
   3   8   8 989.221 480.603   1
   3   8   9 2776.71 933.463   1
   3   8  10 1338.20 715.867   1
   3   8  11 716.594 483.390   1
   3   8  12 798.306 515.619   1
   3   8  13 3550.74 1160.03   1
   3   8  14 5725.00 1533.31   1
   3   8  15 1065.12 687.463   1
   3   8  16-1125.75 731.771   1
   3   8  17 288.926 422.562   1
  -3   9  19 184.201 331.224   1
  -3   9  18 279.261 374.028   1
  -3   9  17-23.7306 171.532   1
  -3   9  16 612.364 423.753   1
  -3   9  15 2712.56 1000.26   1
  -3   9  14 1106.70 616.829   1
  -3   9  13 213.190 260.580   1
  -3   9  12 3685.65 1018.98   1
  -3   9  11 1948.85 705.185   1
  -3   9  10 4362.13 1018.21   1
   3  -9 -10 4966.94 1331.46   3
   3  -9  -9 3776.89 1150.66   3
  -3   9   9 4603.54 1016.28   1
  -3   9   8 23019.8 2145.78   1
   3  -9  -8 19047.7 2417.23   3
   3  -9  -7 15078.0 2103.71   3
  -3   9   7 14145.7 1603.24   1
  -3   9   6 1135.10 442.097   1
   3   9  -6 572.188 168.669   3
   3  -9  -6 1057.61 482.274   3
  -3   9   5-389.572 256.282   1
   3  -9  -5 221.965 221.505   3
   3  -9  -4 740.490 369.846   3
  -3   9   4 1662.11 513.849   1
  -3   9   3 6311.48 955.912   1
   3  -9  -3 6930.18 1274.32   3
  -3   9   2 521.515 285.120   1
   3  -9  -2 144.246 219.999   3
   3  -9  -1 5573.94 1067.05   3
  -3   9   1 5961.98 933.204   1
   3  -9   0 11260.3 1509.96   3
   3   9   0 10596.7 1622.62   1
   3   9   1 11099.3 1614.47   1
   3   9   2 4490.64 1022.35   1
   3   9   3 7756.03 1341.87   1
   3   9   4-149.918 367.967   1
   3   9   4 306.553 150.498   4
   3   9   5 141.927 102.170   4
   3   9   5 234.096 198.739   1
   3   9   6 1810.13 705.717   1
   3   9   7 641.478 444.350   1
   3   9   8 1395.83 625.284   1
   3   9   9 1454.34 642.796   1
   3   9  10 9549.43 1800.37   1
   3   9  11 5185.64 1311.78   1
   3   9  12 344.261 210.958   1
   3   9  13-155.071 344.271   1
   3   9  14 1567.40 891.553   1
   3   9  15 1684.78 877.648   1
   3   9  16 517.282 317.895   1
   3   9  17-988.434 731.243   1
  -3  10  18-222.771 336.806   1
  -3  10  17-454.968 451.783   1
  -3  10  16 333.388 372.945   1
  -3  10  15 1219.01 656.027   1
  -3  10  14 268.033 328.061   1
  -3  10  13-300.042 335.013   1
  -3  10  12 5829.10 1295.87   1
  -3  10  11 7645.00 1437.12   1
   3 -10 -11 5340.34 1451.02   3
  -3  10  10 6450.15 1247.94   1
   3 -10 -10 6206.84 1485.41   3
  -3  10   9 9502.15 1484.74   1
   3 -10  -9 9217.64 1786.05   3
   3 -10  -8 6918.53 1510.54   3
  -3  10   8 6489.53 1155.60   1
   3 -10  -7 1273.66 570.323   3
  -3  10   7 1168.93 463.804   1
  -3  10   6 1021.21 394.306   1
   3 -10  -6 1270.36 653.395   3
  -3  10   5 144.163 177.774   1
   3 -10  -5-40.2484 242.294   3
  -3  10   4 9603.86 1272.77   1
   3 -10  -4 12095.3 1760.49   3
  -3  10   3 757.957 320.265   1
   3 -10  -3 608.400 177.599   3
  -3  10   2 3641.85 784.713   1
   3 -10  -2 3636.61 874.177   3
   3 -10  -1 1807.62 683.602   3
  -3  10   1 1612.55 511.894   1
   3  10   0 2015.00 749.712   1
   3 -10   0 2397.09 700.431   3
   3  10   1 9265.38 1543.23   1
  -3 -10  -1 8289.69 631.805   3
   3  10   2-58.8206 197.002   1
   3  10   3 3321.76 935.935   1
   3  10   4 28.3141 271.366   1
   3  10   5 7453.17 790.673   4
   3  10   5 10329.5 1653.09   1
   3  10   6 13821.6 1975.87   1
   3  10   7 14308.2 2074.87   1
   3  10   8 689.158 390.702   1
   3  10   9 2768.62 932.033   1
   3  10  10-310.734 380.803   1
   3  10  11 477.669 439.822   1
   3  10  12 322.711 278.539   1
   3  10  13 658.746 444.238   1
   3  10  14 107.496 435.289   1
   3  10  15 4473.62 1397.37   1
   3  10  16-211.544 362.103   1
  -3  11  18-62.5267 212.557   1
  -3  11  17 1564.07 826.288   1
  -3  11  16 1233.40 732.237   1
  -3  11  15 543.123 464.892   1
  -3  11  14 259.227 337.469   1
   3 -11 -13 206.003 250.405   3
  -3  11  13 487.341 361.416   1
  -3  11  12-405.975 366.419   1
   3 -11 -12-212.407 325.465   3
  -3  11  11 1382.89 587.104   1
   3 -11 -11 1056.17 609.182   3
   3 -11 -10 731.147 548.151   3
  -3  11  10-552.377 404.134   1
   3 -11  -9 19993.6 2682.42   3
  -3  11   9 19732.9 2215.74   1
  -3  11   8 10976.6 1590.48   1
   3 -11  -8 13145.5 2109.76   3
  -3  11   7 7710.38 1294.58   1
   3 -11  -7 9245.57 1731.04   3
  -3  11   6 418.528 352.713   1
   3 -11  -6-122.595 231.146   3
  -3  11   5 7130.45 1180.94   1
   3 -11  -5 7876.69 1479.00   3
  -3  11   4 2936.44 757.933   1
   3 -11  -4 4268.12 1075.70   3
  -3  11   3 4352.21 915.732   1
   3 -11  -3 4000.65 1027.90   3
  -3  11   2 12836.9 1547.00   1
   3 -11  -2 14327.7 1860.93   3
   3 -11  -1 12289.7 1663.79   3
  -3  11   1 13778.3 1618.93   1
   3  11  -1 14863.1 2077.85   1
   3 -11   0 12438.7 1645.25   3
   3  11   0 11929.3 1854.71   1
  -3  11   0 12372.8 1553.96   1
   3  11   1 252.965 264.233   1
  -3 -11  -1 32.1404 54.3444   3
   3  11   2 6009.75 1305.14   1
   3  11   3 4006.71 1060.80   1
   3  11   4 3626.42 1097.35   1
   3  11   5 180.036 132.682   4
   3  11   5 192.012 342.655   1
   3  11   6 111.318 291.341   1
   3  11   7 3741.35 1070.20   1
   3  11   8 400.426 312.003   1
   3  11   9 2186.39 844.188   1
   3  11  10 1975.31 858.059   1
   3  11  11 268.873 385.067   1
   3  11  12 42.0812 496.444   1
   3  11  13 710.117 593.516   1
   3  11  14-810.316 625.013   1
   3  11  15 303.017 433.113   1
  -3  12  17 600.206 643.457   1
   3 -12 -16-42.2538 238.582   3
  -3  12  16 205.966 248.339   1
  -3  12  15 1980.90 953.923   1
   3 -12 -15 3571.08 1428.16   3
  -3  12  14-29.2733 152.939   1
   3 -12 -14 24.3544 192.923   3
  -3  12  13-501.576 421.586   1
   3 -12 -13 330.962 433.951   3
  -3  12  12 855.352 595.113   1
   3 -12 -12 825.774 672.779   3
  -3  12  11 4094.01 1115.60   1
   3 -12 -11 3906.44 1276.60   3
  -3  12  10 373.304 209.988   1
   3 -12 -10 678.581 668.937   3
   3 -12  -9 5063.23 1361.49   3
  -3  12   9 6725.63 1344.14   1
  -3  12   8 307.898 285.329   1
   3 -12  -8-90.2643 313.510   3
   3 -12  -7 1540.94 726.051   3
  -3  12   7 1961.79 657.456   1
  -3  12   6 4927.90 1080.55   1
   3 -12  -6 6134.96 1341.96   3
  -3  12   5 24534.1 2313.14   1
   3 -12  -5 26232.3 2754.78   3
  -3  12   4 108.835 158.933   1
   3 -12  -4 217.284 244.109   3
  -3  12   3 22597.0 2183.71   1
   3 -12  -3 22273.6 2429.44   3
   3 -12  -2 939.777 445.569   3
  -3  12   2 254.093 299.371   1
  -3  12   1 18382.3 1995.46   1
   3 -12  -1 19156.0 2132.58   3
   3  12  -1 21768.9 2610.48   1
   3  12   0 1512.24 760.510   1
   3 -12   0 1418.83 642.271   3
  -3  12   0 1029.55 470.565   1
   3  12   1 10665.9 1802.72   1
   3  12   2 4350.60 1149.85   1
   3  12   3 13868.3 2054.34   1
   3  12   4 876.971 546.450   1
   3  12   5-197.744 453.943   1
   3  12   6 6006.98 1449.99   1
   3  12   7 276.725 323.904   1
   3  12   8 2153.82 890.722   1
   3  12   9 329.038 275.374   1
   3  12  10 441.709 275.519   1
   3  12  11 424.746 477.691   1
   3  12  12 788.557 592.235   1
   3  12  13 2563.18 1089.37   1
   3  12  14 2342.52 1083.62   1
   3  12  15-562.187 567.654   1
  -3  13  16 555.223 608.670   1
  -3  13  15-372.434 403.397   1
   3 -13 -15-381.788 501.277   3
  -3  13  14-761.615 547.650   1
   3 -13 -14-966.639 739.289   3
  -3  13  13-675.097 498.108   1
   3 -13 -13-304.714 425.742   3
  -3  13  12 80.8654 188.209   1
   3 -13 -12-448.336 492.918   3
  -3  13  11 43.6498 222.648   1
   3 -13 -11 232.445 492.757   3
  -3  13  10 1319.50 596.759   1
   3 -13 -10 877.230 494.841   3
   3 -13  -9 13409.2 2286.64   3
  -3  13   9 12244.5 1861.24   1
  -3  13   8 3696.86 992.949   1
   3 -13  -8 4524.48 1335.25   3
  -3  13   7 813.561 430.191   1
   3 -13  -7 1300.86 739.317   3
  -3  13   6 24.9309 137.901   1
   3 -13  -6 372.368 427.897   3
  -3  13   5 1022.80 547.915   1
   3 -13  -5 69.9742 374.193   3
   3 -13  -4 263.025 387.287   3
  -3  13   4 721.353 387.220   1
  -3  13   3 12937.1 1750.39   1
   3 -13  -3 13322.5 1917.99   3
   3 -13  -2 330.738 322.603   3
  -3  13   2 632.135 284.093   1
   3  13  -1 3366.48 1042.46   1
  -3  13   1 2977.72 840.388   1
   3 -13  -1 3928.64 1014.35   3
  -3  13   0 7620.49 1358.40   1
   3 -13   0 7419.59 1338.59   3
   3  13   0 10963.1 1960.99   1
   3  13   1 135.196 258.423   1
   3  13   2 107.952 321.918   1
   3  13   3 22567.9 2765.68   1
   3  13   4 3181.26 1044.50   1
   3  13   5 4141.76 1206.88   1
   3  13   6-280.629 466.746   1
   3  13   7 1012.62 618.491   1
   3  13   8 837.228 599.236   1
   3  13   9-534.029 478.771   1
   3  13  10-502.333 490.814   1
   3  13  11 1277.32 777.458   1
   3  13  12 798.108 616.330   1
   3  13  13 974.854 690.829   1
   3  13  14-388.806 476.974   1
  -3  14  15 925.764 611.981   1
  -3  14  14 697.864 543.840   1
   3 -14 -14-1545.22 938.783   3
   3 -14 -13-732.894 622.889   3
  -3  14  13 413.130 388.818   1
  -3  14  12-132.416 234.473   1
   3 -14 -12-618.937 563.155   3
  -3  14  11 485.778 418.609   1
   3 -14 -11 1183.69 793.901   3
  -3  14  10 58.7208 174.412   1
   3 -14 -10 617.420 532.841   3
   3 -14  -9 225.180 410.391   3
  -3  14   9 66.1129 216.755   1
  -3  14   8 1853.23 742.222   1
   3 -14  -8-11.8721 419.527   3
  -3  14   7 2139.12 770.045   1
   3 -14  -7 2707.48 1009.91   3
  -3  14   6 1279.50 596.215   1
   3 -14  -6 987.977 484.025   3
   3 -14  -5 11933.2 1951.20   3
  -3  14   5 12957.8 1849.86   1
   3 -14  -4 618.857 520.897   3
  -3  14   4 1949.01 680.436   1
  -3  14   3 6995.83 1337.68   1
   3 -14  -3 7517.74 1471.77   3
   3  14  -2 8263.96 1754.50   1
  -3  14   2 6306.84 1272.67   1
   3 -14  -2 8232.63 1508.86   3
   3  14  -1 3105.56 1102.38   1
  -3  14   1 2556.57 813.795   1
   3 -14  -1 2160.83 750.489   3
   3  14   0 961.824 600.971   1
  -3  14   0 1677.53 683.028   1
   3  14   1 3908.36 1190.92   1
  -3  14  -1 4533.48 1110.05   1
   3  14   2 2182.73 871.246   1
   3  14   3 925.649 517.651   1
   3  14   4 2935.29 981.701   1
   3  14   5-124.805 288.135   1
   3  14   6 540.130 558.827   1
   3  14   7 1018.14 667.369   1
   3  14   8-54.4216 231.096   1
   3  14   9 783.717 623.608   1
   3  14  10 351.543 436.528   1
   3  14  11-604.876 532.028   1
   3  14  12 270.790 383.147   1
   3  14  13 336.955 443.868   1
  -3  15  14 588.276 505.130   1
   3 -15 -14-181.710 356.674   3
  -3  15  13 871.185 594.672   1
   3 -15 -13 507.256 539.823   3
  -3  15  12 253.964 337.105   1
   3 -15 -12 243.716 374.919   3
  -3  15  11-345.253 356.582   1
   3 -15 -11 916.370 705.199   3
  -3  15  10-454.685 410.223   1
   3 -15 -10 1743.76 840.618   3
   3 -15  -9 69.4214 482.647   3
  -3  15   9 1211.08 651.041   1
  -3  15   8-99.3326 233.695   1
   3 -15  -8-531.739 476.682   3
  -3  15   7 1986.66 725.119   1
   3 -15  -7 1210.66 657.752   3
  -3  15   6-118.867 180.906   1
   3 -15  -6 768.725 562.106   3
  -3  15   5 1049.98 541.002   1
   3 -15  -5 77.4585 228.557   3
  -3  15   4 54.1246 298.583   1
   3 -15  -4-341.487 338.415   3
  -3  15   3 2044.99 738.297   1
   3 -15  -3 896.221 448.178   3
  -3  15   2 4577.46 1125.34   1
   3  15  -2 5242.87 1467.17   1
   3 -15  -2 3844.70 1039.63   3
   3  15  -1 7418.26 1693.74   1
   3 -15  -1 7355.78 1427.08   3
  -3  15   1 7249.50 1453.43   1
   3  15   0 2962.82 1077.80   1
  -3  15   0 1538.22 656.992   1
  -3  15  -1 5698.72 1323.98   1
   3  15   1 4837.54 1332.30   1
   3  15   2 104.360 241.600   1
   3  15   3 443.707 365.041   1
   3  15   4 752.653 550.580   1
   3  15   5 338.493 408.469   1
   3  15   6 320.292 363.246   1
   3  15   7 2479.79 1078.76   1
   3  15   8-545.867 501.238   1
   3  15   9 16.7208 333.962   1
   3  15  10 2024.64 948.173   1
   3  15  11 927.446 683.541   1
   3  15  12 1227.02 787.069   1
   3 -16 -13 352.010 472.583   3
  -3  16  12 694.453 534.133   1
   3 -16 -12-727.165 621.600   3
  -3  16  11 1637.96 800.098   1
   3 -16 -11 105.445 233.033   3
  -3  16  10 182.112 282.500   1
   3 -16 -10 588.837 618.332   3
   3 -16  -9 350.863 416.507   3
  -3  16   9 485.981 417.677   1
  -3  16   8 3236.69 1029.90   1
   3 -16  -8 2144.49 926.855   3
  -3  16   7 86.5676 201.301   1
   3 -16  -7-469.412 449.275   3
  -3  16   6 3623.46 1061.44   1
   3 -16  -6 3072.42 1084.56   3
  -3  16   5 3477.70 1029.61   1
   3 -16  -5 3038.26 1031.71   3
  -3  16   4 1540.42 659.628   1
   3 -16  -4 938.131 540.206   3
   3  16  -3 2959.69 1160.50   1
  -3  16   3 2099.16 813.303   1
   3 -16  -3 3918.66 1089.96   3
  -3  16   2-270.793 381.130   1
   3 -16  -2 461.886 414.111   3
   3  16  -2 88.6723 456.765   1
   3 -16  -1 122.888 230.766   3
  -3  16   1-411.064 373.242   1
   3  16  -1-107.822 302.207   1
   3  16   0 525.457 507.182   1
  -3  16   0 241.330 303.700   1
  -3  16  -1 700.002 454.822   1
   3  16   1 720.046 679.881   1
  -3  16  -2 4499.91 1247.89   1
   3  16   2 3889.39 1284.05   1
   3  16   3 2653.24 1079.23   1
   3  16   4 291.251 582.198   1
   3  16   5-134.719 302.547   1
   3  16   6 180.744 315.786   1
   3  16   7 3582.49 1298.25   1
   3  16   8 993.152 737.954   1
   3  16   9 339.021 480.956   1
   3  16  10 235.561 388.248   1
   3 -17 -12-1426.89 874.778   3
   3 -17 -11 530.324 608.944   3
   3 -17 -10 260.496 377.658   3
  -3  17  10 643.875 502.991   1
   3 -17  -9 80.3582 240.616   3
  -3  17   9 246.088 338.164   1
  -3  17   8 591.516 480.591   1
   3 -17  -8 18.7055 180.945   3
  -3  17   7 2319.23 897.170   1
   3 -17  -7 1428.69 764.702   3
  -3  17   6-717.488 514.181   1
   3 -17  -6 680.346 522.761   3
  -3  17   5 695.964 494.018   1
   3 -17  -5 416.002 504.518   3
   3 -17  -4 525.977 391.512   3
  -3  17   4 103.782 207.973   1
   3 -17  -3-25.6486 149.909   3
  -3  17   3 331.283 146.480   1
  -3  17   2 445.044 327.743   1
   3  17  -2 476.082 643.419   1
  -3  17   1 345.206 172.479   1
   3  17  -1 691.443 634.120   1
   3  17   0 2270.59 1081.84   1
  -3  17   0 4308.26 1224.20   1
   3  17   1 393.443 256.764   1
  -3  17  -1 1129.04 630.060   1
  -3  17  -2 119.007 248.014   1
   3  17   2 134.778 280.517   1
   3  17   3 2690.38 1100.94   1
   3  17   4 46.0935 220.254   1
   3  17   5 1213.64 764.538   1
   3  17   6 880.790 658.700   1
   3  17   7 1269.77 743.574   1
   3  17   8 881.692 621.735   1
   3  17   9 675.306 604.545   1
  -3  18   7 31.0739 190.690   1
  -3  18   6 795.083 496.058   1
  -3  18   5 1754.33 782.792   1
   3  18  -4 3.25655 221.116   1
  -3  18   4-942.380 590.219   1
  -3  18   3 1645.52 808.910   1
   3  18  -3 1071.65 706.487   1
  -3  18   2 510.385 447.438   1
   3  18  -2-81.9196 376.528   1
   3  18  -1 180.585 351.365   1
  -3  18   1-321.870 350.501   1
  -3  18   0 113.115 232.918   1
   3  18   0-67.7761 251.363   1
  -3  18  -1 235.158 315.392   1
   3  18   1-1056.43 722.242   1
  -3  18  -2 1416.94 790.042   1
   3  18   2-70.0218 233.924   1
   3  18   3 3755.79 1295.08   1
  -3  18  -3 2708.62 1036.12   1
   3  18   4 1151.54 811.289   1
   3  18   5 275.009 488.740   1
   3  18   6 1075.17 775.317   1
   3  18   7 94.7418 260.274   1
  -3  19   4 304.565 369.023   1
   3  19  -3 124.811 328.316   1
  -3  19   3-752.233 548.746   1
  -3  19   2 191.541 301.196   1
   3  19  -2 729.936 687.536   1
  -3  19   1 985.172 575.385   1
   3  19  -1-1347.51 849.454   1
  -3  19   0 275.004 351.123   1
   3  19   0 1929.73 1036.40   1
  -3  19  -1-196.296 304.234   1
   3  19   1 452.693 495.139   1
   3  19   2 1352.36 827.643   1
  -3  19  -2 224.201 338.135   1
   3  19   3 229.939 365.892   1
  -3  19  -3 123.933 261.352   1
  -3  19  -4 614.757 514.899   1
  -3  20   1-610.870 518.674   1
  -3  20   0 1064.67 677.087   1
  -3  20  -1-841.936 615.346   1
  -3  20  -2-454.915 479.628   1
  -3  20  -3 1334.90 795.320   1
  -3  20  -4-988.804 696.396   1
  -3  20  -5-909.218 680.741   1
  -4   0  20 2872.81 1205.83   1
  -4   0  19 172.713 423.543   1
   4   0 -18 13.0635 270.167   4
  -4   0  18 398.669 445.380   1
   4   0 -17 45.1520 310.570   4
  -4   0  17 65.0754 275.539   1
   4   0 -16 1228.31 587.333   4
  -4   0  16 2163.37 878.084   1
   4   0 -15-530.484 389.393   4
  -4   0  15-227.737 532.573   1
   4   0 -14 1403.06 687.230   4
  -4   0  14 523.782 445.411   1
  -4   0  13 103.287 199.645   1
   4   0 -13-158.293 349.009   4
  -4   0  12 10114.6 1595.57   1
   4   0 -12 10909.1 1715.72   4
   4   0 -11 71.9727 354.088   4
  -4   0  11 690.010 477.876   1
   4   0 -10 7868.47 971.923   2
  -4   0  10 6509.26 1170.66   1
   4   0 -10 5730.83 1152.17   4
   4   0  -9 71.1581 83.2987   2
  -4   0   9-336.239 254.429   1
   4   0  -9-53.9985 217.536   4
   4   0  -8 10852.0 1137.13   2
   4   0  -8 11842.4 1599.34   4
   4   0  -7 134.774 173.429   3
   4   0  -7 53.8450 184.394   4
   4   0  -7 10.0353 132.303   2
   4   0  -6 22928.6 1641.22   2
   4   0  -6 23568.0 1608.32   1
   4   0  -6 26029.5 2206.85   4
   4   0  -6 22695.1 2079.70   3
   4   0  -5 93.0244 111.481   2
   4   0  -5-84.2183 203.052   4
   4   0  -5 154.736 315.510   3
   4   0  -5 312.096 198.102   1
   4   0  -4 24522.5 1704.68   2
  -4   0   4 25259.1 1775.07   2
   4   0  -4 24358.1 1364.39   1
   4   0  -4 26654.8 2013.99   3
   4   0  -4 26710.6 2108.77   4
   4   0  -3 95.1105 123.283   2
  -4   0   3 116.072 132.410   2
   4   0  -3 87.6203 81.8149   1
   4   0  -3 106.257 256.157   4
   4   0  -3-70.6185 185.304   3
   4   0  -2 21526.2 1628.67   2
  -4   0   2 21962.0 1690.19   2
   4   0  -2 22280.5 1738.27   3
   4   0  -1 70.7960 82.3029   1
  -4   0   1 11.7050 112.449   3
   4   0  -1 140.526 77.1363   3
   4   0   0 1438.31 270.652   1
  -4   0   0 1699.51 464.519   3
  -4   0  -1 43.1300 35.5078   1
   4   0   1 15.4592 76.6432   1
   4   0   2 1548.88 341.664   1
  -4   0  -2 1340.20 340.926   1
  -4   0  -3-15.7699 81.1303   1
   4   0   3 121.868 169.628   1
   4   0   4 16420.6 1340.69   1
  -4   0  -4 15059.8 1297.75   1
   4   0   5-100.685 131.313   1
   4   0   6 35808.8 2366.85   1
   4   0   7 170.957 255.624   1
   4   0   8 1008.65 474.813   1
   4   0   9 174.658 324.686   1
   4   0  10 47100.8 3421.23   1
   4   0  11 253.018 269.216   1
   4   0  12 24793.0 2729.24   1
   4   0  13-326.080 497.490   1
   4   0  14 8437.05 1718.92   1
   4   0  15 253.939 454.925   1
  -4   0 -16 1608.38 720.208   2
   4   0  16 1764.87 813.837   1
   4   0  17 301.714 600.198   1
   4   0  18 1.55995 553.370   1
   4   0  19-500.099 544.383   1
  -4   1  20 373.203 460.814   1
  -4   1  19 648.318 559.271   1
   4   1 -19-96.1531 261.285   4
   4  -1 -18 1142.79 622.888   4
  -4   1  18 816.525 491.292   1
   4   1 -18 817.603 461.920   4
   4   1 -17 112.133 232.270   4
   4  -1 -17 361.286 380.093   4
  -4   1  17 885.771 604.428   1
   4  -1 -16 2241.72 878.523   4
  -4   1  16 2854.41 974.827   1
   4   1 -16 1764.92 825.143   4
  -4  -1  15 3660.49 1140.20   1
   4  -1 -15 3387.71 1037.81   4
   4   1 -15 2284.32 866.311   4
  -4   1  15 1954.41 786.085   1
   4   1 -14 2184.81 870.438   4
  -4  -1  14 2583.87 857.248   1
   4  -1 -14 1338.76 664.047   4
  -4   1  14 1755.11 713.891   1
  -4   1  13-252.079 390.796   1
   4   1 -13-120.021 298.952   4
   4  -1 -13-69.8485 332.494   4
  -4  -1  13-339.783 331.601   1
  -4   1  12 4956.63 1082.98   1
   4   1 -12 6331.95 1337.91   4
   4  -1 -12 3371.90 934.772   4
   4   1 -11 8206.60 1500.56   4
   4  -1 -11 7213.69 1316.16   4
  -4   1  11 7663.16 1297.37   1
   4  -1 -10 10842.8 1009.65   2
   4   1 -10 15974.0 2019.82   4
   4  -1 -10 13681.7 1773.99   4
  -4   1  10 13064.3 1594.58   1
   4  -1  -9 1361.58 346.928   2
   4  -1  -9 1889.68 669.274   4
   4   1  -9 1877.92 703.937   4
  -4   1   9 1009.01 416.486   1
   4  -1  -8 5087.18 708.735   2
   4   1  -8 4735.58 1024.64   4
   4  -1  -8 5975.59 1105.38   4
  -4   1   8 6127.24 946.457   1
   4   1  -7 6535.53 1158.56   4
   4  -1  -7 5120.43 721.624   2
  -4   1   7 5667.19 844.287   1
   4  -1  -7 5252.76 1002.04   4
   4  -1  -7 4588.24 744.298   1
   4   1  -7 5179.91 983.051   3
   4  -1  -7 6195.36 1135.96   3
   4  -1  -6 5760.85 776.279   2
  -4   1   6 6954.84 859.431   1
   4  -1  -6 6666.87 822.575   1
   4  -1  -6 6176.46 1058.02   4
   4   1  -6 6708.62 913.528   1
   4   1  -6 6666.92 1134.45   4
   4   1  -6 7703.43 1143.97   3
   4  -1  -6 8589.77 1289.53   3
   4  -1  -5 3313.24 592.195   2
   4   1  -5 2969.43 712.922   4
   4   1  -5 4499.03 697.805   1
   4   1  -5 3904.33 724.942   2
   4  -1  -5 3946.56 560.707   1
   4  -1  -5 3744.48 813.378   3
  -4   1   5 3709.38 648.882   2
   4  -1  -5 4117.34 853.475   4
   4   1  -5 2826.00 667.653   3
   4  -1  -4 983.149 343.178   2
   4  -1  -4 1258.91 481.712   3
   4  -1  -4 1191.71 271.339   1
   4   1  -4 812.457 268.009   4
  -4   1   4 1294.09 371.937   2
  -4  -1   4 854.457 319.597   2
   4   1  -4 1125.37 431.785   3
   4   1  -4 1041.93 313.581   1
  -4  -1   3 5047.23 815.686   3
  -4   1   3 6207.89 868.163   2
  -4  -1   3 5179.30 849.649   2
   4   1  -3 6623.68 1036.77   4
   4   1  -3 6445.74 921.862   3
   4  -1  -3 6270.09 992.562   3
   4  -1  -3 6151.63 515.359   1
  -4   1   2 14092.5 1305.52   2
  -4  -1   2 14140.1 1416.80   2
   4   1  -2 14412.8 1460.12   4
   4  -1  -2 16534.3 1551.40   3
   4  -1  -2 14568.8 646.551   1
   4   1  -2 14812.2 1351.02   3
  -4  -1   2 15238.5 1385.39   3
  -4   1   1 5983.47 868.680   2
   4  -1  -1 4972.28 841.657   3
   4   1  -1 5326.27 609.701   1
   4   1  -1 5708.57 828.891   3
  -4  -1   1 5711.41 830.703   3
   4   1   0 1987.73 380.275   1
   4  -1   0 1300.51 404.748   3
   4  -1   0 2540.11 281.336   1
  -4  -1   0 2824.79 580.608   3
  -4  -1  -1 15879.0 1143.92   1
  -4   1  -1 17225.9 918.823   1
  -4  -1  -1 17826.9 1487.72   4
   4  -1   1 17455.6 906.011   1
  -4  -1  -1 18039.8 1515.69   3
   4   1   1 17353.5 1155.72   1
  -4   1  -2 38318.5 1592.39   1
  -4  -1  -2 34482.2 2046.82   4
  -4  -1  -2 39135.2 1905.50   1
   4  -1   2 40239.7 1648.09   1
   4   1   2 40743.8 1880.27   1
   4  -1   3 6846.05 768.325   1
  -4  -1  -3 6896.78 859.367   1
   4   1   3 6194.29 796.082   1
  -4   1  -3 5994.95 716.115   1
   4   1   4 39899.7 2216.68   1
  -4   1  -4 38660.8 1996.23   1
   4  -1   4 42213.9 2133.34   1
   4   1   5 6384.52 941.450   1
   4  -1   5 7741.01 994.802   1
   4  -1   6 24669.0 1912.85   1
   4   1   6 27842.3 2098.92   1
   4  -1   7 658.348 405.867   1
   4   1   7 237.328 242.483   1
   4  -1   8 13920.0 1658.56   1
   4   1   8 14770.8 1744.44   1
   4  -1   9 586.083 361.214   1
  -4  -1  -9 1291.36 552.827   2
   4   1   9 613.162 414.351   1
   4   1  10 19173.6 2196.85   1
  -4  -1 -10 18535.8 2009.92   2
   4  -1  10 16603.0 2047.96   1
  -4  -1 -11 182.476 167.221   2
   4   1  11 34.1172 371.846   1
   4  -1  11 40.8977 263.178   1
   4   1  12 714.834 392.424   1
  -4  -1 -12-35.0693 220.852   2
   4  -1  12-46.9654 295.376   1
   4   1  13 2410.26 890.733   1
  -4  -1 -13 1611.90 644.739   2
   4  -1  13 1013.95 581.351   1
   4   1  14 3078.32 1011.40   1
  -4  -1 -14 2194.79 761.531   2
   4  -1  14 1882.04 822.534   1
   4   1  15 200.129 329.545   1
  -4  -1 -15 366.321 378.146   2
   4  -1  15-575.083 495.431   1
  -4  -1 -16 608.805 423.666   2
   4   1  16 899.155 537.475   1
   4  -1  16 76.1075 250.931   1
   4  -1  17-395.645 478.404   1
   4   1  17-98.2787 272.049   1
   4  -1  18 143.399 305.144   1
   4   1  18-500.836 514.276   1
   4  -1  19 1030.04 758.493   1
   4   1  19 565.864 572.744   1
   4   2 -20 1570.22 827.189   4
  -4   2  20 3143.44 1225.75   1
   4   2 -19 715.924 569.900   4
  -4   2  19 1356.71 747.483   1
   4   2 -18 430.981 409.985   4
  -4   2  18 68.6877 222.349   1
   4   2 -17-329.748 385.397   4
  -4   2  17 693.324 450.926   1
   4  -2 -17-134.218 261.061   4
   4   2 -16 2527.63 996.259   4
   4  -2 -16 1592.88 769.534   4
  -4   2  16 1609.98 749.612   1
   4  -2 -15 326.326 309.908   4
  -4   2  15-738.831 505.020   1
   4   2 -15-237.785 536.827   4
   4  -2 -14 14519.8 2010.90   4
  -4   2  14 14018.3 2040.28   1
   4   2 -14 13196.7 2109.85   4
   4  -2 -13 67.2708 214.832   4
  -4   2  13-69.9042 272.136   1
  -4   2  12 9830.97 1538.16   1
   4  -2 -12 11987.0 1747.31   4
   4   2 -12 11562.0 1892.63   4
   4  -2 -11 8401.41 1401.36   4
   4   2 -11 4582.72 1118.27   4
  -4   2  11 8003.31 1306.91   1
  -4   2  10 22536.7 2076.34   1
   4  -2 -10 20484.9 2154.54   4
   4   2 -10 21405.6 2379.58   4
   4  -2  -9 9635.67 1416.28   4
   4   2  -9 9712.50 1530.87   4
  -4   2   9 11739.7 1396.66   1
  -4   2   8 6503.61 980.162   1
   4   2  -8 6173.41 1225.73   4
   4  -2  -8 5075.42 986.155   4
   4   2  -7 1325.84 520.373   4
   4  -2  -7 931.775 372.961   3
   4  -2  -7 1094.16 481.082   4
   4  -2  -7 1132.34 363.958   1
  -4   2   7 988.945 369.326   1
   4  -2  -6 11606.5 1040.58   1
  -4   2   6 10642.8 1041.33   2
   4  -2  -6 12750.5 1630.22   3
   4   2  -6 12357.2 1403.29   3
  -4   2   6 11040.7 1040.21   1
   4   2  -6 12906.4 1630.32   4
   4  -2  -5 2245.70 404.316   1
  -4   2   5 1680.97 410.247   2
   4  -2  -5 2384.14 624.497   3
   4   2  -5 1287.65 495.776   4
  -4   2   5 1892.85 385.084   1
   4   2  -5 1526.79 423.007   1
   4   2  -5 3216.24 679.263   3
  -4   2   4 3236.69 594.705   2
   4  -2  -4 3753.87 441.750   1
   4   2  -4 3854.54 825.071   4
   4   2  -4 3638.03 669.343   3
   4  -2  -4 2963.46 743.969   3
  -4  -2   3-63.5138 90.1482   2
   4   2  -3 205.306 228.172   4
   4   2  -3 231.851 224.532   3
   4  -2  -3 237.728 175.348   3
  -4   2   3 373.059 207.956   2
   4  -2  -3 292.923 91.7916   1
  -4   2   2 51281.9 2466.75   2
   4   2  -2 53923.3 2839.04   4
   4   2  -2 50585.4 2385.66   3
   4  -2  -2 50410.8 2833.64   3
  -4  -2   2 51901.3 2444.05   3
   4   2  -1 14768.4 1448.90   4
   4   2  -1 16625.2 1343.00   3
   4  -2  -1 19122.6 1707.77   3
  -4  -2   1 18523.8 1438.34   3
   4   2  -1 15513.6 1185.78   1
  -4   2   1 18178.5 1517.92   2
   4  -2   0 30511.0 2154.41   3
   4   2   0 30304.7 1652.61   1
  -4  -2   0 31082.1 1871.63   3
  -4   2  -1 64068.0 1600.67   1
   4   2   1 66902.3 2532.72   1
  -4  -2  -1 66292.3 2871.03   4
   4  -2   1 65798.2 1641.74   1
  -4  -2  -1 66823.5 2806.64   3
   4  -2   2 6314.19 630.319   1
  -4  -2  -2 6387.77 860.679   4
  -4  -2  -2 7293.70 900.603   1
  -4   2  -2 7691.31 677.070   1
   4   2   2 7691.64 903.830   1
  -4  -2  -3 931.518 343.341   4
   4   2   3 1261.31 394.997   1
  -4  -2  -3 1436.29 419.294   1
  -4   2  -3 1243.93 325.374   1
   4  -2   3 1251.42 321.964   1
   4   2   4 4946.19 800.244   1
  -4   2  -4 3908.73 632.423   1
   4  -2   4 4079.08 658.012   1
   4   2   5 3771.69 749.669   1
   4  -2   5 3397.53 659.488   1
   4  -2   6 5837.21 929.501   1
   4   2   6 5996.93 996.229   1
   4   2   7 7314.37 1171.52   1
   4  -2   7 7821.36 1166.14   1
   4   2   8-114.313 283.792   1
   4  -2   8-57.4458 229.549   1
  -4  -2  -9 11473.6 1520.60   2
   4  -2   9 13480.4 1727.29   1
   4   2   9 14919.6 1846.55   1
  -4  -2 -10 16877.5 1914.81   2
   4  -2  10 12493.4 1759.80   1
   4   2  10 12994.8 1833.87   1
  -4  -2 -11 1104.43 535.865   2
   4   2  11 34.1454 338.667   1
   4  -2  11 1982.44 747.644   1
   4  -2  12 3810.43 1092.44   1
  -4  -2 -12 6554.28 1245.03   2
   4   2  12 6190.29 1395.39   1
  -4  -2 -13 1888.79 682.225   2
   4   2  13 2829.24 989.483   1
   4  -2  13 1619.66 666.645   1
   4   2  14 3243.88 997.207   1
  -4  -2 -14 4363.99 1057.90   2
   4  -2  14 4254.89 1217.49   1
  -4  -2 -15 38.0671 157.868   2
   4  -2  15 274.101 503.100   1
   4   2  15-22.1898 193.777   1
   4   2  16 392.258 443.485   1
   4  -2  16-285.145 393.606   1
   4   2  17 665.259 599.530   1
   4  -2  17 179.423 332.626   1
   4  -2  18 828.448 649.729   1
   4   2  18 1550.36 859.244   1
   4  -2  19 1203.71 819.436   1
   4   3 -20 1353.67 811.819   4
  -4   3  20 256.606 382.345   1
   4   3 -19 1025.77 718.478   4
  -4   3  19-135.387 290.177   1
  -4   3  18 1589.41 811.547   1
   4   3 -18 1817.22 895.863   4
  -4   3  17 853.093 355.068   1
   4   3 -17 433.891 444.453   4
  -4   3  16-348.030 374.778   1
   4  -3 -16 532.185 367.896   4
   4   3 -16 936.112 620.146   4
   4  -3 -15 33.1353 237.698   4
  -4   3  15 713.783 427.253   1
   4  -3 -14 2394.59 794.707   4
  -4   3  14 1867.22 739.900   1
  -4   3  13 13832.3 1927.18   1
   4  -3 -13 11559.6 1721.10   4
   4  -3 -12 37012.1 3005.61   4
  -4   3  12 36075.7 2956.88   1
   4  -3 -11 5888.50 1163.60   4
  -4   3  11 3582.37 868.762   1
   4  -3 -10 1103.78 476.500   4
  -4   3  10 1111.39 438.594   1
  -4   3   9 2341.03 621.266   1
  -4   3   8 14495.7 1430.09   1
   4  -3  -8 13650.3 1873.55   3
   4   3  -7 12812.7 1450.30   3
   4  -3  -7 11248.4 1115.39   1
   4  -3  -7 12907.7 1764.01   3
  -4   3   7 12762.6 1229.37   1
   4  -3  -6 20057.0 1346.27   1
  -4   3   6 21755.3 1420.83   2
   4  -3  -6 19457.9 2077.21   3
   4   3  -6 18726.4 1685.25   3
  -4   3   6 20842.8 1428.33   1
   4   3  -6 20099.5 2100.69   4
  -4   3   5 9408.53 836.520   1
   4   3  -5 7839.30 1234.32   4
   4   3  -5 7732.96 1008.59   3
   4  -3  -5 8434.84 765.510   1
   4  -3  -5 7814.40 1283.82   3
  -4   3   5 8789.50 942.631   2
  -4   3   4 46867.3 2237.68   2
   4   3  -4 47325.9 2961.71   4
  -4   3   4 44099.4 1502.44   1
   4  -3  -4 44862.2 1480.40   1
   4   3  -4 46929.4 2332.64   3
   4  -3  -4 46058.5 2978.10   3
  -4   3   3 7808.97 929.508   2
   4   3  -3 8569.01 1205.04   4
   4  -3  -3 7449.95 449.094   1
  -4   3   3 6969.86 436.066   1
   4   3  -3 7134.78 865.636   3
   4  -3  -3 6595.47 1084.44   3
   4   3  -2 9630.19 1236.07   4
   4   3  -2 10018.0 1000.06   3
   4  -3  -2 10471.0 1330.03   3
  -4  -3   2 9094.57 976.922   3
   4  -3  -1 4493.03 869.733   3
   4   3  -1 5504.27 900.996   4
   4   3  -1 4537.61 708.166   1
  -4  -3   1 4858.67 701.143   3
   4   3   0 29669.8 1821.04   1
   4  -3   0 31297.6 2239.04   3
  -4  -3   0 31374.4 1797.60   3
   4   3   0 29683.2 1980.55   4
   4   3   1 66401.4 2786.36   1
  -4   3  -1 65550.8 1610.87   1
  -4  -3  -1 67345.7 2916.37   4
  -4  -3  -1 64121.6 2650.60   3
   4  -3   2 208.671 126.500   1
  -4  -3  -2 243.551 145.919   4
  -4   3  -2 205.104 106.766   1
   4   3   2 112.355 197.772   1
  -4  -3  -3 135.218 108.267   4
   4   3   3-11.9112 182.915   1
  -4   3  -3-101.982 100.005   1
   4  -3   3-46.2207 149.895   1
  -4  -3  -4 15920.7 1286.51   4
   4  -3   4 16018.7 1319.66   1
   4   3   4 17997.7 1600.78   1
  -4   3  -4 17469.0 1343.51   1
  -4  -3  -5 250.358 186.992   4
   4   3   5 491.534 236.115   1
   4  -3   5 8.59622 86.2632   1
  -4  -3  -6 12273.6 1091.25   4
   4  -3   6 13033.4 1411.27   1
   4   3   6 11688.9 1447.90   1
   4   3   7-12.2867 249.602   1
   4  -3   7 695.548 414.536   1
   4  -3   8 17795.4 1890.34   1
   4   3   8 18580.3 2020.88   1
   4   3   9 1821.88 622.345   1
  -4  -3  -9 1024.45 411.486   2
   4  -3   9 820.141 449.596   1
  -4  -3 -10 7068.79 1243.76   2
   4   3  10 5971.83 1241.89   1
   4  -3  10 5255.83 1176.64   1
  -4  -3 -11 74.3709 209.126   2
   4   3  11-16.1082 181.668   1
   4  -3  11 345.296 461.346   1
  -4  -3 -12 25114.5 2434.07   2
   4   3  12 21189.8 2596.36   1
   4  -3  12 28009.5 2916.94   1
  -4  -3 -13 5332.16 1131.67   2
   4   3  13 3003.03 974.037   1
   4  -3  13 4456.97 1246.35   1
   4   3  14-84.9589 230.856   1
  -4  -3 -14-214.186 257.951   2
   4  -3  14-59.3997 375.715   1
   4   3  15 243.213 489.256   1
  -4  -3 -15 94.8386 183.671   2
   4  -3  15-141.537 439.958   1
   4   3  16 1580.53 786.490   1
   4  -3  16 3669.13 1279.25   1
   4   3  17-314.124 416.649   1
   4  -3  17 392.832 466.989   1
   4   3  18 851.544 720.757   1
   4  -3  18-517.828 526.548   1
   4  -3  19 310.916 448.721   1
  -4   4  20 240.871 367.122   1
   4   4 -20 1087.57 737.479   4
  -4   4  19 634.624 435.278   1
   4   4 -19 1705.15 898.602   4
   4   4 -18 581.428 594.190   4
  -4   4  18 490.611 461.260   1
  -4   4  17 1708.35 828.672   1
  -4   4  16 2602.77 941.628   1
  -4   4  15 2221.40 848.416   1
  -4   4  14 807.117 452.636   1
  -4   4  13 49.4278 162.713   1
  -4   4  12 176.242 205.762   1
  -4   4  11 15167.6 1806.90   1
  -4   4  10 8162.09 1242.29   1
  -4   4   9 15230.1 1584.53   1
   4  -4  -8 1853.92 684.927   3
  -4   4   8 2332.28 568.456   1
  -4   4   7 2267.83 515.737   1
   4  -4  -7 2574.44 538.547   1
  -4   4   7 2646.95 456.708   2
   4   4  -7 2460.54 613.960   3
   4  -4  -7 2731.10 803.195   3
   4   4  -6 26347.3 1909.63   3
  -4   4   6 25877.3 1517.91   2
  -4   4   6 25884.4 1598.44   1
   4  -4  -6 25517.0 2433.06   3
   4  -4  -6 22354.5 1451.88   1
   4  -4  -5 21008.5 1254.04   1
  -4   4   5 22521.1 1479.47   2
  -4   4   5 22759.0 1309.92   1
   4  -4  -5 21573.8 2157.82   3
   4   4  -5 22842.6 1643.61   3
  -4   4   4 17143.9 1341.21   2
   4  -4  -4 16915.2 970.294   1
   4   4  -4 15108.6 1255.37   3
   4  -4  -4 18215.5 1929.26   3
  -4   4   4 16939.3 961.342   1
  -4   4   3 15636.3 734.551   1
   4  -4  -3 15654.3 1736.95   3
   4   4  -3 17327.2 1766.66   4
   4   4  -3 16559.8 1241.99   3
   4   4  -2 90635.7 3853.45   4
   4   4  -2 85830.3 2734.36   3
   4  -4  -2 89377.0 4056.56   3
  -4  -4   2 88318.5 2832.18   3
   4   4  -1 10844.4 1280.34   4
  -4  -4   1 10288.7 969.519   3
   4  -4  -1 10077.8 1320.12   3
   4   4   0 1523.49 499.046   1
  -4   4   0 1046.43 180.487   1
  -4  -4   0 1120.76 315.724   3
   4  -4   0 1182.71 503.321   3
   4   4   0 2048.56 568.754   4
  -4   4  -1 127522. 2469.47   1
   4   4   1 136678. 4302.30   1
   4   4   1 127936. 4005.18   4
  -4  -4  -1 125020. 3573.87   3
  -4   4  -2 415.013 172.461   1
   4   4   2 354.810 264.990   1
  -4   4  -3 1280.79 332.611   1
   4   4   3 1034.79 420.738   1
  -4   4  -4 2416.83 515.931   1
   4   4   4 3177.66 712.672   1
   4  -4   4 3604.24 636.418   1
  -4  -4  -4 2023.64 458.555   4
   4   4   5 2070.64 630.830   1
  -4  -4  -5 1817.32 413.527   4
   4  -4   5 2528.35 579.232   1
  -4  -4  -6 4810.05 652.396   4
   4  -4   6 4780.53 877.512   1
   4   4   6 5446.79 1037.59   1
  -4  -4  -7 3337.78 530.917   4
   4  -4   7 2997.96 732.699   1
   4   4   7 3687.52 870.676   1
  -4  -4  -8 172.892 119.540   4
   4   4   8 151.406 326.998   1
   4  -4   8-9.61420 109.884   1
   4   4   9 16162.2 1993.55   1
  -4  -4  -9 13294.2 1014.44   4
   4  -4   9 16354.7 1927.17   1
  -4  -4  -9 13853.7 1731.76   2
  -4  -4 -10 6885.47 1243.48   2
   4  -4  10 8368.72 1464.98   1
   4   4  10 6115.92 1290.02   1
  -4  -4 -11 290.295 199.953   2
   4   4  11-56.9046 405.307   1
   4  -4  11 252.288 299.652   1
  -4  -4 -12 288.048 335.696   2
   4   4  12 822.842 567.857   1
   4  -4  12 487.519 458.576   1
  -4  -4 -13-70.6507 167.420   2
   4   4  13-2.18569 473.629   1
  -4  -4 -14-140.114 207.030   2
   4  -4  14-199.962 300.285   1
   4   4  15-139.754 293.969   1
   4  -4  15 1043.45 726.653   1
   4   4  16 1768.54 882.171   1
   4  -4  16 1771.41 890.531   1
   4   4  17 412.727 461.583   1
   4  -4  17 1658.91 929.658   1
   4   4  18 1653.22 822.495   1
   4  -4  18-599.908 583.793   1
   4   5 -20 958.326 681.070   4
  -4   5  20 126.138 279.234   1
  -4   5  19-896.781 641.423   1
  -4   5  18 1682.59 897.431   1
  -4   5  17 837.609 519.518   1
  -4   5  16 1507.64 710.571   1
  -4   5  15 84.9495 301.539   1
  -4   5  14 198.500 303.901   1
  -4   5  13 3830.02 1031.60   1
  -4   5  12 6950.66 1283.63   1
  -4   5  11-44.4746 281.518   1
  -4   5  10 493.978 293.541   1
   4  -5  -9 660.366 488.694   3
  -4   5   9 249.493 111.162   1
  -4   5   8 2758.21 402.821   2
  -4   5   8 2473.35 590.991   1
   4  -5  -8 2543.63 839.519   3
   4   5  -7 2011.03 556.314   3
  -4   5   7 2102.74 518.406   1
  -4   5   7 1766.34 362.282   2
   4  -5  -7 1412.42 408.233   1
   4  -5  -7 1230.11 547.313   3
  -4   5   6 30637.5 1625.72   2
   4  -5  -6 30429.9 1756.94   1
  -4   5   6 30257.7 1758.14   1
   4  -5  -6 32104.6 2835.03   3
   4   5  -6 30212.1 1944.97   3
   4  -5  -5 5049.28 647.699   1
  -4   5   5 4966.08 645.666   1
   4   5  -5 4031.05 635.860   3
   4  -5  -5 5216.64 1102.57   3
  -4   5   5 5634.34 746.095   2
   4  -5  -4 37221.3 1587.94   1
  -4   5   4 38039.8 1548.66   1
   4  -5  -4 38059.9 2844.87   3
   4   5  -4 37590.3 1818.43   3
  -4   5   3 83003.0 2013.59   1
   4   5  -3 84797.5 2566.02   3
   4  -5  -3 84932.8 4205.95   3
  -4   5   2 355.377 116.287   1
   4   5  -2 530.118 308.572   4
   4  -5  -2 340.498 246.089   3
  -4  -5   2 794.697 260.406   3
  -4   5   1 812.346 179.053   1
   4   5  -1 366.340 233.283   4
  -4  -5   1 267.206 135.702   3
   4  -5   0 2822.71 700.362   3
   4   5   0 2176.58 527.167   1
   4   5   0 2363.75 563.223   4
  -4  -5   0 3037.39 508.829   3
  -4   5   0 1979.12 306.571   1
  -4   5  -1 17384.7 1045.37   1
   4   5   1 19265.9 1760.97   1
   4   5   1 16502.0 1455.35   4
   4   5   2 60625.9 3124.44   1
  -4   5  -2 57270.3 2151.23   1
   4   5   2 60150.8 2656.69   4
  -4   5  -3 135.791 122.209   1
   4   5   3-68.3511 321.975   1
  -4   5  -4 4377.02 715.436   1
   4   5   4 5318.65 986.603   1
   4   5   5 155.097 156.828   1
   4   5   6 3790.91 907.311   1
   4  -5   6 4497.12 864.103   1
   4   5   7 13117.5 1705.29   1
   4  -5   7 11290.9 1454.22   1
  -4  -5  -8 1152.64 480.919   2
   4  -5   8 1067.39 433.558   1
   4   5   8 297.200 141.511   1
  -4  -5  -9 3491.73 866.895   2
   4  -5   9 2687.91 824.795   1
   4   5   9 3265.09 956.494   1
   4  -5  10 3768.32 993.144   1
   4   5  10 2595.34 894.631   1
  -4  -5 -10 3106.32 894.145   2
   4   5  11 723.368 584.092   1
  -4  -5 -11 152.109 365.985   2
   4  -5  11 22.5241 232.589   1
  -4  -5 -12-40.1319 215.893   2
   4  -5  12 104.728 295.305   1
  -4  -5 -13 931.388 483.435   2
   4   5  13 438.947 266.530   1
   4  -5  13 212.562 449.718   1
  -4  -5 -14-98.4663 187.603   2
   4   5  14-21.8516 173.365   1
   4  -5  14-304.119 383.931   1
   4  -5  15-108.573 353.982   1
   4   5  15 955.832 685.583   1
   4   5  16 492.726 484.612   1
   4  -5  16 1164.93 754.136   1
   4   5  17 1585.24 897.007   1
   4  -5  17 899.132 660.406   1
   4   5  18 1100.42 769.843   1
   4  -5  18 1391.40 910.003   1
  -4   6  20-616.046 561.268   1
  -4   6  19 94.9878 228.498   1
  -4   6  18-1252.28 732.437   1
  -4   6  17 1290.89 754.200   1
  -4   6  16 1693.00 790.245   1
  -4   6  15-385.279 374.133   1
  -4   6  14 474.096 408.344   1
  -4   6  13 1885.53 756.410   1
  -4   6  12 592.314 390.625   1
  -4   6  11-191.707 229.368   1
  -4   6  10 8117.33 1254.62   1
   4  -6 -10 7493.03 1609.10   3
   4  -6  -9 7175.44 1487.70   3
  -4   6   9 7353.09 1128.69   1
  -4   6   8 25703.4 1216.93   2
  -4   6   8 28093.9 2061.30   1
   4  -6  -8 29203.7 2953.46   3
  -4   6   7 120.773 100.732   2
  -4   6   7 356.411 243.166   1
   4   6  -7 269.783 220.533   3
   4  -6  -7-132.937 179.988   3
  -4   6   6 73925.8 2578.82   2
   4  -6  -6 68036.8 2781.90   1
  -4   6   6 73888.3 2859.62   1
   4   6  -6 70779.2 2779.72   3
   4  -6  -6 79308.8 4517.52   3
  -4   6   5 94.6768 118.424   1
   4  -6  -5 248.358 168.968   1
   4  -6  -5 289.914 202.212   3
   4   6  -5-20.3767 123.779   3
   4  -6  -4 17.5602 179.307   3
  -4   6   4 89.1814 59.9811   1
   4   6  -4 98.2750 108.268   3
   4  -6  -3 6798.54 1215.83   3
  -4   6   3 7425.21 696.390   1
  -4   6   2 54436.8 1808.92   1
   4  -6  -2 60222.4 3531.78   3
  -4   6   1 1935.76 339.762   1
   4  -6  -1 1748.30 604.711   3
  -4  -6   1 2210.79 371.761   3
   4   6   0 6193.61 986.587   4
  -4  -6   0 7404.22 737.382   3
   4   6   0 5867.87 1034.22   1
   4  -6   0 5648.30 1082.86   3
   4   6   1 14022.0 1581.70   1
  -4   6  -1 13686.4 1043.48   1
   4   6   1 15064.2 1460.84   4
   4   6   2 3817.07 828.494   1
  -4   6  -2 4430.46 645.209   1
   4   6   2 4531.69 750.780   4
   4   6   3 10407.7 1412.87   1
   4   6   3 10263.4 1046.66   4
  -4   6  -3 11558.7 1137.39   1
   4   6   4 2876.52 767.733   1
   4   6   5 38658.3 2829.13   1
   4   6   6 2833.65 836.165   1
   4   6   7 4025.82 961.231   1
  -4  -6  -7 4594.01 978.758   2
  -4  -6  -8 89.0994 279.527   2
   4   6   8 360.780 233.539   1
  -4  -6  -9-36.4838 343.664   2
   4   6   9 224.209 360.439   1
  -4  -6 -10 6723.71 1250.78   2
   4  -6  10 6443.76 1330.65   1
   4   6  10 7269.59 1478.99   1
  -4  -6 -11 562.216 360.982   2
   4  -6  11-287.151 520.450   1
   4   6  11 220.119 240.530   1
   4  -6  12 576.138 433.427   1
  -4  -6 -12 954.522 462.786   2
   4   6  12 1400.00 765.065   1
  -4  -6 -13 9629.61 1560.43   2
   4   6  13 11873.4 2090.76   1
   4  -6  13 8255.21 1740.45   1
   4   6  14 2591.18 1009.99   1
   4  -6  14 2908.98 1125.52   1
   4   6  15 963.664 714.862   1
   4  -6  15-117.666 283.084   1
   4   6  16 2222.25 1106.93   1
   4  -6  16 870.786 611.468   1
   4   6  17-290.753 421.731   1
   4  -6  17 153.621 348.313   1
   4  -6  18 822.712 714.927   1
  -4   7  19 1093.15 821.556   1
  -4   7  18 12.1203 132.698   1
  -4   7  17-87.1148 209.967   1
  -4   7  16 1386.04 682.026   1
  -4   7  15 287.189 326.642   1
  -4   7  14 297.807 311.429   1
  -4   7  13 200.138 265.385   1
  -4   7  12 2509.54 797.449   1
  -4   7  11 328.789 248.535   1
   4  -7 -11 37.6389 241.205   3
   4  -7 -10 5528.37 1445.42   3
  -4   7  10 5046.77 1015.14   1
   4  -7  -9 17807.9 2428.15   3
  -4   7   9 16548.7 1726.35   1
  -4   7   8 1107.91 259.085   2
  -4   7   8 1159.49 407.343   1
   4  -7  -8 337.600 359.525   3
  -4   7   7 619.928 222.831   2
  -4   7   7 715.885 342.260   1
   4  -7  -7 27.8643 244.257   3
   4   7  -7 368.411 219.175   3
   4  -7  -6 834.776 491.130   3
  -4   7   6 1042.28 344.369   1
   4   7  -6 787.555 282.037   3
  -4   7   5 306.112 186.410   1
   4   7  -5 372.885 166.382   3
   4  -7  -5 840.169 440.049   3
   4  -7  -4 9839.22 1528.62   3
   4   7  -4 9493.61 687.896   3
  -4   7   4 10052.7 964.149   1
   4  -7  -3 8866.50 1429.83   3
  -4   7   3 9513.93 901.265   1
   4  -7  -2 71.3902 343.727   3
  -4   7   2 949.379 272.473   1
  -4   7   1 15222.9 1123.23   1
   4  -7  -1 15905.4 1848.19   3
  -4  -7   1 14789.1 856.909   3
   4   7   0 112351. 4773.24   1
   4  -7   0 117062. 4947.66   3
  -4  -7   0 113785. 2665.00   3
  -4   7  -1 10413.2 1010.70   1
   4   7   1 12395.4 1583.25   1
   4   7   1 12896.1 1374.84   4
   4   7   2 762.210 317.503   4
   4   7   2 482.453 278.525   1
  -4   7  -2 297.666 190.806   1
   4   7   3 83.0075 156.948   4
   4   7   3 113.569 188.208   1
   4   7   4 946.121 436.943   1
   4   7   5 15417.0 1893.19   1
  -4  -7  -6 11882.6 1642.05   2
   4   7   6 11557.6 1685.36   1
   4   7   7 2911.88 863.788   1
  -4  -7  -7 2716.95 796.648   2
  -4  -7  -8 6950.52 1274.21   2
   4   7   8 7550.79 1423.77   1
  -4  -7  -9 2711.87 774.733   2
   4   7   9 2197.02 753.106   1
  -4  -7 -10 3906.44 970.439   2
   4   7  10 4891.50 1253.52   1
  -4  -7 -11 2828.89 840.212   2
   4   7  11 2464.04 943.594   1
  -4  -7 -12 3563.36 957.855   2
   4   7  12 3160.24 1083.50   1
  -4  -7 -13 1214.68 556.691   2
   4   7  13 1835.35 837.731   1
   4   7  14 1013.76 593.335   1
   4   7  15 980.429 699.074   1
   4   7  16 1670.16 855.606   1
   4   7  17 389.638 325.349   1
  -4   8  19-278.186 380.291   1
  -4   8  18 591.936 518.107   1
  -4   8  17 344.204 227.572   1
  -4   8  16 683.664 504.036   1
  -4   8  15-941.033 565.987   1
  -4   8  14 2984.63 935.825   1
  -4   8  13 6288.82 1315.41   1
   4  -8 -12-986.061 654.690   3
  -4   8  12-610.477 402.595   1
   4  -8 -11 5267.41 1436.34   3
  -4   8  11 4534.07 1041.37   1
  -4   8  10 45.1629 135.223   1
   4  -8 -10 267.127 452.595   3
  -4   8   9 3696.07 835.991   1
   4  -8  -9 4039.73 1177.19   3
  -4   8   8 18441.6 1134.09   2
   4  -8  -8 17118.9 2346.17   3
   4   8  -8 18115.6 1483.88   3
  -4   8   8 21812.7 1917.24   1
  -4   8   7 867.479 371.684   1
   4   8  -7 625.001 244.836   3
   4  -8  -7 669.454 485.703   3
   4   8  -6 37.1571 60.9996   3
   4  -8  -6 167.766 313.503   3
  -4   8   6 141.098 119.741   1
   4  -8  -5 459.114 303.998   3
  -4   8   5 172.094 123.756   1
   4   8  -5 166.101 85.9874   3
   4  -8  -4 11138.1 1693.74   3
  -4   8   4 12399.4 1180.14   1
  -4   8   3 1786.80 410.855   1
   4  -8  -3 1568.16 640.117   3
  -4   8   2 30895.8 1804.44   1
   4  -8  -2 32397.4 2733.75   3
   4   8  -1 4456.72 1007.38   1
   4  -8  -1 2910.42 776.948   3
  -4   8   1 3637.48 616.043   1
   4   8   0 4783.32 1036.75   1
   4  -8   0 5060.23 1051.41   3
  -4  -8   0 3894.31 438.723   3
   4   8   1 6374.18 1197.11   1
   4   8   2 26674.4 2454.83   1
   4   8   2 23196.8 1820.29   4
   4   8   3 26671.1 2508.13   1
   4   8   3 28103.8 1874.79   4
   4   8   4 13664.8 1809.98   1
   4   8   4 16845.2 1326.06   4
   4   8   5 11024.6 1653.54   1
   4   8   6 7216.65 1398.67   1
   4   8   7-1081.63 555.239   1
   4   8   8 2356.55 884.280   1
   4   8   9 1626.73 718.607   1
   4   8  10 1044.84 618.204   1
   4   8  11 9141.48 1776.73   1
   4   8  12 1355.66 748.461   1
   4   8  13 642.426 648.966   1
   4   8  14-18.5275 374.859   1
   4   8  15-448.638 483.798   1
   4   8  16-1031.94 723.052   1
   4   8  17 354.172 451.577   1
  -4   9  18 3136.45 1175.72   1
  -4   9  17 625.468 511.103   1
  -4   9  16 264.584 320.879   1
   4  -9 -15 1349.38 913.386   3
  -4   9  15 448.905 404.243   1
   4  -9 -14 2749.32 1130.74   3
  -4   9  14 2630.60 929.513   1
   4  -9 -13 93.9234 485.324   3
  -4   9  13 815.487 531.780   1
   4  -9 -12 2863.43 1119.78   3
  -4   9  12 3417.69 957.725   1
  -4   9  11 8258.63 1427.96   1
   4  -9 -11 7945.20 1841.33   3
   4  -9 -10 21.5065 190.246   3
  -4   9  10 228.300 263.857   1
   4   9  -9 722.173 311.528   3
  -4   9   9 451.698 344.701   1
   4  -9  -9 155.665 379.312   3
   4  -9  -8 684.408 461.893   3
  -4   9   8 1558.93 534.940   1
   4   9  -8 1890.10 440.108   3
   4  -9  -7 9327.33 1713.87   3
   4   9  -7 7111.54 706.073   3
  -4   9   7 7132.98 1097.80   1
   4   9  -6 3522.77 356.631   3
  -4   9   6 4396.97 826.379   1
   4  -9  -6 4613.04 1126.26   3
  -4   9   5 3114.03 659.296   1
   4  -9  -5 3243.61 975.188   3
   4  -9  -4 14364.9 1983.66   3
  -4   9   4 14669.9 1393.62   1
  -4   9   3 19785.2 1589.92   1
   4  -9  -3 17253.7 2096.21   3
  -4   9   2 16125.3 1432.19   1
   4  -9  -2 17410.6 2065.82   3
  -4   9   1 743.049 308.379   1
   4  -9  -1 780.280 372.692   3
   4   9   0 41020.9 3199.92   1
   4  -9   0 33676.4 2785.56   3
  -4   9   0 33614.5 2135.74   1
   4   9   1 15187.2 1937.84   1
  -4  -9  -1 13334.9 912.276   3
   4   9   2 9595.10 1218.07   4
   4   9   2 9819.42 1544.62   1
   4   9   3 3593.77 1001.00   1
   4   9   3 2904.00 636.199   4
   4   9   4 432.163 261.280   4
   4   9   4 1698.69 696.978   1
   4   9   5 8525.72 1500.80   1
   4   9   6 7494.32 1429.45   1
   4   9   7-966.666 543.166   1
   4   9   8 1365.13 636.197   1
   4   9   9-76.4476 224.122   1
   4   9  10 3.20810 272.758   1
   4   9  11 1423.82 730.281   1
   4   9  12 207.765 211.309   1
   4   9  13-688.006 545.284   1
   4   9  14-347.497 406.108   1
   4   9  15-998.856 692.711   1
   4   9  16 32.9915 357.847   1
  -4  10  17-269.169 350.904   1
  -4  10  16 680.818 563.178   1
   4 -10 -16 529.403 635.852   3
   4 -10 -15 562.446 674.193   3
  -4  10  15 573.517 406.435   1
   4 -10 -14 363.269 427.990   3
  -4  10  14-295.080 325.671   1
  -4  10  13 1488.40 660.664   1
   4 -10 -13 884.747 687.875   3
   4 -10 -12 104.161 278.315   3
  -4  10  12 799.280 474.257   1
  -4  10  11 650.033 413.196   1
   4 -10 -11 1359.31 867.966   3
  -4  10  10 762.973 502.512   1
   4 -10 -10 950.017 587.887   3
  -4  10   9 7633.76 1284.17   1
   4 -10  -9 4944.80 1335.13   3
   4 -10  -8 1038.75 599.435   3
  -4  10   8 1371.21 494.017   1
   4 -10  -7 3540.37 1081.31   3
  -4  10   7 4297.27 880.509   1
   4 -10  -6 516.989 391.129   3
  -4  10   6 898.156 401.502   1
  -4  10   5 767.986 349.475   1
   4 -10  -5 556.616 434.043   3
  -4  10   4 9920.16 1225.16   1
   4 -10  -4 12092.6 1846.36   3
  -4  10   3 6995.70 1014.09   1
   4 -10  -3 8551.56 1503.38   3
  -4  10   2 12.3615 77.3331   1
   4 -10  -2 446.576 355.724   3
  -4  10   1 4566.20 830.077   1
   4  10  -1 3461.36 1012.03   1
   4 -10  -1 4741.78 1109.89   3
  -4  10   0 483.597 285.453   1
   4  10   0 502.889 382.074   1
   4 -10   0 447.931 466.503   3
   4  10   1 1138.35 582.595   1
  -4 -10  -1 1288.16 252.463   3
   4  10   2 24203.9 2579.39   1
   4  10   3 16089.2 2136.54   1
   4  10   3 12464.1 1361.85   4
   4  10   4 38220.0 3301.34   1
   4  10   4 38526.9 2177.65   4
   4  10   5 179.304 291.277   1
   4  10   5 322.978 181.119   4
   4  10   6 895.568 561.068   1
   4  10   7 12.6991 292.592   1
   4  10   8 625.704 368.410   1
   4  10   9-100.482 239.899   1
   4  10  10-35.0446 422.021   1
   4  10  11 2079.66 841.184   1
   4  10  12 248.135 242.232   1
   4  10  13 487.503 489.161   1
   4  10  14-451.153 481.172   1
   4  10  15 976.237 799.047   1
   4 -11 -16-1183.44 839.198   3
  -4  11  15 790.095 544.901   1
   4 -11 -15 334.127 201.267   3
  -4  11  14 1917.92 791.376   1
   4 -11 -14 2018.84 1008.67   3
  -4  11  13-301.201 327.327   1
   4 -11 -13 650.319 592.246   3
   4 -11 -12 304.857 232.924   3
  -4  11  12 531.798 404.525   1
  -4  11  11 3509.07 982.308   1
   4 -11 -11 5511.94 1552.58   3
   4 -11 -10 299.417 430.203   3
  -4  11  10-94.6883 256.009   1
  -4  11   9-533.638 361.554   1
   4 -11  -9-295.599 374.756   3
   4 -11  -8 1831.36 802.215   3
  -4  11   8 2171.76 672.768   1
  -4  11   7 636.235 361.886   1
   4 -11  -7 415.809 431.454   3
  -4  11   6 4504.48 924.097   1
   4 -11  -6 3788.38 1094.70   3
   4 -11  -5 13175.2 2006.86   3
  -4  11   5 13093.5 1534.10   1
  -4  11   4-6.42198 120.084   1
   4 -11  -4-381.791 445.663   3
   4 -11  -3 1813.48 692.439   3
  -4  11   3 2163.53 614.002   1
  -4  11   2 368.130 271.692   1
   4 -11  -2-8.52721 216.798   3
   4 -11  -1-45.2923 347.268   3
  -4  11   1 208.035 249.155   1
   4  11  -1-18.8479 363.613   1
  -4  11   0 299.710 301.787   1
   4 -11   0 181.094 188.971   3
   4  11   0-21.5349 296.983   1
   4  11   1 5163.64 1254.52   1
   4  11   2 13090.3 1981.04   1
   4  11   3 4165.63 1103.07   1
   4  11   3 3551.19 758.014   4
   4  11   4 91.8369 198.757   4
   4  11   4 269.775 429.919   1
   4  11   5 1018.13 321.697   4
   4  11   5 1475.30 708.327   1
   4  11   6 1069.92 688.703   1
   4  11   7 496.343 420.123   1
   4  11   8 60.0527 215.922   1
   4  11   9 878.693 582.523   1
   4  11  10 1177.80 634.457   1
   4  11  11 40.3971 228.356   1
   4  11  12 1383.98 832.248   1
   4  11  13 2456.84 1007.95   1
   4  11  14-186.930 354.748   1
   4  11  15 217.695 273.348   1
   4 -12 -15-612.358 632.386   3
   4 -12 -14 477.298 541.259   3
  -4  12  13-298.169 330.047   1
   4 -12 -13 679.093 612.779   3
  -4  12  12 910.088 508.353   1
   4 -12 -12 918.066 589.875   3
  -4  12  11 1234.57 645.135   1
   4 -12 -11 2078.61 939.341   3
  -4  12  10 1738.94 647.356   1
   4 -12 -10 4002.51 1316.32   3
  -4  12   9 7493.87 1367.42   1
   4 -12  -9 5381.48 1453.20   3
  -4  12   8 1313.75 557.834   1
   4 -12  -8 691.055 466.347   3
   4 -12  -7 8510.23 1740.70   3
  -4  12   7 12079.3 1629.42   1
  -4  12   6-112.654 257.821   1
   4 -12  -6 141.827 344.228   3
  -4  12   5 117.089 179.159   1
   4 -12  -5 313.018 341.372   3
  -4  12   4 1940.44 595.903   1
   4 -12  -4 1691.30 714.937   3
  -4  12   3-262.717 323.411   1
   4 -12  -3-555.450 428.112   3
   4  12  -2 1395.90 720.045   1
  -4  12   2 1234.90 483.435   1
   4 -12  -2 2457.68 846.632   3
  -4  12   1 31386.2 2489.01   1
   4 -12  -1 33927.6 3067.24   3
   4  12  -1 28498.5 3075.28   1
  -4  12   0 3132.69 800.464   1
   4  12   0 4468.32 1247.38   1
   4 -12   0 3748.08 1037.19   3
   4  12   1 14403.3 2143.07   1
   4  12   2 705.000 560.200   1
   4  12   3 396.770 341.818   1
   4  12   4 5088.31 862.109   4
   4  12   4 7545.27 1580.43   1
   4  12   5 1697.11 801.114   1
   4  12   6 119.501 286.568   1
   4  12   7 1281.54 607.589   1
   4  12   8 1064.92 708.468   1
   4  12   9 2874.54 1056.19   1
   4  12  10 1372.89 778.576   1
   4  12  11 1726.49 881.300   1
   4  12  12 753.904 704.719   1
   4  12  13 2553.73 1107.61   1
   4  12  14 213.077 370.448   1
   4 -13 -14-130.098 325.928   3
   4 -13 -13 1207.22 868.085   3
  -4  13  12 302.514 317.697   1
   4 -13 -12 246.875 389.588   3
  -4  13  11 2270.88 819.968   1
   4 -13 -11 2814.42 1158.76   3
  -4  13  10 521.477 362.039   1
   4 -13 -10 154.907 452.688   3
  -4  13   9 3472.28 951.680   1
   4 -13  -9 3628.00 1244.55   3
   4 -13  -8 3837.55 1204.32   3
  -4  13   8 3515.73 915.795   1
  -4  13   7-428.073 328.269   1
   4 -13  -7-193.545 493.484   3
  -4  13   6 1346.32 514.301   1
   4 -13  -6 2167.56 859.054   3
   4 -13  -5 9612.70 1798.08   3
  -4  13   5 10180.3 1494.05   1
  -4  13   4 346.129 269.331   1
   4 -13  -4 49.7020 334.406   3
  -4  13   3 16803.4 1907.17   1
   4 -13  -3 13234.5 2028.90   3
   4  13  -2 661.779 534.286   1
   4 -13  -2-82.4676 308.599   3
  -4  13   2-476.211 330.046   1
   4  13  -1 988.066 772.394   1
  -4  13   1 719.892 420.616   1
   4 -13  -1 1822.19 730.462   3
   4  13   0 4419.73 1287.57   1
  -4  13   0 5424.28 1124.60   1
   4  13   1 3687.95 1120.83   1
  -4  13  -1 3513.21 875.001   1
   4  13   2 4960.62 1358.96   1
   4  13   3-76.8427 319.550   1
   4  13   4 770.231 364.865   1
   4  13   5 4219.59 1243.15   1
   4  13   6 1882.11 857.592   1
   4  13   7 665.587 524.859   1
   4  13   8 1154.08 705.243   1
   4  13   9 1374.59 815.313   1
   4  13  10 705.198 634.942   1
   4  13  11 495.698 514.132   1
   4  13  12 3423.73 1393.99   1
   4  13  13 801.194 643.552   1
   4 -14 -14-938.668 757.218   3
   4 -14 -13-576.427 588.832   3
   4 -14 -12 269.947 518.148   3
   4 -14 -11 100.017 286.955   3
  -4  14  10 2348.44 839.990   1
   4 -14 -10 1002.54 676.154   3
   4 -14  -9 1469.90 842.776   3
  -4  14   9 1281.90 596.387   1
   4 -14  -8 1003.31 679.710   3
  -4  14   8 862.509 521.925   1
  -4  14   7 256.884 252.701   1
   4 -14  -7 182.745 340.435   3
  -4  14   6 2908.88 844.550   1
   4 -14  -6 2126.02 932.774   3
  -4  14   5-92.7489 183.385   1
   4 -14  -5 362.690 187.399   3
  -4  14   4 1572.02 633.487   1
   4 -14  -4 1755.42 761.720   3
  -4  14   3 10361.8 1577.66   1
   4 -14  -3 11755.8 1936.19   3
   4  14  -2 1749.44 712.269   1
  -4  14   2 1728.06 619.172   1
   4 -14  -2 945.655 519.137   3
  -4  14   1 13198.2 1802.60   1
   4 -14  -1 12959.6 2000.44   3
   4  14  -1 17028.1 2547.26   1
   4  14   0 4120.67 1279.94   1
  -4  14   0 4052.56 1004.06   1
   4  14   1 2483.52 995.618   1
  -4  14  -1 3354.43 908.114   1
   4  14   2 402.456 256.957   1
   4  14   3-244.371 438.586   1
   4  14   4 186.113 258.756   1
   4  14   5 2134.52 888.603   1
   4  14   6 1297.91 735.058   1
   4  14   7 1152.54 777.380   1
   4  14   8 15.9838 387.809   1
   4  14   9 540.430 580.385   1
   4  14  10 443.163 489.356   1
   4  14  11 1445.43 854.223   1
   4  14  12 510.885 534.992   1
   4 -15 -13-436.348 517.272   3
   4 -15 -12 316.799 497.548   3
   4 -15 -11-821.459 658.881   3
   4 -15 -10 1956.94 1038.02   3
   4 -15  -9 852.356 615.276   3
   4 -15  -8 214.883 374.177   3
  -4  15   7 2489.44 858.085   1
   4 -15  -7 815.540 468.603   3
  -4  15   6 3599.99 991.669   1
   4 -15  -6 3783.75 1240.31   3
   4 -15  -5 3911.76 1166.30   3
  -4  15   5 3442.28 942.144   1
  -4  15   4-228.869 271.538   1
   4 -15  -4 687.760 511.763   3
   4  15  -3 1493.11 753.166   1
   4 -15  -3 1183.62 663.152   3
  -4  15   3 857.171 523.187   1
  -4  15   2 4801.15 1154.68   1
   4  15  -2 5531.08 1539.17   1
   4 -15  -2 5420.66 1320.70   3
   4 -15  -1 393.886 409.741   3
  -4  15   1 787.666 514.195   1
   4  15  -1 1205.50 680.736   1
   4  15   0 433.379 396.845   1
  -4  15   0 1227.88 600.885   1
  -4  15  -1 1089.60 515.697   1
   4  15   1 2399.19 1030.27   1
  -4  15  -2 608.518 436.719   1
   4  15   2 396.255 450.261   1
   4  15   3 1691.94 883.046   1
   4  15   4-327.436 498.620   1
   4  15   5-21.3216 290.917   1
   4  15   6-448.916 539.294   1
   4  15   7 3612.01 1314.81   1
   4  15   8-215.890 467.503   1
   4  15   9 501.657 490.935   1
   4  15  10 416.991 478.929   1
   4  15  11 116.290 304.341   1
   4 -16 -12 186.503 327.669   3
   4 -16 -11-310.003 420.840   3
   4 -16 -10 553.570 439.520   3
   4 -16  -9 1798.95 903.585   3
   4 -16  -8 604.140 526.448   3
   4 -16  -7 629.297 527.185   3
   4 -16  -6 244.863 333.535   3
  -4  16   5 118.488 211.890   1
   4 -16  -5-235.806 330.995   3
  -4  16   4-108.149 201.397   1
   4 -16  -4 355.631 432.114   3
   4  16  -3 2570.45 1077.81   1
   4 -16  -3 2008.77 816.111   3
  -4  16   3 2344.26 818.010   1
   4  16  -2 179.057 320.310   1
  -4  16   2 144.038 107.162   1
   4 -16  -2 420.459 428.888   3
  -4  16   1-370.659 348.561   1
   4  16  -1 685.162 578.157   1
   4  16   0 2099.35 984.791   1
  -4  16   0 3017.56 946.119   1
   4  16   1-732.298 592.942   1
  -4  16  -1-386.100 363.615   1
  -4  16  -2 1077.90 576.596   1
   4  16   2 96.7585 310.114   1
   4  16   3 748.829 621.279   1
   4  16   4 399.807 573.270   1
   4  16   5 3163.70 1182.96   1
   4  16   6-402.671 452.286   1
   4  16   7-718.141 617.119   1
   4  16   8-46.9164 250.095   1
   4  16   9-94.8222 436.731   1
   4 -17 -11 3.35798 209.701   3
   4 -17 -10 1002.14 722.740   3
   4 -17  -9 459.987 491.890   3
   4 -17  -8 673.401 567.324   3
   4 -17  -7-142.972 303.046   3
   4 -17  -6-122.102 261.285   3
   4 -17  -5-746.532 564.966   3
   4  17  -4-627.829 404.697   1
   4 -17  -4-96.0339 233.108   3
   4 -17  -3 431.634 361.099   3
   4  17  -3 1035.74 725.196   1
  -4  17   2-33.0268 148.875   1
   4 -17  -2 1054.84 617.690   3
   4  17  -2 814.588 628.466   1
   4  17  -1 2807.11 1140.73   1
  -4  17   1 2386.46 856.785   1
  -4  17   0 1385.53 677.331   1
   4  17   0 354.860 371.416   1
  -4  17  -1 925.844 610.912   1
   4  17   1 755.835 840.100   1
  -4  17  -2 148.174 247.803   1
   4  17   2-397.536 422.107   1
   4  17   3 2815.42 1169.81   1
  -4  17  -3 2518.33 992.541   1
   4  17   4 1040.54 794.742   1
   4  17   5 1336.64 808.362   1
   4  17   6 2823.93 1177.45   1
   4  17   7 291.672 446.050   1
   4 -18  -9-766.923 624.647   3
   4 -18  -8-56.6621 243.362   3
   4 -18  -7-209.089 342.692   3
   4  18  -5 797.783 713.421   1
   4  18  -4 1447.86 911.809   1
   4  18  -3 262.050 455.671   1
   4  18  -2 52.4872 282.058   1
   4  18  -1-145.645 335.570   1
   4  18   0-386.895 477.484   1
   4  18   1-265.712 407.527   1
   4  18   2-62.1647 379.599   1
   4  18   3-62.5182 253.908   1
  -4  18  -3-1294.34 713.568   1
   4  18   4 1411.76 861.193   1
   4  18   5 1467.17 850.751   1
   5   0 -19-1323.14 760.867   4
   5   0 -18 1882.18 879.147   4
   5   0 -17 31.9441 174.114   4
   5   0 -16 868.699 573.179   4
   5   0 -15-24.4410 300.718   4
   5   0 -14 22218.2 2725.81   4
   5   0 -13 26.9348 250.596   4
   5   0 -12 25141.4 2739.85   4
   5   0 -11-156.430 144.882   4
   5   0 -10 14155.8 1937.23   4
   5   0 -10 12616.7 1907.85   3
   5   0  -9-171.540 244.380   4
   5   0  -9-254.811 367.438   3
   5   0  -8 4450.54 1020.16   3
   5   0  -8 4107.82 1000.82   4
   5   0  -7 419.831 389.103   4
   5   0  -7-735.951 419.574   3
   5   0  -6 8531.18 1325.23   3
   5   0  -6 10513.5 1515.78   4
   5   0  -6 9633.40 1024.00   1
  -5   0   5 134.345 112.657   2
   5   0  -5 548.076 414.465   4
   5   0  -5 536.898 370.861   3
   5   0  -5 385.577 192.992   1
  -5   0   4 2958.48 689.308   2
   5   0  -4 2763.91 718.215   3
   5   0  -4 2718.59 457.714   1
  -5   0   3-10.3282 183.468   2
   5   0  -3 22.6187 44.7264   1
   5   0  -3 307.727 218.767   3
  -5   0   2 3298.84 747.281   2
   5   0  -2 3072.25 415.980   1
   5   0  -2 2334.65 634.548   3
  -5   0   1-91.1210 199.455   2
   5   0  -1 91.9023 208.443   3
   5   0  -1 32.9232 47.4335   1
   5   0   0 766.227 218.409   1
  -5   0  -1 56.0305 62.6386   1
   5   0   1-7.05677 44.9614   1
  -5   0  -2 2506.75 481.925   1
   5   0   2 3267.95 524.578   1
  -5   0  -3 78.8267 119.230   1
   5   0   3-90.2631 103.386   1
   5   0   4 185.548 126.028   1
   5   0   5 140.804 87.5640   1
   5   0   6 29918.7 2215.81   1
  -5   0  -6 31574.7 2600.61   2
  -5   0  -7-77.9254 173.890   2
   5   0   7 84.1595 115.991   1
  -5   0  -8 1016.35 510.687   2
   5   0   8 792.970 472.207   1
  -5   0  -9-138.127 301.146   2
   5   0   9-118.612 258.417   1
  -5   0 -10 1038.83 566.553   2
   5   0  10 125.256 272.974   1
  -5   0 -11-121.267 316.746   2
   5   0  11-833.717 498.191   1
  -5   0 -12 5564.82 1265.16   2
   5   0  12 6625.00 1455.21   1
  -5   0 -13-114.535 217.284   2
   5   0  13-369.987 387.847   1
  -5   0 -14 5467.03 1295.83   2
   5   0  14 6097.46 1505.44   1
  -5   0 -15 249.967 308.380   2
   5   0  15-246.400 323.731   1
  -5   0 -16 3985.57 1141.73   2
   5   0  16 1631.60 803.329   1
   5   0  17-110.221 358.521   1
   5   0  18 631.489 650.146   1
   5   1 -19-207.179 355.285   4
   5  -1 -18 2.49264 220.785   4
   5   1 -18 286.494 179.950   4
   5  -1 -17 3152.47 1084.38   4
  -5   1  17 2042.30 896.986   1
   5   1 -17 3315.98 1139.41   4
  -5   1  16-29.0718 159.067   1
   5   1 -16 165.490 290.532   4
   5   1 -15 1262.11 630.858   4
   5  -1 -15 1054.58 610.569   4
  -5   1  15 475.110 382.433   1
   5  -1 -14 1379.63 676.553   4
   5   1 -14 1009.53 576.935   4
  -5   1  14 1213.45 540.185   1
  -5   1  13 20538.7 2350.93   1
   5   1 -13 20939.7 2625.06   4
   5  -1 -13 22908.2 2650.56   4
  -5   1  12 16731.9 2013.96   1
   5  -1 -12 16964.0 2216.82   4
   5   1 -12 14998.9 2180.18   4
   5   1 -11 4575.66 1204.47   4
   5  -1 -11 3631.90 987.081   4
  -5   1  11 3884.98 923.385   1
   5  -1 -10 20706.8 2351.65   4
   5   1 -10 18424.7 2270.12   4
   5  -1 -10 18680.7 2366.61   3
   5   1 -10 18735.4 2251.39   3
   5   1  -9 2010.76 734.284   4
   5  -1  -9 1287.65 511.033   3
   5  -1  -9 2463.18 795.821   4
   5   1  -9 1125.48 569.245   3
   5  -1  -8 19858.9 2167.76   4
   5   1  -8 21771.0 2334.34   4
   5  -1  -8 22061.9 2383.16   3
   5   1  -8 20228.0 2167.27   3
   5  -1  -7 1151.90 367.401   1
   5   1  -7 782.597 402.693   4
   5  -1  -7 1687.68 647.328   4
   5  -1  -7-23.0085 254.789   3
   5   1  -7 887.023 393.305   3
   5  -1  -6 529.686 304.638   3
   5  -1  -6 171.058 139.507   1
  -5   1   6 114.265 167.270   2
   5   1  -6 475.978 408.565   4
   5   1  -6 152.720 177.498   1
   5   1  -6 162.235 121.597   3
  -5   1   5 28629.8 2068.69   2
   5   1  -5 31884.6 2617.40   4
   5   1  -5 29260.1 1802.08   1
   5  -1  -5 29828.9 1510.51   1
   5   1  -5 26390.3 2207.18   3
   5  -1  -5 30420.6 2527.77   3
  -5   1   4 6594.95 1017.99   2
   5   1  -4 7048.70 1097.94   3
   5   1  -4 8568.37 1307.14   4
   5  -1  -4 7427.20 655.925   1
  -5  -1   4 7127.50 1111.53   2
   5   1  -4 6875.83 812.089   1
   5  -1  -4 7876.18 1242.01   3
  -5   1   3 670.183 347.392   2
   5   1  -3 518.726 359.572   4
  -5  -1   3 157.116 206.930   2
   5  -1  -3 399.045 129.002   1
   5   1  -3 607.773 248.412   3
   5  -1  -3 418.524 192.840   3
   5   1  -2 39496.6 2476.32   3
  -5   1   2 40673.9 2543.70   2
  -5  -1   2 36511.3 2555.03   2
   5  -1  -2 37198.8 1047.70   1
   5   1  -2 40459.6 1824.45   1
   5  -1  -2 36370.0 1049.41   1
   5  -1  -2 40579.0 2698.13   3
  -5   1   1 24335.1 2000.42   2
   5   1  -1 24050.4 1366.62   1
   5   1  -1 25776.6 1974.23   3
   5  -1  -1 24104.3 2049.53   3
   5  -1  -1 22078.6 784.395   1
   5   1   0 4376.94 596.720   1
   5  -1   0 3604.38 375.272   1
   5  -1   1 16073.0 953.613   1
  -5   1  -1 16829.1 998.617   1
   5   1   1 18210.9 1261.03   1
  -5  -1  -2 5643.27 777.112   1
   5   1   2 4217.96 653.706   1
  -5   1  -2 5365.34 639.044   1
   5  -1   2 5612.25 648.576   1
  -5  -1  -3 29767.1 1892.77   1
   5  -1   3 30673.9 1708.75   1
   5   1   3 29908.1 1861.38   1
  -5   1  -3 27705.4 1616.97   1
   5  -1   4 882.783 310.988   1
  -5   1  -4 1325.85 393.009   1
   5   1   4 831.817 361.096   1
  -5  -1  -5 2841.05 782.191   2
   5  -1   5 2494.51 596.176   1
   5   1   5 1521.33 478.348   1
   5  -1   6 408.914 282.804   1
  -5  -1  -6 264.807 358.525   2
   5   1   6 343.441 207.754   1
   5  -1   7-162.386 264.390   1
  -5  -1  -7 269.265 207.416   2
   5   1   7 228.994 324.129   1
   5  -1   8 103.829 233.430   1
  -5  -1  -8-219.847 392.168   2
   5   1   8-64.2744 161.466   1
   5  -1   9 2949.49 826.610   1
  -5  -1  -9 1277.74 552.451   2
   5   1   9 1880.75 602.760   1
   5  -1  10 2891.85 851.868   1
  -5  -1 -10 2531.30 800.335   2
   5   1  10 3551.30 999.846   1
  -5  -1 -11 7492.18 1415.24   2
   5   1  11 8561.04 1549.96   1
   5  -1  11 9364.95 1604.19   1
  -5  -1 -12 190.661 165.432   2
   5  -1  12 180.442 324.602   1
   5   1  13 498.261 392.468   1
  -5  -1 -13 957.265 539.619   2
   5  -1  13 1325.82 674.096   1
   5   1  14 330.933 290.540   1
  -5  -1 -14 428.907 473.084   2
   5  -1  14 159.036 281.841   1
   5   1  15-461.148 467.486   1
  -5  -1 -15 48.2569 322.561   2
   5  -1  15 401.055 376.507   1
  -5   1 -16 2027.81 856.771   2
  -5  -1 -16 1071.03 677.680   2
   5  -1  16 397.933 270.228   1
   5   1  16 1120.11 578.768   1
  -5   1 -17-424.715 414.182   2
   5  -1  17 860.871 651.241   1
   5   1  17-374.972 439.932   1
   5  -1  18 681.077 671.972   1
   5   1  18 560.367 686.870   1
   5   2 -20-24.5361 206.706   4
  -5   2  20 143.037 287.310   1
   5   2 -19 1668.85 927.251   4
  -5   2  19 2134.68 999.267   1
   5   2 -18 2143.58 978.912   4
  -5   2  18 1836.25 920.869   1
   5  -2 -17 82.7372 164.687   4
   5   2 -17 1280.94 737.687   4
  -5   2  17 900.067 594.597   1
   5  -2 -16 3602.12 1126.01   4
   5   2 -16 1518.61 741.760   4
  -5   2  16 1734.54 778.594   1
  -5   2  15-113.479 265.326   1
   5  -2 -15 226.075 306.754   4
   5  -2 -14 6272.42 1409.76   4
  -5   2  14 6606.01 1371.42   1
   5   2 -14 6375.79 1500.66   4
   5   2 -13 271.091 298.393   4
   5  -2 -13-58.4182 178.112   4
  -5   2  12 4012.71 948.780   1
   5   2 -12 3902.60 1096.21   4
   5  -2 -12 4634.28 1174.78   4
   5  -2 -11 4634.03 1231.75   3
   5  -2 -11 3802.67 1010.35   4
  -5   2  11 4617.78 987.311   1
   5   2 -11 5824.58 1346.03   4
   5   2 -10 291.069 282.759   3
   5   2 -10 285.147 262.045   4
  -5   2  10-47.6310 201.318   1
   5  -2 -10-75.2820 271.153   4
   5  -2  -9 2307.86 749.074   4
   5   2  -9 3020.37 913.842   4
  -5   2   9 3107.09 712.984   1
   5  -2  -9 3138.04 972.503   3
   5   2  -9 2663.97 810.997   3
  -5   2   8 2916.97 630.356   1
   5   2  -8 1276.23 590.052   4
   5  -2  -8 3193.57 915.126   3
   5   2  -8 3489.43 869.066   3
   5   2  -7 1583.78 599.998   4
   5  -2  -7 1782.45 440.332   1
   5   2  -7 1424.84 490.373   3
   5  -2  -7 1004.72 475.841   3
  -5   2   6 76643.1 3255.64   2
   5   2  -6 78990.8 4267.04   4
   5  -2  -6 72168.4 2497.84   1
   5   2  -6 73854.9 3658.87   3
   5  -2  -6 79428.7 4274.13   3
   5  -2  -5 2963.26 435.279   1
  -5   2   5 2744.05 606.607   2
   5   2  -5 2512.11 676.689   4
   5   2  -5 3218.54 761.097   3
   5  -2  -5 3324.99 877.517   3
  -5   2   4 2207.88 569.495   2
   5  -2  -4 1530.04 257.044   1
   5   2  -4 1886.95 673.273   4
   5   2  -4 1918.47 538.730   3
   5  -2  -4 2266.37 713.993   3
   5   2  -3 2654.71 721.335   4
  -5   2   3 3491.71 723.580   2
   5   2  -3 3451.19 733.485   3
  -5  -2   3 3862.46 852.321   2
   5  -2  -3 4821.06 1008.37   3
  -5   2   2 716.468 397.129   2
  -5  -2   2 1378.66 518.281   2
   5   2  -2 595.721 362.594   4
   5   2  -2 1024.78 438.173   3
   5  -2  -2 324.117 344.171   3
   5   2  -1 12.9963 170.954   1
  -5   2   1 165.486 142.643   2
   5  -2  -1 262.420 227.239   3
  -5   2   0 6898.16 1089.49   2
   5   2   0 7128.58 863.543   1
   5  -2   0 6650.60 1127.57   3
  -5   2  -1 2131.48 311.064   1
   5  -2   1 2158.52 312.274   1
   5   2   1 2013.88 472.219   1
   5   2   2 37.4636 87.6897   1
  -5  -2  -2-75.7664 153.224   1
  -5   2  -2-0.41507 49.6179   1
   5  -2   2 68.3535 98.9369   1
   5  -2   3 8921.59 897.754   1
   5   2   3 9201.82 1083.51   1
  -5   2  -3 7685.34 816.610   1
   5  -2   4 10186.0 1068.86   1
  -5   2  -4 9123.45 981.659   1
   5   2   4 10264.0 1207.71   1
  -5  -2  -5 201.942 266.895   2
   5  -2   5 364.892 280.912   1
   5   2   5 519.265 340.861   1
  -5  -2  -6 7880.17 1338.83   2
   5  -2   6 7421.17 1081.93   1
   5   2   6 7133.75 1127.36   1
  -5  -2  -7 17547.4 1990.41   2
   5  -2   7 19199.4 1854.33   1
   5   2   7 16950.4 1832.48   1
  -5  -2  -8-186.564 360.022   2
   5   2   8 193.884 165.443   1
   5  -2   8 32.7779 134.315   1
  -5  -2  -9 5700.44 1166.86   2
   5   2   9 4396.83 1027.37   1
   5  -2   9 5217.68 1109.05   1
  -5  -2 -10 294.729 311.795   2
   5   2  10 880.185 624.832   1
   5  -2  10 5.63461 286.973   1
  -5  -2 -11 584.809 433.908   2
   5   2  11 573.988 442.228   1
   5  -2  11 1042.16 647.661   1
  -5  -2 -12 1487.27 669.675   2
   5   2  12 1159.31 627.907   1
   5  -2  12 584.719 433.555   1
   5   2  13-206.332 376.440   1
  -5  -2 -13-220.006 274.344   2
   5  -2  13-498.259 442.389   1
   5   2  14 1230.44 706.207   1
  -5  -2 -14 626.334 446.276   2
   5  -2  14 569.975 496.199   1
  -5  -2 -15-137.336 240.392   2
   5  -2  15 343.406 374.728   1
   5   2  16 273.589 350.446   1
   5  -2  16-86.7648 452.026   1
   5  -2  17-141.342 338.067   1
   5   2  17-147.055 313.152   1
   5  -2  18 930.066 633.471   1
   5   2  18 670.637 602.117   1
   5   3 -20 1483.23 879.989   4
  -5   3  20 1982.85 972.220   1
   5   3 -19-70.8541 266.112   4
  -5   3  19 409.153 320.339   1
   5   3 -18 449.613 480.383   4
  -5   3  18 538.244 483.005   1
   5   3 -17-351.802 428.967   4
  -5   3  17-292.751 351.297   1
  -5   3  16 1771.29 786.833   1
   5   3 -16 2828.10 1098.66   4
   5   3 -15 1069.71 592.261   4
  -5   3  15-532.621 419.517   1
   5   3 -14 5221.38 1442.47   4
  -5   3  14 4252.40 1105.97   1
   5   3 -13 4162.68 1248.21   4
  -5   3  13 3503.13 953.457   1
   5  -3 -12 1025.64 543.070   3
   5   3 -12 286.924 308.019   4
  -5   3  12 1205.79 558.349   1
   5  -3 -11 74.6884 297.611   3
   5   3 -11 402.827 326.097   4
  -5   3  11 85.4461 270.277   1
   5   3 -10 4913.92 1097.30   3
  -5   3  10 6560.62 1102.48   1
   5   3 -10 6714.16 1462.79   4
   5  -3 -10 4888.07 1274.88   3
  -5   3   9 250.410 186.288   1
   5   3  -9-34.3194 203.988   4
   5  -3  -9 57.4899 256.110   3
  -5   3   8 30776.5 2037.01   1
   5   3  -8 34356.9 3087.62   4
   5  -3  -8 33952.9 3103.54   3
   5   3  -8 33262.3 2609.92   3
  -5   3   7 286.968 192.250   1
  -5   3   7 98.5035 96.1258   2
   5   3  -7-157.492 341.214   4
   5  -3  -7 104.760 114.775   1
   5   3  -7-102.212 124.555   3
   5  -3  -7-70.5648 229.205   3
  -5   3   6 3214.69 662.609   2
  -5   3   6 4362.69 605.743   1
   5   3  -6 3356.18 877.578   4
   5  -3  -6 3800.79 548.332   1
   5   3  -6 4268.08 851.643   3
   5  -3  -6 5085.96 1126.38   3
   5  -3  -5 263.616 122.405   1
   5   3  -5 303.355 271.023   4
  -5   3   5-20.4816 94.4505   2
   5   3  -5 193.060 146.745   3
  -5   3   4 18517.6 1618.03   2
   5  -3  -4 17591.2 742.437   1
   5   3  -4 19292.9 2023.51   4
   5   3  -4 18758.2 1655.32   3
   5  -3  -4 17424.9 1957.01   3
  -5   3   3 4744.22 825.227   2
   5   3  -3 4468.42 990.944   4
   5   3  -3 4465.49 781.065   3
   5  -3  -3 5531.36 1059.34   3
  -5   3   2 5978.94 961.290   2
   5   3  -2 5242.83 993.759   4
   5   3  -2 4908.93 810.435   3
   5  -3  -2 4614.36 968.438   3
  -5  -3   2 4788.79 803.361   3
  -5   3   1 1174.36 441.234   2
   5   3  -1 1129.19 379.822   1
   5   3  -1 1345.12 452.155   4
   5  -3  -1 1047.78 390.390   3
   5   3   0 25038.4 1753.61   1
   5  -3   0 26980.2 2313.63   3
  -5   3  -1 1776.69 259.432   1
   5   3   1 1869.91 489.120   1
  -5   3  -2 2557.22 397.838   1
   5   3   2 2517.33 560.046   1
   5  -3   2 3089.93 451.930   1
   5   3   3-180.986 179.154   1
   5  -3   3-25.6600 107.758   1
  -5   3  -3-38.6360 71.7078   1
  -5  -3  -4 38147.3 2884.27   2
   5  -3   4 37066.9 2042.73   1
  -5   3  -4 35322.5 1935.03   1
   5   3   4 34283.8 2322.73   1
  -5  -3  -5 4102.62 938.261   2
   5  -3   5 3212.05 667.786   1
   5   3   5 3561.12 794.698   1
  -5  -3  -6 19928.3 2133.34   2
   5   3   6 16199.6 1762.63   1
   5  -3   6 17218.0 1648.81   1
  -5  -3  -7 5206.95 1128.93   2
   5   3   7 3677.50 895.247   1
   5  -3   7 3746.59 835.219   1
  -5  -3  -8 6774.06 1300.82   2
   5   3   8 5702.01 1147.36   1
   5  -3   8 6549.54 1164.59   1
  -5  -3  -9 3391.18 916.750   2
   5   3   9 4967.16 1141.76   1
   5  -3   9 4688.92 1068.62   1
  -5  -3 -10 1386.09 628.823   2
   5   3  10 1874.69 670.263   1
  -5  -3 -11 6222.52 1295.24   2
   5   3  11 3765.32 1058.61   1
   5  -3  11 3863.82 1058.91   1
  -5  -3 -12 1506.97 559.463   2
   5  -3  12 3381.27 1009.54   1
   5   3  12 1907.34 772.217   1
  -5  -3 -13 434.431 443.950   2
   5   3  13 605.679 423.003   1
   5  -3  13 162.918 323.499   1
   5  -3  14 469.833 174.708   1
   5   3  14 324.694 378.219   1
  -5  -3 -14-405.359 358.649   2
   5   3  15-235.041 338.565   1
  -5  -3 -15 32.5431 165.743   2
   5  -3  15-355.816 378.961   1
   5   3  16 2058.46 884.569   1
   5  -3  16 3864.44 1310.02   1
   5   3  17 522.591 510.931   1
   5  -3  17-459.324 490.349   1
   5   3  18-516.764 547.877   1
   5  -3  18 1073.17 764.669   1
   5   4 -20 801.293 660.524   4
   5   4 -19-403.711 474.340   4
  -5   4  19-1143.01 707.434   1
   5   4 -18 245.821 379.408   4
  -5   4  18 1508.57 777.862   1
  -5   4  17 20.1128 155.783   1
   5   4 -17 619.038 475.029   4
  -5   4  16 1530.85 713.450   1
   5   4 -16 2627.95 1047.69   4
   5   4 -15-215.456 362.890   4
  -5   4  15 758.172 519.682   1
   5   4 -14-4.97377 367.996   4
  -5   4  14 107.692 212.614   1
   5  -4 -13 7525.25 1789.86   3
   5   4 -13 7431.99 1679.10   4
  -5   4  13 5754.45 1207.03   1
   5  -4 -12 4204.67 1287.95   3
   5   4 -12 5374.38 1413.71   4
  -5   4  12 4770.22 1039.15   1
  -5   4  11 17593.3 1902.16   1
   5   4 -11 14623.7 2186.50   4
   5  -4 -11 17661.8 2500.78   3
   5   4 -10 694.634 425.448   3
   5   4 -10 962.404 537.950   4
  -5   4  10 1158.95 485.668   1
   5  -4 -10 2242.66 942.477   3
  -5   4   9 8079.83 1125.67   1
   5   4  -9 7648.05 1524.77   4
   5  -4  -9 9013.21 1683.67   3
   5   4  -9 7655.85 1294.82   3
   5   4  -8 1113.77 667.918   4
  -5   4   8 1143.50 340.455   2
  -5   4   8 1052.50 389.471   1
   5  -4  -8 1557.34 643.266   3
   5   4  -8 1524.45 544.906   3
   5  -4  -7 164.656 146.056   1
  -5   4   7 80.1926 88.5550   2
   5   4  -7 4.15264 221.334   4
  -5   4   7 237.685 179.513   1
   5   4  -7 242.455 263.506   3
   5  -4  -7 83.2976 178.216   3
  -5   4   6 14728.0 1364.15   2
  -5   4   6 16286.7 1171.70   1
   5   4  -6 15579.5 2020.55   4
   5   4  -6 17082.0 1640.82   3
   5  -4  -6 14784.3 1985.74   3
   5  -4  -6 17481.9 1173.84   1
   5  -4  -5 1013.78 240.078   1
  -5   4   5 454.350 231.117   2
   5   4  -5 426.457 279.247   4
  -5   4   5 763.640 217.711   1
   5   4  -5 925.579 360.259   3
   5  -4  -5 875.789 397.681   3
  -5   4   4 18587.3 1605.74   2
   5   4  -4 18325.6 2009.51   4
   5   4  -4 14571.8 1374.23   3
   5  -4  -4 16643.9 1969.27   3
  -5   4   3 5163.41 875.580   2
   5   4  -3 5464.55 1092.42   4
   5   4  -3 5873.37 849.239   3
   5  -4  -3 6958.34 1253.23   3
   5  -4  -2 2476.29 740.639   3
  -5  -4   2 1595.39 438.328   3
   5   4  -2 2799.35 720.890   4
   5   4  -1 8829.48 1252.96   4
   5   4  -1 7814.32 1072.27   1
  -5  -4   1 8462.42 1026.74   3
   5  -4  -1 11430.0 1569.07   3
   5  -4   0 4621.82 1004.85   3
  -5  -4   0 3258.26 651.606   3
   5   4   0 2770.62 681.225   4
   5   4   0 3641.84 726.384   1
   5   4   1 4970.28 858.612   1
  -5   4  -1 4889.12 434.541   1
  -5   4  -2 211.935 117.821   1
   5   4   2 479.642 233.795   1
  -5   4  -3 1977.63 416.823   1
   5   4   3 2261.96 601.893   1
  -5   4  -4 3598.62 620.987   1
   5   4   4 3537.95 804.890   1
  -5  -4  -4 2622.59 732.508   2
   5  -4   4 2869.90 572.111   1
   5   4   5-108.057 169.846   1
  -5  -4  -5 304.176 264.935   2
   5  -4   5 31.1211 115.600   1
  -5  -4  -6 34945.4 2870.66   2
  -5  -4  -6 34043.0 2056.28   4
   5  -4   6 39837.1 2549.18   1
   5   4   6 39688.2 2875.77   1
  -5  -4  -7 2833.10 857.519   2
  -5  -4  -7 2825.03 576.767   4
   5  -4   7 2210.96 654.560   1
   5   4   7 2206.66 734.509   1
   5  -4   8 6757.26 1183.85   1
  -5  -4  -8 5603.64 1162.23   2
   5   4   8 4298.04 1033.69   1
  -5  -4  -9 6652.71 1301.97   2
   5   4   9 8118.73 1463.48   1
   5  -4   9 3577.85 936.650   1
  -5  -4 -10 5348.32 1175.40   2
   5   4  10 5192.04 1210.81   1
   5  -4  10 5591.77 1221.76   1
  -5  -4 -11 3776.85 1074.81   2
   5   4  11 7901.31 1551.29   1
   5  -4  11 6339.83 1355.05   1
  -5  -4 -12 6349.83 1359.63   2
   5   4  12 4661.30 1238.20   1
   5  -4  12 6669.71 1443.09   1
  -5  -4 -13 1257.81 605.354   2
   5   4  13 1661.35 807.302   1
   5  -4  13 921.957 664.479   1
   5   4  14 1804.80 869.635   1
  -5  -4 -14 2913.25 938.252   2
   5  -4  14 2122.78 979.665   1
   5   4  15 258.271 375.667   1
   5  -4  15-52.7160 226.274   1
   5   4  16 1979.45 961.624   1
   5  -4  16 2397.88 1058.67   1
   5   4  17 681.754 584.781   1
   5  -4  17 82.7032 357.453   1
   5  -4  18 475.350 606.266   1
   5   5 -19-899.534 704.263   4
  -5   5  18-197.699 309.195   1
   5   5 -18-212.946 371.090   4
  -5   5  17 967.271 602.154   1
   5   5 -17-274.732 390.171   4
  -5   5  16 1087.78 611.431   1
   5   5 -16 1709.24 837.178   4
   5   5 -15 1239.44 788.489   4
  -5   5  15 1502.96 671.428   1
   5  -5 -14 2017.81 912.099   3
  -5   5  14 2136.34 758.249   1
   5  -5 -13 6276.45 1603.86   3
  -5   5  13 4520.48 1071.17   1
   5  -5 -12 1338.93 693.028   3
  -5   5  12 1709.13 602.569   1
  -5   5  11 618.354 345.812   1
   5  -5 -11 1246.83 756.450   3
   5   5 -10-592.534 373.097   3
  -5   5  10 97.6177 128.719   1
   5  -5 -10 100.757 453.808   3
  -5   5   9 3529.21 753.349   1
   5  -5  -9 4318.69 1256.20   3
   5   5  -9 4197.44 925.880   3
  -5   5   8 17540.5 1534.75   1
  -5   5   8 17053.5 1310.45   2
   5  -5  -8 15432.6 2172.95   3
   5   5  -8 17539.8 1791.60   3
  -5   5   7 5431.37 784.070   2
  -5   5   7 6276.63 829.686   1
   5  -5  -7 5167.77 739.376   1
   5   5  -7 6216.85 997.403   3
   5  -5  -7 6136.98 1336.29   3
   5  -5  -6 1248.61 316.876   1
  -5   5   6 1653.64 455.384   2
   5   5  -6 1943.09 705.681   4
   5   5  -6 1742.82 496.441   3
   5  -5  -6 1662.55 733.245   3
  -5   5   6 1590.38 367.160   1
  -5   5   5 374.875 166.594   2
   5  -5  -5 156.537 86.0106   1
   5   5  -5 576.975 255.605   3
   5  -5  -5 343.306 370.092   3
  -5   5   5 583.421 196.502   1
   5   5  -5 333.467 386.481   4
  -5   5   4-19.3927 127.489   2
   5   5  -4-444.694 336.346   4
   5   5  -4 54.2689 104.998   3
   5  -5  -4-195.977 372.547   3
  -5   5   4 17.6787 41.1109   1
   5   5  -3 1153.07 486.259   4
   5   5  -3 1633.45 420.520   3
   5  -5  -3 2009.09 654.832   3
   5   5  -2 23653.3 2190.06   4
   5  -5  -2 24158.7 2359.72   3
  -5  -5   2 24138.9 1661.17   3
   5   5  -1 13400.5 1513.37   1
   5  -5  -1 14407.0 1795.50   3
  -5  -5   1 12987.3 1217.43   3
   5   5  -1 14823.3 1638.97   4
   5  -5   0 26417.3 2437.39   3
   5   5   0 24325.3 2044.73   1
   5   5   0 26096.9 2110.38   4
  -5  -5   0 22986.0 1641.21   3
   5   5   1 4954.22 911.785   1
   5   5   1 4604.03 833.426   4
  -5   5  -1 4480.00 466.846   1
  -5  -5  -1 4121.32 727.407   3
   5   5   2 11233.5 1411.28   1
  -5   5  -2 8983.73 800.759   1
  -5   5  -3 2572.63 490.995   1
  -5  -5  -3 2265.66 700.173   2
   5   5   3 2761.93 709.943   1
   5   5   4 2732.49 738.844   1
  -5  -5  -4 2685.86 799.145   2
  -5   5  -4 2703.31 557.489   1
   5   5   5 35.0478 144.477   1
  -5  -5  -5 487.462 341.306   2
   5   5   6 2436.71 758.628   1
  -5  -5  -6 2517.71 795.809   2
   5  -5   6 2043.17 582.634   1
  -5  -5  -7 1111.95 499.713   2
  -5  -5  -7 1638.01 420.215   4
   5  -5   7 1270.36 499.685   1
   5   5   7 1776.19 632.990   1
  -5  -5  -8 16629.3 2083.88   2
   5   5   8 18707.0 2178.56   1
   5  -5   8 17105.1 1918.98   1
  -5  -5  -9 9085.77 1552.59   2
   5  -5   9 9923.65 1570.92   1
   5   5   9 9800.25 1659.49   1
  -5  -5 -10 26985.7 2683.20   2
   5   5  10 26328.6 2803.58   1
   5  -5  10 28554.8 2738.16   1
  -5  -5 -11 15364.8 2061.52   2
   5  -5  11 15479.6 2137.38   1
   5   5  11 16598.4 2290.05   1
  -5  -5 -12-51.4786 176.752   2
   5   5  12-245.859 327.784   1
   5  -5  12 342.304 491.209   1
  -5  -5 -13 3672.77 1025.20   2
   5   5  13 3553.84 1173.12   1
   5  -5  13 1670.64 775.493   1
   5  -5  14-170.301 278.770   1
  -5  -5 -14-117.275 209.102   2
   5   5  14-238.731 337.434   1
   5   5  15 254.809 366.926   1
   5  -5  15-239.314 361.674   1
   5  -5  16-438.571 462.583   1
   5   5  16 64.1272 217.965   1
   5   5  17 682.209 581.923   1
   5  -5  17-108.325 291.699   1
   5  -5  18 328.208 504.634   1
   5   6 -18 372.763 441.427   4
   5   6 -17 628.150 636.493   4
  -5   6  17 194.009 303.428   1
   5  -6 -16-65.0753 251.302   3
  -5   6  16 308.119 334.379   1
   5  -6 -15-1290.66 810.679   3
  -5   6  15-913.289 543.391   1
   5  -6 -14 6214.80 1706.85   3
  -5   6  14 2833.62 870.957   1
   5  -6 -13 4042.96 1352.68   3
  -5   6  13 3354.86 941.466   1
  -5   6  12 11187.6 1617.97   1
   5  -6 -12 13501.0 2336.03   3
   5   6 -11 5482.29 1124.63   3
   5  -6 -11 6712.53 1621.73   3
  -5   6  11 8324.95 1310.18   1
  -5   6  10 21079.6 1970.30   1
   5  -6 -10 17582.7 2550.34   3
   5   6 -10 17743.3 1938.03   3
   5   6  -9 1737.11 592.495   3
   5  -6  -9 2257.05 977.462   3
  -5   6   9 1183.14 399.572   1
  -5   6   8 542.139 294.893   1
  -5   6   8 486.843 202.695   2
   5   6  -8 833.011 371.160   3
   5  -6  -8 941.340 702.728   3
  -5   6   7 4130.79 681.934   1
  -5   6   7 3804.77 660.166   2
   5   6  -7 4315.49 794.679   3
   5  -6  -7 3737.13 1045.30   3
  -5   6   6 5296.85 814.986   2
  -5   6   6 4514.10 641.383   1
   5  -6  -6 4969.29 678.141   1
   5   6  -6 4528.04 772.195   3
   5  -6  -6 5474.76 1252.12   3
  -5   6   5 437.058 245.432   2
  -5   6   5 474.689 170.027   1
   5   6  -5 359.901 251.655   3
   5  -6  -5 447.748 251.203   3
   5   6  -4 8487.49 1443.72   4
  -5   6   4 9286.67 704.359   1
   5   6  -4 10680.3 1021.82   3
   5  -6  -4 10937.4 1682.64   3
  -5   6   3 991.584 191.916   1
   5  -6  -3 1315.90 552.761   3
  -5   6   2 1984.42 248.744   1
  -5   6   2 2280.61 255.417   1
   5   6  -2 2731.15 762.927   4
   5  -6  -2 3825.36 982.266   3
  -5  -6   2 2194.57 467.144   3
  -5   6   1 6258.77 462.749   1
   5   6  -1 7392.55 1184.69   1
   5   6  -1 7558.51 1214.70   4
  -5  -6   1 6428.01 805.856   3
   5  -6  -1 6661.85 1236.48   3
  -5   6   1 5645.48 429.993   1
  -5  -6   0 68572.2 2703.96   3
   5   6   0 75391.5 3790.83   1
   5   6   0 70529.0 3533.87   4
  -5   6   0 64631.5 1751.44   1
  -5   6   0 65206.1 1791.15   1
   5  -6   0 75393.0 4198.58   3
   5   6   1 7885.08 1137.03   4
   5   6   1 7193.20 1161.79   1
  -5   6  -1 5680.21 603.921   1
  -5  -6  -1 6321.62 862.134   3
  -5  -6  -2 11153.9 1665.02   2
   5   6   2 10324.3 1434.66   1
   5   6   2 11807.5 1334.42   4
  -5   6  -2 10618.4 935.963   1
  -5   6  -3 6159.51 795.565   1
  -5  -6  -3 5350.72 1157.37   2
   5   6   3 4885.65 1003.06   1
  -5  -6  -4-176.074 263.332   2
   5   6   4 21.7686 136.050   1
   5   6   5 1975.18 630.856   1
  -5  -6  -5 2746.97 800.851   2
   5   6   6 6873.06 1289.06   1
  -5  -6  -6 6120.89 1230.09   2
  -5  -6  -7-890.226 494.787   2
   5   6   7-202.054 248.702   1
  -5  -6  -8 6723.28 1319.07   2
   5   6   8 5826.27 1248.14   1
  -5  -6  -9 1735.82 663.698   2
   5  -6   9 2707.89 822.881   1
   5   6   9 1917.87 731.468   1
  -5  -6 -10 717.711 424.402   2
   5  -6  10 201.435 162.201   1
  -5  -6 -11 358.958 377.065   2
   5  -6  11 845.214 543.887   1
   5   6  11 199.519 326.736   1
  -5  -6 -12 4535.04 1136.48   2
   5   6  12 4678.62 1267.39   1
   5  -6  12 5157.14 1301.02   1
  -5  -6 -13 2825.71 861.614   2
   5   6  13 3405.14 1154.44   1
   5  -6  13 2278.64 912.267   1
   5   6  14 367.793 324.631   1
   5  -6  14 158.488 326.385   1
   5   6  15 405.620 451.647   1
   5  -6  15 773.126 559.763   1
   5   6  16 582.237 546.314   1
   5  -6  16-242.699 372.989   1
   5   6  17 462.237 495.848   1
   5  -6  17-289.291 411.129   1
   5  -6  18 982.557 792.393   1
   5  -7 -17-320.026 461.472   3
   5  -7 -16 1460.34 689.660   3
  -5   7  16 1073.32 614.725   1
   5  -7 -15 819.901 666.305   3
  -5   7  15 1598.72 725.950   1
   5  -7 -14 6299.47 1721.11   3
  -5   7  14 6410.96 1360.24   1
  -5   7  13 1469.95 594.358   1
   5  -7 -13 2680.12 1091.90   3
  -5   7  12 5124.24 1117.21   1
   5  -7 -12 4516.03 1400.98   3
   5   7 -11 3786.93 935.669   3
  -5   7  11 3119.21 787.697   1
   5  -7 -11 1977.24 853.553   3
  -5   7  10 1524.91 578.093   1
   5  -7 -10 824.982 565.878   3
   5   7 -10 1287.53 505.585   3
  -5   7   9 27959.2 2149.04   1
   5  -7  -9 26841.5 3095.56   3
   5   7  -9 27011.4 2156.06   3
  -5   7   8 6042.54 775.439   2
  -5   7   8 5142.11 855.668   1
   5   7  -8 5626.87 919.839   3
   5  -7  -8 5185.82 1308.54   3
  -5   7   7-113.674 123.656   2
  -5   7   7-76.4151 157.271   1
   5   7  -7-298.097 198.934   3
   5  -7  -7-525.065 436.695   3
  -5   7   6 210.655 200.947   2
  -5   7   6 395.908 233.935   1
   5  -7  -6 668.596 263.850   1
   5   7  -6 43.7160 94.6918   3
   5  -7  -6 239.974 208.215   3
   5   7  -5 730.650 268.727   3
  -5   7   5 394.209 173.796   1
   5  -7  -5 204.224 199.151   3
   5  -7  -4 18293.1 2246.72   3
  -5   7   4 16168.6 1065.23   1
  -5   7   3 5692.56 577.942   1
   5  -7  -3 6349.86 1304.20   3
   5   7  -2 40894.5 3006.13   4
   5  -7  -2 43800.4 3336.52   3
  -5   7   2 37942.2 1437.53   1
  -5   7   1 42964.3 1607.00   1
  -5   7   1 44736.7 1620.34   1
   5   7  -1 49459.5 3192.86   4
   5   7  -1 51183.1 3326.19   1
   5  -7  -1 50323.9 3527.57   3
  -5  -7   1 46133.7 1974.06   3
   5   7   0 3825.64 929.286   1
  -5   7   0 2337.20 403.649   1
   5  -7   0 4712.01 1092.12   3
   5   7   0 2880.12 717.500   4
  -5  -7   0 3523.61 578.196   3
  -5   7   0 3537.34 502.799   1
   5   7   1 754.199 378.190   4
   5   7   1 305.857 331.615   1
  -5  -7  -1 329.688 173.702   3
  -5   7  -1 449.092 180.975   1
   5   7   2 3248.64 809.818   1
   5   7   2 3478.70 723.337   4
  -5   7  -2 4491.09 667.020   1
  -5   7  -3 783.376 316.704   1
   5   7   3 972.290 383.878   4
   5   7   3 1520.67 577.026   1
   5   7   4 38699.0 3015.51   1
   5   7   5-111.388 301.185   1
  -5  -7  -5 301.964 319.906   2
   5   7   6 790.463 369.065   1
  -5  -7  -6 522.815 364.650   2
   5   7   7 1960.26 720.959   1
  -5  -7  -7 1999.01 719.844   2
  -5  -7  -8 239.064 164.628   2
   5   7   8 256.200 185.945   1
  -5  -7  -9-744.125 473.000   2
   5   7   9-91.5933 399.791   1
  -5  -7 -10 4747.89 1155.35   2
   5   7  10 7860.51 1610.21   1
  -5  -7 -11-510.125 401.488   2
   5   7  11-24.2206 232.438   1
   5   7  12 2962.01 1047.39   1
  -5  -7 -12 3486.09 994.181   2
  -5  -7 -13-101.508 187.519   2
   5   7  13 411.059 503.754   1
   5   7  14-302.544 388.305   1
   5   7  15 2273.36 1077.42   1
   5   7  16 332.439 438.149   1
   5  -8 -16 179.165 365.728   3
   5  -8 -15 978.858 731.942   3
  -5   8  14 24.2880 143.208   1
   5  -8 -14 979.028 721.002   3
  -5   8  13-372.309 326.280   1
   5  -8 -13 1040.07 926.846   3
  -5   8  12 146.421 193.090   1
   5  -8 -12-158.806 329.637   3
  -5   8  11 2918.87 777.228   1
   5  -8 -11 4994.51 1410.18   3
  -5   8  10 4510.37 934.520   1
   5  -8 -10 6308.40 1649.16   3
   5   8 -10 5156.35 970.239   3
  -5   8   9 4913.29 924.164   1
   5   8  -9 4608.55 836.016   3
   5  -8  -9 5788.86 1493.46   3
  -5   8   8 8.74683 81.2101   2
  -5   8   8 244.880 268.773   1
   5   8  -8-64.8683 111.218   3
   5  -8  -8-253.469 522.563   3
  -5   8   7 311.868 174.608   2
  -5   8   7 419.062 233.684   1
   5   8  -7 433.218 206.657   3
   5  -8  -7 724.086 571.072   3
  -5   8   6 1033.22 359.639   1
   5   8  -6 1670.48 373.600   3
   5  -8  -6 1806.76 719.766   3
  -5   8   5 14121.8 1193.95   1
   5  -8  -5 14950.3 2097.21   3
  -5   8   4 3321.53 536.353   1
   5  -8  -4 4158.65 1090.29   3
  -5   8   3 450.581 202.577   1
   5  -8  -3-8.57602 252.388   3
  -5   8   2 98.8890 76.6271   1
   5  -8  -2 141.989 252.756   3
  -5   8   1-35.0217 94.7610   1
   5   8  -1 37.1369 206.825   4
   5   8  -1-45.9022 171.687   1
   5  -8  -1-253.308 489.515   3
  -5  -8   1-99.8001 129.071   3
   5   8   0 37413.7 2986.22   1
  -5   8   0 31871.5 1693.15   1
   5   8   0 35082.0 2637.79   4
  -5   8   0 32879.4 1746.53   1
   5  -8   0 32297.4 2888.50   3
  -5  -8   0 30371.7 1583.42   3
   5   8   1 19234.4 2177.34   1
   5   8   1 17429.4 1788.67   4
  -5   8  -1 17706.5 1344.42   1
  -5  -8  -1 17902.2 1326.50   3
   5   8   2 5558.29 1175.25   1
  -5   8  -2 5813.15 825.199   1
   5   8   2 5582.68 958.173   4
   5   8   3 1783.07 524.162   4
   5   8   3 2092.33 737.715   1
   5   8   4-667.308 430.512   1
   5   8   5 9212.86 1560.81   1
   5   8   6 6202.50 1301.26   1
   5   8   7 1851.60 766.835   1
   5   8   8 9397.72 1656.73   1
   5   8   9 1670.91 709.856   1
  -5  -8  -9 234.567 304.280   2
  -5  -8 -10 1601.56 662.604   2
   5   8  10 1780.82 819.717   1
  -5  -8 -11 1892.45 715.755   2
   5   8  11 3355.48 1110.40   1
  -5  -8 -12 834.124 415.995   2
   5   8  12 382.472 264.326   1
   5   8  13 5710.81 1531.27   1
   5   8  14-591.833 531.270   1
   5   8  15-332.330 424.152   1
   5   8  16-687.198 614.081   1
   5  -9 -16-232.230 429.689   3
   5  -9 -15 2162.11 1095.51   3
   5  -9 -14 7109.73 1921.17   3
  -5   9  13 285.111 293.064   1
   5  -9 -13-186.651 335.166   3
  -5   9  12-58.9905 149.322   1
   5  -9 -12 222.015 249.035   3
  -5   9  11 484.375 377.394   1
   5  -9 -11 313.460 209.234   3
  -5   9  10 705.242 369.312   1
   5  -9 -10 1877.50 845.476   3
  -5   9   9 463.236 357.762   1
   5  -9  -9 978.402 700.599   3
  -5   9   8 3899.08 806.895   1
   5  -9  -8 3765.25 1121.00   3
  -5   9   7 3099.48 680.428   1
   5  -9  -7 4481.11 1250.86   3
  -5   9   6 104.653 208.814   1
   5  -9  -6 911.961 645.055   3
   5  -9  -5-261.188 430.552   3
  -5   9   5-151.869 142.721   1
   5  -9  -4-684.211 471.999   3
  -5   9   4 23.2578 72.0429   1
   5  -9  -3 5637.98 1263.04   3
  -5   9   3 6389.74 805.970   1
  -5   9   2 22183.7 1502.59   1
   5  -9  -2 21035.8 2434.13   3
   5   9  -2 21196.8 2418.18   1
   5   9  -1 130.354 178.129   1
  -5   9   1-431.813 220.814   1
   5  -9  -1-756.256 475.322   3
  -5   9   0 13503.4 1247.01   1
   5   9   0 13181.0 1662.23   4
   5   9   0 13079.0 1860.33   1
   5  -9   0 12878.2 1852.72   3
   5   9   1 1514.17 551.400   4
   5   9   1 1721.13 656.780   1
   5   9   2 178.817 410.975   1
   5   9   2 436.575 280.790   4
   5   9   3 10116.6 1269.88   4
   5   9   3 9102.07 1542.10   1
   5   9   4 20213.1 1679.18   4
   5   9   4 19833.7 2340.30   1
   5   9   5 1040.39 530.262   1
   5   9   6-267.248 355.024   1
   5   9   7-46.3935 208.713   1
   5   9   8 294.907 365.085   1
   5   9   9 436.619 369.268   1
   5   9  10-194.759 395.947   1
   5   9  11-452.048 433.383   1
   5   9  12 295.692 441.573   1
   5   9  13 245.703 678.489   1
   5   9  14 2919.97 1185.35   1
   5   9  15 1226.20 808.576   1
   5 -10 -15 794.323 674.953   3
   5 -10 -14-1235.78 829.826   3
   5 -10 -13 410.250 542.139   3
   5 -10 -12 3672.31 1301.40   3
  -5  10  11 1892.18 676.985   1
   5 -10 -11 4596.35 1379.68   3
  -5  10  10 2057.42 662.345   1
   5 -10 -10 3161.00 1190.51   3
  -5  10   9 411.552 329.126   1
   5 -10  -9-212.368 432.144   3
  -5  10   8 7184.24 1128.74   1
   5 -10  -8 6230.38 1538.66   3
  -5  10   7 123.287 181.219   1
   5 -10  -7-636.769 492.923   3
  -5  10   6 3856.71 752.086   1
   5 -10  -6 4273.10 1215.16   3
   5 -10  -5 3377.37 1029.98   3
  -5  10   5 3477.72 687.733   1
   5 -10  -4 11152.5 1896.97   3
  -5  10   4 11207.0 1189.23   1
  -5  10   3 1049.32 327.131   1
   5 -10  -3 1283.33 655.736   3
   5  10  -2 1878.67 782.285   1
   5 -10  -2 1852.98 767.624   3
  -5  10   2 1507.12 449.208   1
   5  10  -1 6179.66 1346.95   1
  -5  10   1 6543.20 927.891   1
   5 -10  -1 7399.79 1453.90   3
   5  10   0 50825.1 3360.93   4
   5  10   0 44209.7 3589.98   1
  -5  10   0 48132.6 2583.93   1
   5 -10   0 52733.6 3851.00   3
   5  10   1 11675.8 1559.39   4
   5  10   1 10957.3 1762.93   1
   5  10   2 9500.38 1628.41   1
   5  10   2 10242.7 1374.36   4
   5  10   3-4.61673 281.746   1
   5  10   3 596.375 318.373   4
   5  10   4 889.783 353.093   4
   5  10   4 1087.43 751.275   1
   5  10   5-79.9550 266.835   1
   5  10   6 67.0079 248.648   1
   5  10   7-693.182 491.029   1
   5  10   8 1472.83 685.178   1
   5  10   9 1218.19 702.730   1
   5  10  10 762.594 496.007   1
   5  10  11 1716.97 878.292   1
   5  10  12 1375.63 857.546   1
   5  10  13 3990.17 1325.05   1
   5  10  14 96.5790 281.401   1
   5  10  15 566.471 569.063   1
   5 -11 -15-900.741 744.256   3
   5 -11 -14 1422.22 852.670   3
   5 -11 -13 163.687 678.384   3
   5 -11 -12-160.872 605.587   3
   5 -11 -11 787.274 691.402   3
   5 -11 -10 954.895 536.561   3
   5 -11  -9 2067.64 989.629   3
  -5  11   8 336.530 260.843   1
   5 -11  -8 180.251 296.153   3
  -5  11   7 3043.84 730.203   1
   5 -11  -7 1832.97 798.694   3
  -5  11   6 2376.45 647.155   1
   5 -11  -6 1280.02 604.895   3
  -5  11   5 83.2867 97.3860   1
   5 -11  -5-331.674 538.318   3
   5 -11  -4 9115.40 1749.07   3
  -5  11   4 9986.92 1214.73   1
  -5  11   3 3902.84 752.306   1
   5 -11  -3 4531.02 1241.77   3
  -5  11   2 24201.4 1894.16   1
   5 -11  -2 24990.2 2760.35   3
   5  11  -2 22930.6 2745.84   1
   5 -11  -1 13588.7 2004.91   3
  -5  11   1 11995.9 1348.07   1
   5  11  -1 12824.8 2034.37   1
   5  11   0-179.091 339.990   1
  -5  11   0 567.516 316.036   1
   5 -11   0 14.8838 286.251   3
   5  11   1 1190.26 460.590   4
   5  11   1 2432.10 922.637   1
   5  11   2 931.817 571.701   1
   5  11   2 726.801 335.460   4
   5  11   3 980.489 617.484   1
   5  11   3 674.333 349.629   4
   5  11   4 14432.8 1485.03   4
   5  11   4 12262.7 2009.24   1
   5  11   5 1701.94 751.036   1
   5  11   6 364.914 289.460   1
   5  11   7 1595.69 791.653   1
   5  11   8 257.086 215.326   1
   5  11   9 3894.53 1251.54   1
   5  11  10-373.659 542.213   1
   5  11  11 1477.70 726.161   1
   5  11  12 1300.59 770.485   1
   5  11  13 1634.67 861.461   1
   5  11  14 2277.96 1047.73   1
   5 -12 -14 203.711 242.031   3
   5 -12 -13 344.121 250.932   3
   5 -12 -12 1311.58 803.548   3
   5 -12 -11-57.1510 342.109   3
   5 -12 -10 2148.27 1007.58   3
   5 -12  -9-312.442 402.481   3
   5 -12  -8 327.343 514.384   3
   5 -12  -7 735.363 576.772   3
   5 -12  -6 74.2597 222.638   3
  -5  12   6 0.57461 382.209   1
  -5  12   5 2773.36 685.852   1
   5 -12  -5 2657.52 985.145   3
  -5  12   4 3746.20 806.127   1
   5 -12  -4 3314.37 1070.42   3
  -5  12   3-7.87918 196.069   1
   5 -12  -3 52.5218 246.770   3
   5  12  -2 2659.96 1022.38   1
   5 -12  -2 3335.80 1084.62   3
  -5  12   2 2326.80 633.565   1
  -5  12   1 2179.56 614.275   1
   5 -12  -1 2074.89 857.176   3
   5  12  -1 3067.26 1082.14   1
   5  12   0 4456.38 1222.15   1
  -5  12   0 5533.48 1001.28   1
  -5  12  -1 4286.87 921.289   1
   5  12   1 3194.25 840.927   4
   5  12   1 2106.42 796.932   1
   5  12   2 960.186 400.384   1
   5  12   2 2459.16 721.405   4
   5  12   3 1575.42 686.801   1
   5  12   3 2943.81 745.738   4
   5  12   4 14.3509 194.299   1
   5  12   5 779.507 591.382   1
   5  12   6 3285.70 1053.34   1
   5  12   7 6957.26 1619.75   1
   5  12   8-344.891 393.762   1
   5  12   9 261.513 479.302   1
   5  12  10-166.756 470.902   1
   5  12  11 691.209 656.845   1
   5  12  12-88.7396 269.566   1
   5  12  13 172.075 342.104   1
   5 -13 -13 329.736 514.369   3
   5 -13 -12 1016.57 773.109   3
   5 -13 -11-518.664 531.381   3
   5 -13 -10-145.133 336.999   3
   5 -13  -9 114.196 279.977   3
   5 -13  -8 2066.21 931.025   3
   5 -13  -7 2316.30 1026.00   3
   5 -13  -6 1216.61 673.748   3
   5 -13  -5-649.129 510.023   3
   5 -13  -4 4261.31 1287.95   3
  -5  13   3 511.361 385.041   1
   5 -13  -3 782.484 537.006   3
   5  13  -3-338.316 425.769   1
   5  13  -2 810.591 672.351   1
   5 -13  -2 1193.33 583.442   3
  -5  13   2 1961.06 600.734   1
  -5  13   1 1073.87 423.117   1
   5  13  -1 1684.21 819.545   1
   5 -13  -1 2561.84 940.236   3
   5  13   0 6238.33 1521.94   1
  -5  13   0 4801.51 1004.51   1
  -5  13  -1 424.527 384.205   1
   5  13   1 2151.60 835.679   1
   5  13   2-401.686 499.534   1
   5  13   2 201.282 269.396   4
   5  13   3 6037.13 1524.15   1
   5  13   4 101.290 281.545   1
   5  13   5 850.179 499.548   1
   5  13   6 75.2860 476.259   1
   5  13   7 1941.50 852.018   1
   5  13   8 269.051 275.035   1
   5  13   9 1362.84 761.773   1
   5  13  10 422.489 455.710   1
   5  13  11-672.869 586.854   1
   5  13  12-93.2391 281.006   1
   5 -14 -13 60.8753 270.529   3
   5 -14 -12 205.694 354.465   3
   5 -14 -11-92.0774 438.065   3
   5 -14 -10 632.527 577.301   3
   5 -14  -9-770.811 621.240   3
   5 -14  -8 1480.28 865.748   3
   5 -14  -7 5503.19 1571.90   3
   5 -14  -6 1117.52 671.383   3
   5 -14  -5 7520.85 1711.76   3
   5 -14  -4 372.908 381.420   3
   5  14  -3 1231.56 724.180   1
   5 -14  -3 594.106 392.409   3
   5  14  -2 269.384 543.689   1
   5 -14  -2 176.407 291.365   3
   5  14  -1-224.421 604.153   1
   5 -14  -1 417.087 401.086   3
  -5  14   0-49.0270 142.726   1
   5  14   0-271.577 362.248   1
   5  14   1 1777.42 837.037   1
  -5  14  -1 2391.43 804.616   1
   5  14   2 331.323 664.636   1
   5  14   2-10.5312 205.195   4
  -5  14  -2-279.170 328.271   1
   5  14   3 1376.32 805.393   1
   5  14   4-173.118 333.331   1
   5  14   5-321.167 488.764   1
   5  14   6 1094.15 693.984   1
   5  14   7 1802.72 874.485   1
   5  14   8 1368.11 911.104   1
   5  14   9-1185.97 756.845   1
   5  14  10 1165.72 760.262   1
   5  14  11-412.352 476.305   1
   5 -15 -12 179.412 274.530   3
   5 -15 -11 624.897 517.902   3
   5 -15 -10 251.047 388.601   3
   5 -15  -9 2603.14 1153.20   3
   5 -15  -8 1229.92 900.533   3
   5 -15  -7 3308.52 1213.76   3
   5 -15  -6 79.8593 209.610   3
   5 -15  -5 151.437 202.987   3
   5 -15  -4 190.596 315.402   3
   5  15  -4 1084.98 766.101   1
   5 -15  -3 1699.28 767.288   3
   5  15  -3 694.828 545.919   1
   5 -15  -2 2862.03 1053.38   3
   5  15  -2 299.766 232.330   1
   5  15  -1 6.82903 191.715   1
   5  15   0 2162.00 954.768   1
   5  15   1 879.245 601.196   1
   5  15   2 561.098 617.663   1
   5  15   3 552.735 363.765   1
   5  15   4-493.213 496.718   1
   5  15   5 763.981 786.063   1
   5  15   6-487.713 490.323   1
   5  15   7 948.414 718.981   1
   5  15   8 323.473 234.927   1
   5  15   9 738.353 558.757   1
   5  15  10 485.036 488.198   1
   5 -16 -11 2200.00 1096.86   3
   5 -16 -10 316.967 271.924   3
   5 -16  -9 2007.02 1031.97   3
   5 -16  -8-647.894 584.916   3
   5 -16  -7 736.492 601.815   3
   5 -16  -6-460.814 467.692   3
   5 -16  -5-182.199 300.409   3
   5  16  -4 432.421 475.932   1
   5 -16  -4-297.865 375.124   3
   5  16  -3 46.6383 221.088   1
   5 -16  -3 316.579 374.954   3
   5 -16  -2 976.738 624.425   3
   5  16  -2-803.126 635.099   1
   5  16  -1-549.652 531.526   1
   5  16   0 173.239 288.749   1
   5  16   1 1476.97 824.976   1
   5  16   2-342.375 433.254   1
   5  16   3 65.8129 576.420   1
   5  16   4-458.937 494.086   1
   5  16   5-641.855 563.507   1
   5  16   6 259.817 292.846   1
   5  16   7 641.524 764.969   1
   5  16   8 233.490 370.427   1
   5 -17 -10 555.249 532.332   3
   5 -17  -9 210.922 370.803   3
   5 -17  -8 983.999 691.010   3
   5 -17  -7-325.459 407.270   3
   5 -17  -6 108.211 280.201   3
   5  17  -5 1108.44 783.746   1
   5 -17  -5 1160.35 710.161   3
   5 -17  -4-527.898 496.679   3
   5  17  -4-1106.92 786.094   1
   5 -17  -3 2819.18 1115.99   3
   5  17  -3 3670.93 1368.00   1
   5  17  -2 667.185 592.156   1
   5  17  -1 3016.67 1267.46   1
   5  17   0 344.660 390.683   1
   5  17   1-1139.33 760.687   1
   5  17   2 822.863 598.570   1
   5  17   3 3280.87 1277.44   1
   5  17   4-742.724 627.598   1
   5  17   5 1600.69 860.323   1
   5  17   6 82.2156 585.960   1
   5 -18  -8 447.923 514.246   3
   5 -18  -7 1329.66 870.508   3
   5 -18  -6-477.734 500.395   3
   5 -18  -5 2405.35 1010.65   3
   5 -18  -4-330.475 405.344   3
   5  18  -3-206.924 398.572   1
   5 -18  -3 519.012 612.302   3
   5  18  -2-920.040 725.477   1
   5  18  -1 619.357 632.578   1
   5  18   0 418.425 561.210   1
   5  18   1 4325.00 1490.60   1
   5  18   2 441.412 527.989   1
   6   0 -19 5.37779 225.890   3
   6   0 -19 488.742 500.595   4
   6   0 -18-611.868 595.319   3
   6   0 -18 465.990 460.747   4
   6   0 -17-458.048 500.803   3
   6   0 -17 93.0551 367.264   4
   6   0 -16 3798.39 1305.78   3
   6   0 -16 7323.56 1746.72   4
   6   0 -15-894.221 640.684   3
   6   0 -15-945.415 532.449   4
   6   0 -14 8131.87 1804.27   3
   6   0 -14 7861.12 1727.42   4
   6   0 -13 104.637 309.221   4
   6   0 -13 1662.99 960.872   3
   6   0 -12 4946.31 1330.70   4
   6   0 -12 4493.00 1268.97   3
   6   0 -11-23.1651 243.667   4
   6   0 -11 87.4495 331.687   3
   6   0 -10 5370.08 1296.11   4
   6   0 -10 3501.36 1011.37   3
   6   0  -9-64.7425 221.174   4
   6   0  -9 331.270 388.649   3
   6   0  -8 4804.10 1185.17   4
   6   0  -8 5078.82 1128.14   3
   6   0  -7 993.663 563.165   4
   6   0  -7-97.1328 282.987   3
   6   0  -6 6906.90 867.406   1
  -6   0   6 8724.88 1321.67   2
   6   0  -6 10412.1 1616.35   3
  -6   0   5-76.5886 215.160   2
   6   0  -5-21.0454 221.631   3
   6   0  -5-17.0194 55.0648   1
  -6   0   4 47500.0 3086.73   2
   6   0  -4 43522.6 1845.05   1
   6   0  -4 47088.3 3155.78   3
  -6   0   3-34.6027 219.028   2
   6   0  -3-130.039 100.180   1
   6   0  -3 159.817 115.600   1
   6   0  -3-60.1627 195.499   3
   6   0  -2 6584.64 638.812   1
  -6   0   2 7141.51 1215.22   2
   6   0  -2 7520.35 1228.42   3
  -6   0   1-637.938 373.496   2
   6   0  -1-15.9686 68.9711   1
  -6   0   0 441.382 390.683   2
   6   0   0 263.252 152.352   1
   6   0   1 72.0358 93.8207   1
   6   0   2 3469.01 583.820   1
  -6   0  -2 3921.36 631.376   1
   6   0   3 125.773 139.258   1
  -6   0  -3 23.2562 107.293   1
   6   0   4 5447.43 846.061   1
  -6   0  -5-51.9079 281.281   2
   6   0   5 270.332 260.825   1
  -6   0  -6 6404.08 1285.56   2
   6   0   6 6774.89 1091.18   1
  -6   0  -7-492.856 380.785   2
   6   0   7-8.00954 268.367   1
  -6   0  -8 15799.4 2081.95   2
   6   0   8 16179.7 1871.24   1
  -6   0  -9 183.614 391.485   2
   6   0   9-92.0840 208.188   1
  -6   0 -10 15598.7 2144.07   2
   6   0  10 13059.2 1869.20   1
   6   0  11-204.046 205.173   1
  -6   0 -11 115.183 177.321   2
   6   0  12 376.732 284.176   1
  -6   0 -12 185.584 284.384   2
   6   0  13-268.178 341.870   1
  -6   0 -13-185.983 271.201   2
  -6   0 -14 173.156 291.497   2
   6   0  14 1020.57 697.947   1
  -6   0 -15 55.0056 300.811   2
   6   0  15 296.232 442.314   1
  -6   0 -16 3929.61 1229.52   2
   6   0  16 1780.10 976.475   1
   6   0  17 549.168 639.140   1
   6   0  18 140.797 311.759   1
   6   1 -19 31.9680 212.416   4
   6  -1 -18 88.0316 282.441   3
   6   1 -18 123.654 278.917   4
   6  -1 -17-619.827 580.213   3
   6   1 -17 261.747 393.466   3
   6  -1 -17 592.488 499.198   4
   6   1 -17 999.468 652.145   4
   6  -1 -16-168.254 359.690   3
   6   1 -16-753.410 601.713   3
   6   1 -16-476.542 467.868   4
   6  -1 -16 166.515 288.157   4
   6  -1 -15 1.41868 171.060   3
   6   1 -15 17.3381 190.865   3
   6  -1 -15-66.8623 381.091   4
   6   1 -15-512.878 474.736   4
   6   1 -14 3218.30 1198.50   3
   6   1 -14 2792.02 1036.89   4
   6  -1 -14 2796.57 1024.09   4
   6  -1 -14 5329.77 1520.27   3
   6   1 -13 1190.13 622.932   4
   6  -1 -13 1540.38 775.291   4
   6  -1 -13 3012.45 1076.99   3
   6   1 -13 1270.14 698.169   3
   6   1 -12 14371.1 2234.08   4
   6  -1 -12 11048.3 1899.20   4
   6  -1 -12 12265.6 2112.30   3
   6   1 -12 9145.00 1785.62   3
   6  -1 -11 182.753 243.884   4
   6   1 -11 488.409 380.667   4
   6  -1 -11-186.209 194.603   3
   6  -1 -10 4055.93 1124.35   4
   6   1 -10 3547.31 1081.70   4
   6  -1 -10 1449.32 649.677   3
   6   1 -10 2115.48 740.449   3
   6  -1  -9 9728.35 1687.95   4
   6   1  -9 10052.1 1754.51   4
   6   1  -9 9489.88 1592.40   3
   6  -1  -9 8139.03 1561.82   3
   6   1  -8 8179.59 1530.62   4
   6   1  -8 7027.96 1361.99   3
   6  -1  -8 6525.28 1323.94   3
   6  -1  -7 7.39986 54.7502   1
   6   1  -7 20.2526 397.095   4
   6   1  -7 52.7361 229.705   3
   6  -1  -7-102.122 175.509   3
  -6   1   6 55267.4 3216.47   2
   6   1  -6 61440.1 4006.72   4
   6   1  -6 59545.9 3663.79   3
   6  -1  -6 60667.9 3896.77   3
   6  -1  -6 56326.4 2261.02   1
  -6   1   5 18716.0 1870.90   2
  -6  -1   5 20002.5 2047.88   2
   6   1  -5 19441.6 2228.50   4
   6   1  -5 19071.3 1474.74   1
   6  -1  -5 18133.0 1138.93   1
   6   1  -5 21721.7 2135.12   3
   6  -1  -5 17279.1 2046.57   3
  -6   1   4 12247.4 1530.34   2
  -6  -1   4 11568.2 1570.15   2
   6   1  -4 11112.1 1062.62   1
   6  -1  -4 12913.9 828.517   1
   6   1  -4 13000.0 1620.00   3
   6  -1  -4 13183.6 1767.12   3
  -6   1   3 20253.8 1983.73   2
  -6  -1   3 17811.2 1946.59   2
   6  -1  -3 18601.3 845.103   1
   6  -1  -3 17740.2 823.529   1
   6   1  -3 19929.1 1967.28   3
   6  -1  -3 19020.1 2062.13   3
   6   1  -3 20494.1 1392.78   1
  -6   1   2 7516.87 1235.35   2
  -6  -1   2 5654.92 1102.83   2
   6   1  -2 6082.90 729.721   1
   6  -1  -2 5416.32 408.394   1
   6   1  -2 6887.45 1163.68   3
   6  -1  -2 6657.87 1198.21   3
   6  -1  -2 5627.79 398.856   1
  -6   1   1 58.7454 277.161   2
  -6  -1   1-173.598 352.223   2
   6  -1  -1-75.3826 51.3091   1
   6  -1  -1-491.767 335.627   3
   6   1  -1-122.793 149.320   1
  -6   1   0 1194.64 475.930   2
  -6  -1   0 718.788 439.204   2
   6   1   0 704.271 257.390   1
   6  -1   0 547.100 161.635   1
   6   1   1 766.943 277.462   1
  -6   1  -1 698.827 377.891   2
   6  -1   1 474.323 167.759   1
  -6  -1  -2 978.559 343.008   1
   6  -1   2 772.487 257.741   1
   6   1   2 980.053 346.375   1
  -6   1  -2 1012.09 296.551   1
  -6   1  -3 2316.48 495.904   1
   6  -1   3 2517.43 505.813   1
   6   1   3 1744.42 474.471   1
  -6  -1  -4 865.001 476.568   2
   6  -1   4 1436.67 422.228   1
   6   1   4 794.111 336.119   1
  -6   1  -5 9837.34 1561.98   2
   6  -1   5 6434.93 952.421   1
  -6  -1  -5 7097.07 1334.05   2
   6   1   5 9222.96 1220.86   1
  -6   1  -6 14744.3 1955.68   2
  -6  -1  -6 13534.0 1874.77   2
   6  -1   6 14767.7 1586.25   1
   6   1   6 13460.6 1574.58   1
  -6   1  -7 172.240 292.452   2
   6  -1   7 73.5261 137.395   1
  -6  -1  -7-618.918 420.469   2
   6   1   7 114.791 241.927   1
  -6   1  -8 4377.84 1102.10   2
   6  -1   8 5274.58 1057.62   1
  -6  -1  -8 4614.85 1133.13   2
   6   1   8 4868.26 1085.29   1
  -6   1  -9 1117.40 613.227   2
   6  -1   9 1908.20 718.346   1
  -6  -1  -9 1815.03 735.212   2
   6   1   9 942.193 484.982   1
   6  -1  10-40.9254 305.636   1
  -6   1 -10-621.853 455.719   2
  -6  -1 -10-41.3587 210.009   2
   6   1  10 455.569 488.453   1
  -6   1 -11 1262.62 707.018   2
  -6  -1 -11 969.066 614.411   2
   6   1  11 1367.82 655.895   1
   6  -1  11 1245.33 537.962   1
  -6   1 -12 1647.72 715.996   2
   6   1  12 1759.84 748.229   1
  -6  -1 -12 1139.90 582.497   2
   6  -1  12 943.081 515.235   1
  -6   1 -13-7.60243 412.966   2
   6   1  13 683.780 500.154   1
  -6  -1 -13 434.462 293.420   2
   6  -1  13 131.162 331.572   1
   6   1  14 1793.45 887.555   1
  -6   1 -14 2396.34 951.052   2
  -6  -1 -14 619.577 547.256   2
   6  -1  14 2500.12 1000.20   1
   6   1  15 471.111 473.892   1
  -6   1 -15-760.747 547.679   2
  -6  -1 -15-383.974 396.921   2
   6  -1  15-260.170 376.545   1
  -6   1 -16 786.519 532.105   2
  -6  -1 -16 782.181 557.241   2
   6  -1  16 700.804 475.997   1
   6   1  16 1570.23 924.739   1
  -6   1 -17 232.914 343.116   2
   6   1  17 1177.82 774.918   1
   6  -1  17 1371.51 889.740   1
   6  -1  18 2224.29 1065.88   1
   6   1  18 1539.16 1086.86   1
   6   2 -19-180.643 352.675   4
   6  -2 -18-1208.84 834.384   3
   6   2 -18 425.732 472.024   4
   6  -2 -17-693.857 632.669   3
   6   2 -17-641.230 557.280   3
   6   2 -17 964.586 672.481   4
   6  -2 -16 1011.30 616.675   3
   6   2 -16 1180.74 732.879   3
   6   2 -16 561.219 468.442   4
   6  -2 -15-83.3869 390.445   3
   6   2 -15-627.978 527.311   3
   6   2 -15 418.777 593.046   4
   6   2 -14 3069.69 1111.28   3
   6   2 -14 3788.77 1234.97   4
   6  -2 -14 3647.88 1253.56   3
   6   2 -13 2309.62 853.106   4
   6  -2 -13 2745.97 992.073   3
   6   2 -13 1415.17 732.395   3
   6   2 -12 15310.0 2354.11   4
   6  -2 -12 13266.6 2257.18   3
   6   2 -12 13274.4 2127.76   3
   6   2 -11 651.671 611.966   4
   6  -2 -11 1113.37 603.583   3
   6   2 -11 1721.51 763.726   3
   6   2 -10 25408.9 2842.58   4
   6  -2 -10 26325.4 2970.07   3
   6   2 -10 31361.0 2966.56   3
   6   2  -9 4161.31 1152.54   4
   6  -2  -9 2790.72 947.429   3
   6   2  -9 5114.31 1146.80   3
   6   2  -8 43549.3 3551.03   4
   6   2  -8 36998.7 2973.57   3
   6  -2  -8 40204.6 3443.92   3
   6  -2  -7-58.3809 86.3933   1
  -6   2   7 148.621 194.760   2
   6   2  -7 242.629 265.532   4
   6   2  -7-296.554 279.432   3
   6  -2  -7-31.9877 244.821   3
  -6   2   6 1328.48 484.270   2
   6   2  -6 1356.07 570.886   4
   6  -2  -6 1513.77 338.271   1
   6   2  -6 2045.60 657.860   3
   6  -2  -6 1854.65 709.065   3
  -6   2   5-139.485 247.518   2
   6   2  -5 127.042 248.290   4
   6  -2  -5 104.850 62.1027   1
   6   2  -5-468.596 314.522   3
   6  -2  -5-27.3919 292.770   3
  -6   2   4 19028.4 1887.79   2
  -6  -2   4 16793.5 1930.57   2
   6   2  -4 18287.5 2080.14   4
   6   2  -4 16197.1 1740.43   3
   6  -2  -4 18613.8 2119.51   3
  -6   2   3 19330.3 1908.10   2
  -6  -2   3 19032.5 2068.95   2
   6   2  -3 18031.0 2049.68   4
   6   2  -3 17918.3 1800.02   3
   6  -2  -3 18485.7 2098.37   3
  -6   2   2 49071.9 3089.77   2
  -6  -2   2 48194.4 3298.08   2
   6   2  -2 45901.3 2284.34   1
   6   2  -2 48553.6 2926.27   3
   6  -2  -2 48563.9 3304.98   3
  -6   2   1 642.601 361.911   2
   6   2  -1 120.664 93.4357   1
  -6  -2   1 233.745 319.039   2
   6  -2  -1 132.562 186.662   3
  -6   2   0 352.883 303.905   2
   6   2   0 779.863 302.790   1
  -6   2  -1 6269.80 1148.99   2
   6  -2   1 7677.96 607.070   1
   6   2   1 7457.90 951.443   1
   6   2   2 128.756 183.002   1
  -6   2  -2 70.4880 77.6539   1
   6  -2   2 195.044 139.193   1
  -6   2  -3 1845.91 416.978   1
   6   2   3 1755.03 479.459   1
   6  -2   3 1404.05 371.558   1
  -6  -2  -4-225.240 327.446   2
  -6   2  -4-37.7037 74.8706   1
   6   2   4-23.5382 138.521   1
   6  -2   4 3.34078 62.3138   1
  -6  -2  -5 14850.9 1962.93   2
   6  -2   5 14879.8 1452.99   1
   6   2   5 16803.6 1715.10   1
  -6  -2  -6 3557.15 1006.82   2
   6   2   6 3378.67 804.992   1
   6  -2   6 3501.89 766.218   1
  -6  -2  -7 4058.14 1041.16   2
   6   2   7 3217.17 819.359   1
   6  -2   7 3599.87 823.638   1
  -6  -2  -8 9404.67 1616.13   2
   6   2   8 6693.90 1237.96   1
   6  -2   8 8680.85 1362.65   1
  -6  -2  -9 2871.28 955.780   2
   6   2   9 3397.82 957.557   1
   6  -2   9 2245.43 721.474   1
  -6  -2 -10 11586.9 1856.00   2
   6   2  10 15664.0 2095.72   1
   6  -2  10 11691.8 1762.91   1
  -6  -2 -11-442.354 387.440   2
   6   2  11-38.6867 302.857   1
  -6  -2 -12 1597.96 745.069   2
   6   2  12 330.045 213.985   1
   6  -2  12 847.115 527.550   1
   6   2  13 3803.85 1140.05   1
  -6  -2 -13 4126.23 1173.80   2
   6  -2  13 3681.77 1143.28   1
   6   2  14 867.120 604.788   1
  -6  -2 -14 1262.84 712.363   2
   6  -2  14-199.444 303.909   1
   6   2  15-453.437 465.519   1
  -6  -2 -15-322.769 370.577   2
   6  -2  15-157.405 298.807   1
  -6   2 -16 2284.43 999.430   2
   6   2  16 937.437 681.465   1
  -6  -2 -16 1905.42 919.947   2
   6  -2  16 3710.33 1283.62   1
  -6   2 -17 514.510 653.427   2
   6  -2  17-258.360 383.965   1
   6   2  17 618.907 619.797   1
   6  -2  18 2838.51 1132.20   1
   6   3 -19 52.2371 232.906   4
   6  -3 -18 138.353 213.700   3
   6   3 -18 1379.04 864.898   4
   6  -3 -17-792.231 677.174   3
   6   3 -17 1401.42 795.384   3
   6   3 -17 1710.10 992.448   4
   6  -3 -16-742.489 645.278   3
   6   3 -16-1267.23 740.944   3
  -6   3  16-91.3843 188.585   1
   6   3 -16-687.141 573.351   4
   6   3 -15 831.577 596.054   3
  -6   3  15-710.156 470.241   1
   6   3 -15 399.073 260.394   4
   6  -3 -15-257.999 400.627   3
   6   3 -14 2215.70 880.728   3
   6   3 -14 2238.24 961.513   4
  -6   3  14 3192.88 938.948   1
   6  -3 -14 3046.49 1173.02   3
  -6   3  13 1641.08 631.248   1
   6   3 -13 1933.06 860.054   4
   6  -3 -13 930.891 715.907   3
   6   3 -13 1478.13 720.393   3
  -6   3  12 8219.60 1356.77   1
   6   3 -12 6327.43 1570.26   4
   6  -3 -12 9289.86 1884.34   3
   6   3 -12 7921.86 1589.55   3
  -6   3  11 8487.38 1303.80   1
   6   3 -11 7467.66 1630.79   4
   6  -3 -11 6835.12 1638.19   3
   6   3 -11 8508.42 1582.50   3
   6   3 -10 3944.85 1144.86   4
   6  -3 -10 5102.04 1280.71   3
   6   3 -10 3587.66 991.283   3
   6   3  -9 325.958 475.865   4
   6   3  -9 153.325 204.611   3
   6  -3  -9 1084.06 728.923   3
   6   3  -8 4585.17 1194.59   4
  -6   3   8 4295.19 826.716   2
   6   3  -8 6137.95 1179.60   3
   6  -3  -8 7057.43 1473.98   3
  -6   3   7 8368.08 1158.20   2
   6   3  -7 7428.01 1450.39   4
   6   3  -7 8082.46 1288.71   3
   6  -3  -7 9273.90 1620.23   3
  -6   3   6 15880.7 1637.38   2
   6   3  -6 19106.0 2305.43   4
   6   3  -6 20157.2 1984.86   3
   6  -3  -6 19161.0 2294.98   3
   6  -3  -6 16867.8 1036.41   1
  -6   3   5 259.896 208.780   2
   6  -3  -5 406.731 123.155   1
   6   3  -5 141.849 240.711   3
   6  -3  -5-142.507 218.633   3
  -6   3   4 6698.68 1101.98   2
   6   3  -4 5889.31 1194.26   4
   6   3  -4 5720.31 992.785   3
   6  -3  -4 6460.54 1323.15   3
  -6   3   3 3578.23 827.165   2
  -6  -3   3 5229.88 1135.64   2
   6   3  -3 5006.52 1136.85   4
   6   3  -3 4923.47 929.582   3
   6  -3  -3 4198.78 1062.42   3
  -6   3   2 1149.23 443.228   2
   6   3  -2 1195.20 487.804   4
  -6  -3   2 660.474 381.398   2
   6  -3  -2 1438.82 528.440   3
   6   3  -2 1676.41 470.715   1
  -6   3   1 11408.3 1516.58   2
  -6  -3   1 12148.3 1715.02   2
   6   3  -1 10262.2 1192.67   1
   6  -3  -1 10195.1 1577.90   3
  -6   3   0 23080.0 2187.05   2
   6   3   0 23756.7 1806.42   1
  -6   3  -1 15.2605 20.7082   1
   6   3   1-260.896 204.536   1
   6   3   2 440.864 256.882   1
  -6   3  -2 585.241 196.374   1
   6  -3   2 700.730 219.903   1
   6   3   3 4132.26 849.994   1
  -6  -3  -3 3954.37 1045.77   2
  -6   3  -3 2259.09 448.335   1
   6  -3   3 3949.83 615.976   1
  -6   3  -4 2968.55 572.962   1
  -6  -3  -4 2616.22 831.264   2
   6  -3   4 2739.28 561.597   1
   6   3   4 3397.74 746.306   1
  -6  -3  -5 886.659 534.651   2
   6  -3   5 1564.45 495.287   1
   6   3   5 1554.90 573.907   1
  -6  -3  -6 2395.46 816.745   2
   6   3   6 3650.90 842.600   1
   6  -3   6 4340.90 854.012   1
  -6  -3  -7 2043.55 687.468   2
   6   3   7 2055.17 636.091   1
   6  -3   7 2208.08 701.990   1
   6   3   8 408.543 295.315   1
   6  -3   8 162.815 169.451   1
  -6  -3  -9-141.027 362.519   2
   6   3   9 239.323 143.192   1
   6  -3   9 370.318 364.579   1
  -6  -3 -10 12471.9 1933.89   2
   6   3  10 10935.9 1763.46   1
   6  -3  10 11522.1 1770.40   1
  -6  -3 -11 918.958 602.296   2
   6   3  11 85.6030 303.561   1
   6  -3  11 556.623 442.932   1
  -6  -3 -12 3973.59 1126.61   2
   6   3  12 5867.97 1419.26   1
   6  -3  12 5009.48 1252.35   1
   6   3  13 1979.25 865.347   1
  -6  -3 -13 1253.01 578.273   2
   6  -3  13 564.837 586.518   1
   6   3  14 2781.37 1118.48   1
  -6  -3 -14 2429.75 936.432   2
   6  -3  14 1674.72 846.158   1
   6   3  15 148.884 231.277   1
  -6  -3 -15-99.0444 216.625   2
   6  -3  15-354.089 400.836   1
   6   3  16 625.770 620.125   1
   6  -3  16-404.296 442.394   1
   6   3  17 689.999 527.506   1
   6  -3  17 518.603 521.486   1
   6  -3  18 261.673 421.063   1
   6   4 -18-792.559 618.282   3
   6   4 -18 312.440 398.473   4
   6   4 -17-1186.61 732.282   3
   6   4 -17-663.182 602.632   4
   6  -4 -17-737.482 652.280   3
   6   4 -16 368.542 398.445   3
   6   4 -16 1081.48 605.726   4
   6  -4 -16 766.470 559.948   3
   6   4 -15 184.836 288.063   3
   6  -4 -15 3.11034 174.000   3
   6   4 -14 449.341 450.929   4
  -6   4  14 732.382 451.643   1
   6  -4 -14 916.481 769.886   3
   6   4 -14 7.83029 126.661   3
   6   4 -13 871.097 569.418   4
  -6   4  13 185.585 287.817   1
   6  -4 -13 1340.73 791.030   3
   6   4 -13 365.730 353.490   3
   6   4 -12 215.141 267.500   4
  -6   4  12 513.098 329.524   1
   6  -4 -12 724.951 679.703   3
   6   4 -12 67.6452 143.187   3
   6   4 -11 1668.50 879.887   4
  -6   4  11 1527.56 544.362   1
   6  -4 -11 821.989 499.737   3
   6   4 -11 1824.93 731.281   3
   6   4 -10-35.8968 211.354   4
  -6   4  10 99.1109 185.940   1
   6   4 -10-246.202 345.558   3
   6  -4 -10-96.6961 377.344   3
  -6   4   9 7494.95 1033.86   1
   6   4  -9 7909.89 1596.25   4
   6   4  -9 6447.15 1238.75   3
   6  -4  -9 6617.24 1520.13   3
  -6   4   8 23303.2 1862.76   2
  -6   4   8 21220.9 1566.42   1
   6   4  -8 24085.3 2730.77   4
   6   4  -8 21139.4 2128.35   3
   6  -4  -8 21697.4 2633.72   3
  -6   4   7 570.220 323.268   2
   6   4  -7-0.92236 295.938   4
   6   4  -7-29.0643 180.961   3
   6  -4  -7 458.367 541.852   3
   6  -4  -6 6633.95 623.338   1
  -6   4   6 6632.32 1024.59   2
   6   4  -6 7796.19 1459.49   4
   6   4  -6 7168.20 1145.40   3
   6  -4  -6 7926.73 1491.98   3
  -6   4   5 1759.36 546.417   2
   6   4  -5 1345.24 609.533   4
   6   4  -5 2165.65 618.382   3
   6  -4  -5 1038.41 497.309   3
  -6   4   4 7576.49 1155.28   2
   6   4  -4 7591.11 1373.42   4
   6   4  -4 7549.75 1104.70   3
   6  -4  -4 9137.43 1593.70   3
  -6   4   3 165.690 210.005   2
   6   4  -3 472.030 343.989   4
   6   4  -3 65.7186 114.343   3
   6  -4  -3 16.0681 202.222   3
  -6   4   2 1100.65 438.962   2
   6   4  -2 1617.39 479.683   1
   6   4  -2 1044.86 487.244   4
   6  -4  -2 709.663 360.905   3
  -6   4   1-3.12481 128.741   2
  -6  -4   1 61.9311 274.707   2
   6   4  -1 110.173 242.217   4
   6  -4  -1-16.1026 176.122   3
   6   4  -1 48.5651 155.780   1
   6   4   0 595.429 315.867   1
   6   4   1 33.5086 132.303   1
   6   4   2 10894.9 1339.02   1
  -6  -4  -2 13114.1 1860.20   2
  -6   4  -2 10876.4 795.420   1
  -6   4  -3 189.347 125.281   1
   6   4   3-53.7923 270.431   1
  -6  -4  -3-30.4873 295.476   2
  -6  -4  -4 27993.3 2736.75   2
   6  -4   4 26037.0 1739.57   1
  -6   4  -4 23501.3 1586.10   1
   6   4   4 28244.1 2299.86   1
  -6  -4  -5 3424.74 975.142   2
   6  -4   5 5083.55 843.826   1
   6   4   5 5095.33 1007.93   1
  -6  -4  -6 3112.16 950.292   2
   6  -4   6 2099.97 579.076   1
   6   4   6 3059.78 804.980   1
  -6  -4  -7 4034.10 1067.77   2
   6  -4   7 2513.88 665.696   1
   6   4   7 2354.47 747.994   1
  -6  -4  -8 3057.52 937.866   2
   6   4   8 2684.06 846.706   1
   6  -4   8 3616.45 879.294   1
  -6  -4  -9 304.682 270.998   2
   6   4   9 516.789 429.704   1
   6  -4   9 975.802 519.818   1
  -6  -4 -10 4529.90 1189.41   2
   6   4  10 5747.62 1327.63   1
   6  -4  10 3375.54 973.475   1
  -6  -4 -11 607.109 497.907   2
   6   4  11-10.2046 334.835   1
   6  -4  11 759.944 473.791   1
  -6  -4 -12 603.382 529.781   2
   6   4  12 466.792 477.613   1
   6  -4  12 1706.76 749.840   1
  -6  -4 -13 1055.35 688.341   2
   6   4  13 1265.96 634.882   1
   6  -4  13 1129.51 662.446   1
   6   4  14 1036.23 530.784   1
  -6  -4 -14 1618.11 697.976   2
   6  -4  14 509.206 452.145   1
   6   4  15 860.790 628.579   1
  -6  -4 -15 745.336 525.404   2
   6  -4  15 875.076 601.557   1
   6   4  16 774.152 637.610   1
   6  -4  16 378.176 555.915   1
   6   4  17 638.051 574.024   1
   6  -4  17 9.23078 175.067   1
   6  -4  18 1313.54 772.610   1
   6   5 -18 1821.75 996.659   4
   6   5 -17 1130.74 780.316   4
   6  -5 -17 2444.84 1140.29   3
   6   5 -16-684.176 621.121   3
   6   5 -16 629.014 578.613   4
   6  -5 -16-988.557 745.420   3
   6   5 -15 2210.57 892.768   3
   6   5 -15 2092.42 988.164   4
   6  -5 -15 1435.98 797.873   3
   6   5 -14 710.153 329.523   4
   6  -5 -14 1728.82 885.136   3
   6   5 -14 1511.33 706.845   3
   6   5 -13 453.589 344.951   4
   6   5 -13 117.725 219.323   3
   6   5 -12 2742.30 1018.14   4
  -6   5  12 1888.50 645.851   1
   6  -5 -12 2037.05 845.553   3
   6   5 -12 2400.58 822.387   3
   6   5 -11 4036.82 1226.89   4
  -6   5  11 2273.44 653.148   1
   6  -5 -11 2361.13 952.136   3
   6   5 -11 2587.01 852.363   3
   6   5 -10 1311.23 716.277   4
  -6   5  10 1604.77 531.929   1
   6   5 -10 2167.18 701.600   3
   6  -5 -10 3257.62 1029.31   3
   6   5  -9 2023.47 847.327   4
  -6   5   9 3412.90 672.627   1
   6   5  -9 2928.72 792.526   3
   6  -5  -9 4373.36 1239.66   3
  -6   5   8 1045.61 386.515   2
   6   5  -8 814.932 372.396   4
  -6   5   8 1070.96 359.237   1
   6   5  -8 1311.68 525.852   3
   6  -5  -8 1921.55 856.827   3
  -6   5   7 715.034 333.817   2
  -6   5   7 576.724 237.340   1
   6   5  -7-68.1244 163.758   3
   6  -5  -7-2.98135 315.887   3
   6   5  -7 707.046 548.125   4
  -6   5   6 9835.38 1257.70   2
   6   5  -6 8385.73 1541.71   4
   6   5  -6 9026.63 1238.33   3
   6  -5  -6 8873.03 1656.19   3
   6   5  -5 780.948 529.464   4
  -6   5   5 317.493 273.335   2
   6   5  -5 496.197 284.101   3
   6  -5  -5 513.120 410.612   3
  -6   5   4 3339.69 778.163   2
   6   5  -4 2852.11 848.396   4
   6   5  -4 2865.84 650.128   3
   6  -5  -4 3984.75 1069.54   3
  -6   5   3 1.74905 178.489   2
   6  -5  -3 645.756 505.530   3
   6   5  -3 0.75878 314.269   4
   6   5  -2-138.782 298.568   4
   6   5  -2-38.7603 297.180   1
   6  -5  -2 375.712 455.159   3
   6   5  -1 1729.43 571.352   1
   6   5  -1 2149.07 659.949   4
   6  -5  -1 1786.68 716.816   3
  -6  -5   0 15687.2 2050.91   2
   6   5   0 13832.0 1581.11   1
   6   5   0 16761.6 1856.68   4
   6  -5   0 16631.5 2112.74   3
  -6   5  -1 387.436 107.595   1
  -6  -5  -1 520.844 289.147   2
  -6  -5  -2 8108.45 1472.61   2
   6   5   2 6262.96 1095.38   1
  -6   5  -2 7212.35 660.647   1
  -6  -5  -3 6928.84 1359.88   2
   6   5   3 5687.63 1044.72   1
  -6   5  -3 5705.82 700.285   1
   6   5   4 1828.44 645.191   1
  -6  -5  -4 832.908 513.971   2
  -6   5  -4 577.077 274.758   1
   6   5   5 9719.32 1448.99   1
  -6  -5  -5 10032.4 1700.67   2
  -6  -5  -6 24513.4 2651.87   2
   6  -5   6 25900.2 2090.34   1
   6   5   6 25102.9 2435.00   1
  -6  -5  -7 2197.72 759.477   2
   6  -5   7 2549.85 705.982   1
   6   5   7 2068.84 731.754   1
  -6  -5  -8 4951.99 1199.85   2
   6  -5   8 3997.14 940.768   1
   6   5   8 4382.75 1092.31   1
  -6  -5  -9 5693.78 1325.04   2
   6   5   9 5639.25 1293.72   1
   6  -5   9 5796.87 1180.76   1
   6   5  10 1480.41 637.993   1
  -6  -5 -10 2162.24 856.668   2
   6  -5  10 722.021 517.766   1
  -6  -5 -11 494.398 417.533   2
   6   5  11 995.903 589.358   1
   6  -5  11 39.5199 209.974   1
  -6  -5 -12 20.1129 166.023   2
   6   5  12 441.162 332.309   1
   6  -5  12 26.8318 176.690   1
  -6  -5 -13-305.194 348.738   2
   6   5  13 488.232 572.123   1
   6  -5  13-335.858 371.585   1
   6   5  14 1998.33 948.417   1
  -6  -5 -14 2071.40 862.158   2
   6  -5  14 1581.49 750.597   1
   6   5  15 970.671 688.701   1
   6  -5  15-67.9604 237.565   1
   6   5  16-762.434 635.768   1
   6  -5  16-656.637 567.443   1
   6   5  17-43.9289 243.599   1
   6  -5  17-71.6066 239.361   1
   6   6 -17 409.005 499.932   4
   6   6 -16-17.7145 194.696   4
   6  -6 -16 201.995 386.074   3
   6   6 -15-542.981 546.524   4
   6  -6 -15 355.899 438.662   3
   6   6 -14 3835.58 1336.74   4
   6  -6 -14 3912.26 1384.13   3
   6   6 -14 1583.54 699.275   3
   6  -6 -13 148.233 340.170   3
   6   6 -13-118.727 206.809   3
   6   6 -12-521.567 637.920   4
   6  -6 -12 22.1277 456.959   3
   6   6 -12 777.604 442.280   3
   6   6 -11 1303.48 747.399   4
  -6   6  11 1503.91 559.249   1
   6   6 -11 571.573 368.100   3
   6  -6 -11 1338.96 795.740   3
  -6   6  10 517.324 247.199   1
   6   6 -10 314.071 422.846   4
   6   6 -10 324.869 203.787   3
   6  -6 -10-368.927 492.074   3
   6   6  -9 2588.83 920.402   4
  -6   6   9 1678.31 482.641   1
   6   6  -9 2199.11 666.202   3
   6  -6  -9 3119.90 1119.10   3
  -6   6   8 9095.91 1122.03   2
  -6   6   8 9567.61 1050.67   1
   6   6  -8 11349.1 1947.07   4
   6   6  -8 11241.9 1438.87   3
   6  -6  -8 8502.48 1679.90   3
  -6   6   7 1309.28 443.751   2
   6   6  -7 1224.57 722.881   4
  -6   6   7 1367.31 357.693   1
   6   6  -7 1426.99 523.654   3
   6  -6  -7 1640.31 735.709   3
  -6   6   6 752.894 342.496   2
   6   6  -6 2012.88 714.704   4
  -6   6   6 801.052 223.779   1
   6   6  -6 984.666 392.777   3
   6  -6  -6 985.667 505.434   3
  -6   6   5 83.5387 136.464   2
  -6   6   5-7.39870 22.0514   1
   6   6  -5 117.136 271.685   4
   6   6  -5 19.0130 79.9070   3
   6  -6  -5-29.5489 335.080   3
  -6   6   4 12780.2 1514.08   2
   6   6  -4 12190.6 1843.93   4
   6  -6  -4 11617.6 1874.43   3
   6   6  -3 3639.36 926.859   4
   6  -6  -3 2835.22 918.176   3
   6   6  -2 6232.71 1208.05   4
   6   6  -2 4922.26 1006.96   1
   6  -6  -2 5302.87 1232.64   3
  -6  -6   2 4847.61 797.705   3
   6   6  -1 1499.04 598.881   1
   6   6  -1 1144.12 507.506   4
   6  -6  -1 945.616 586.709   3
   6   6   0 30972.6 2513.25   1
   6   6   0 31732.1 2570.30   4
   6  -6   0 33357.2 3020.14   3
   6   6   1 2996.75 825.383   1
   6   6   1 3181.65 765.596   4
  -6   6  -1 3133.26 362.339   1
  -6  -6  -2-175.843 175.681   2
  -6   6  -2 47.5118 83.6192   1
   6   6   2-429.980 386.812   1
   6   6   3 11161.4 1558.58   1
  -6  -6  -3 10096.2 1722.46   2
  -6   6  -3 8968.36 912.974   1
  -6  -6  -4 16250.0 2169.63   2
   6   6   4 17044.2 1960.97   1
   6   6   5-118.001 369.912   1
  -6  -6  -5 65.3278 290.504   2
   6   6   6 1334.74 577.138   1
  -6  -6  -6 1026.98 603.713   2
  -6  -6  -7 3961.98 1100.92   2
   6   6   7 2904.70 881.391   1
  -6  -6  -8 157.747 193.868   2
   6   6   8 73.7166 263.182   1
  -6  -6  -9 897.459 573.968   2
   6   6   9 2140.66 809.300   1
  -6  -6 -10 119.397 313.795   2
   6  -6  10-7.86540 237.360   1
   6   6  10 724.921 566.423   1
  -6  -6 -11 3854.61 1118.64   2
   6  -6  11 1583.60 691.024   1
   6   6  11 1944.43 850.194   1
  -6  -6 -12-98.6244 227.256   2
   6   6  12 851.821 564.643   1
   6  -6  12 572.151 469.424   1
  -6  -6 -13-13.3434 327.753   2
   6   6  13-147.006 533.344   1
   6  -6  13-118.603 239.625   1
  -6  -6 -14 623.526 484.986   2
   6   6  14-1023.99 676.278   1
   6  -6  14-591.841 512.439   1
   6  -6  15-419.740 457.397   1
   6   6  15-413.792 463.202   1
   6   6  16 1955.97 984.239   1
   6  -6  16 735.321 604.069   1
   6  -6  17 730.257 616.018   1
   6   7 -17 283.598 336.645   4
   6   7 -16-206.262 376.844   4
   6  -7 -16 1808.39 1037.51   3
   6   7 -15-617.177 593.830   4
   6  -7 -15 1525.28 807.380   3
   6   7 -14-331.860 432.148   4
   6  -7 -14 386.145 552.478   3
   6   7 -13-179.745 548.881   4
   6  -7 -13-746.558 684.977   3
   6   7 -12-371.136 546.557   4
   6  -7 -12 170.498 361.855   3
   6   7 -11 609.188 527.469   4
   6   7 -11 1641.94 592.372   3
   6  -7 -11 1236.27 622.675   3
   6   7 -10 7702.14 1711.53   4
   6   7 -10 5687.83 1078.58   3
   6  -7 -10 5710.79 1505.61   3
   6   7  -9 4449.37 1276.08   4
   6   7  -9 3929.52 848.147   3
   6  -7  -9 3686.79 1208.76   3
  -6   7   8 2426.87 573.580   2
   6   7  -8 2359.53 905.293   4
   6   7  -8 2633.07 638.792   3
  -6   7   8 1743.93 456.004   1
   6  -7  -8 1447.70 680.717   3
  -6   7   7 506.646 270.499   2
   6   7  -7 237.326 379.389   4
   6   7  -7 564.888 315.707   3
   6  -7  -7-93.4932 312.118   3
  -6   7   7 137.306 98.2732   1
  -6   7   6 1110.12 434.634   2
   6   7  -6 1101.81 569.207   4
   6   7  -6 1034.33 351.947   3
   6  -7  -6 1617.01 616.854   3
  -6   7   6 673.357 225.526   1
  -6   7   5 13216.3 1526.05   2
   6   7  -5 14429.8 2097.43   4
  -6   7   5 12181.0 766.075   1
   6  -7  -5 14705.5 2155.60   3
   6   7  -4 72.9133 184.701   4
   6  -7  -4-155.481 298.498   3
   6   7  -3 3848.73 982.152   4
   6  -7  -3 3449.80 1011.28   3
   6   7  -2 1165.36 507.024   4
   6  -7  -2 1294.75 601.354   3
   6   7  -2 1238.13 587.252   1
   6   7  -1 88.7782 188.056   1
   6   7  -1-27.4791 157.748   4
   6  -7  -1 595.558 498.290   3
  -6   7   0 1997.43 263.520   1
   6   7   0 2750.44 770.884   4
  -6   7   0 1877.09 253.108   1
   6  -7   0 2752.58 920.708   3
   6   7   0 2756.04 812.992   1
   6   7   1 245.120 338.753   1
  -6   7  -1 52.8388 63.2341   1
   6   7   1-144.704 254.438   4
  -6   7  -2 1513.85 350.673   1
   6   7   2 1251.40 556.005   1
   6   7   3 3519.87 899.105   1
  -6  -7  -4 9497.64 1740.03   2
   6   7   4 6406.06 1272.93   1
   6   7   5 8818.97 1517.15   1
  -6  -7  -5 7366.43 1524.05   2
   6   7   6 8224.17 1485.02   1
  -6  -7  -6 7136.57 1508.50   2
   6   7   7 3241.54 911.397   1
  -6  -7  -7 2885.11 931.391   2
  -6  -7  -8 5087.42 1257.85   2
   6   7   8 4318.91 1120.12   1
  -6  -7  -9 1263.50 614.772   2
   6   7   9 1074.08 600.715   1
  -6  -7 -10 814.352 534.280   2
   6   7  10 993.456 548.658   1
  -6  -7 -11 1009.49 624.407   2
   6   7  11 507.097 410.183   1
  -6  -7 -12 1687.48 758.721   2
   6   7  12 2510.13 971.445   1
   6   7  13 3352.28 1202.56   1
  -6  -7 -13 4348.65 1254.07   2
   6   7  14-1174.67 742.814   1
   6   7  15 281.677 443.896   1
   6   7  16-140.368 291.154   1
   6   8 -16 561.664 576.806   4
   6   8 -15 257.416 698.569   4
   6  -8 -15-163.657 408.110   3
   6  -8 -14 6778.32 1871.90   3
   6  -8 -13-287.284 420.692   3
   6  -8 -12 1197.01 830.275   3
   6  -8 -11 840.735 632.106   3
   6  -8 -10 123.903 333.022   3
   6  -8  -9 1009.51 793.335   3
   6  -8  -8 773.918 481.014   3
  -6   8   7 4013.89 784.886   2
   6   8  -7 4874.69 1303.81   4
   6  -8  -7 2094.21 948.940   3
  -6   8   6-100.650 149.276   2
   6   8  -6-87.1503 257.477   4
   6   8  -6 8.02293 61.3453   3
   6   8  -5 5073.86 1257.00   4
   6  -8  -5 3897.20 1088.87   3
   6   8  -4 483.950 490.931   4
   6  -8  -4 106.569 368.721   3
  -6   8   3 7194.29 518.225   1
   6   8  -3 10215.6 1665.06   4
   6  -8  -3 9156.52 1705.10   3
   6   8  -2 5680.52 1209.02   4
  -6   8   2 4775.78 406.079   1
   6   8  -2 5986.86 1243.13   1
   6  -8  -2 5456.90 1314.37   3
   6   8  -1 1934.45 694.135   1
   6   8  -1 1919.95 678.784   4
   6  -8  -1 2685.00 873.522   3
  -6   8   1 2263.94 320.684   1
  -6   8   0 985.099 251.080   1
   6   8   0 279.349 221.982   4
   6   8   0 740.171 452.252   1
   6   8   1 1642.97 698.856   1
   6   8   1 1859.98 570.655   4
   6   8   2 40799.3 3232.96   1
   6   8   2 39420.3 2792.64   4
   6   8   3 1550.39 711.388   1
   6   8   4 35376.6 3086.83   1
   6   8   5 2902.88 833.833   1
   6   8   6 5757.22 1282.89   1
   6   8   7 109.887 268.193   1
  -6  -8  -7 557.552 454.902   2
  -6  -8  -8 484.858 492.951   2
   6   8   8-667.558 480.334   1
  -6  -8  -9 5780.45 1425.44   2
   6   8   9 7023.00 1546.47   1
  -6  -8 -10 1237.80 705.546   2
   6   8  10 2416.63 1018.49   1
  -6  -8 -11 599.476 527.440   2
   6   8  11 434.631 470.795   1
  -6  -8 -12 986.669 556.406   2
   6   8  12 142.273 426.033   1
  -6  -8 -13 439.362 412.425   2
   6   8  13-353.261 420.891   1
   6   8  14-225.424 654.695   1
   6   8  15-1298.52 821.927   1
   6  -9 -15 239.178 381.599   3
   6  -9 -14-1091.21 788.676   3
   6  -9 -13 1636.40 919.522   3
   6  -9 -12-53.4140 229.942   3
   6  -9 -11 917.572 797.860   3
   6  -9 -10 827.334 564.447   3
   6  -9  -9 2740.68 1100.84   3
   6  -9  -8 117.889 213.672   3
  -6   9   7 946.136 404.797   2
   6  -9  -7 599.050 368.601   3
   6  -9  -6 4477.25 1247.44   3
   6   9  -5 3332.42 1042.46   4
   6  -9  -5 3703.10 1137.98   3
   6  -9  -4-963.000 582.708   3
   6   9  -4 120.076 240.905   4
   6   9  -3 6966.31 1431.93   4
   6  -9  -3 8906.80 1715.40   3
   6   9  -2 4016.78 1001.58   1
   6   9  -2 5392.04 1194.19   4
   6  -9  -2 5816.61 1383.66   3
  -6   9   1 13712.6 994.875   1
   6   9  -1 14152.3 1976.94   1
   6   9  -1 15029.2 1959.56   4
   6  -9  -1 16112.8 2235.68   3
  -6   9   0 25527.1 1474.66   1
   6   9   0 30262.7 2918.35   1
   6   9   0 27822.8 2580.71   4
   6   9   1 13795.8 1959.35   1
   6   9   1 14220.0 1753.85   4
  -6   9  -1 11769.0 1111.03   1
   6   9   2 27973.5 2796.25   1
   6   9   2 25275.3 2257.63   4
   6   9   3 1064.29 468.605   4
   6   9   3 1745.37 743.738   1
   6   9   4 1178.87 622.621   1
   6   9   5 594.596 499.078   1
   6   9   6 581.356 574.666   1
   6   9   7 5200.75 1329.51   1
   6   9   8 143.710 331.049   1
   6   9   9 1252.61 686.651   1
   6   9  10 920.546 642.947   1
   6   9  11-19.1263 228.881   1
   6   9  12 1833.52 902.603   1
   6   9  13 1820.21 894.620   1
   6   9  14 368.681 691.153   1
   6   9  15 543.281 535.365   1
   6 -10 -14 2788.00 1244.39   3
   6 -10 -13 363.518 465.374   3
   6 -10 -12 188.072 362.071   3
   6 -10 -11 1279.92 762.061   3
   6 -10 -10-196.164 340.430   3
   6 -10  -9 1709.80 832.567   3
   6 -10  -8 695.628 438.979   3
   6 -10  -7-103.080 461.670   3
   6 -10  -6 4527.43 1311.55   3
   6 -10  -5-34.2215 526.190   3
   6 -10  -4 564.821 430.358   3
   6  10  -3 30313.5 3016.95   4
   6 -10  -3 27703.0 3075.94   3
   6  10  -3 29065.1 3009.21   1
   6  10  -2 323.363 450.005   1
   6  10  -2 1.79518 187.887   4
   6 -10  -2 960.003 614.460   3
   6  10  -1 20330.8 2355.68   4
   6  10  -1 26726.0 2863.26   1
   6 -10  -1 23474.7 2771.99   3
   6  10   0 3257.31 855.755   4
   6  10   0 2733.71 926.299   1
  -6  10  -1 391.368 238.206   1
   6  10   1 471.408 248.503   1
   6  10   1 27.2199 147.523   4
   6  10   2 120.626 257.326   1
   6  10   2-38.8616 150.706   4
   6  10   3 5.42347 214.053   4
   6  10   3 575.210 359.634   1
   6  10   4 1274.98 656.173   1
   6  10   5 1471.56 727.604   1
   6  10   6 112.254 407.405   1
   6  10   7 61.3815 222.921   1
   6  10   8 172.314 426.102   1
   6  10   9 4008.84 1208.17   1
   6  10  10-16.4018 396.144   1
   6  10  11-339.112 401.030   1
   6  10  12-1120.54 725.720   1
   6  10  13-385.601 454.260   1
   6  10  14 1483.80 882.221   1
   6 -11 -14 661.803 766.736   3
   6 -11 -13 127.309 250.457   3
   6 -11 -12-519.511 538.421   3
   6 -11 -11-907.395 695.458   3
   6 -11 -10-867.973 652.662   3
   6 -11  -9 924.694 703.853   3
   6 -11  -8 548.592 516.940   3
   6 -11  -7 3292.09 1192.24   3
   6 -11  -6-1048.43 660.553   3
   6 -11  -5 13220.3 2233.37   3
   6 -11  -4-37.0297 336.390   3
   6  11  -3 2628.48 921.990   4
   6 -11  -3 2797.25 1057.58   3
   6  11  -3 1519.70 746.624   1
   6  11  -2 178.406 294.556   1
   6  11  -2 297.809 243.071   4
   6 -11  -2-160.937 477.527   3
   6  11  -1 704.161 427.475   1
   6  11  -1 94.8191 207.441   4
   6  11   0 8353.73 1468.10   4
   6  11   0 8642.98 1698.81   1
   6  11   1 2077.24 773.970   1
   6  11   1 2088.42 708.433   4
   6  11   2-89.2585 308.716   1
   6  11   2 249.702 239.597   4
   6  11   3-132.439 173.098   4
   6  11   3-175.334 468.447   1
   6  11   4 619.137 412.734   1
   6  11   5 1788.04 825.363   1
   6  11   6 889.679 543.765   1
   6  11   7 2731.89 967.622   1
   6  11   8 2374.43 914.722   1
   6  11   9-143.429 574.990   1
   6  11  10 75.9207 297.734   1
   6  11  11 1727.80 896.101   1
   6  11  12-650.436 566.262   1
   6  11  13-813.099 662.602   1
   6 -12 -13 631.721 630.037   3
   6 -12 -12-816.276 681.514   3
   6 -12 -11-1053.52 747.240   3
   6 -12 -10 713.228 691.576   3
   6 -12  -9 1415.91 726.703   3
   6 -12  -8 62.0289 379.582   3
   6 -12  -7-755.958 597.659   3
   6 -12  -6 287.128 335.667   3
   6 -12  -5 208.425 401.837   3
   6 -12  -4 2686.95 1010.79   3
   6  12  -3 8663.35 1796.21   1
   6 -12  -3 6993.82 1601.69   3
   6  12  -2 5365.13 1259.54   4
   6 -12  -2 7005.88 1599.88   3
   6  12  -2 6819.22 1573.55   1
   6  12  -1 801.861 505.987   1
   6  12  -1 234.298 315.131   4
   6 -12  -1-298.441 448.309   3
   6  12   0 2165.03 787.381   4
   6  12   0 2366.55 957.828   1
   6  12   1 135.089 340.896   1
   6  12   1 42.1176 214.371   4
   6  12   2 1314.07 674.767   1
   6  12   2 1180.72 495.239   4
   6  12   3 5156.31 1031.47   4
   6  12   3 4509.45 1275.16   1
   6  12   4-94.6143 253.176   1
   6  12   5 1330.69 629.066   1
   6  12   6 2260.87 965.742   1
   6  12   7 1128.67 715.717   1
   6  12   8 67.3469 304.561   1
   6  12   9 1602.40 838.147   1
   6  12  10 853.264 645.362   1
   6  12  11 1096.33 815.703   1
   6  12  12 7.78126 203.509   1
   6 -13 -12 1063.49 887.019   3
   6 -13 -11 3889.95 1424.04   3
   6 -13 -10 1323.26 788.299   3
   6 -13  -9 335.331 479.128   3
   6 -13  -8 4575.63 1470.43   3
   6 -13  -7 265.345 396.031   3
   6 -13  -6 2760.53 1034.35   3
   6 -13  -5 3663.62 1207.55   3
   6  13  -4 1880.92 854.339   1
   6 -13  -4 2954.23 1060.47   3
   6  13  -3-628.328 525.352   1
   6 -13  -3 648.287 372.867   3
   6  13  -2 1077.94 644.744   1
   6 -13  -2 202.668 166.083   3
   6  13  -1 759.900 565.279   1
   6  13  -1 1474.36 691.451   4
   6 -13  -1 1949.34 866.954   3
   6  13   0 2148.66 777.082   4
   6  13   0 969.716 547.485   1
   6  13   1 5977.93 1535.68   1
   6  13   1 5031.29 1164.20   4
   6  13   2 227.093 370.766   1
   6  13   2 110.457 272.132   4
   6  13   3-63.0902 464.089   1
   6  13   4 106.926 533.145   1
   6  13   5 466.921 568.089   1
   6  13   6-86.1698 530.854   1
   6  13   7 2510.06 1034.09   1
   6  13   8-12.4324 183.342   1
   6  13   9 1066.67 654.296   1
   6  13  10-303.249 433.452   1
   6  13  11 1364.16 862.812   1
   6 -14 -11 1131.00 871.986   3
   6 -14 -10 847.204 736.003   3
   6 -14  -9 1625.66 986.587   3
   6 -14  -8-1047.73 730.497   3
   6 -14  -7-1142.58 740.566   3
   6 -14  -6-98.4462 515.601   3
   6 -14  -5 400.095 448.051   3
   6  14  -4 787.455 568.647   1
   6 -14  -4 862.569 660.466   3
   6  14  -3 5632.75 1545.25   1
   6 -14  -3 4915.24 1418.93   3
   6 -14  -2-54.7857 223.967   3
   6  14  -2-559.994 508.620   1
   6  14  -1 704.800 494.974   1
   6  14  -1 861.042 538.830   4
   6  14   0-204.977 263.068   4
   6  14   0-518.474 497.865   1
   6  14   1 47.1416 370.592   1
   6  14   1-131.239 204.649   4
   6  14   2 1597.78 847.901   1
   6  14   3 3772.80 1264.83   1
   6  14   4 12.1560 203.914   1
   6  14   5 522.046 476.175   1
   6  14   6 898.651 671.253   1
   6  14   7 295.054 423.564   1
   6  14   8-8.83516 218.595   1
   6  14   9 887.320 669.749   1
   6  14  10 1991.73 1095.37   1
   6 -15 -10 284.146 613.924   3
   6 -15  -9-744.549 637.698   3
   6 -15  -8 593.013 575.595   3
   6 -15  -7 506.420 579.816   3
   6 -15  -6 1419.44 808.707   3
   6  15  -5 534.335 514.309   1
   6 -15  -5 367.832 423.328   3
   6 -15  -4-568.524 507.305   3
   6  15  -4 1716.09 910.571   1
   6 -15  -3 314.982 213.287   3
   6  15  -3 1326.86 770.161   1
   6 -15  -2 2530.77 1047.92   3
   6  15  -2 3936.33 1311.99   1
   6  15  -1 1995.30 844.363   4
   6  15  -1 821.893 634.550   1
   6  15   0 1957.01 782.566   4
   6  15   0 871.801 570.900   1
   6  15   1 5386.24 1549.45   1
   6  15   2 354.708 506.890   1
   6  15   3 665.941 517.976   1
   6  15   4 237.464 386.188   1
   6  15   5 1350.07 784.368   1
   6  15   6-50.6552 324.891   1
   6  15   7 1858.34 949.074   1
   6  15   8 571.148 572.844   1
   6 -16  -9 1588.03 983.917   3
   6 -16  -8 786.024 627.182   3
   6 -16  -7-481.172 526.242   3
   6 -16  -6-535.561 524.044   3
   6  16  -5 3215.67 1257.18   1
   6 -16  -5 4806.58 1488.67   3
   6  16  -4 482.277 525.946   1
   6 -16  -4-125.077 288.307   3
   6  16  -3 1725.36 942.988   1
   6 -16  -3 2159.53 936.398   3
   6  16  -2-1.54871 199.280   1
   6  16  -1 489.966 249.877   1
   6  16   0 372.028 411.857   1
   6  16   1 962.345 690.277   1
   6  16   2 519.280 523.583   1
   6  16   3 1944.00 875.583   1
   6  16   4-939.210 705.011   1
   6  16   5 71.9727 509.984   1
   6  16   6 209.731 405.755   1
   6 -17  -8-106.855 284.508   3
   6 -17  -7 1623.60 929.421   3
   6 -17  -6 623.325 575.353   3
   6 -17  -5-980.016 703.379   3
   6 -17  -4-565.219 524.733   3
   6  17  -4 845.633 735.610   1
   6  17  -3 684.111 641.823   1
   6 -17  -3 35.9429 190.322   3
   6  17  -2-375.702 486.373   1
   6  17  -1 914.588 640.912   1
   6  17   0-102.154 274.294   1
   6  17   1 1574.32 928.538   1
   6  17   2-11.3917 226.204   1
   6  17   3-307.678 284.656   1
   6 -18  -7 683.017 613.647   3
   6 -18  -6 1117.04 762.207   3
   6 -18  -5-694.929 608.235   3
   6 -18  -4 1052.70 857.709   3
   7   0 -18 126.683 314.208   4
   7   0 -18-238.539 391.647   3
   7   0 -17-1040.93 714.846   4
   7   0 -17 394.403 486.283   3
   7   0 -16 1044.24 695.597   4
   7   0 -16 54.1913 235.661   3
   7   0 -15-18.9770 394.842   4
   7   0 -15-848.305 633.776   3
   7   0 -14 624.800 564.042   4
   7   0 -14 679.638 554.605   3
   7   0 -13 996.549 786.859   4
   7   0 -13-141.838 444.300   3
   7   0 -12 6409.09 1550.98   4
   7   0 -12 5097.39 1383.81   3
   7   0 -11 127.088 336.580   4
   7   0 -11-16.7315 222.203   3
   7   0 -10 7344.30 1613.73   4
   7   0 -10 5092.73 1303.59   3
   7   0  -9 339.806 446.799   4
   7   0  -9-269.076 321.810   3
   7   0  -8 43405.2 3580.40   3
   7   0  -7 7724.35 1559.58   3
  -7   0   6 47651.4 3362.78   2
   7   0  -6 45625.4 3498.70   3
  -7   0   5-95.2944 161.001   2
   7   0  -5 107.254 320.008   3
  -7   0   4 84431.1 4513.73   2
   7   0  -4 78674.9 2463.09   1
   7   0  -4 80672.5 2528.62   1
   7   0  -4 83725.7 4554.55   3
   7   0  -3-202.399 145.232   1
   7   0  -3-31.0320 60.4814   1
  -7   0   2 3937.22 985.288   2
   7   0  -2 3611.18 951.140   3
   7   0  -2 3870.04 490.974   1
   7   0  -1 21.5855 71.4787   1
  -7   0   1-0.79359 196.694   2
  -7   0   0 879.529 468.540   2
   7   0   0 502.548 205.271   1
  -7   0  -1 103.518 207.985   2
   7   0   1 57.2619 86.1884   1
  -7   0  -2 5026.95 1180.31   2
   7   0   2 4483.61 689.554   1
  -7   0  -3 168.573 339.047   2
   7   0   3-118.513 135.001   1
  -7   0  -4 6410.40 1349.16   2
   7   0   4 6373.39 956.318   1
  -7   0  -5-252.406 513.130   2
   7   0   5 11.3346 136.130   1
  -7   0  -6 3542.84 1015.42   2
   7   0   6 2574.35 704.023   1
  -7   0  -7 299.726 170.493   2
   7   0   7 297.268 308.582   1
  -7   0  -8 327.909 343.285   2
   7   0   8 11.5792 233.154   1
   7   0   9 240.020 196.259   1
  -7   0  -9 39.9423 221.546   2
   7   0  10 851.861 444.300   1
  -7   0 -10 1437.35 665.282   2
   7   0  11-220.664 481.476   1
  -7   0 -11 23.8399 221.494   2
   7   0  12 10156.5 1860.55   1
  -7   0 -12 11177.0 2030.45   2
  -7   0 -13 665.880 468.993   2
   7   0  13-317.285 373.120   1
  -7   0 -14 4950.68 1405.45   2
   7   0  14 5067.31 1417.15   1
  -7   0 -15-64.8545 250.363   2
   7   0  15-337.970 405.332   1
  -7   0 -16-491.809 494.473   2
   7   0  16 382.801 459.568   1
  -7   0 -17-175.070 328.458   2
   7   0  17-1183.09 777.029   1
   7   1 -18 197.697 255.441   4
   7   1 -18 86.9424 251.101   3
   7   1 -17-367.952 439.853   4
   7  -1 -17 183.127 355.402   3
   7   1 -17-328.424 435.790   3
   7   1 -16 198.924 359.156   4
   7  -1 -16 1390.19 923.681   3
   7   1 -16 966.747 547.118   3
   7   1 -15 1089.27 663.026   4
   7  -1 -15 808.246 628.195   3
   7   1 -15 156.092 298.858   3
   7   1 -14 1643.60 939.493   4
   7  -1 -14 1425.13 863.751   3
   7   1 -14 946.469 705.428   3
   7   1 -13-84.8168 200.311   4
   7  -1 -13-230.281 352.775   3
   7   1 -13 154.095 306.006   3
   7   1 -12-113.355 269.458   4
   7   1 -12 285.114 186.986   3
   7  -1 -12 454.700 334.895   3
   7   1 -11 341.033 275.729   4
   7  -1 -11-51.0244 181.592   3
   7   1 -10 15745.7 2340.42   4
   7   1 -10 14598.2 2157.73   3
   7  -1 -10 16437.4 2380.35   3
   7   1  -9 907.175 593.790   4
   7   1  -9 772.097 600.571   3
   7  -1  -9 585.423 520.446   3
   7   1  -8 35838.8 3402.57   4
   7   1  -8 33667.4 3083.12   3
   7  -1  -8 33438.7 3211.97   3
  -7   1   7 6267.32 1181.58   2
   7   1  -7 6326.38 1445.62   4
   7   1  -7 6508.87 1338.07   3
   7  -1  -7 4679.41 1194.68   3
  -7   1   6 1750.93 662.852   2
   7   1  -6 2249.41 781.931   3
   7  -1  -6 1962.08 796.030   3
  -7   1   5 2907.11 827.423   2
  -7  -1   5 1813.52 699.565   2
   7   1  -5 3370.91 890.418   3
   7  -1  -5 2242.46 838.708   3
  -7   1   4 10957.8 1611.67   2
  -7  -1   4 12123.1 1739.57   2
   7  -1  -4 10210.9 669.151   1
   7   1  -4 11507.6 1096.16   1
   7  -1  -4 9210.48 627.734   1
   7   1  -4 11219.5 1632.03   3
   7  -1  -4 12614.7 1809.07   3
   7   1  -4 10892.1 1082.64   1
  -7   1   3 3235.39 883.012   2
  -7  -1   3 3087.43 868.289   2
   7  -1  -3 2792.19 273.825   1
   7   1  -3 3871.71 939.499   3
   7   1  -3 3696.64 599.446   1
   7  -1  -3 4019.55 986.197   3
   7  -1  -3 3133.59 286.598   1
   7   1  -2 5642.61 720.546   1
  -7   1   2 5338.27 1127.94   2
  -7  -1   2 5122.52 1140.25   2
   7  -1  -2 5276.71 1146.78   3
  -7   1   1 3190.94 908.359   2
  -7  -1   1 2826.68 832.107   2
   7   1  -1 3227.66 551.351   1
   7  -1  -1 2688.15 289.368   1
   7   1   0 146.425 90.4721   1
  -7   1   0 503.058 310.085   2
  -7  -1   0 690.479 413.273   2
   7  -1   0 458.610 148.181   1
  -7   1  -1 1142.96 537.799   2
   7  -1   1 1447.37 315.278   1
  -7  -1  -1 1105.78 541.774   2
   7   1   1 1543.44 423.682   1
  -7   1  -2 4381.82 1093.44   2
  -7  -1  -2 3799.56 1021.33   2
   7  -1   2 4367.81 627.866   1
   7   1   2 4957.93 787.124   1
  -7   1  -3 220.575 144.378   2
   7  -1   3 174.024 207.256   1
  -7  -1  -3-127.925 201.922   2
   7   1   3 2.17395 73.9192   1
  -7   1  -3 229.651 170.361   1
  -7   1  -4 5317.00 1216.30   2
  -7  -1  -4 5012.71 1216.86   2
   7  -1   4 6617.08 951.886   1
   7   1   4 5165.16 908.888   1
   7  -1   5 2963.92 687.087   1
  -7   1  -5 2295.56 810.733   2
  -7  -1  -5 2211.10 841.681   2
   7   1   5 2768.16 686.441   1
   7  -1   6 426.316 249.618   1
  -7   1  -6 315.995 378.609   2
  -7  -1  -6 243.366 268.131   2
   7   1   6-509.387 326.370   1
   7  -1   7 1797.94 627.904   1
  -7   1  -7 2332.39 863.853   2
  -7  -1  -7 2446.46 914.910   2
   7   1   7 2442.71 740.566   1
   7  -1   8-85.6444 150.941   1
  -7   1  -8 675.285 533.646   2
  -7  -1  -8 286.788 259.482   2
   7   1   8-527.350 371.046   1
   7  -1   9 2458.83 745.426   1
  -7   1  -9 2844.51 1056.73   2
  -7  -1  -9 2434.06 847.422   2
   7   1   9 2582.51 825.607   1
  -7   1 -10 4034.42 1181.60   2
  -7  -1 -10 3824.19 1176.00   2
   7   1  10 4476.36 1133.98   1
   7  -1  10 3685.72 999.763   1
  -7   1 -11 3242.88 1136.13   2
   7   1  11 3712.62 1076.41   1
  -7  -1 -11 5349.96 1377.26   2
   7  -1  11 2912.46 933.074   1
   7   1  12 124.899 362.218   1
  -7   1 -12 1333.87 610.833   2
  -7  -1 -12 545.672 483.196   2
   7  -1  12-1.05661 305.105   1
   7   1  13-215.795 298.262   1
  -7   1 -13-249.623 353.800   2
  -7  -1 -13-541.852 474.448   2
   7  -1  13 68.0393 258.589   1
   7   1  14 939.824 723.455   1
  -7   1 -14-561.826 488.691   2
  -7  -1 -14 726.139 557.892   2
   7  -1  14-302.393 424.488   1
  -7   1 -15-386.637 417.127   2
  -7  -1 -15 124.894 266.049   2
   7  -1  15-546.153 515.804   1
   7   1  15-149.843 324.542   1
  -7   1 -16 2373.32 1032.79   2
  -7  -1 -16 1606.13 847.115   2
   7  -1  16 1194.90 746.673   1
   7   1  16 812.988 757.692   1
  -7   1 -17-493.762 492.671   2
   7  -1  17 363.452 459.040   1
   7   1  17 161.920 316.728   1
   7   2 -18 449.674 448.374   4
   7   2 -18 1499.87 885.812   3
   7   2 -17 397.322 545.495   4
   7   2 -17-18.6473 145.696   3
   7   2 -16 275.459 383.544   4
   7  -2 -16 942.697 691.502   3
   7   2 -16-677.596 569.972   3
   7   2 -15 63.9807 314.478   4
   7  -2 -15 105.027 293.943   3
   7   2 -14 1020.61 714.021   4
   7  -2 -14 880.648 710.183   3
   7   2 -14 1245.40 716.332   3
   7   2 -13 4182.29 1318.82   4
   7   2 -13 2216.54 982.257   3
   7  -2 -13 1998.97 853.551   3
   7   2 -12 4853.00 1376.89   4
   7   2 -12 2104.42 874.029   3
   7  -2 -12 3501.16 1187.82   3
   7   2 -11 8044.91 1787.37   4
   7   2 -11 5200.60 1316.58   3
   7  -2 -11 7170.68 1639.44   3
   7   2 -10 2880.44 1096.09   4
   7   2 -10 3118.81 985.677   3
   7  -2 -10 3111.27 1061.14   3
   7   2  -9 1246.70 693.769   4
   7   2  -9 1815.05 780.883   3
   7  -2  -9 1368.99 691.839   3
   7   2  -8 8351.83 1673.86   4
   7   2  -8 7571.01 1440.89   3
   7  -2  -8 7449.44 1565.85   3
   7   2  -7 4201.94 1188.14   4
  -7   2   7 4517.39 987.314   2
   7   2  -7 4232.32 1079.66   3
   7  -2  -7 3746.16 1069.85   3
  -7   2   6 19847.9 2089.86   2
   7   2  -6 25039.5 2730.55   4
   7   2  -6 19784.4 2180.08   3
   7  -2  -6 23209.8 2626.96   3
  -7   2   5 7682.37 1290.92   2
   7   2  -5 6837.27 1432.78   4
   7  -2  -5 5338.23 387.571   1
   7   2  -5 7190.37 1276.29   3
   7  -2  -5 5527.06 1270.41   3
  -7   2   4 10697.9 1548.54   2
  -7  -2   4 11683.1 1765.29   2
   7   2  -4 11623.1 1590.50   3
   7  -2  -4 12258.9 1823.07   3
  -7   2   3 4023.17 973.304   2
   7   2  -3 5699.92 849.021   1
  -7  -2   3 4521.56 1129.09   2
   7   2  -3 4930.15 1053.94   3
   7  -2  -3 4635.77 1149.61   3
  -7   2   2 479.703 255.742   2
  -7  -2   2 711.225 458.899   2
   7   2  -2 751.221 292.431   1
   7  -2  -2 1634.55 680.736   3
  -7   2   1 10896.9 1624.95   2
   7   2  -1 10846.6 1154.62   1
  -7  -2   1 11167.2 1754.56   2
  -7   2   0-39.4934 330.094   2
  -7  -2   0 285.410 266.307   2
   7   2   0 119.728 99.6452   1
  -7   2  -1-348.513 310.763   2
   7   2   1-50.0276 197.395   1
  -7  -2  -1-118.493 233.701   2
   7  -2   1 3.25152 25.0191   1
   7   2   2 3341.64 683.524   1
  -7   2  -2 2677.34 832.175   2
  -7   2  -2 3185.52 493.645   1
  -7  -2  -2 4423.29 1140.29   2
   7  -2   2 2647.68 440.349   1
  -7   2  -3-54.5608 176.748   2
  -7  -2  -3 384.415 301.085   2
  -7   2  -3 190.508 123.424   1
   7   2   3-6.25962 82.7435   1
   7  -2   3-43.0693 83.5285   1
  -7   2  -4 2158.63 789.141   2
  -7  -2  -4 2352.18 819.656   2
   7   2   4 1144.27 431.571   1
   7  -2   4 1531.71 403.182   1
  -7   2  -5 3029.98 959.992   2
  -7  -2  -5 3592.85 1070.87   2
   7   2   5 3392.65 804.546   1
   7  -2   5 3467.66 721.924   1
  -7   2  -6 487.450 468.075   2
  -7  -2  -6-3.89094 243.393   2
   7   2   6 151.575 215.071   1
   7  -2   6 76.3479 169.555   1
  -7   2  -7 197.293 215.134   2
  -7  -2  -7 209.682 251.056   2
   7   2   7-190.028 320.036   1
   7  -2   7 330.716 140.784   1
  -7   2  -8-86.8558 210.727   2
  -7  -2  -8 25.7350 334.856   2
   7   2   8-492.981 365.577   1
   7  -2   8-287.737 269.075   1
  -7   2  -9 451.222 399.944   2
  -7  -2  -9 185.279 300.826   2
   7   2   9 32.6127 415.276   1
   7  -2   9-296.266 269.525   1
  -7   2 -10 3615.23 1163.96   2
  -7  -2 -10 2233.88 923.295   2
   7   2  10 4760.93 1207.94   1
   7  -2  10 2985.45 928.971   1
  -7   2 -11 1032.60 636.353   2
  -7  -2 -11-114.880 483.687   2
   7   2  11 361.509 202.618   1
   7  -2  11 1042.44 570.422   1
  -7   2 -12 425.964 343.309   2
   7   2  12 333.213 353.795   1
  -7  -2 -12 840.052 645.896   2
   7  -2  12-60.9930 207.425   1
  -7   2 -13 60.2355 220.845   2
   7   2  13 748.519 562.060   1
  -7  -2 -13 650.319 652.429   2
   7  -2  13 105.698 352.710   1
  -7   2 -14 539.494 456.099   2
  -7  -2 -14 1336.30 776.557   2
   7  -2  14 1989.90 973.796   1
   7   2  15 374.416 642.877   1
  -7   2 -15-96.8131 252.907   2
  -7  -2 -15 291.802 434.062   2
   7  -2  15 418.003 439.753   1
   7   2  16-910.266 670.462   1
  -7   2 -16 69.7146 202.400   2
  -7  -2 -16 429.032 451.219   2
   7  -2  16-241.075 362.117   1
  -7   2 -17 1057.93 720.359   2
   7  -2  17-136.703 296.837   1
   7   2  17 625.221 438.420   1
   7   3 -18 542.659 548.551   3
   7   3 -17-257.766 389.812   4
   7   3 -17 540.806 513.855   3
   7   3 -16 2094.90 1037.37   4
   7  -3 -16 1731.36 965.325   3
   7   3 -16 1874.73 916.555   3
   7   3 -15 3538.98 1272.86   4
   7  -3 -15 4484.94 1465.58   3
   7   3 -15 6087.90 1588.16   3
   7   3 -14 464.886 476.112   4
   7  -3 -14 151.679 299.941   3
   7   3 -14 24.4557 176.329   3
   7   3 -13-459.274 461.597   4
   7   3 -13-424.004 408.128   3
   7  -3 -13 642.484 548.144   3
   7   3 -12 1521.87 866.554   4
   7   3 -12 1181.35 625.329   3
   7  -3 -12 1232.39 765.173   3
   7   3 -11 2448.47 903.622   4
   7   3 -11 843.788 543.877   3
   7  -3 -11 2380.84 995.662   3
   7   3 -10 2840.73 1060.61   4
   7   3 -10 1989.89 766.126   3
   7  -3 -10 3504.71 1173.02   3
   7   3  -9 961.356 417.225   4
   7   3  -9 1752.77 723.713   3
   7  -3  -9 885.464 551.641   3
  -7   3   8 1957.51 627.003   2
   7   3  -8 2676.56 938.907   4
   7   3  -8 3902.35 1001.11   3
   7  -3  -8 3993.26 1209.36   3
  -7   3   7 28.9730 112.078   2
   7   3  -7-39.0465 410.449   4
   7   3  -7-60.3630 244.574   3
   7  -3  -7 642.182 502.221   3
  -7   3   6 3960.84 911.903   2
   7   3  -6 2939.30 950.818   4
   7   3  -6 3913.89 933.957   3
   7  -3  -6 4500.40 1145.15   3
  -7   3   5 6317.84 1154.59   2
   7   3  -5 4245.99 1142.86   4
   7   3  -5 5855.82 1138.95   3
   7  -3  -5 3566.32 1034.10   3
  -7   3   4 22530.7 2226.73   2
   7   3  -4 21932.0 2483.32   4
   7   3  -4 22107.7 2163.44   3
   7  -3  -4 21341.6 2490.53   3
  -7   3   3 118.706 215.029   2
  -7  -3   3 117.680 276.366   2
   7   3  -3-64.1286 176.466   3
   7  -3  -3-357.629 357.512   3
   7   3  -3-4.25379 84.6980   1
  -7   3   2 15760.4 1924.68   2
  -7  -3   2 13271.0 1944.65   2
   7   3  -2 13487.3 1409.46   1
   7  -3  -2 15232.8 2029.10   3
   7   3  -1 62.6158 83.4259   1
  -7   3   1-108.202 298.992   2
  -7  -3   1-148.147 341.835   2
   7  -3  -1 165.189 189.693   3
  -7   3   0 2738.51 868.084   2
  -7  -3   0 5011.42 1215.90   2
   7   3   0 5232.25 875.962   1
  -7   3  -1 488.324 363.257   2
  -7  -3  -1 445.535 390.718   2
   7   3   1 217.921 220.968   1
  -7   3  -2-324.556 301.653   2
   7   3   2 132.029 193.698   1
  -7  -3  -2 571.787 475.305   2
  -7   3  -2 128.225 95.8108   1
   7  -3   2 267.222 143.159   1
   7   3   3 5987.57 1010.81   1
  -7   3  -3 3631.04 564.473   1
  -7   3  -3 3836.93 1032.37   2
  -7  -3  -3 6764.31 1439.12   2
   7  -3   3 4843.06 656.767   1
  -7   3  -4 7155.89 1409.17   2
  -7  -3  -4 6131.57 1355.12   2
   7  -3   4 5828.14 822.669   1
   7   3   4 6630.92 1129.53   1
  -7  -3  -5 1311.57 672.372   2
   7   3   5 2202.16 676.057   1
   7  -3   5 1538.36 473.579   1
  -7  -3  -6 3877.36 1095.74   2
   7   3   6 4418.22 983.600   1
   7  -3   6 5238.12 947.331   1
  -7  -3  -7 113.211 189.056   2
   7   3   7 100.975 307.387   1
   7  -3   7 153.888 231.882   1
  -7  -3  -8 1615.11 708.604   2
   7   3   8 894.748 554.996   1
   7  -3   8 1578.39 557.021   1
  -7  -3  -9 761.802 410.913   2
   7   3   9 393.502 385.700   1
   7  -3   9 1326.67 636.515   1
  -7  -3 -10 4268.47 1185.62   2
   7   3  10 4722.01 1205.77   1
   7  -3  10 4375.55 1116.92   1
  -7  -3 -11 1782.79 829.523   2
   7   3  11 2254.43 814.621   1
   7  -3  11 1754.70 720.485   1
  -7  -3 -12 2065.84 896.005   2
   7   3  12 2670.93 1003.10   1
   7  -3  12 1747.68 766.589   1
   7   3  13-449.747 430.867   1
  -7  -3 -13 405.190 432.675   2
   7  -3  13-27.4643 153.546   1
   7   3  14-229.481 421.966   1
   7  -3  14-476.515 450.819   1
  -7  -3 -14 285.842 360.207   2
  -7   3 -15-225.602 348.349   2
   7   3  15 231.735 483.188   1
  -7  -3 -15 1256.45 725.624   2
   7  -3  15 384.311 430.118   1
   7   3  16-225.027 380.898   1
   7  -3  16 450.060 478.278   1
  -7   3 -17-82.8455 268.335   2
   7  -3  17 475.396 514.082   1
   7   4 -17 699.955 595.961   4
   7   4 -16-742.394 640.133   4
   7  -4 -16-764.214 666.264   3
   7   4 -16 43.3675 203.007   3
   7   4 -15 1949.64 979.417   4
   7  -4 -15 2215.31 1085.75   3
   7   4 -15 1419.11 777.508   3
   7   4 -14 34.5588 262.870   4
   7  -4 -14 303.570 395.989   3
   7   4 -13 791.936 500.313   4
   7   4 -13 1064.41 613.878   3
   7  -4 -13 313.602 408.259   3
   7   4 -12 3052.85 1095.61   4
   7   4 -12 3479.94 1063.19   3
   7  -4 -12 2774.78 1040.04   3
   7   4 -11 2210.03 902.132   4
   7   4 -11 4774.87 1201.01   3
   7  -4 -11 3276.39 1161.25   3
   7   4 -10 3704.29 1176.16   4
   7   4 -10 3175.83 942.272   3
   7  -4 -10 2569.29 1032.13   3
   7   4  -9 13142.0 2178.36   4
   7   4  -9 13050.4 1825.59   3
   7  -4  -9 13584.6 2273.46   3
  -7   4   8 51.5916 91.2086   2
   7   4  -8 348.530 244.489   4
   7   4  -8-198.845 358.504   3
  -7   4   7 262.275 312.038   2
   7   4  -7-237.448 359.267   4
   7   4  -7-14.8164 151.415   3
   7  -4  -7 142.432 449.363   3
  -7   4   6 677.184 377.647   2
   7   4  -6 24.4129 192.375   4
   7   4  -6 578.284 416.863   3
   7  -4  -6 79.3013 390.949   3
  -7   4   5 235.788 219.277   2
   7   4  -5 704.647 454.721   4
   7   4  -5 596.803 348.335   3
   7  -4  -5 1595.78 705.944   3
  -7   4   4 1371.55 572.176   2
   7   4  -4 1705.75 676.483   4
   7   4  -4 1956.26 614.631   3
   7  -4  -4 1622.74 697.246   3
   7   4  -3 7962.68 1193.02   1
  -7   4   3 7441.83 1288.26   2
   7   4  -3 9459.95 1640.39   4
   7  -4  -3 9246.39 1688.10   3
  -7   4   2 12028.7 1666.27   2
  -7  -4   2 11345.8 1831.10   2
   7   4  -2 9067.25 1244.07   1
   7  -4  -2 12968.3 1921.09   3
  -7   4   1 9952.51 1543.76   2
   7   4  -1 9983.97 1294.71   1
  -7  -4   1 8635.42 1597.37   2
   7  -4  -1 11269.4 1790.03   3
  -7   4   0 8373.69 1442.78   2
   7   4   0 9465.45 1267.30   1
  -7  -4   0 8184.75 1609.85   2
  -7   4  -1-70.0641 182.497   2
  -7  -4  -1-50.4524 245.147   2
   7   4   1 51.8795 181.484   1
  -7  -4  -2 2169.71 773.853   2
   7   4   2 1502.86 519.371   1
   7   4   3-33.4405 271.554   1
  -7  -4  -3 271.086 183.457   2
   7   4   4 3832.63 884.784   1
  -7  -4  -4 2837.70 942.765   2
   7  -4   4 3877.40 659.480   1
   7  -4   5-75.9602 121.867   1
   7   4   5-103.620 233.441   1
  -7  -4  -6 14313.5 2159.37   2
   7  -4   6 14263.3 1546.82   1
   7   4   6 13561.2 1791.06   1
  -7  -4  -7 1165.24 632.941   2
   7   4   7 57.5552 272.184   1
   7  -4   7 1241.01 517.886   1
  -7  -4  -8 7194.27 1564.48   2
   7   4   8 6482.65 1362.85   1
   7  -4   8 8110.69 1342.42   1
  -7  -4  -9 194.901 304.007   2
   7   4   9-115.904 276.306   1
   7  -4   9 222.130 253.877   1
  -7  -4 -10 347.106 376.507   2
   7   4  10-245.600 300.898   1
   7  -4  10-60.5030 245.746   1
  -7  -4 -11 945.917 566.695   2
   7   4  11 1331.78 629.266   1
   7  -4  11 1049.18 542.029   1
  -7  -4 -12 1937.34 884.906   2
   7   4  12 1010.30 721.707   1
   7  -4  12 1188.02 597.215   1
   7   4  13 319.844 410.321   1
  -7  -4 -13 391.511 413.409   2
   7  -4  13-320.717 346.714   1
   7   4  14 2115.90 925.743   1
  -7  -4 -14 2101.67 937.883   2
   7  -4  14 1860.24 851.660   1
   7   4  15-642.058 564.863   1
  -7  -4 -15-23.8208 166.213   2
   7   4  16 858.387 665.432   1
   7  -4  16 836.869 660.531   1
   7  -4  17 1728.13 936.355   1
   7   5 -16 1164.79 810.462   4
   7  -5 -16 2723.15 1223.73   3
   7   5 -15-39.1237 408.832   4
   7  -5 -15-922.063 727.100   3
   7   5 -14 2640.73 1054.62   4
   7   5 -14 5023.30 1340.68   3
   7   5 -13 522.842 480.667   4
   7   5 -13 1549.77 683.638   3
   7  -5 -13 1234.67 731.538   3
   7   5 -12 777.514 511.990   4
   7   5 -12 543.540 417.933   3
   7  -5 -12 42.6145 274.037   3
   7   5 -11 926.508 633.096   4
   7   5 -11 605.863 422.594   3
   7  -5 -11 287.371 539.660   3
   7   5 -10 2025.91 796.296   4
   7   5 -10 3628.92 961.342   3
   7  -5 -10 2526.98 1018.64   3
   7   5  -9 2428.24 949.869   4
   7   5  -9 3548.19 932.021   3
   7  -5  -9 3772.52 1214.90   3
  -7   5   8 9232.03 1307.83   2
   7   5  -8 7463.65 1617.18   4
   7   5  -8 7727.01 1321.49   3
   7  -5  -8 10234.3 1943.37   3
  -7   5   7 11.6803 147.675   2
   7   5  -7 145.880 247.227   4
   7   5  -7 17.6880 112.876   3
   7  -5  -7 367.403 326.607   3
  -7   5   6 412.815 246.574   2
   7   5  -6 479.893 425.633   4
   7   5  -6-216.735 218.052   3
   7  -5  -6-39.3263 506.149   3
  -7   5   5 4808.08 1004.81   2
   7   5  -5 5680.40 1313.25   4
   7   5  -5 6739.66 1134.69   3
   7  -5  -5 6329.27 1429.83   3
  -7   5   4 224.607 115.131   2
   7   5  -4 170.376 342.648   4
   7  -5  -4 517.657 400.004   3
  -7   5   3-469.782 339.756   2
   7   5  -3-145.462 322.121   1
   7   5  -3-53.8976 264.837   4
   7  -5  -3 34.6895 343.318   3
  -7   5   2 85.5704 222.457   2
   7   5  -2 378.572 284.140   1
   7   5  -2 635.009 473.169   4
   7  -5  -2 436.826 455.230   3
  -7   5   1 7596.64 1369.65   2
   7   5  -1 6923.46 1169.85   1
   7  -5  -1 7830.69 1535.61   3
   7   5   0 327.336 239.483   1
  -7  -5   0 41.9810 271.993   2
  -7  -5  -1 2630.31 913.037   2
   7   5   1 3683.02 858.239   1
  -7  -5  -2 5047.10 1276.22   2
   7   5   2 4737.30 980.937   1
   7   5   3 4205.47 971.538   1
  -7  -5  -3 3477.73 1155.70   2
   7   5   4 9716.06 1464.76   1
  -7  -5  -4 13358.4 2077.29   2
   7   5   5 97.1888 131.567   1
  -7  -5  -5-974.214 584.104   2
  -7  -5  -6 716.922 480.705   2
   7   5   6 1362.92 653.640   1
  -7  -5  -7-306.462 484.251   2
   7  -5   7 246.108 292.468   1
   7   5   7-101.459 241.484   1
  -7  -5  -8 607.878 441.328   2
   7  -5   8-87.9838 269.327   1
   7   5   8 722.206 425.433   1
  -7  -5  -9 693.919 501.867   2
   7   5   9-189.701 324.710   1
   7  -5   9 989.103 511.572   1
  -7  -5 -10 994.111 613.128   2
   7   5  10 569.103 337.523   1
   7  -5  10 865.049 546.491   1
  -7  -5 -11-310.510 364.715   2
   7   5  11 49.2148 195.784   1
   7  -5  11 660.324 458.092   1
  -7  -5 -12 165.154 291.074   2
   7   5  12 291.105 423.150   1
   7  -5  12 59.0109 206.728   1
  -7  -5 -13 505.652 386.285   2
   7   5  13-15.5765 155.025   1
   7  -5  13 125.809 250.520   1
   7   5  14 1729.48 937.581   1
  -7  -5 -14 928.061 625.669   2
   7  -5  14 635.214 456.286   1
   7   5  15-68.3156 244.503   1
   7  -5  15-424.397 463.366   1
   7   5  16 687.090 610.313   1
   7  -5  16 474.534 484.614   1
   7  -5  17 458.998 487.341   1
   7   6 -16 640.766 612.605   4
   7   6 -15-278.386 261.270   4
   7  -6 -15-527.364 569.918   3
   7   6 -14 1451.19 847.631   4
   7  -6 -14-65.9229 271.300   3
   7   6 -13 880.027 602.463   4
   7  -6 -13 1875.30 970.069   3
   7   6 -12 512.882 487.771   4
   7  -6 -12-79.3454 542.909   3
   7   6 -11 332.837 375.554   4
   7   6 -11 674.166 416.272   3
   7  -6 -11 125.482 300.479   3
   7   6 -10 31.9561 282.928   4
   7   6 -10-615.158 391.351   3
   7  -6 -10 93.9822 260.941   3
   7   6  -9 2125.69 906.012   4
   7   6  -9 1508.10 552.509   3
   7  -6  -9 562.799 423.091   3
  -7   6   8 6459.55 1087.33   2
   7   6  -8 4652.34 1340.37   4
   7   6  -8 6288.13 1137.05   3
   7  -6  -8 5412.29 1430.17   3
  -7   6   7 1608.53 560.259   2
   7   6  -7 2585.57 939.363   4
   7   6  -7 1786.82 586.190   3
   7  -6  -7 2226.27 906.552   3
  -7   6   6 5273.69 1037.61   2
   7   6  -6 4557.27 1224.54   4
   7   6  -6 4682.12 927.901   3
   7  -6  -6 4503.08 1260.03   3
  -7   6   5 3665.33 900.998   2
   7   6  -5 2659.53 933.837   4
   7   6  -5 3965.93 831.723   3
   7  -6  -5 3326.78 1067.20   3
  -7   6   4 3303.76 884.906   2
   7   6  -4 6086.28 1350.34   4
   7  -6  -4 5497.77 1356.50   3
  -7   6   3 1619.89 622.322   2
   7   6  -3 1295.48 570.207   4
   7   6  -3 1574.34 632.164   1
   7  -6  -3 2046.12 886.323   3
  -7   6   2 3772.88 959.987   2
   7   6  -2 4368.28 983.695   1
   7   6  -2 3155.69 981.370   4
   7  -6  -2 3519.94 1071.62   3
   7   6  -1 743.889 415.669   4
   7   6  -1 225.833 303.809   1
   7  -6  -1 105.133 269.351   3
   7   6   0 6195.49 1166.44   1
  -7  -6  -1 433.876 624.980   2
   7   6   1-102.086 308.386   1
   7   6   2 14010.2 1765.07   1
  -7  -6  -2 13225.5 2096.59   2
  -7  -6  -3 1735.70 731.487   2
   7   6   3 628.495 425.241   1
   7   6   4 2079.40 769.040   1
  -7  -6  -4 3735.83 1094.65   2
   7   6   5 9696.96 1578.51   1
  -7  -6  -5 10516.3 1876.95   2
  -7  -6  -6 6385.06 1495.56   2
   7   6   6 4709.64 1109.46   1
  -7  -6  -7-219.454 370.785   2
   7   6   7 440.272 377.895   1
  -7  -6  -8 315.340 370.516   2
   7   6   8 226.244 306.890   1
  -7  -6  -9 715.088 419.619   2
   7   6   9 1268.33 643.380   1
  -7  -6 -10 776.819 549.850   2
   7   6  10-481.142 422.869   1
   7  -6  11 191.428 270.723   1
   7   6  11 255.780 310.296   1
  -7  -6 -12 137.537 260.926   2
   7   6  12 119.601 397.597   1
   7  -6  12-8.57275 308.530   1
  -7  -6 -13-531.952 480.097   2
   7   6  13-521.818 498.711   1
   7  -6  13 264.378 441.507   1
   7   6  14 41.6067 205.318   1
  -7  -6 -14 552.668 504.929   2
   7  -6  14-161.489 289.912   1
   7   6  15 219.299 378.826   1
   7  -6  15 816.551 768.215   1
   7  -6  16 334.420 437.319   1
   7   7 -15 257.248 462.285   4
   7  -7 -15 61.0533 266.852   3
   7   7 -14 1807.48 1062.81   4
   7  -7 -14 3677.24 1343.97   3
   7   7 -13 798.280 677.616   4
   7  -7 -13 660.127 605.316   3
   7   7 -12-804.526 628.457   4
   7  -7 -12 941.193 832.733   3
   7   7 -11 2534.90 1047.94   4
   7  -7 -11 5557.58 1594.45   3
   7   7 -10 402.811 281.774   4
   7  -7 -10-23.3780 338.813   3
   7   7  -9 124.814 421.677   4
   7  -7  -9 1214.67 692.341   3
   7   7  -8 1565.55 705.685   4
   7  -7  -8 1456.29 724.416   3
  -7   7   7 1059.45 445.613   2
   7   7  -7 687.726 429.408   4
   7   7  -7 1781.80 558.361   3
   7  -7  -7 750.834 443.112   3
  -7   7   6 179.456 328.805   2
   7   7  -6 1622.54 747.360   4
   7   7  -6 606.177 309.695   3
   7  -7  -6 739.921 543.924   3
  -7   7   5 14366.1 1751.09   2
   7   7  -5 15142.8 2215.70   4
   7  -7  -5 11528.4 2008.37   3
  -7   7   4 5596.81 1116.34   2
   7   7  -4 3963.40 1095.08   4
   7  -7  -4 5115.99 1338.25   3
  -7   7   3 24737.9 2389.18   2
   7   7  -3 23742.6 2656.57   4
   7  -7  -3 23261.1 2813.10   3
   7   7  -3 20932.5 2270.56   1
   7   7  -2-13.9335 329.016   1
   7   7  -2 225.851 237.325   4
   7  -7  -2 608.133 327.878   3
   7   7  -1 38992.8 3073.77   1
   7   7  -1 35005.5 3024.11   4
   7  -7  -1 38522.8 3566.94   3
   7   7   0 11312.5 1647.45   1
   7   7   0 13206.7 1808.80   4
   7   7   1 1096.26 488.665   1
   7   7   2 8896.23 1452.46   1
  -7  -7  -3 2750.80 955.308   2
   7   7   3 1561.70 535.315   1
  -7  -7  -4 21711.1 2796.57   2
   7   7   4 23162.9 2476.85   1
   7   7   5 2320.29 820.774   1
  -7  -7  -5 1589.08 775.077   2
   7   7   6 2586.41 871.406   1
  -7  -7  -6 901.464 606.349   2
  -7  -7  -7 92.6852 248.644   2
   7   7   7 739.368 526.163   1
  -7  -7  -8 1471.67 788.745   2
   7   7   8 1077.66 714.272   1
  -7  -7  -9 29.6301 343.398   2
   7   7   9 858.807 511.138   1
  -7  -7 -10 2126.96 924.928   2
   7   7  10 832.763 587.708   1
  -7  -7 -11-52.9067 239.706   2
   7   7  11 170.448 308.940   1
  -7  -7 -12-38.9898 215.102   2
   7   7  12-326.077 454.949   1
  -7  -7 -13 314.916 377.676   2
   7   7  13 1066.08 666.045   1
   7   7  14 860.408 650.230   1
   7   7  15 1551.11 823.981   1
   7   8 -14 982.118 722.057   4
   7  -8 -14 825.558 906.784   3
   7   8 -13 546.043 600.155   4
   7  -8 -13 1536.81 965.000   3
   7   8 -12 350.488 380.795   4
   7  -8 -12-264.347 506.845   3
   7   8 -11 527.847 762.626   4
   7  -8 -11 510.951 344.903   3
   7   8 -10-858.106 634.497   4
   7  -8 -10 111.458 376.164   3
   7   8  -9 25.0033 268.673   4
   7  -8  -9-27.3361 335.261   3
   7   8  -8 3123.90 1122.96   4
   7  -8  -8 2986.50 1116.66   3
  -7   8   7-0.61103 230.410   2
   7   8  -7 112.900 191.451   4
   7  -8  -7 339.465 447.224   3
  -7   8   6-174.538 205.258   2
   7  -8  -6 106.092 230.389   3
  -7   8   5 747.644 412.222   2
   7   8  -5 1146.22 651.872   4
   7  -8  -5 903.550 542.026   3
  -7   8   4 2466.97 777.991   2
   7   8  -4 2216.13 858.531   4
   7  -8  -4 1879.52 893.405   3
   7   8  -3-565.112 436.862   4
   7   8  -3 154.069 246.157   1
   7  -8  -3 182.542 284.520   3
   7   8  -2 20618.5 2417.98   4
   7   8  -2 18096.4 2220.71   1
   7  -8  -2 20802.7 2668.05   3
   7   8  -1 16157.7 2096.25   1
   7   8  -1 14261.5 1984.34   4
   7  -8  -1 16528.4 2374.27   3
   7   8   0-198.328 263.756   4
   7   8   0 21.7960 207.712   1
   7   8   1-881.409 505.349   1
   7   8   1 209.598 226.477   4
   7   8   2 7601.77 1416.35   1
   7   8   3-100.032 349.572   1
   7   8   4 2530.15 821.056   1
   7   8   5-148.810 250.067   1
   7   8   6 12271.2 1954.29   1
  -7  -8  -6 8816.09 1833.92   2
   7   8   7 5240.12 1304.68   1
  -7  -8  -7 6550.33 1581.34   2
  -7  -8  -8 1935.26 872.799   2
   7   8   8 1375.10 686.241   1
  -7  -8  -9-136.937 285.071   2
   7   8   9 599.329 609.724   1
  -7  -8 -10-37.6894 183.118   2
   7   8  10 75.0285 232.714   1
  -7  -8 -11 1045.80 623.610   2
   7   8  11 660.042 487.287   1
  -7  -8 -12 150.004 249.466   2
   7   8  12 919.602 807.896   1
  -7  -8 -13 1175.86 647.423   2
   7   8  13 887.493 666.364   1
   7   8  14-781.748 634.817   1
   7   9 -14-568.130 591.737   4
   7  -9 -14-465.710 565.424   3
   7   9 -13-267.617 426.546   4
   7  -9 -13-524.952 570.866   3
   7   9 -12 1302.62 817.851   4
   7  -9 -12 417.275 394.812   3
   7   9 -11-276.379 463.380   4
   7  -9 -11-780.504 652.662   3
   7   9 -10 153.965 335.787   4
   7  -9 -10 155.938 403.584   3
   7   9  -9 516.722 502.815   4
   7  -9  -9 544.815 665.052   3
   7   9  -8 348.942 396.559   4
   7  -9  -8 68.3111 342.303   3
   7   9  -7 144.834 235.965   4
   7  -9  -7 95.5297 412.826   3
  -7   9   6 931.786 442.803   2
   7   9  -6 1231.15 649.383   4
   7  -9  -6 855.858 603.504   3
  -7   9   5 147.698 335.317   2
   7   9  -5 147.886 166.501   4
   7  -9  -5 768.393 640.891   3
   7   9  -4 5442.20 1299.44   1
   7   9  -4 4862.30 1278.12   4
   7  -9  -4 3825.91 1220.87   3
   7   9  -3 766.070 430.663   1
   7   9  -3 164.905 155.615   4
   7  -9  -3 798.066 592.947   3
   7   9  -2 16227.6 2206.10   4
   7   9  -2 17554.4 2281.12   1
   7  -9  -2 16686.7 2473.00   3
   7   9  -1 2393.16 828.277   4
   7  -9  -1 2585.78 957.665   3
   7   9  -1 1225.36 627.087   1
   7   9   0 2948.79 887.964   1
   7   9   0 2405.84 766.395   4
   7   9   1 196.361 219.635   1
   7   9   1-77.5496 223.851   4
   7   9   2 497.919 394.905   1
   7   9   3 39.1825 226.733   1
   7   9   4 824.777 550.452   1
   7   9   5 1343.29 643.926   1
   7   9   6 1150.70 635.420   1
   7   9   7-174.767 428.283   1
   7   9   8 913.031 554.402   1
   7   9   9 2338.82 923.187   1
   7   9  10 1236.16 744.161   1
   7   9  11 2296.36 1000.76   1
   7   9  12 2253.02 1035.26   1
   7   9  13-208.740 349.397   1
   7   9  14-530.539 532.567   1
   7  10 -13 363.100 496.867   4
   7 -10 -13 511.827 693.074   3
   7  10 -12 1191.69 790.559   4
   7 -10 -12 1097.95 765.109   3
   7  10 -11 82.9486 335.477   4
   7 -10 -11 9.67588 217.285   3
   7  10 -10-35.8014 186.640   4
   7 -10 -10 557.323 554.801   3
   7  10  -9 1392.94 808.952   4
   7 -10  -9 1279.05 683.083   3
   7  10  -8 1740.90 887.507   4
   7 -10  -8 2212.63 1012.63   3
   7  10  -7 2186.07 991.096   4
   7 -10  -7 4379.60 1386.70   3
  -7  10   6 1930.28 651.070   2
   7  10  -6 2590.52 1063.06   4
   7 -10  -6 1447.20 716.549   3
   7  10  -5 9854.15 1929.60   4
   7 -10  -5 8162.70 1816.92   3
   7  10  -4 602.306 460.377   1
   7  10  -4 605.374 498.223   4
   7 -10  -4 107.404 282.371   3
   7  10  -3 12617.0 2035.02   4
   7  10  -3 14901.4 2212.30   1
   7 -10  -3 14047.1 2313.37   3
   7  10  -2 1052.83 578.063   1
   7  10  -2 750.367 595.419   4
   7 -10  -2 696.786 398.697   3
   7  10  -1 3280.96 982.680   4
   7 -10  -1 952.504 631.488   3
   7  10  -1 1968.82 771.911   1
   7  10   0 6725.36 1373.50   4
   7  10   0 9256.03 1700.62   1
   7  10   1 608.943 500.359   1
   7  10   1 515.270 379.144   4
   7  10   2 162.104 251.504   4
   7  10   2 127.766 412.543   1
   7  10   3-125.868 211.346   1
   7  10   4-150.090 320.595   1
   7  10   5-113.364 421.255   1
   7  10   6 38.1430 325.436   1
   7  10   7 27.8534 301.327   1
   7  10   8 25.3950 163.932   1
   7  10   9 1042.81 733.455   1
   7  10  10-425.775 455.780   1
   7  10  11 176.242 347.432   1
   7  10  12 1104.30 735.529   1
   7  10  13 2657.91 1143.42   1
   7  11 -12-909.288 717.634   4
   7 -11 -12-73.5270 533.749   3
   7  11 -11 2868.82 1209.87   4
   7 -11 -11 3204.34 1319.16   3
   7  11 -10-15.4912 177.390   4
   7 -11 -10 643.151 816.503   3
   7  11  -9 2876.60 1199.69   4
   7 -11  -9 5275.45 1611.56   3
   7  11  -8-29.5487 221.662   4
   7 -11  -8-429.023 470.923   3
   7  11  -7 1380.15 877.507   4
   7 -11  -7 1084.84 896.202   3
   7  11  -6 924.735 663.930   4
   7 -11  -6-120.316 360.117   3
   7  11  -5 1604.10 791.126   4
   7 -11  -5 3025.74 1124.81   3
   7  11  -4 1777.26 881.900   1
   7  11  -4 2811.82 1017.52   4
   7 -11  -4 2915.61 1171.74   3
   7  11  -3 611.576 526.446   1
   7  11  -3 603.775 255.908   4
   7 -11  -3-115.412 190.987   3
   7  11  -2 1864.25 764.341   1
   7  11  -2 1827.01 767.209   4
   7 -11  -2 2165.30 896.586   3
   7  11  -1 4318.69 1152.18   4
   7 -11  -1 4710.04 1369.62   3
   7  11  -1 3045.53 975.912   1
   7  11   0 6854.09 1422.02   4
   7  11   0 4963.47 1312.31   1
   7  11   1 1436.90 697.651   1
   7  11   1 2531.05 841.524   4
   7  11   2 5746.35 1184.07   4
   7  11   2 4414.32 1206.03   1
   7  11   3 2046.21 834.159   1
   7  11   4 3761.24 1150.49   1
   7  11   5 735.230 605.736   1
   7  11   6 740.471 567.416   1
   7  11   7 522.278 574.098   1
   7  11   8 293.025 394.851   1
   7  11   9 310.236 361.495   1
   7  11  10 1909.57 961.941   1
   7  11  11 1215.38 765.806   1
   7  11  12-235.984 376.599   1
   7  12 -11 1044.63 755.867   4
   7 -12 -11 1318.77 836.916   3
   7  12 -10 611.289 579.842   4
   7 -12 -10 311.696 625.873   3
   7  12  -9 106.142 305.610   4
   7 -12  -9 1012.50 747.732   3
   7  12  -8-14.6680 242.097   4
   7 -12  -8 338.674 550.164   3
   7  12  -7 30.7448 558.768   4
   7 -12  -7 377.339 451.747   3
   7  12  -6 878.428 697.049   4
   7 -12  -6 1150.68 675.739   3
   7  12  -5 627.807 407.833   4
   7 -12  -5-485.052 488.474   3
   7  12  -4 818.230 486.102   1
   7  12  -4 297.455 461.949   4
   7 -12  -4 218.092 316.011   3
   7  12  -3-78.4591 433.693   4
   7 -12  -3 117.657 178.025   3
   7  12  -3-74.6733 250.493   1
   7  12  -2 201.607 270.834   1
   7  12  -2-17.1166 289.179   4
   7 -12  -2 852.809 675.804   3
   7  12  -1-422.705 374.028   4
   7  12  -1 174.493 303.513   1
   7  12   0 828.165 456.683   1
   7  12   0-3.73962 119.720   4
   7  12   1 3446.82 964.129   4
   7  12   1 4475.30 1317.30   1
   7  12   2 457.286 575.842   1
   7  12   2 171.054 227.215   4
   7  12   3 1080.38 670.029   1
   7  12   4 2059.58 909.413   1
   7  12   5 3703.34 1199.58   1
   7  12   6 520.055 443.620   1
   7  12   7 1370.29 722.917   1
   7  12   8 65.5224 271.467   1
   7  12   9 1228.27 778.504   1
   7  12  10 1060.62 786.199   1
   7  12  11-672.049 587.423   1
   7 -13 -10 2372.16 1139.26   3
   7 -13  -9 24.8570 217.152   3
   7 -13  -8 1463.73 847.495   3
   7  13  -7 2977.94 1228.79   4
   7 -13  -7 1074.80 675.137   3
   7  13  -6 355.657 403.726   4
   7 -13  -6 585.342 534.339   3
   7  13  -5-423.346 456.156   1
   7  13  -5 279.416 367.622   4
   7 -13  -5 896.706 544.144   3
   7  13  -4-522.122 480.305   4
   7  13  -4-326.342 400.574   1
   7 -13  -4-157.636 343.557   3
   7  13  -3 495.811 511.997   4
   7  13  -3 454.421 426.923   1
   7 -13  -3-191.941 336.392   3
   7  13  -2 957.717 669.629   1
   7  13  -2 954.651 650.058   4
   7 -13  -2 563.731 452.473   3
   7  13  -1 2414.84 891.339   4
   7  13  -1 1953.56 914.462   1
   7  13   0 2156.96 919.604   1
   7  13   0 1611.36 710.187   4
   7  13   1 769.289 501.012   1
   7  13   1 1154.50 573.852   4
   7  13   2 455.258 389.098   1
   7  13   3 4021.97 1300.06   1
   7  13   4 150.237 356.628   1
   7  13   5 1669.18 854.224   1
   7  13   6-96.4438 344.091   1
   7  13   7-517.405 505.211   1
   7  13   8 546.377 526.982   1
   7  13   9 2015.48 1026.05   1
   7  13  10 39.1679 425.411   1
   7 -14  -9 92.5196 271.269   3
   7 -14  -8 908.514 727.142   3
   7 -14  -7-362.290 485.344   3
   7  14  -6-555.950 525.830   4
   7 -14  -6 272.452 396.715   3
   7  14  -5-232.291 403.800   1
   7  14  -5 386.800 407.810   4
   7 -14  -5 128.636 307.126   3
   7  14  -4-301.836 356.694   1
   7  14  -4 188.487 422.276   4
   7 -14  -4-125.110 316.989   3
   7  14  -3 271.586 395.847   1
   7  14  -3 788.663 633.677   4
   7 -14  -3 165.833 336.897   3
   7  14  -2 247.991 574.532   1
   7  14  -2 120.913 243.417   4
   7 -14  -2 341.468 431.834   3
   7  14  -1 1703.62 732.080   4
   7  14  -1 2680.82 1105.86   1
   7  14   0 2552.43 1128.77   1
   7  14   0 2683.56 968.904   4
   7  14   1 4360.16 1423.75   1
   7  14   2 232.939 367.262   1
   7  14   3-1.40123 410.716   1
   7  14   4 1005.77 698.218   1
   7  14   5 405.656 470.632   1
   7  14   6 1407.95 892.768   1
   7  14   7 1878.90 988.708   1
   7  14   8-252.980 389.004   1
   7 -15  -8-246.738 410.729   3
   7 -15  -7-135.929 293.756   3
   7  15  -6 160.952 404.366   1
   7  15  -6 555.112 451.427   4
   7 -15  -6 120.323 307.332   3
   7  15  -5-270.054 362.926   4
   7 -15  -5-72.8894 248.371   3
   7  15  -5 75.6150 358.420   1
   7  15  -4 609.118 524.090   4
   7 -15  -4 191.560 351.309   3
   7  15  -4 428.706 498.950   1
   7  15  -3 239.507 232.606   1
   7  15  -3 105.998 253.495   4
   7 -15  -3 588.236 445.810   3
   7  15  -2-219.189 321.825   4
   7  15  -2 703.500 539.475   1
   7  15  -1 659.603 499.669   4
   7  15  -1-229.267 368.128   1
   7  15   0 69.3483 447.466   1
   7  15   1-22.2530 178.632   1
   7  15   2-307.967 403.225   1
   7  15   3 1773.22 983.680   1
   7  15   4-657.686 597.163   1
   7  15   5 1721.46 926.684   1
   7  15   6 1568.53 881.875   1
   7  15   7-722.933 635.278   1
   7 -16  -7 379.188 333.923   3
   7  16  -6 712.477 595.622   1
   7 -16  -6-323.090 438.137   3
   7  16  -5-401.034 474.785   1
   7  16  -5 632.494 554.326   4
   7 -16  -5-288.771 438.349   3
   7  16  -4 86.2409 351.555   4
   7  16  -4-661.221 610.545   1
   7 -16  -4-261.663 413.776   3
   7  16  -3 266.098 411.367   1
   7  16  -3 158.458 313.255   4
   7 -16  -3-658.462 589.643   3
   7  16  -2 274.022 342.150   4
   7  16  -2 561.821 555.560   1
   7  16  -1 151.235 336.133   1
   7  16   0 2006.94 1023.84   1
   7  16   1 1071.90 759.699   1
   7  16   2 481.201 559.369   1
   7  16   3 346.914 478.127   1
   7  16   4 1447.05 940.676   1
   7  17  -5 1447.69 1025.97   4
   7 -17  -5-530.253 561.348   3
   7  17  -4 106.617 201.664   4
   7 -17  -4 581.730 703.365   3
   8   0 -17 1251.67 836.031   3
   8   0 -16 1522.90 927.139   3
   8   0 -15-871.709 660.143   3
   8   0 -14 715.718 579.294   3
   8   0 -13-304.570 387.525   3
   8   0 -12-805.187 589.778   3
   8   0 -11 24.2408 189.584   3
   8   0 -10 3937.89 1208.38   3
   8   0  -9-238.879 460.271   3
   8   0  -8 18100.8 2462.41   3
   8   0  -7-703.173 487.986   3
  -8   0   6 4873.44 1185.54   2
   8   0  -6 5110.62 1271.94   3
  -8   0   5 57.2000 182.033   2
   8   0  -5-112.730 203.356   3
  -8   0   4 4861.99 1204.53   2
   8   0  -4 2570.25 866.851   3
  -8   0   3-380.223 426.300   2
   8   0  -3-301.059 274.459   3
  -8   0   2-95.4795 320.521   2
  -8   0   1-41.4739 330.879   2
  -8   0   0 198.660 280.873   2
   8   0   0 292.655 169.499   1
  -8   0  -1-19.5238 160.581   2
   8   0   1 33.3188 128.016   1
  -8   0  -2 210.843 215.704   2
   8   0   2 267.798 163.834   1
  -8   0  -3-244.497 280.527   2
   8   0   3 2.88547 61.7737   1
  -8   0  -4 2792.41 981.039   2
   8   0   4 2117.53 569.105   1
  -8   0  -5-118.656 281.162   2
   8   0   5 50.0630 111.617   1
  -8   0  -6 5673.02 1405.35   2
   8   0   6 6172.48 1103.61   1
   8   0   7 196.384 287.147   1
  -8   0  -7-326.511 521.873   2
   8   0   8 1617.75 638.680   1
  -8   0  -8 1919.03 828.872   2
   8   0   9-604.185 416.751   1
  -8   0  -9-357.772 400.825   2
   8   0  10-186.526 303.620   1
  -8   0 -10-759.813 561.910   2
   8   0  11-285.762 325.056   1
  -8   0 -11 249.487 314.948   2
  -8   0 -12 2571.91 1042.29   2
   8   0  12 2527.05 1000.69   1
  -8   0 -13-281.754 399.694   2
   8   0  13-332.476 374.269   1
  -8   0 -14 730.416 657.588   2
   8   0  14 911.828 726.174   1
  -8   0 -15-1747.97 917.833   2
   8   0  15-434.465 456.187   1
  -8   0 -16 1326.65 929.570   2
   8   0  16-149.777 322.280   1
   8   1 -17 4201.83 1536.87   3
   8   1 -16 184.772 359.015   4
   8   1 -16 201.938 351.201   3
   8  -1 -16 1142.67 716.852   3
   8   1 -15 1089.35 805.487   4
   8   1 -15 334.547 429.553   3
   8  -1 -15 1298.90 779.687   3
   8   1 -14 1122.19 621.858   4
   8   1 -14 3041.72 1148.80   3
   8  -1 -14 3318.39 1276.78   3
   8   1 -13 252.844 265.810   4
   8   1 -13 257.142 292.972   3
   8  -1 -13 260.825 490.873   3
   8   1 -12 1169.58 723.740   4
   8   1 -12 1219.02 742.785   3
   8  -1 -12 520.598 440.024   3
   8   1 -11 2101.99 946.671   4
   8   1 -11 1297.05 693.107   3
   8  -1 -11 709.007 610.190   3
   8   1 -10 5670.99 1436.90   3
   8  -1 -10 6628.95 1582.65   3
   8   1  -9 1969.81 801.768   3
   8  -1  -9 1880.73 854.246   3
   8   1  -8 7894.89 1547.03   3
   8  -1  -8 10658.2 1903.27   3
  -8   1   7-85.3296 248.026   2
   8   1  -7 329.591 490.125   3
   8  -1  -7 236.560 381.216   3
  -8   1   6 2186.60 779.487   2
   8   1  -6 1021.94 506.677   3
   8  -1  -6 1751.63 751.441   3
  -8   1   5 159.437 135.122   2
  -8  -1   5 220.977 355.902   2
   8   1  -5 323.056 439.780   3
   8  -1  -5-165.104 314.844   3
  -8   1   4-326.274 339.712   2
  -8  -1   4-93.4491 218.006   2
   8   1  -4 149.660 153.517   1
   8   1  -4-112.304 429.906   3
   8  -1  -4 283.207 328.634   3
  -8   1   3 3395.32 985.167   2
  -8  -1   3 4409.09 1136.63   2
   8   1  -3 3437.54 960.992   3
   8  -1  -3 3163.41 959.695   3
   8   1  -3 2318.83 476.705   1
  -8   1   2 3154.04 989.195   2
  -8  -1   2 3624.57 1085.23   2
   8   1  -2 2781.57 520.478   1
   8   1  -1 587.631 246.109   1
  -8   1   1 342.963 425.758   2
  -8   1   0-363.967 357.832   2
  -8  -1   0-142.084 158.828   2
   8   1   0 407.640 221.123   1
  -8   1  -1-89.9167 270.395   2
  -8  -1  -1 340.440 199.291   2
   8   1   1 421.851 258.027   1
   8  -1   2-65.6697 87.9146   1
  -8  -1  -2 30.3916 176.805   2
   8   1   2 171.734 157.465   1
   8  -1   3 64.2525 100.620   1
  -8   1  -3-46.1075 380.175   2
  -8  -1  -3 90.1430 359.950   2
   8   1   3-110.772 143.476   1
   8  -1   4 2411.50 559.971   1
  -8   1  -4 2744.48 904.935   2
  -8  -1  -4 3679.03 1089.93   2
   8   1   4 1414.60 509.629   1
   8  -1   5 161.764 118.814   1
  -8   1  -5-30.6757 300.436   2
  -8  -1  -5 349.101 443.746   2
   8   1   5-20.3933 228.045   1
   8  -1   6 2631.57 705.184   1
  -8   1  -6 1685.61 708.727   2
  -8  -1  -6 2701.60 934.935   2
   8   1   6 1899.44 636.722   1
   8  -1   7 2231.35 687.905   1
  -8   1  -7 1047.05 555.070   2
   8   1   7 1859.49 660.090   1
   8  -1   8 363.549 298.880   1
  -8   1  -8 348.629 460.010   2
  -8  -1  -8 310.032 292.935   2
   8   1   8 425.952 296.998   1
  -8   1  -9 2051.82 998.023   2
   8   1   9 2895.32 893.924   1
  -8  -1  -9 2028.40 917.615   2
   8  -1   9 2706.05 843.069   1
  -8   1 -10 1398.45 739.617   2
   8   1  10 1576.71 662.747   1
  -8  -1 -10 2994.51 1110.66   2
   8  -1  10 1323.31 655.248   1
   8   1  11 475.053 486.416   1
  -8   1 -11 2249.12 963.074   2
  -8  -1 -11 1120.55 623.749   2
   8  -1  11 2263.62 875.620   1
   8   1  12 886.720 521.942   1
  -8   1 -12 1228.96 829.560   2
  -8  -1 -12 1363.75 749.215   2
   8  -1  12 2301.05 908.977   1
   8   1  13 3742.29 1216.27   1
  -8   1 -13 4179.72 1358.05   2
  -8  -1 -13 3431.64 1229.98   2
   8  -1  13 4417.21 1313.56   1
   8   1  14 573.915 499.504   1
  -8   1 -14 322.120 497.441   2
   8  -1  14 146.727 285.828   1
  -8   1 -15 1676.38 897.012   2
  -8  -1 -15 853.416 830.174   2
   8  -1  15 454.876 504.762   1
   8   1  15 954.563 676.400   1
  -8   1 -16-920.328 689.202   2
  -8  -1 -16 261.206 403.519   2
   8  -1  16 460.091 585.053   1
   8   1  16 294.539 428.092   1
   8   2 -17 1.60537 435.257   3
   8   2 -16 17.8580 201.309   4
   8   2 -16-430.369 472.724   3
   8   2 -15 1868.59 1013.32   4
   8   2 -15 837.825 525.526   3
   8  -2 -15 1173.70 780.094   3
   8   2 -14 359.219 444.673   4
   8   2 -14 463.469 457.453   3
   8  -2 -14 825.395 647.700   3
   8   2 -13 274.139 381.128   4
   8   2 -13 953.861 663.774   3
   8  -2 -13 143.717 319.152   3
   8   2 -12 766.025 828.821   4
   8   2 -12 654.409 588.669   3
   8  -2 -12-275.351 413.883   3
   8   2 -11 263.669 373.546   4
   8   2 -11 385.216 435.213   3
   8  -2 -11 223.558 273.078   3
   8   2 -10 7142.32 1681.51   4
   8   2 -10 7907.03 1619.29   3
   8  -2 -10 8905.87 1875.27   3
   8   2  -9 12580.9 2225.02   4
   8   2  -9 11679.7 1946.35   3
   8  -2  -9 10170.6 1942.97   3
   8   2  -8 8133.96 1744.83   4
   8   2  -8 7203.09 1494.82   3
   8  -2  -8 7678.37 1653.77   3
  -8   2   7 1063.57 555.211   2
   8   2  -7 942.348 451.245   3
   8  -2  -7 1418.63 655.776   3
  -8   2   6 4201.10 1038.78   2
   8   2  -6 5143.94 1200.37   3
   8  -2  -6 4592.63 1196.24   3
  -8   2   5 9337.45 1582.02   2
   8   2  -5 8324.22 1099.28   1
   8   2  -5 6521.90 1318.42   3
   8  -2  -5 6065.32 1394.68   3
   8   2  -4 5815.85 888.696   1
  -8   2   4 5238.71 1191.96   2
  -8  -2   4 8293.72 1587.52   2
   8   2  -4 6931.70 1350.57   3
   8  -2  -4 6381.42 1410.48   3
  -8   2   3 9505.13 1637.51   2
   8   2  -3 7856.35 998.549   1
  -8  -2   3 8874.87 1659.53   2
   8  -2  -3 8886.62 1658.16   3
   8   2  -2 6382.69 902.572   1
  -8   2   2 5870.96 1294.33   2
  -8  -2   2 5296.46 1280.67   2
   8  -2  -2 7785.64 1552.14   3
  -8   2   1 458.813 345.840   2
  -8  -2   1 674.060 393.499   2
   8   2  -1 818.796 319.199   1
  -8   2   0 1891.82 724.643   2
   8   2   0 1675.80 465.078   1
  -8  -2   0 1586.95 733.921   2
   8   2   1 3422.50 681.228   1
  -8   2  -1 2852.82 913.928   2
  -8  -2  -1 4667.03 1236.54   2
  -8   2  -2 426.714 342.831   2
  -8  -2  -2 166.301 276.262   2
   8   2   2 189.916 173.695   1
  -8   2  -3 2997.28 976.686   2
  -8  -2  -3 4067.06 1176.92   2
   8   2   3 3026.72 711.497   1
  -8   2  -4 128.650 268.582   2
  -8  -2  -4-319.454 561.939   2
   8   2   4 70.8111 238.550   1
   8  -2   4 494.712 263.161   1
  -8   2  -5 742.684 620.445   2
  -8  -2  -5-337.626 526.103   2
   8   2   5 479.579 348.625   1
   8  -2   5 20.2680 134.054   1
  -8   2  -6 14690.7 2257.90   2
  -8  -2  -6 15006.4 2338.78   2
   8  -2   6 13790.0 1576.27   1
   8   2   6 14732.6 1794.54   1
  -8   2  -7 2399.82 873.341   2
  -8  -2  -7 3426.95 1150.93   2
   8   2   7 1879.48 652.142   1
   8  -2   7 2974.38 781.929   1
  -8   2  -8 2547.97 948.801   2
  -8  -2  -8 1644.05 811.810   2
   8   2   8 1666.89 667.171   1
   8  -2   8 1229.91 537.085   1
  -8  -2  -9 711.234 541.671   2
   8   2   9 43.5824 163.306   1
   8  -2   9 299.261 295.711   1
  -8   2 -10 1793.26 879.936   2
  -8  -2 -10 2196.30 935.674   2
   8   2  10 941.515 561.015   1
   8  -2  10 2167.82 806.519   1
  -8   2 -11 127.887 233.062   2
   8   2  11 74.4727 240.855   1
  -8  -2 -11-518.233 488.280   2
   8  -2  11-205.669 280.030   1
  -8   2 -12-265.608 365.202   2
   8   2  12 127.641 184.503   1
   8  -2  12 30.4584 166.034   1
   8   2  13 573.262 499.962   1
  -8   2 -13 1286.47 707.319   2
  -8  -2 -13 477.446 465.487   2
   8  -2  13-345.124 383.864   1
   8   2  14 2140.03 973.960   1
  -8   2 -14 2957.29 1152.36   2
  -8  -2 -14 2081.94 1045.33   2
   8  -2  14 2974.58 1094.35   1
   8   2  15 131.918 239.788   1
  -8   2 -15 975.221 788.520   2
  -8  -2 -15-1.50074 290.812   2
   8  -2  15 181.030 303.015   1
  -8   2 -16 1120.06 837.123   2
  -8  -2 -16 1206.67 783.850   2
   8  -2  16 1834.00 1009.13   1
   8   2  16 2801.82 1171.37   1
   8   3 -16-512.817 544.062   4
   8   3 -16 212.785 338.841   3
   8  -3 -16-107.925 288.973   3
   8   3 -15-380.462 435.525   3
   8  -3 -15 241.083 452.507   3
   8   3 -14 708.005 599.856   4
   8  -3 -14-418.522 485.621   3
   8   3 -13 307.384 426.576   4
   8   3 -13 3.61636 143.956   3
   8  -3 -13 812.713 580.437   3
   8   3 -12-489.614 489.763   4
   8   3 -12-853.559 557.757   3
   8  -3 -12 876.571 700.075   3
   8   3 -11-358.973 418.188   4
   8   3 -11 177.314 352.182   3
   8   3 -10 2907.44 1118.79   4
   8   3 -10 2059.29 806.971   3
   8  -3 -10 3153.69 1132.55   3
   8   3  -9 9811.48 1953.69   4
   8   3  -9 9342.93 1698.99   3
   8  -3  -9 6731.92 1615.23   3
  -8   3   8 16950.3 2027.27   2
   8   3  -8 15479.9 2393.58   4
   8   3  -8 16866.9 2183.41   3
   8  -3  -8 15898.9 2453.08   3
   8   3  -7 371.881 411.830   4
  -8   3   7 837.476 461.635   2
   8   3  -7 285.773 244.320   3
   8  -3  -7 273.621 433.182   3
  -8   3   6 7644.97 1431.76   2
   8   3  -6 7358.03 1625.16   4
   8   3  -6 7964.56 1436.09   3
   8  -3  -6 6972.35 1575.30   3
  -8   3   5 6620.68 1313.46   2
   8   3  -5 6773.36 1092.81   1
   8   3  -5 7819.44 1399.69   3
   8  -3  -5 6820.29 1494.51   3
  -8   3   4-209.653 288.071   2
   8   3  -4 810.580 382.338   1
   8   3  -4 1411.06 643.618   3
   8  -3  -4 1259.62 667.698   3
  -8   3   3 85.3713 280.671   2
  -8  -3   3 247.208 407.722   2
   8   3  -3 516.576 229.347   1
   8  -3  -3-705.015 493.509   3
   8   3  -2 1237.08 466.221   1
  -8   3   2 199.080 204.940   2
  -8  -3   2 1053.61 590.444   2
   8  -3  -2 1356.92 677.964   3
  -8   3   1 15775.9 2111.41   2
  -8  -3   1 15424.4 2260.29   2
   8   3  -1 18629.0 1692.21   1
  -8   3   0 2803.37 875.538   2
  -8  -3   0 3816.16 1100.75   2
   8   3   0 5810.62 948.823   1
  -8   3  -1 3550.23 1029.78   2
   8   3   1 4599.57 866.066   1
  -8  -3  -1 4457.47 1231.79   2
   8   3   2 2186.68 613.009   1
  -8   3  -2 3341.67 1073.84   2
  -8  -3  -2 2340.16 928.845   2
  -8   3  -3-10.0452 228.661   2
  -8  -3  -3-335.478 397.627   2
   8   3   3-56.0302 142.143   1
  -8   3  -4 6406.90 1440.12   2
  -8  -3  -4 5997.17 1443.85   2
   8   3   4 8143.97 1280.97   1
  -8   3  -5 4500.53 1248.70   2
  -8  -3  -5 3479.42 1112.30   2
   8   3   5 4374.13 965.473   1
  -8   3  -6 1121.97 697.702   2
  -8  -3  -6 3424.87 1138.83   2
   8   3   6 2090.44 715.303   1
   8  -3   6 2783.01 683.285   1
  -8   3  -7 513.788 433.449   2
  -8  -3  -7-43.6834 308.252   2
   8   3   7 382.061 270.561   1
   8  -3   7 60.8523 101.867   1
  -8   3  -8 2310.32 916.192   2
  -8  -3  -8 2621.19 978.422   2
   8   3   8 1771.30 731.802   1
   8  -3   8 2395.97 751.643   1
  -8   3  -9 342.284 397.901   2
  -8  -3  -9 263.112 347.526   2
   8   3   9-3.76642 128.102   1
   8  -3   9 737.019 497.164   1
  -8   3 -10 266.087 420.235   2
  -8  -3 -10 199.138 364.820   2
   8   3  10 1147.84 642.760   1
   8  -3  10 800.783 544.701   1
  -8   3 -11 2049.93 949.349   2
  -8  -3 -11 692.882 533.204   2
   8   3  11 1228.82 706.831   1
   8  -3  11 1333.74 579.279   1
  -8   3 -12-388.199 433.974   2
   8   3  12-400.272 411.117   1
   8  -3  12 136.797 242.506   1
  -8   3 -13-420.552 477.300   2
   8   3  13 77.6026 232.160   1
  -8  -3 -13-777.294 611.954   2
   8  -3  13 329.076 293.131   1
  -8   3 -14 161.567 322.470   2
   8   3  14 83.6548 253.679   1
  -8  -3 -14-402.018 457.611   2
   8  -3  14-352.548 395.482   1
   8   3  15-422.799 477.080   1
  -8   3 -15 179.308 342.413   2
  -8  -3 -15-34.4582 265.827   2
   8  -3  15 341.535 400.308   1
   8   3  16 469.689 513.949   1
   8  -3  16-143.241 291.766   1
   8   4 -15 549.283 574.153   4
   8  -4 -15 654.862 618.236   3
   8   4 -14 1822.45 854.433   4
   8   4 -14 1560.22 777.680   3
   8  -4 -14 3369.68 1310.94   3
   8   4 -13 1185.31 765.111   4
   8   4 -13 785.088 548.840   3
   8  -4 -13 1291.60 878.793   3
   8   4 -12-730.199 598.669   4
   8   4 -12-609.162 469.023   3
   8  -4 -12 820.973 658.222   3
   8   4 -11 724.596 635.107   4
   8   4 -11 912.134 476.405   3
   8  -4 -11 374.064 458.243   3
   8   4 -10-293.674 399.063   4
   8   4 -10-408.626 364.671   3
   8  -4 -10-292.747 392.075   3
   8   4  -9-12.5586 407.812   4
   8   4  -9-107.482 198.913   3
   8  -4  -9-91.2933 322.760   3
  -8   4   8 2187.43 706.116   2
   8   4  -8 3073.16 1105.66   4
   8   4  -8 2088.05 743.395   3
   8  -4  -8 3023.43 1078.50   3
  -8   4   7-397.888 326.221   2
   8   4  -7 238.982 463.977   4
   8   4  -7 46.0425 398.337   3
   8  -4  -7-279.205 415.399   3
  -8   4   6 10525.3 1620.92   2
   8   4  -6 10544.5 1938.12   4
   8   4  -6 7989.12 1400.84   3
   8  -4  -6 9967.03 1863.76   3
  -8   4   5 4627.73 1108.98   2
   8   4  -5 4640.57 1240.10   4
   8   4  -5 4378.08 930.911   1
   8   4  -5 2892.10 843.966   3
   8  -4  -5 4737.70 1318.90   3
  -8   4   4 5426.41 1196.64   2
   8  -4  -4 5949.13 1414.70   3
   8   4  -4 7739.43 1214.20   1
  -8   4   3 5540.93 1235.25   2
   8  -4  -3 3046.02 1046.97   3
   8   4  -3 4891.68 950.538   1
  -8   4   2 6430.32 1344.19   2
   8   4  -2 7292.79 1145.64   1
  -8  -4   2 7127.11 1576.58   2
   8  -4  -2 6536.53 1518.77   3
  -8   4   1 190.138 254.195   2
  -8  -4   1 623.892 645.845   2
   8   4  -1 163.717 119.466   1
  -8   4   0 1332.38 694.345   2
  -8  -4   0 2675.10 936.515   2
   8   4   0 1528.74 551.556   1
  -8   4  -1 7921.49 1582.25   2
  -8  -4  -1 8763.98 1738.23   2
   8   4   1 8009.35 1231.03   1
  -8   4  -2 6514.39 1458.06   2
   8   4   2 6252.89 1094.68   1
  -8  -4  -2 6615.24 1511.90   2
   8   4   3 5951.59 1108.60   1
  -8   4  -3 7731.48 1587.71   2
  -8  -4  -3 6552.60 1538.21   2
  -8   4  -4 11978.5 1986.49   2
  -8  -4  -4 13151.5 2180.68   2
   8   4   4 12255.1 1640.52   1
  -8   4  -5 4419.98 1214.96   2
  -8  -4  -5 2490.90 896.859   2
   8   4   5 3671.76 934.209   1
  -8  -4  -6 252.974 213.738   2
   8   4   6-215.490 176.405   1
  -8  -4  -7 2439.65 1017.41   2
   8   4   7 1636.83 659.581   1
  -8  -4  -8-412.105 430.146   2
   8   4   8 197.432 353.136   1
  -8  -4  -9 66.1057 400.953   2
   8   4   9-93.1048 256.637   1
  -8  -4 -10 1845.48 884.473   2
   8   4  10-178.855 270.975   1
  -8  -4 -11 189.177 268.341   2
   8  -4  11 286.326 247.632   1
   8   4  12-405.303 417.060   1
  -8  -4 -12 1263.24 721.374   2
   8   4  13 1472.94 748.994   1
  -8  -4 -13-1.42055 239.973   2
  -8   4 -14 1314.34 813.674   2
   8   4  14-235.038 353.495   1
  -8  -4 -14 913.617 665.730   2
  -8   4 -15-237.664 400.371   2
   8   4  15-108.571 285.172   1
  -8  -4 -15 358.068 528.201   2
   8   5 -15-875.011 709.128   4
   8  -5 -15 90.7621 628.705   3
   8   5 -14 1416.59 751.455   4
   8  -5 -14 1685.73 938.639   3
   8   5 -13 195.520 271.910   4
   8  -5 -13-141.332 310.548   3
   8   5 -12-1201.33 763.901   4
   8  -5 -12 677.587 615.490   3
   8   5 -11 783.357 713.397   4
   8   5 -11-722.260 474.209   3
   8  -5 -11 173.562 314.387   3
   8   5 -10 312.890 248.545   4
   8   5 -10 938.110 470.952   3
   8  -5 -10 306.776 393.212   3
   8   5  -9-163.069 197.441   4
   8   5  -9-559.562 397.966   3
   8  -5  -9 94.9064 562.150   3
  -8   5   8 1018.35 483.429   2
   8   5  -8 322.007 251.758   4
   8   5  -8 1146.25 524.092   3
   8  -5  -8 108.892 282.537   3
  -8   5   7 165.618 211.180   2
   8   5  -7 140.140 540.598   4
   8   5  -7 284.951 238.348   3
   8  -5  -7 80.9867 226.399   3
  -8   5   6 5.46469 306.270   2
   8   5  -6-31.5549 396.296   4
   8   5  -6-56.3521 143.944   3
   8  -5  -6-77.0333 365.639   3
  -8   5   5 215.367 205.273   2
   8  -5  -5 587.195 401.113   3
   8   5  -4-126.545 266.124   1
  -8   5   4 156.506 308.241   2
   8   5  -4 675.265 474.499   4
   8  -5  -4-49.2100 525.489   3
   8   5  -3 266.052 163.974   1
  -8   5   3 1369.06 642.549   2
   8   5  -3 753.327 518.155   4
   8  -5  -3 866.239 551.710   3
  -8   5   2 22039.0 2472.53   2
   8   5  -2 23188.5 2194.86   1
   8  -5  -2 27158.3 3060.48   3
  -8   5   1 33605.0 3103.40   2
  -8  -5   1 36474.8 3590.70   2
   8   5  -1 34121.6 2658.51   1
  -8   5   0 6910.96 1429.01   2
  -8  -5   0 6197.05 1491.06   2
   8   5   0 7576.40 1234.76   1
  -8   5  -1 4573.80 1193.22   2
  -8  -5  -1 3742.91 1208.82   2
   8   5   1 2397.16 711.639   1
  -8   5  -2 4533.93 1241.35   2
   8   5   2 7130.94 1252.72   1
  -8  -5  -2 6313.43 1483.45   2
   8   5   3 159.958 220.276   1
  -8  -5  -3 2.29136 244.884   2
   8   5   4 2.97348 296.080   1
  -8  -5  -4 108.940 248.549   2
  -8  -5  -5 2411.84 955.666   2
   8   5   5 1832.06 674.657   1
  -8  -5  -6 1009.25 601.022   2
   8   5   6 557.138 416.251   1
  -8  -5  -7-505.315 462.361   2
   8   5   7 550.844 391.173   1
  -8  -5  -8 233.763 340.649   2
   8   5   8-286.303 296.718   1
  -8  -5  -9 1024.73 569.524   2
   8   5   9 1801.59 796.736   1
  -8  -5 -10 604.794 619.124   2
   8   5  10-226.855 322.059   1
  -8  -5 -11 963.952 595.768   2
   8   5  11-380.112 409.662   1
  -8  -5 -12 433.769 450.287   2
   8   5  12 735.971 520.523   1
   8   5  13 707.136 526.341   1
  -8  -5 -13-635.525 550.146   2
   8   5  14-39.3032 193.842   1
  -8  -5 -14 133.079 303.240   2
   8   5  15 1621.88 888.625   1
   8   6 -14 252.392 414.369   4
   8  -6 -14-998.411 757.709   3
   8   6 -13 503.320 545.489   4
   8  -6 -13-92.9703 295.089   3
   8   6 -12 1445.44 877.560   4
   8  -6 -12 2488.89 1127.39   3
   8   6 -11 3357.70 1245.63   4
   8  -6 -11 2508.62 1110.39   3
   8   6 -10 2746.48 1081.84   4
   8  -6 -10 1809.86 915.067   3
   8   6  -9 148.013 347.276   4
   8  -6  -9 521.408 506.435   3
   8   6  -8 681.998 585.821   4
   8  -6  -8 361.647 215.268   3
  -8   6   7 252.512 302.408   2
   8   6  -7 14.4669 198.544   4
   8   6  -7-7.58631 85.8312   3
   8  -6  -7 207.013 460.797   3
  -8   6   6 222.076 190.782   2
   8   6  -6 797.537 558.466   4
   8   6  -6 934.854 430.072   3
   8  -6  -6 716.309 553.668   3
  -8   6   5 468.565 358.681   2
   8   6  -5 357.264 322.624   4
   8   6  -5 475.706 354.047   1
   8  -6  -5 661.412 405.220   3
  -8   6   4 2120.40 768.774   2
   8   6  -4 3350.23 900.311   1
   8   6  -4 3209.35 1069.34   4
   8  -6  -4 2668.41 991.459   3
  -8   6   3 2812.48 902.461   2
   8   6  -3 5685.55 1163.33   1
   8   6  -3 3647.45 1076.11   4
   8  -6  -3 4029.79 1263.27   3
  -8   6   2 4428.55 1123.56   2
   8   6  -2 6084.41 1398.93   4
   8   6  -2 4403.00 992.835   1
   8  -6  -2 5066.83 1370.87   3
  -8   6   1 465.757 353.931   2
   8   6  -1 234.842 300.293   1
  -8   6   0 5242.48 1230.47   2
   8   6   0 4214.56 1000.76   1
  -8  -6  -1 7915.34 1717.28   2
   8   6   1 7332.86 1295.90   1
  -8  -6  -2 1969.87 840.994   2
   8   6   2 2471.84 771.990   1
   8   6   3-78.7946 312.493   1
  -8  -6  -3-160.497 412.816   2
   8   6   4 7425.78 1387.27   1
  -8  -6  -4 8271.37 1801.87   2
   8   6   5 5420.07 1199.92   1
  -8  -6  -5 1873.70 820.206   2
  -8  -6  -6 2774.17 1012.16   2
   8   6   6 2542.10 819.914   1
  -8  -6  -7-1.26787 374.852   2
   8   6   7 203.919 250.162   1
  -8  -6  -8 449.324 318.286   2
   8   6   8 245.852 214.846   1
  -8  -6  -9-102.373 283.224   2
   8   6   9 635.906 636.359   1
  -8  -6 -10 729.262 574.911   2
   8   6  10 547.697 478.917   1
  -8  -6 -11-1173.02 721.989   2
   8   6  11 152.420 480.433   1
  -8  -6 -12-62.7804 461.005   2
   8   6  12-851.700 612.546   1
  -8  -6 -13 263.002 204.494   2
   8   6  13 1037.42 687.644   1
   8   6  14-260.556 399.872   1
  -8  -6 -14 795.526 625.028   2
   8   6  15 1619.37 909.178   1
   8   7 -14 1214.25 862.132   4
   8  -7 -14 2480.87 1203.08   3
   8   7 -13 139.198 448.008   4
   8  -7 -13-63.5595 264.131   3
   8   7 -12 757.722 541.294   4
   8  -7 -12 408.172 488.188   3
   8   7 -11-38.9086 228.232   4
   8  -7 -11-432.861 496.359   3
   8   7 -10 101.566 301.111   4
   8  -7 -10 656.704 675.641   3
   8   7  -9 1031.47 693.505   4
   8  -7  -9 1099.79 716.165   3
   8   7  -8 1405.05 826.598   4
   8  -7  -8 877.031 620.373   3
  -8   7   7 3121.55 857.621   2
   8   7  -7 4576.49 1353.87   4
   8  -7  -7 5147.74 1465.64   3
  -8   7   6 285.152 220.287   2
   8   7  -6 621.124 543.056   4
   8  -7  -6-86.1666 280.740   3
  -8   7   5 6250.48 1247.09   2
   8   7  -5 5160.88 1366.40   4
   8  -7  -5 7925.65 1796.00   3
   8   7  -5 4725.19 1126.04   1
  -8   7   4 296.538 319.856   2
   8   7  -4 34.7468 220.150   1
   8   7  -4 146.513 259.060   4
   8  -7  -4 129.650 347.793   3
  -8   7   3 408.144 346.033   2
   8   7  -3-16.5793 221.321   1
   8   7  -3 73.4678 309.894   4
   8  -7  -3 109.254 428.442   3
  -8   7   2 512.073 419.530   2
   8   7  -2 750.264 562.294   4
   8  -7  -2 224.177 321.723   3
   8   7  -2 469.188 280.137   1
  -8   7   1 1029.66 600.504   2
   8   7  -1 64.3069 278.308   1
   8   7   0 8868.34 1520.92   1
   8   7   1 1176.75 595.150   1
   8   7   2 3634.34 972.328   1
   8   7   3 189.389 214.840   1
  -8  -7  -3 18.7150 248.165   2
   8   7   4-499.017 402.259   1
  -8  -7  -4-543.041 485.014   2
   8   7   5-164.119 415.366   1
  -8  -7  -5 24.3010 253.402   2
  -8  -7  -6 230.862 350.024   2
   8   7   6 313.907 348.995   1
  -8  -7  -7-141.987 301.516   2
   8   7   7 1206.35 672.159   1
  -8  -7  -8 84.0021 258.162   2
   8   7   8 88.5012 270.239   1
  -8  -7  -9-300.713 395.769   2
   8   7   9-406.695 407.602   1
  -8  -7 -10 2334.13 1025.68   2
   8   7  10 164.850 278.026   1
  -8  -7 -11 1194.84 790.308   2
   8   7  11 1107.74 731.389   1
   8   7  12 2582.12 1031.29   1
  -8  -7 -12 1543.78 896.186   2
  -8  -7 -13-322.705 424.215   2
   8   7  13-1043.62 711.687   1
   8   7  14 130.335 526.775   1
   8   8 -13 129.443 367.470   4
   8  -8 -13 660.781 642.117   3
   8   8 -12 190.518 392.691   4
   8  -8 -12 1298.76 904.580   3
   8   8 -11 1699.42 992.501   4
   8  -8 -11 17.8861 239.331   3
   8   8 -10 1072.04 709.876   4
   8  -8 -10 915.700 626.334   3
   8   8  -9 2121.56 1011.07   4
   8  -8  -9 466.514 394.180   3
   8   8  -8 1232.64 691.262   4
   8  -8  -8-58.8744 226.090   3
   8   8  -7 2852.31 1057.23   4
   8  -8  -7 540.994 403.846   3
  -8   8   6 191.452 185.149   2
   8   8  -6 46.5920 315.796   4
   8  -8  -6-222.427 360.710   3
  -8   8   5-401.978 334.406   2
   8   8  -5-46.0054 307.443   1
   8   8  -5-566.126 485.102   4
   8  -8  -5 216.646 366.941   3
  -8   8   4 245.083 161.359   2
   8   8  -4 326.720 504.349   1
   8   8  -4-143.755 313.454   4
   8  -8  -4-634.166 525.680   3
  -8   8   3 215.739 182.518   2
   8   8  -3 392.268 322.360   1
   8   8  -3-41.5636 279.074   4
   8  -8  -3 108.952 298.358   3
  -8   8   2 4139.76 1086.62   2
   8   8  -2 3010.08 975.642   4
   8  -8  -2 4793.72 1359.27   3
   8   8  -2 4708.20 1159.11   1
   8   8  -1 5980.90 1290.25   1
   8   8  -1 3197.56 995.231   4
   8   8   0 8689.36 1552.22   1
   8   8   1-42.2809 254.540   1
   8   8   2 11044.1 1780.14   1
   8   8   3 490.179 438.117   1
   8   8   4 3556.26 1038.19   1
   8   8   5 524.763 413.269   1
   8   8   6 161.961 353.969   1
  -8  -8  -6 1770.51 824.247   2
  -8  -8  -7 1221.30 662.658   2
   8   8   7 1026.55 616.710   1
  -8  -8  -8 1717.34 865.039   2
   8   8   8 4225.87 1225.69   1
  -8  -8  -9 153.273 299.968   2
   8   8   9 971.591 601.151   1
  -8  -8 -10 1463.35 832.497   2
   8   8  10 2640.11 1059.68   1
  -8  -8 -11-93.3551 263.693   2
   8   8  11-243.911 354.393   1
  -8  -8 -12 741.573 606.827   2
   8   8  12-408.238 460.958   1
  -8  -8 -13 905.098 635.763   2
   8   8  13 76.8693 432.771   1
   8   9 -12-62.4563 240.965   4
   8  -9 -12 339.483 525.207   3
   8   9 -11-317.914 436.286   4
   8  -9 -11 1136.28 831.102   3
   8   9 -10 9.25539 206.225   4
   8  -9 -10 14.5498 403.573   3
   8   9  -9 575.623 527.445   4
   8  -9  -9 399.960 595.271   3
   8   9  -8 4681.98 1436.14   4
   8  -9  -8 2181.35 985.650   3
   8   9  -7 432.504 504.173   4
   8  -9  -7 288.812 543.095   3
   8   9  -6 1703.40 836.208   4
   8  -9  -6 889.682 717.461   3
  -8   9   5 71.0628 165.037   2
   8   9  -5-176.461 302.960   4
   8  -9  -5-62.2720 219.206   3
   8   9  -5-387.431 379.015   1
  -8   9   4 1986.02 744.674   2
   8   9  -4 876.763 585.485   1
   8   9  -4 3433.02 1141.01   4
   8  -9  -4 1349.49 675.420   3
  -8   9   3 241.654 287.842   2
   8   9  -3-652.364 472.248   1
   8   9  -3 105.234 314.669   4
   8  -9  -3 651.347 604.485   3
   8   9  -2 2326.42 911.193   4
   8  -9  -2 3328.32 1134.52   3
   8   9  -2 2637.64 914.551   1
   8   9  -1 204.391 299.420   1
   8   9  -1 105.290 326.694   4
   8   9   0 1864.92 806.346   1
   8   9   0 351.959 300.947   4
   8   9   1 2757.92 924.572   1
   8   9   2 409.012 287.320   1
   8   9   3 1137.28 587.522   1
   8   9   4 1705.41 743.955   1
   8   9   5 2572.04 923.932   1
   8   9   6 8768.44 1748.54   1
   8   9   7 3309.80 1137.75   1
   8   9   8 1207.94 688.609   1
   8   9   9 384.259 364.581   1
   8   9  10 45.7679 197.702   1
   8   9  11 1998.13 946.141   1
   8   9  12 350.184 404.863   1
   8   9  13 1112.65 757.633   1
   8  10 -11 3703.91 1347.50   4
   8 -10 -11 2683.42 1250.33   3
   8  10 -10 1989.67 981.064   4
   8 -10 -10 2620.12 1159.96   3
   8  10  -9-1159.09 758.486   4
   8 -10  -9 517.653 186.197   3
   8  10  -8 4547.62 1514.16   4
   8 -10  -8 3364.15 1296.08   3
   8  10  -7 2229.16 1048.39   4
   8 -10  -7 954.390 469.471   3
   8  10  -6 346.874 438.915   4
   8 -10  -6 14.5133 203.612   3
  -8  10   5 269.015 276.555   2
   8  10  -5 1368.93 706.688   1
   8  10  -5 516.760 473.563   4
   8 -10  -5 1368.45 760.162   3
  -8  10   4 427.203 360.094   2
   8  10  -4 133.233 350.397   1
   8  10  -4 231.310 274.838   4
   8 -10  -4 431.875 516.737   3
   8  10  -3-555.034 456.870   1
   8  10  -3 1010.55 631.199   4
   8 -10  -3 605.164 273.600   3
   8  10  -2 667.103 462.937   4
   8 -10  -2 488.796 493.049   3
   8  10  -2 1052.32 545.227   1
   8  10  -1 83.0003 178.587   4
   8  10  -1 228.072 349.166   1
   8  10   0 141.402 256.553   1
   8  10   0 491.493 396.009   4
   8  10   1 213.914 269.331   1
   8  10   2 115.820 291.028   1
   8  10   3 945.102 583.738   1
   8  10   4-583.587 486.643   1
   8  10   5 634.915 490.704   1
   8  10   6 219.350 343.919   1
   8  10   7 424.636 478.571   1
   8  10   8 1540.59 795.042   1
   8  10   9 1079.82 726.641   1
   8  10  10 879.580 682.277   1
   8  10  11-108.795 308.822   1
   8  10  12 2231.93 984.711   1
   8  11 -10-46.5787 256.454   4
   8 -11 -10 489.231 537.269   3
   8  11  -9-112.450 276.042   4
   8 -11  -9 646.079 697.171   3
   8  11  -8 199.819 207.004   4
   8 -11  -8 346.642 435.316   3
   8  11  -7 792.162 620.266   4
   8 -11  -7 126.045 304.644   3
   8  11  -6-107.067 346.113   4
   8 -11  -6 382.648 595.746   3
   8  11  -5 1016.01 639.478   4
   8 -11  -5 1422.33 832.833   3
   8  11  -5 1046.74 614.482   1
   8  11  -4-127.323 160.903   4
   8  11  -4 133.697 258.276   1
   8  11  -3-365.663 392.700   1
   8  11  -3 282.268 360.984   4
   8 -11  -3 153.521 257.667   3
   8  11  -2 2958.63 1026.55   4
   8 -11  -2 1804.71 947.727   3
   8  11  -2 1866.47 830.003   1
   8  11  -1-390.463 376.987   4
   8  11  -1-154.298 279.909   1
   8  11   0-187.915 374.938   1
   8  11   0 93.8688 255.801   4
   8  11   1 1757.72 920.124   1
   8  11   1 1458.37 709.230   4
   8  11   2 1030.59 640.631   1
   8  11   3 619.448 496.832   1
   8  11   4 2819.03 1063.18   1
   8  11   5-308.667 583.613   1
   8  11   6 1732.74 854.953   1
   8  11   7 257.258 471.845   1
   8  11   8 589.210 519.895   1
   8  11   9-310.413 396.427   1
   8  11  10 252.600 337.401   1
   8  11  11 505.231 451.611   1
   8  12 -10 2786.05 1302.36   4
   8  12  -9 100.623 378.297   4
   8 -12  -9 65.6165 265.890   3
   8  12  -8 490.422 515.748   4
   8 -12  -8 308.728 375.908   3
   8  12  -7-54.0207 334.488   4
   8 -12  -7-388.222 472.202   3
   8  12  -6-32.5946 193.016   1
   8  12  -6 287.367 380.050   4
   8 -12  -6-557.928 556.366   3
   8  12  -5 65.0139 225.124   1
   8 -12  -5 203.725 531.887   3
   8  12  -4 352.137 351.380   4
   8 -12  -4 507.710 466.002   3
   8  12  -4 435.716 547.558   1
   8  12  -3-1026.81 658.965   1
   8  12  -3-390.574 408.793   4
   8 -12  -3-678.177 568.376   3
   8  12  -2 752.539 530.676   4
   8  12  -2-866.519 611.853   1
   8  12  -1 448.165 441.882   4
   8  12  -1-47.3346 323.905   1
   8  12   0 5761.92 1541.28   1
   8  12   0 4043.01 1153.35   4
   8  12   1 1805.44 870.297   1
   8  12   1 792.507 488.707   4
   8  12   2 536.331 489.535   1
   8  12   3-562.400 506.651   1
   8  12   4 792.439 591.646   1
   8  12   5 267.461 363.144   1
   8  12   6-130.238 317.279   1
   8  12   7 286.964 218.879   1
   8  12   8 1786.08 948.486   1
   8  12   9 1770.66 861.036   1
   8  12  10 1518.09 904.299   1
   8  13  -9 2226.12 1085.32   4
   8  13  -8 900.782 699.304   4
   8 -13  -8 1532.40 957.359   3
   8  13  -7-20.3435 165.888   4
   8 -13  -7-828.750 692.861   3
   8  13  -6 1000.96 697.535   1
   8  13  -6 1394.59 838.064   4
   8 -13  -6 799.685 610.607   3
   8  13  -5 489.417 475.133   1
   8  13  -5-429.310 461.623   4
   8 -13  -5 632.364 745.603   3
   8  13  -4 298.556 384.041   4
   8  13  -4-126.044 416.998   1
   8 -13  -4 622.913 553.579   3
   8  13  -3-561.269 517.430   1
   8  13  -3-163.703 294.330   4
   8  13  -2 407.016 406.295   4
   8  13  -2-541.134 506.161   1
   8  13  -1 274.088 447.912   1
   8  13  -1-442.609 418.705   4
   8  13   0 1500.27 851.183   1
   8  13   0-198.752 275.714   4
   8  13   1 327.804 413.446   1
   8  13   2 679.717 567.288   1
   8  13   3 224.446 254.462   1
   8  13   4 1416.36 714.182   1
   8  13   5 266.651 389.709   1
   8  13   6-243.326 391.333   1
   8  13   7 1704.47 905.403   1
   8  13   8 229.142 471.275   1
   8  14  -8-807.829 670.852   4
   8  14  -7 1260.36 791.130   4
   8  14  -7 932.004 741.193   1
   8 -14  -7 1259.84 872.607   3
   8  14  -6 478.415 510.996   4
   8 -14  -6 69.0641 271.160   3
   8  14  -6 271.819 420.307   1
   8  14  -5 1.47594 857.385   4
   8 -14  -5 282.141 439.156   3
   8  14  -5 1172.62 840.681   1
   8  14  -4 459.815 593.697   1
   8  14  -4-391.280 430.834   4
   8 -14  -4-1127.43 776.545   3
   8  14  -3 356.665 449.286   1
   8  14  -3 387.679 411.470   4
   8 -14  -3 998.966 665.495   3
   8  14  -2 328.148 383.866   4
   8  14  -2 1487.86 841.809   1
   8  14  -1 2199.96 1044.18   1
   8  14  -1 2130.59 888.323   4
   8  14   0 244.060 334.975   1
   8  14   1-631.806 567.525   1
   8  14   2 264.912 369.982   1
   8  14   3 263.875 397.112   1
   8  14   4 255.600 479.440   1
   8  14   5-257.284 380.409   1
   8  14   6 131.073 304.625   1
   8  14   7 570.942 546.487   1
   8  15  -6 443.744 523.235   1
   8  15  -6 1.61488 778.827   4
   8  15  -5 1684.70 866.112   4
   8 -15  -5 1221.14 812.930   3
   8  15  -5 778.967 646.684   1
   8  15  -4-1387.60 851.736   1
   8  15  -4-274.134 378.294   4
   8 -15  -4-470.640 539.485   3
   8  15  -3 1082.94 774.210   4
   8  15  -3 499.121 532.671   1
   8  15  -2 112.645 257.652   4
   8  15  -2 70.4310 257.079   1
   8  15  -1 982.163 675.131   1
   8  15   0 31.0059 201.188   1
   8  15   1-396.698 470.204   1
   8  15   2 1137.72 773.041   1
   8  15   3 1025.15 752.658   1
   8  15   4 135.642 328.415   1
   8  16  -5 695.390 606.737   4
   8  16  -4 610.662 737.676   4
   9   0 -16 1287.74 828.748   3
   9   0 -15-1.61772 477.956   3
   9   0 -14 1781.76 914.518   3
   9   0 -13-690.035 570.966   3
   9   0 -12-394.126 453.738   3
   9   0 -11 496.204 580.130   3
   9   0 -10 2058.39 862.560   3
   9   0  -9 1134.68 549.249   3
   9   0  -8 8580.73 1775.20   3
   9   0  -7-342.237 549.168   3
  -9   0   6 624.575 434.363   2
   9   0  -6 8.59583 378.665   3
  -9   0   5-274.794 331.265   2
   9   0  -5-998.889 589.694   3
  -9   0   4 4279.55 1175.41   2
   9   0  -4 7095.98 1522.65   3
  -9   0   3-673.150 490.553   2
  -9   0   2 6271.05 1452.48   2
  -9   0   1 132.211 330.825   2
  -9   0   0 12046.3 2068.54   2
  -9   0  -1-1211.05 681.596   2
  -9   0  -2 614.781 497.184   2
  -9   0  -3-164.919 400.972   2
  -9   0  -4 11219.2 2096.40   2
  -9   0  -5-17.3401 281.258   2
  -9   0  -6 1799.94 796.023   2
  -9   0  -7 201.140 430.149   2
  -9   0  -8 1317.53 789.524   2
  -9   0  -9-613.676 537.739   2
  -9   0 -10 573.721 490.874   2
  -9   0 -11-338.516 415.111   2
  -9   0 -12 1373.28 907.591   2
  -9   0 -13-135.741 317.868   2
  -9   0 -14 1623.40 916.967   2
   9   1 -16 477.781 508.279   3
   9   1 -15-367.322 463.479   3
   9  -1 -15 964.876 718.409   3
   9   1 -14 1102.04 780.625   3
   9  -1 -14 1619.46 918.726   3
   9   1 -13 472.131 476.934   3
   9  -1 -13-25.7578 216.881   3
   9   1 -12 619.351 692.938   3
   9  -1 -12 2763.09 1100.25   3
   9   1 -11-320.900 377.330   3
   9  -1 -11 367.805 414.435   3
   9   1 -10 3932.83 1243.01   3
   9  -1 -10 3901.03 1251.28   3
   9   1  -9 575.633 519.384   3
   9  -1  -9 1121.25 678.650   3
   9   1  -8 1706.16 775.753   3
   9  -1  -8 1356.82 726.479   3
  -9   1   7 381.753 298.877   2
   9   1  -7 37.3248 314.111   3
   9  -1  -7-165.384 413.687   3
  -9   1   6 1523.95 662.142   2
   9   1  -6 690.637 513.791   3
   9  -1  -6 1647.85 660.208   3
  -9   1   5 135.899 186.351   2
  -9  -1   5 132.496 297.647   2
   9   1  -5 814.530 506.566   3
   9  -1  -5 148.662 256.515   3
  -9   1   4 3721.63 1106.79   2
  -9  -1   4 2900.64 973.869   2
   9   1  -4 3349.02 1030.00   3
   9  -1  -4 2241.51 832.940   3
  -9   1   3 507.019 461.184   2
  -9  -1   3 788.017 523.850   2
  -9   1   2-625.805 470.917   2
  -9  -1   2 24.5517 179.742   2
  -9   1   1-171.421 291.150   2
  -9  -1   1-22.5858 381.888   2
  -9   1   0 5107.72 1314.39   2
  -9  -1   0 2018.03 860.855   2
  -9   1  -1 20.2307 239.614   2
  -9  -1  -1 75.3627 177.378   2
  -9   1  -2 6623.20 1547.93   2
  -9  -1  -2 7924.61 1747.28   2
  -9   1  -3 1689.31 791.520   2
  -9  -1  -3 142.947 246.680   2
  -9   1  -4 6319.17 1555.80   2
  -9  -1  -4 7355.61 1693.02   2
  -9   1  -5-600.046 499.408   2
  -9  -1  -5 1229.67 740.058   2
  -9   1  -6 3289.73 1158.66   2
  -9  -1  -6 5855.99 1613.25   2
  -9   1  -7-448.497 446.002   2
  -9  -1  -7 753.424 592.897   2
  -9   1  -8 4359.00 1344.10   2
  -9  -1  -8 2951.61 1147.30   2
   9   1   9 1211.73 592.646   1
  -9   1  -9 537.375 576.041   2
  -9  -1  -9 292.539 328.264   2
   9   1  10 216.712 281.833   1
  -9   1 -10 484.421 482.671   2
  -9  -1 -10 293.108 395.970   2
   9   1  11-859.075 551.655   1
  -9   1 -11-1155.41 747.472   2
  -9  -1 -11 315.789 311.814   2
   9   1  12 821.392 501.163   1
  -9  -1 -12 657.943 434.367   2
  -9   1 -13 105.656 318.667   2
  -9  -1 -13 647.399 591.311   2
  -9   1 -14-1.63726 222.086   2
  -9  -1 -14-550.319 553.578   2
   9   2 -15-614.750 558.188   3
   9  -2 -15 576.869 568.211   3
   9   2 -14 3169.92 1255.90   4
   9   2 -14 1404.64 755.085   3
   9  -2 -14 2361.93 1145.10   3
   9   2 -13 299.562 506.440   3
   9  -2 -13 490.864 521.372   3
   9   2 -12-741.843 555.831   3
   9  -2 -12 745.309 607.491   3
   9   2 -11 336.440 159.484   3
   9  -2 -11 12.8599 163.805   3
   9   2 -10 131.951 204.515   3
   9  -2 -10-39.5640 308.521   3
   9   2  -9 1272.32 562.473   3
   9  -2  -9 96.5649 195.947   3
   9   2  -8 11981.7 2002.11   3
   9  -2  -8 8970.66 1881.41   3
  -9   2   7 3198.27 1004.82   2
   9   2  -7 3058.23 962.992   3
   9  -2  -7 3547.53 1177.87   3
  -9   2   6 3797.29 1081.94   2
   9   2  -6 3932.20 1106.87   3
   9  -2  -6 4022.47 1249.27   3
  -9   2   5 924.947 557.472   2
   9   2  -5 253.029 342.583   3
   9  -2  -5 168.522 288.607   3
  -9   2   4 279.575 321.494   2
  -9  -2   4-504.469 457.496   2
   9  -2  -4 91.0775 313.189   3
  -9   2   3 1511.54 706.921   2
  -9  -2   3 1388.80 705.861   2
   9  -2  -3 2195.53 954.335   3
  -9   2   2 1808.49 797.363   2
  -9  -2   2 1862.61 807.996   2
  -9   2   1-43.7753 237.209   2
  -9  -2   1-964.069 616.849   2
  -9   2   0 2926.58 998.830   2
  -9  -2   0 2881.22 1059.33   2
  -9   2  -1 2952.03 1037.19   2
  -9  -2  -1 1085.79 703.935   2
  -9   2  -2 190.102 362.575   2
  -9  -2  -2 275.951 223.368   2
  -9   2  -3-12.7546 291.711   2
  -9  -2  -3-95.5713 426.950   2
  -9   2  -4 2345.43 945.123   2
  -9  -2  -4 2686.50 1068.25   2
  -9   2  -5 1669.36 800.984   2
  -9  -2  -5 3137.87 1156.53   2
   9   2   5 2298.57 689.101   1
  -9  -2  -6-158.807 298.802   2
   9   2   6-1.45879 89.8169   1
  -9   2  -7 926.944 710.076   2
  -9  -2  -7 861.022 593.173   2
   9   2   7 598.820 403.188   1
  -9   2  -8 245.998 299.812   2
  -9  -2  -8-76.8596 246.116   2
   9   2   8 75.4001 233.541   1
  -9   2  -9-179.193 240.227   2
   9   2   9 465.287 414.352   1
  -9  -2  -9-80.5108 219.807   2
  -9   2 -10 2385.27 1055.44   2
   9   2  10 407.216 393.268   1
  -9  -2 -10 1262.66 774.973   2
   9   2  11 107.844 301.587   1
  -9   2 -11 126.529 316.920   2
   9   2  12-63.7675 208.566   1
  -9   2 -12 778.347 634.861   2
  -9  -2 -12 325.531 428.435   2
   9   2  13 1220.28 733.921   1
  -9   2 -13 803.554 659.014   2
  -9  -2 -13 621.617 525.997   2
   9   2  14-189.238 325.943   1
  -9  -2 -14 441.003 481.429   2
   9   3 -14-132.297 334.118   4
   9  -3 -14 1677.58 1005.56   3
   9   3 -13 1359.41 775.258   4
   9   3 -13 137.835 269.352   3
   9  -3 -13 556.445 557.734   3
   9   3 -12 2632.28 1115.51   4
   9   3 -12 1690.55 818.269   3
   9  -3 -12 4401.42 1462.03   3
   9   3 -11 255.864 315.856   4
   9   3 -11-38.4025 185.588   3
   9   3 -10 899.756 592.618   4
   9   3 -10 409.805 202.854   3
   9  -3 -10 540.758 491.774   3
   9   3  -9 743.583 486.136   3
   9  -3  -9-73.1825 273.472   3
  -9   3   8-35.7179 138.615   2
   9   3  -8 286.582 328.300   3
   9  -3  -8-36.5058 317.408   3
  -9   3   7-204.168 275.695   2
   9   3  -7 121.298 217.370   3
   9  -3  -7 25.2352 170.633   3
  -9   3   6 738.209 535.517   2
   9   3  -6-498.232 400.896   3
   9  -3  -6 707.486 418.988   3
  -9   3   5 2686.16 903.996   2
   9   3  -5 2264.75 810.972   3
   9  -3  -5 1210.95 599.329   3
  -9   3   4 5636.46 1318.56   2
   9  -3  -4 8177.84 1758.54   3
  -9   3   3 11014.6 1875.92   2
  -9  -3   3 9548.68 1883.01   2
   9  -3  -3 13971.0 2248.45   3
  -9   3   2 1014.81 632.648   2
  -9  -3   2 315.285 546.250   2
  -9   3   1 5190.77 1312.77   2
  -9  -3   1 2341.59 942.459   2
  -9   3   0 7724.68 1657.69   2
  -9  -3   0 8261.01 1779.06   2
  -9   3  -1 1258.26 630.105   2
  -9  -3  -1 1029.96 612.347   2
  -9   3  -2 12915.8 2157.35   2
  -9  -3  -2 12816.1 2235.02   2
   9   3   2 10032.2 1353.92   1
  -9   3  -3-114.634 287.989   2
  -9  -3  -3 816.115 642.755   2
   9   3   3 575.008 400.567   1
  -9   3  -4 3970.50 1189.92   2
  -9  -3  -4 2996.53 1160.23   2
   9   3   4 2331.58 720.197   1
  -9   3  -5-185.902 323.329   2
   9   3   5 60.8752 171.280   1
  -9   3  -6-30.5134 191.743   2
  -9  -3  -6 31.8952 289.816   2
   9   3   6 96.0474 140.400   1
  -9   3  -7 963.902 741.640   2
  -9  -3  -7 566.950 308.577   2
   9   3   7 1131.67 585.749   1
  -9   3  -8 126.401 290.725   2
  -9  -3  -8 55.6088 314.511   2
   9   3   8 92.7069 210.943   1
  -9   3  -9 1206.13 685.194   2
  -9  -3  -9 1562.50 723.241   2
   9   3   9 174.235 258.440   1
  -9   3 -10-421.192 380.176   2
   9   3  10 330.247 434.262   1
  -9  -3 -10-951.521 678.256   2
  -9   3 -11 990.894 754.624   2
   9   3  11 290.040 352.860   1
  -9  -3 -11 15.1043 184.104   2
  -9   3 -12 23.4763 196.070   2
   9   3  12 4.94780 286.086   1
   9   3  13 467.757 457.533   1
  -9   3 -13 595.033 570.839   2
  -9  -3 -13 418.868 669.015   2
   9   3  14 938.525 633.410   1
  -9  -3 -14 734.883 628.750   2
   9  -4 -14 282.686 419.665   3
   9   4 -13 1023.62 742.054   4
   9  -4 -13-731.120 648.216   3
   9   4 -12 437.160 497.092   4
   9  -4 -12-303.213 429.056   3
   9   4 -11-270.224 311.860   3
   9  -4 -11-891.727 664.846   3
   9   4 -10 1113.58 733.704   4
   9   4 -10 445.332 411.769   3
   9  -4 -10 922.053 667.021   3
   9   4  -9 164.777 337.166   4
   9   4  -9-162.731 262.270   3
   9  -4  -9 292.624 383.656   3
   9   4  -8 4298.03 1340.01   4
   9   4  -8 2655.56 898.534   3
   9  -4  -8 4239.42 1377.93   3
  -9   4   7-520.715 401.000   2
   9   4  -7 972.575 787.262   4
   9   4  -7 391.192 347.887   3
   9  -4  -7 1280.11 756.855   3
  -9   4   6 1747.23 745.657   2
   9   4  -6 934.978 527.087   3
   9  -4  -6 621.367 452.588   3
  -9   4   5 733.755 532.676   2
   9  -4  -5 4381.29 1309.52   3
  -9   4   4 54.1399 240.864   2
   9  -4  -4 404.682 263.200   3
  -9   4   3 2936.37 1019.17   2
   9  -4  -3 4287.12 1299.46   3
  -9   4   2 2388.92 884.459   2
  -9  -4   2 1511.40 821.113   2
   9   4  -1 10071.0 1393.07   1
  -9   4   1 9841.62 1840.19   2
  -9  -4   1 9872.70 1969.49   2
  -9   4   0 174.931 249.910   2
   9   4   0-207.800 241.680   1
  -9   4  -1 858.776 614.688   2
   9   4   1 73.8719 222.231   1
  -9  -4  -1 261.875 249.338   2
   9   4   2 362.382 317.935   1
  -9   4  -2 890.825 583.776   2
  -9  -4  -2 300.554 393.757   2
  -9   4  -3 244.380 433.024   2
  -9  -4  -3-324.977 388.168   2
   9   4   3-554.098 355.449   1
  -9   4  -4 4830.93 1363.86   2
  -9  -4  -4 3152.60 1129.99   2
   9   4   4 3347.74 896.184   1
  -9   4  -5 111.854 242.334   2
  -9  -4  -5-718.878 566.254   2
   9   4   5-748.076 439.225   1
  -9   4  -6 37.1425 197.385   2
  -9  -4  -6-583.149 532.748   2
   9   4   6 581.601 451.282   1
  -9   4  -7 1152.21 714.871   2
  -9  -4  -7 720.499 663.599   2
   9   4   7 896.478 535.740   1
  -9   4  -8 43.7575 432.185   2
  -9  -4  -8-284.945 386.917   2
   9   4   8-573.057 426.936   1
  -9   4  -9 877.076 633.333   2
  -9  -4  -9 898.041 592.559   2
   9   4   9 568.448 448.103   1
  -9   4 -10 754.892 584.292   2
  -9  -4 -10 525.568 610.243   2
   9   4  10 608.461 394.376   1
   9   4  11-713.298 535.090   1
  -9  -4 -11 226.249 364.673   2
  -9   4 -12 194.137 375.087   2
   9   4  12 806.636 568.208   1
  -9  -4 -12 649.970 580.224   2
  -9   4 -13 855.968 643.462   2
   9   4  13-186.832 318.180   1
  -9  -4 -13 309.542 651.526   2
   9   4  14 155.488 315.722   1
  -9  -4 -14-1.65478 201.494   2
   9   5 -13 1881.29 981.588   4
   9  -5 -13 1421.68 992.351   3
   9   5 -12 528.254 474.103   4
   9  -5 -12 611.030 606.537   3
   9   5 -11 1044.96 742.682   4
   9  -5 -11-211.476 382.825   3
   9   5 -10 4227.44 1420.57   4
   9  -5 -10 2979.50 1205.98   3
   9   5  -9 559.870 553.248   4
   9  -5  -9-39.4214 214.798   3
   9   5  -8 3647.40 1232.73   4
   9   5  -8 1349.15 617.413   3
   9  -5  -8 2842.94 1141.43   3
  -9   5   7-260.986 282.394   2
   9   5  -7 718.003 563.612   4
   9   5  -7 127.612 415.891   3
   9  -5  -7 1219.88 792.849   3
  -9   5   6 1964.27 772.162   2
   9   5  -6 4383.13 1320.73   4
   9  -5  -6 2227.30 927.794   3
  -9   5   5 1080.99 559.022   2
   9  -5  -5 3370.93 1202.64   3
  -9   5   4 4027.36 1114.75   2
   9  -5  -4 5004.29 1382.76   3
  -9   5   3 7551.63 1548.09   2
   9   5  -3 5782.37 1100.12   1
   9  -5  -3 6424.83 1602.06   3
   9   5  -2 7286.25 1244.17   1
  -9   5   2 8171.67 1627.22   2
  -9   5   1 547.288 409.917   2
  -9  -5   1 1247.72 763.933   2
   9   5  -1 92.9153 243.516   1
  -9   5   0 7263.79 1577.92   2
  -9  -5   0 4919.52 1411.45   2
   9   5   0 4143.54 948.450   1
  -9   5  -1 334.113 395.734   2
   9   5   1 666.525 384.706   1
  -9  -5  -1 688.230 581.369   2
  -9   5  -2 1277.84 668.511   2
   9   5   2 177.549 283.382   1
  -9  -5  -2 422.620 429.012   2
   9   5   3 783.258 417.552   1
  -9   5  -3 137.958 351.543   2
  -9  -5  -3 941.331 681.573   2
  -9   5  -4 13.3587 232.506   2
  -9  -5  -4 193.717 331.604   2
   9   5   4-61.8043 302.176   1
  -9   5  -5-359.413 413.663   2
   9   5   5-50.5349 204.591   1
  -9   5  -6 299.536 477.279   2
  -9  -5  -6-363.613 401.946   2
   9   5   6-257.504 290.327   1
  -9   5  -7 260.245 358.958   2
  -9  -5  -7-197.827 339.712   2
   9   5   7 333.007 381.555   1
  -9   5  -8 387.882 439.495   2
  -9  -5  -8 352.749 434.388   2
   9   5   8-243.601 308.188   1
  -9   5  -9-46.1219 228.782   2
  -9  -5  -9 561.595 576.421   2
   9   5   9-189.143 281.372   1
  -9   5 -10-958.029 684.402   2
  -9  -5 -10-1016.52 704.583   2
   9   5  10-89.5371 229.660   1
  -9   5 -11-30.9998 233.208   2
  -9  -5 -11 634.396 597.446   2
   9   5  11 1125.46 734.732   1
  -9   5 -12 81.9752 257.987   2
   9   5  12 312.215 417.217   1
  -9  -5 -12 350.620 486.044   2
   9   5  13-105.579 277.035   1
  -9  -5 -13 185.101 370.494   2
   9   5  14 1566.10 874.179   1
  -9  -5 -14 1253.35 709.354   2
   9   6 -12 237.572 409.411   4
   9  -6 -12-468.970 513.729   3
   9   6 -11 2482.68 1123.75   4
   9  -6 -11 3636.14 1367.89   3
   9   6 -10 258.296 343.394   4
   9  -6 -10 239.940 396.278   3
   9   6  -9 530.036 533.192   4
   9  -6  -9 784.809 647.960   3
   9   6  -8 231.522 251.145   4
   9  -6  -8 1782.20 896.919   3
   9   6  -7-16.0727 180.846   4
   9  -6  -7 220.929 191.499   3
  -9   6   6 124.412 230.512   2
   9   6  -6 189.424 324.902   4
   9  -6  -6 391.367 489.114   3
  -9   6   5-122.353 387.141   2
   9   6  -5-23.5685 228.335   4
   9   6  -5 125.352 138.048   1
   9  -6  -5-372.234 432.899   3
  -9   6   4 679.921 465.798   2
   9  -6  -4 353.850 585.135   3
   9   6  -4 179.097 260.431   1
  -9   6   3 24.0614 223.008   2
   9   6  -3-142.246 257.317   1
  -9   6   2 2787.63 963.028   2
   9   6  -2 2768.58 827.191   1
  -9   6   1 3579.03 1106.84   2
   9   6  -1 1526.41 608.261   1
  -9   6   0 8162.16 1691.76   2
   9   6   0 8627.00 1457.57   1
  -9   6  -1 5069.05 1334.48   2
  -9  -6  -1 7332.46 1789.48   2
   9   6   1 4779.46 1084.68   1
  -9   6  -2 288.648 314.743   2
   9   6   2 529.099 407.572   1
  -9  -6  -2 302.427 425.932   2
  -9   6  -3 1170.31 723.723   2
  -9  -6  -3 492.154 448.648   2
   9   6   4 291.616 375.437   1
  -9   6  -4 87.7482 375.068   2
  -9  -6  -4 727.414 611.339   2
  -9  -6  -5 231.730 373.382   2
   9   6   5 291.725 432.848   1
  -9  -6  -6 775.673 529.741   2
   9   6   6 900.794 542.005   1
  -9  -6  -7 385.903 377.102   2
   9   6   7-17.3595 184.128   1
  -9  -6  -8 874.877 666.438   2
   9   6   8 1607.27 826.921   1
  -9  -6  -9 359.080 321.255   2
   9   6   9 561.483 482.963   1
  -9  -6 -10-251.375 391.826   2
   9   6  10 940.468 650.977   1
  -9  -6 -11-320.153 425.157   2
   9   6  11 707.610 558.297   1
  -9  -6 -12 1563.09 918.244   2
   9   6  12 560.294 551.164   1
   9   6  13-477.049 501.518   1
  -9  -6 -13 651.578 751.755   2
   9   6  14 328.425 432.686   1
   9   7 -12 274.010 427.636   4
   9  -7 -12 179.548 387.503   3
   9   7 -11-561.320 553.936   4
   9  -7 -11 381.418 355.113   3
   9   7 -10-227.205 384.406   4
   9  -7 -10-689.104 610.949   3
   9   7  -9 994.268 697.108   4
   9  -7  -9-524.094 526.723   3
   9   7  -8-14.3330 165.965   4
   9  -7  -8 602.199 588.686   3
   9   7  -7-458.894 462.920   4
   9  -7  -7-665.077 580.830   3
   9   7  -6 3852.47 1059.55   1
  -9   7   6 3644.34 1033.76   2
   9   7  -6 4458.13 1354.69   4
   9  -7  -6 2926.08 1173.56   3
  -9   7   5 92.5191 191.716   2
   9   7  -5 635.031 522.038   4
   9  -7  -5 353.268 346.120   3
   9   7  -5 744.204 544.573   1
   9   7  -4 2012.24 695.585   1
  -9   7   4 1645.15 730.602   2
   9   7  -4 2352.29 917.265   4
   9  -7  -4 3027.49 1171.16   3
  -9   7   3 241.294 251.893   2
   9   7  -3-276.633 299.944   1
  -9   7   2 1441.78 670.245   2
   9   7  -2 1290.77 608.438   1
  -9   7   1 302.808 313.947   2
   9   7  -1-65.9384 177.127   1
  -9   7   0-349.951 368.607   2
   9   7   0-86.0373 203.555   1
  -9   7  -1 3379.89 1122.02   2
   9   7   1 3213.38 937.975   1
  -9   7  -2-28.3485 259.611   2
   9   7   2-281.913 302.048   1
   9   7   3 1963.28 749.695   1
  -9  -7  -3 3433.85 1261.08   2
   9   7   4 888.306 526.136   1
  -9  -7  -4 394.594 441.449   2
  -9  -7  -5 2307.79 1040.24   2
   9   7   5 2805.64 940.727   1
  -9  -7  -6-165.026 393.364   2
   9   7   6 316.312 278.010   1
  -9  -7  -7-86.5958 252.219   2
   9   7   7-126.475 250.558   1
  -9  -7  -8 1483.83 876.191   2
   9   7   8 1330.46 704.130   1
  -9  -7  -9 1703.00 910.520   2
   9   7   9 535.244 483.286   1
  -9  -7 -10 501.920 529.093   2
   9   7  10 779.056 573.311   1
  -9  -7 -11 168.584 551.096   2
   9   7  11-232.612 334.622   1
  -9  -7 -12 324.428 452.296   2
   9   7  12-743.619 594.998   1
   9   7  13 1024.68 787.946   1
  -9  -7 -13 1013.04 739.166   2
   9   8 -11-142.106 360.820   4
   9  -8 -11 473.255 722.934   3
   9   8 -10-634.678 578.740   4
   9  -8 -10-333.519 465.562   3
   9   8  -9 584.207 649.075   4
   9  -8  -9-431.462 517.640   3
   9   8  -8 640.854 569.228   4
   9  -8  -8-198.335 358.550   3
   9   8  -7 50.7661 215.408   4
   9  -8  -7 340.603 304.514   3
   9   8  -6-835.369 614.878   4
   9  -8  -6-1447.98 837.088   3
   9   8  -6 120.825 242.439   1
  -9   8   5 52.7992 141.156   2
   9   8  -5-80.2455 221.411   4
   9  -8  -5 37.4485 364.075   3
   9   8  -5 333.884 386.949   1
   9   8  -4-566.178 431.526   1
  -9   8   4 464.706 386.590   2
   9   8  -4-319.439 351.313   4
   9  -8  -4 986.874 621.018   3
  -9   8   3 1129.07 619.823   2
   9   8  -3 1810.79 842.875   4
   9  -8  -3 3724.84 1288.77   3
   9   8  -3 1551.10 703.002   1
  -9   8   2 880.012 629.964   2
   9   8  -2 1112.09 581.952   1
   9   8  -1 440.643 324.659   1
  -9   8   1 37.2648 177.505   2
  -9   8   0 1186.96 652.925   2
   9   8   0 518.079 341.730   1
   9   8   1 596.354 444.325   1
   9   8   2-1063.08 574.609   1
   9   8   3-80.7944 194.336   1
   9   8   4-533.614 424.120   1
   9   8   5 961.916 617.623   1
  -9  -8  -6 1178.63 710.646   2
   9   8   6 1127.02 687.888   1
  -9  -8  -7 291.368 416.490   2
   9   8   7 1166.24 669.320   1
  -9  -8  -8 1239.20 724.171   2
   9   8   8 807.368 565.527   1
  -9  -8  -9-444.561 509.393   2
   9   8   9 941.285 687.976   1
  -9  -8 -10 108.514 301.584   2
   9   8  10-1359.94 767.781   1
  -9  -8 -11 232.503 389.875   2
   9   8  11-247.228 358.789   1
  -9  -8 -12 182.995 369.273   2
   9   8  12-103.178 293.451   1
   9   9 -10-61.0083 288.859   4
   9  -9 -10 349.880 476.430   3
   9   9  -9 251.404 387.531   4
   9  -9  -9-411.377 626.761   3
   9   9  -8 771.074 619.826   4
   9  -9  -8-1407.21 863.935   3
   9   9  -7 753.218 588.024   1
   9   9  -7 521.616 399.675   4
   9   9  -6 1197.80 731.598   4
   9  -9  -6 2158.96 1032.62   3
   9   9  -6 708.038 508.086   1
  -9   9   5 517.820 412.644   2
   9   9  -5 762.678 581.889   4
   9  -9  -5 271.037 403.020   3
   9   9  -5 490.979 454.505   1
  -9   9   4-436.812 388.382   2
   9   9  -4-27.6432 167.515   1
   9   9  -4-198.673 306.876   4
   9  -9  -4 180.046 317.767   3
  -9   9   3-237.311 310.882   2
   9   9  -3 604.688 520.541   4
   9  -9  -3 274.765 212.793   3
   9   9  -3 351.118 347.144   1
  -9   9   2-427.508 395.828   2
   9   9  -2-187.328 276.886   1
   9   9  -2 59.8555 205.542   4
  -9   9   1 1249.65 707.270   2
   9   9  -1 612.152 520.580   1
   9   9   0-59.5491 193.144   1
   9   9   1 907.140 609.047   1
   9   9   2 2004.84 824.363   1
   9   9   3 271.013 269.140   1
   9   9   4 689.229 483.725   1
   9   9   5 1157.99 677.433   1
   9   9   6-90.0110 237.235   1
   9   9   7 1359.00 715.828   1
   9   9   8 351.918 409.621   1
   9   9   9 60.6246 236.620   1
   9   9  10-39.8048 223.844   1
   9   9  11-333.205 404.482   1
   9   9  12 93.9319 268.851   1
   9  10  -9-241.571 372.898   4
   9 -10  -9 216.906 440.586   3
   9  10  -8 202.978 350.877   4
   9 -10  -8 1744.27 1013.51   3
   9  10  -7 855.936 638.895   1
   9  10  -7-208.073 360.556   4
   9 -10  -7 285.346 409.246   3
   9  10  -6-97.2263 252.542   4
   9  10  -6 326.947 375.560   1
   9 -10  -6 765.414 554.559   3
   9  10  -5 8.22186 135.052   4
   9  10  -5-85.0514 224.840   1
   9 -10  -5 413.953 473.079   3
  -9  10   4 807.189 478.284   2
   9  10  -4-233.853 328.171   1
   9  10  -4-476.848 464.318   4
   9 -10  -4-247.571 386.023   3
  -9  10   3-286.499 337.492   2
   9  10  -3-1080.12 663.384   4
   9 -10  -3-55.3439 243.743   3
   9  10  -3-460.880 421.574   1
  -9  10   2 584.889 461.134   2
   9  10  -2 87.2449 174.381   1
   9  10  -2 1001.78 684.049   4
   9  10  -1 189.894 283.786   1
   9  10   0-477.626 427.378   1
   9  10   1-32.6562 204.674   1
   9  10   2-269.249 338.968   1
   9  10   3 896.963 526.591   1
   9  10   4 847.249 571.193   1
   9  10   5 364.540 390.064   1
   9  10   6 1157.09 686.612   1
   9  10   7 925.703 677.890   1
   9  10   8 377.810 429.226   1
   9  10   9 153.402 317.550   1
   9  10  10-741.683 615.477   1
   9  10  11 488.149 519.465   1
   9  11  -9 475.642 523.684   4
   9  11  -8 208.200 379.197   4
   9 -11  -8-145.919 330.635   3
   9  11  -7-448.617 496.002   4
   9  11  -7-289.706 373.305   1
   9 -11  -7 381.916 425.683   3
   9  11  -6-201.353 332.192   1
   9  11  -6 529.478 517.603   4
   9 -11  -6 310.870 440.623   3
   9  11  -5 422.073 374.826   4
   9  11  -5 780.717 551.385   1
   9 -11  -5-201.701 236.491   3
   9  11  -4 1522.68 734.993   1
   9  11  -4 766.265 628.407   4
   9 -11  -4 17.3686 253.692   3
  -9  11   3-788.086 538.439   2
   9  11  -3-486.893 463.119   4
   9 -11  -3 573.768 555.805   3
   9  11  -3 763.394 532.572   1
   9  11  -2-161.352 300.922   1
   9  11  -2-398.741 413.984   4
   9  11  -1 60.5396 150.005   1
   9  11  -1 192.005 295.444   4
   9  11   0-26.6269 166.976   1
   9  11   1 114.578 295.526   1
   9  11   2 1108.68 673.264   1
   9  11   3 620.722 438.288   1
   9  11   4 1148.20 661.831   1
   9  11   5-661.089 545.081   1
   9  11   6 392.583 313.305   1
   9  11   7 1931.44 896.310   1
   9  11   8 1085.54 712.383   1
   9  11   9 665.778 538.208   1
   9  12  -8-78.7414 265.497   1
   9  12  -8 348.962 592.255   4
   9  12  -7-152.848 304.655   1
   9  12  -7-366.427 469.909   4
   9  12  -6 1228.61 787.133   1
   9  12  -6 1194.90 771.509   4
   9 -12  -6 1159.76 718.390   3
   9  12  -5 128.230 292.286   1
   9  12  -5-97.6372 250.697   4
   9 -12  -5-138.802 317.188   3
   9  12  -4 661.643 554.144   1
   9  12  -4 398.469 448.530   4
   9 -12  -4-196.663 380.946   3
   9  12  -3-840.513 595.825   4
   9 -12  -3 300.482 577.727   3
   9  12  -3-359.251 419.759   1
   9  12  -2 1562.70 827.378   1
   9  12  -2 411.521 418.510   4
   9  12  -1 690.039 546.836   1
   9  12  -1-844.748 575.929   4
   9  12   0-302.997 382.279   1
   9  12   1-948.325 636.582   1
   9  12   2-789.260 596.310   1
   9  12   3 113.241 357.067   1
   9  12   4-190.627 329.983   1
   9  12   5-168.148 319.718   1
   9  12   6 1275.06 795.379   1
   9  12   7 275.395 441.286   1
   9  12   8-191.337 337.976   1
   9  13  -8 1185.39 869.287   1
   9  13  -7 337.345 460.099   4
   9  13  -7 975.081 697.436   1
   9  13  -6-327.219 436.962   4
   9  13  -6 875.844 719.799   1
   9  13  -5-534.366 513.880   1
   9  13  -5 27.1687 180.479   4
   9  13  -4 393.063 436.312   1
   9  13  -4 545.374 511.237   4
   9 -13  -4 825.169 682.611   3
   9  13  -3 1047.55 691.852   4
   9  13  -3-109.991 272.285   1
   9  13  -2-732.167 589.450   1
   9  13  -2-112.425 250.874   4
   9  13  -1-342.204 407.982   1
   9  13  -1-397.911 412.875   4
   9  13   0 376.606 431.771   1
   9  13   1 3053.33 1180.27   1
   9  13   2 8.51213 174.421   1
   9  13   3 1494.12 783.753   1
   9  13   4-291.859 410.695   1
   9  13   5 249.419 385.280   1
   9  13   6 22.7476 219.901   1
   9  13   7-419.694 472.340   1
   9  14  -7 1790.23 986.685   1
   9  14  -6 284.915 528.710   4
   9  14  -6 598.045 565.467   1
   9  14  -5 850.726 652.080   1
   9  14  -5 703.592 613.710   4
   9  14  -4-138.223 282.563   4
   9  14  -4-816.018 669.616   1
   9  14  -3 1348.92 784.110   4
   9  14  -3-780.990 639.814   1
   9  14  -2-37.8128 194.847   1
   9  14  -2-1577.43 819.658   4
   9  14  -1-967.885 685.497   1
   9  14   0 701.274 579.691   1
   9  14   1-110.482 299.256   1
   9  14   2-604.590 569.862   1
   9  14   3 974.869 597.968   1
   9  14   4 49.8324 237.621   1
   9  15  -4 594.469 553.832   4
   9  15  -3 530.759 721.315   1
   9  15  -2-260.918 421.779   1
   9  15  -1-1281.45 819.996   1
   9  15   0 274.490 403.129   1
  10   0 -14 2871.80 1204.17   3
  10   0 -13-603.669 560.679   3
  10   0 -12 1245.89 740.228   3
  10   0 -11-77.6628 224.362   3
  10   0 -10 6658.10 1708.52   3
  10   0  -9-247.006 451.775   3
  10   0  -8-420.920 429.519   3
  10   0  -7-639.684 516.171   3
 -10   0   6-243.043 332.052   2
  10   0  -6-541.080 475.596   3
 -10   0   5-160.117 302.119   2
  10   0  -5 191.307 300.072   3
 -10   0   4 6186.21 1555.51   2
 -10   0   3 129.079 318.870   2
 -10   0   2 3039.65 1144.88   2
 -10   0   1-178.932 267.472   2
 -10   0   0 3301.12 1171.32   2
 -10   0  -1 301.209 301.234   2
 -10   0  -2 8021.38 1864.52   2
 -10   0  -3 181.299 338.751   2
 -10   0  -4 1279.00 826.650   2
 -10   0  -5-428.843 479.757   2
 -10   0  -6 32.2504 208.932   2
 -10   0  -7 313.105 402.232   2
 -10   0  -8 1060.54 804.108   2
 -10   0  -9-1501.16 879.384   2
 -10   0 -10 1289.56 861.333   2
 -10   0 -11-199.424 356.001   2
  10   1 -14 2947.45 1236.06   3
  10  -1 -14 2574.43 1127.09   3
  10   1 -13 1418.72 827.051   3
  10  -1 -13-395.130 466.725   3
  10   1 -12 5453.22 1562.72   3
  10  -1 -12 1389.86 939.895   3
  10   1 -11-527.269 496.845   3
  10  -1 -11 265.623 387.705   3
  10   1 -10 688.705 534.587   3
  10  -1 -10 93.4239 261.222   3
  10   1  -9 315.601 376.741   3
  10  -1  -9 130.320 260.369   3
  10   1  -8-248.074 332.575   3
  10  -1  -8 364.105 461.298   3
 -10   1   7-124.634 249.657   2
  10   1  -7-140.379 335.131   3
  10  -1  -7-412.140 428.685   3
 -10   1   6 755.931 531.246   2
  10   1  -6 157.139 191.686   3
  10  -1  -6 146.918 280.382   3
 -10   1   5 139.129 268.568   2
  10  -1  -5 294.650 392.718   3
 -10   1   4-115.281 258.383   2
 -10  -1   4 708.161 568.668   2
 -10   1   3 313.086 332.842   2
 -10  -1   3 5.05667 194.616   2
 -10   1   2 4129.58 1342.87   2
 -10  -1   2 3767.34 1222.02   2
 -10   1   1 1371.09 709.818   2
 -10  -1   1-53.5327 215.432   2
 -10   1   0 1654.18 819.518   2
 -10  -1   0 983.253 608.380   2
 -10   1  -1 476.946 432.856   2
 -10  -1  -1-447.657 460.686   2
 -10   1  -2-262.109 388.949   2
 -10  -1  -2 222.643 311.443   2
 -10   1  -3-325.241 409.556   2
 -10  -1  -3-131.505 278.101   2
 -10   1  -4 10295.5 2130.06   2
 -10  -1  -4 7742.18 1883.29   2
 -10   1  -5-170.962 471.737   2
 -10  -1  -5 90.7428 277.376   2
 -10   1  -6-636.439 549.215   2
 -10  -1  -6 72.2128 232.972   2
 -10   1  -7 217.093 443.999   2
 -10  -1  -7-252.272 378.780   2
 -10   1  -8 840.960 633.284   2
 -10  -1  -8 507.606 594.482   2
 -10   1  -9 1184.46 824.264   2
 -10  -1  -9-376.322 465.039   2
 -10   1 -10 348.779 455.193   2
 -10  -1 -10 426.595 488.867   2
 -10   1 -11 1091.11 785.989   2
 -10  -1 -11 241.508 384.766   2
  10   2 -13 174.344 302.312   3
  10  -2 -13-706.237 635.690   3
  10   2 -12 5.54090 187.632   3
  10  -2 -12-484.075 539.820   3
  10   2 -11-286.797 367.672   3
  10  -2 -11 481.958 517.142   3
  10   2 -10 2705.21 1069.21   3
  10  -2 -10 3156.21 1215.00   3
  10   2  -9-45.1285 181.930   3
  10  -2  -9 554.419 533.084   3
  10   2  -8-16.4525 157.000   3
  10  -2  -8-145.939 281.369   3
 -10   2   7 194.790 288.806   2
  10  -2  -7 431.294 528.383   3
 -10   2   6 232.806 316.858   2
  10  -2  -6 275.969 271.168   3
 -10   2   5-107.931 238.111   2
  10  -2  -5-156.965 159.885   3
 -10   2   4 4650.39 1316.01   2
 -10  -2   4 4578.12 1368.53   2
  10  -2  -4 4193.11 1314.66   3
 -10   2   3-1045.07 641.039   2
 -10  -2   3-289.154 378.004   2
 -10   2   2 1660.72 804.498   2
 -10  -2   2 1349.09 727.196   2
 -10   2   1 2302.84 919.522   2
 -10  -2   1 2055.37 922.355   2
 -10   2   0-147.591 276.170   2
 -10  -2   0 887.460 626.018   2
 -10   2  -1-72.2126 313.193   2
 -10  -2  -1 346.302 299.147   2
 -10   2  -2 3793.96 1277.90   2
 -10  -2  -2 5768.71 1585.73   2
 -10   2  -3 1106.77 692.011   2
 -10  -2  -3-119.585 459.942   2
 -10   2  -4-27.4462 369.515   2
 -10  -2  -4-97.5193 346.368   2
 -10   2  -5-271.460 373.885   2
 -10  -2  -5 245.829 380.606   2
 -10   2  -6 1001.95 693.513   2
 -10  -2  -6 2320.60 1013.73   2
 -10   2  -7-626.960 568.966   2
 -10  -2  -7 682.604 597.323   2
 -10   2  -8-265.359 389.956   2
 -10  -2  -8 1541.91 834.828   2
 -10   2  -9 1243.12 815.846   2
 -10  -2  -9 546.795 657.712   2
 -10   2 -10 716.320 748.138   2
 -10  -2 -10 408.630 481.874   2
 -10   2 -11 98.9475 312.840   2
 -10  -2 -11-1287.27 837.650   2
  10  -3 -12 2491.31 1156.99   3
  10  -3 -11 1136.29 777.396   3
  10   3 -10-225.652 309.237   3
  10  -3 -10 122.121 189.298   3
  10   3  -9 694.350 516.852   3
  10  -3  -9 46.2931 262.428   3
  10   3  -8 1959.44 824.524   3
  10  -3  -8 3999.08 1352.28   3
 -10   3   7-190.249 288.724   2
  10   3  -7 1683.60 761.279   3
  10  -3  -7 2426.38 1014.15   3
 -10   3   6 593.968 470.120   2
  10  -3  -6 266.760 442.978   3
 -10   3   5 58.4863 184.466   2
  10  -3  -5 281.203 382.533   3
 -10   3   4 472.300 421.033   2
  10  -3  -4-53.5144 205.506   3
 -10   3   3 1932.18 862.294   2
 -10  -3   3 1933.69 908.455   2
 -10   3   2 2259.95 919.566   2
 -10  -3   2 2702.83 1057.44   2
 -10   3   1 367.806 397.380   2
 -10  -3   1-193.228 329.134   2
 -10   3   0 3566.55 1184.01   2
 -10  -3   0 3450.07 1186.69   2
 -10   3  -1 573.045 340.391   2
 -10  -3  -1 1091.24 785.279   2
 -10   3  -2 260.040 405.777   2
 -10  -3  -2-751.866 607.673   2
 -10   3  -3 194.554 336.147   2
 -10  -3  -3-972.915 690.112   2
 -10   3  -4 3683.38 1263.26   2
 -10  -3  -4 2728.54 1103.53   2
 -10   3  -5 18.2060 381.153   2
 -10  -3  -5 259.661 369.613   2
 -10   3  -6 2143.83 1004.15   2
 -10  -3  -6 1602.85 849.814   2
 -10   3  -7 352.519 513.631   2
 -10  -3  -7 1393.83 750.462   2
 -10   3  -8 1143.77 762.234   2
 -10  -3  -8 1213.61 856.691   2
 -10   3  -9-847.094 677.187   2
 -10  -3  -9 815.731 668.033   2
 -10   3 -10-139.030 341.521   2
 -10  -3 -10 283.438 400.030   2
 -10  -3 -11-1256.16 829.805   2
  10  -4 -12 123.036 332.966   3
  10  -4 -11 564.842 483.809   3
  10  -4 -10 1405.90 850.741   3
  10  -4  -9 201.215 453.449   3
  10  -4  -8-389.161 449.004   3
 -10   4   7 181.370 274.160   2
  10   4  -7 514.399 409.934   3
  10  -4  -7-105.979 266.067   3
 -10   4   6 1220.83 658.969   2
  10  -4  -6 460.367 465.090   3
 -10   4   5 830.744 556.412   2
  10  -4  -5 741.828 429.364   3
 -10   4   4 1009.09 672.763   2
  10  -4  -4 2375.03 1047.98   3
 -10   4   3 201.704 425.870   2
 -10   4   2 104.566 244.905   2
 -10  -4   2-318.612 425.698   2
 -10   4   1-893.712 608.064   2
 -10  -4   1-432.603 464.686   2
 -10   4   0 599.322 559.576   2
 -10  -4   0 766.744 488.787   2
 -10   4  -1 186.393 218.350   2
 -10  -4  -1 62.6327 278.446   2
 -10   4  -2 4043.21 1256.86   2
 -10  -4  -2 3651.22 1324.58   2
 -10   4  -3 2328.15 963.521   2
 -10  -4  -3 1790.40 912.191   2
 -10   4  -4 651.258 369.696   2
 -10  -4  -4 1562.96 914.902   2
 -10   4  -5-260.342 344.680   2
 -10  -4  -5 733.545 607.580   2
 -10   4  -6 61.2421 547.053   2
 -10  -4  -6-281.045 415.418   2
 -10   4  -7 972.482 606.288   2
 -10  -4  -7-242.052 411.089   2
 -10   4  -8 1367.14 809.092   2
 -10  -4  -8 233.028 379.846   2
 -10   4  -9 534.593 468.970   2
 -10  -4  -9 353.604 458.318   2
 -10   4 -10 735.118 788.117   2
 -10  -4 -10 396.088 374.389   2
 -10  -4 -11-763.259 658.892   2
  10  -5 -11 154.720 344.076   3
  10   5 -10 2082.72 1072.12   4
  10  -5 -10 1450.87 830.503   3
  10  -5  -9 1143.50 734.321   3
  10  -5  -8 3789.85 1332.94   3
  10  -5  -7 287.571 256.824   3
 -10   5   6 1121.06 624.354   2
  10  -5  -6-1152.85 742.160   3
 -10   5   5-850.174 551.961   2
  10  -5  -5-689.571 580.878   3
 -10   5   4-792.818 544.010   2
  10  -5  -4-223.290 357.752   3
 -10   5   3 730.470 581.519   2
 -10   5   2 4611.55 1298.91   2
 -10   5   1-370.389 396.123   2
 -10   5   0 935.009 680.445   2
 -10  -5   0-656.277 587.748   2
 -10   5  -1 925.448 621.657   2
 -10  -5  -1 705.598 533.758   2
 -10   5  -2 729.485 602.735   2
 -10  -5  -2-761.370 614.140   2
 -10   5  -3-488.440 479.947   2
 -10  -5  -3-531.129 532.240   2
 -10   5  -4-301.745 419.832   2
 -10  -5  -4 266.500 396.966   2
 -10   5  -5 151.908 370.040   2
 -10  -5  -5-918.948 681.634   2
 -10   5  -6-220.491 369.837   2
 -10  -5  -6 1421.92 858.894   2
 -10   5  -7-135.549 301.985   2
 -10  -5  -7 523.207 562.018   2
 -10   5  -8 119.632 584.012   2
 -10  -5  -8 464.194 513.647   2
 -10   5  -9-87.8827 302.507   2
 -10  -5  -9-662.835 617.468   2
 -10  -5 -10 1166.88 812.622   2
 -10  -5 -11 272.914 402.159   2
  10   6 -10 899.900 748.729   4
  10  -6 -10 1563.94 925.762   3
  10   6  -9 2846.43 1204.22   4
  10  -6  -9 455.249 452.789   3
  10   6  -8-293.305 423.560   4
  10  -6  -8 561.872 553.180   3
  10  -6  -7-746.258 623.071   3
 -10   6   6 867.875 576.264   2
  10  -6  -6 1157.75 694.732   3
 -10   6   5 782.224 518.164   2
  10  -6  -5-463.004 511.489   3
 -10   6   4 127.220 243.123   2
  10  -6  -4 222.857 560.467   3
 -10   6   3-136.799 238.312   2
 -10   6   2 1401.00 727.515   2
 -10   6   1 3126.07 1076.81   2
 -10   6   0-125.393 284.088   2
 -10   6  -1 756.990 518.360   2
 -10  -6  -1 1283.46 769.504   2
 -10   6  -2-450.859 454.270   2
 -10  -6  -2 746.556 727.173   2
 -10   6  -3 437.227 453.178   2
 -10  -6  -3 1025.88 675.568   2
 -10   6  -4-1024.84 678.870   2
 -10  -6  -4 149.729 351.056   2
 -10   6  -5-390.096 454.935   2
 -10  -6  -5-519.167 547.567   2
 -10   6  -6 549.904 543.034   2
 -10  -6  -6 1012.47 736.767   2
 -10   6  -7-132.623 303.261   2
 -10  -6  -7-155.589 324.007   2
 -10   6  -8-208.888 362.943   2
 -10  -6  -8 785.305 657.447   2
 -10   6  -9 74.2146 282.100   2
 -10  -6  -9-460.718 511.661   2
 -10  -6 -10-799.053 684.648   2
  10   7  -9-321.416 445.814   4
  10  -7  -9 49.9119 301.012   3
  10   7  -8 4480.97 1475.80   4
  10  -7  -8 4079.72 1504.74   3
  10   7  -7 157.011 309.714   4
  10  -7  -7-866.164 688.095   3
  10  -7  -6 869.828 669.979   3
 -10   7   5-71.3717 212.828   2
  10  -7  -5-706.531 604.993   3
 -10   7   4-29.7210 172.334   2
  10  -7  -4-353.525 444.816   3
 -10   7   3-343.802 382.537   2
 -10   7   2 763.492 485.071   2
 -10   7   1 17.3064 150.076   2
 -10   7   0 24.2032 184.815   2
 -10   7  -1-81.3823 253.403   2
 -10   7  -2 1692.20 827.371   2
 -10   7  -3-286.222 381.520   2
 -10  -7  -3 1056.90 734.015   2
 -10   7  -4 154.362 290.566   2
 -10  -7  -4 139.434 393.649   2
 -10   7  -5 128.041 295.818   2
 -10  -7  -5 884.478 698.347   2
 -10   7  -6 776.376 631.049   2
 -10  -7  -6 376.738 549.349   2
 -10   7  -7-14.1395 169.987   2
 -10  -7  -7-407.649 492.954   2
 -10   7  -8 714.987 450.200   2
 -10  -7  -8-1097.42 789.831   2
 -10  -7  -9 960.388 744.476   2
 -10  -7 -10 378.965 492.506   2
  10   8  -8-141.907 308.686   4
  10  -8  -8 163.966 342.921   3
  10   8  -7-250.113 381.188   4
  10  -8  -7-187.302 345.012   3
  10   8  -6 1655.59 906.693   4
  10  -8  -6 2637.69 1160.80   3
  10   8  -5 753.725 592.889   4
  10  -8  -5 739.345 726.176   3
 -10   8   4 1102.30 703.609   2
  10  -8  -4 1822.51 1071.04   3
 -10   8   3 553.199 474.492   2
 -10   8   2 415.616 443.765   2
 -10   8   1-164.884 303.451   2
 -10   8   0 79.2372 209.989   2
 -10   8  -1 609.025 631.528   2
 -10   8  -2 429.313 450.153   2
 -10   8  -3 176.580 314.051   2
 -10   8  -4 183.744 198.973   2
  10   8   4-900.913 563.126   1
 -10   8  -5 1920.63 1040.44   2
  10   8   5 749.541 570.637   1
  10   8   6-388.415 417.339   1
 -10  -8  -7 465.159 487.457   2
  10   8   7-365.652 400.484   1
 -10  -8  -8-918.436 729.947   2
  10   8   8 486.837 465.619   1
 -10  -8  -9 489.175 569.930   2
  10   8   9 140.367 286.288   1
  10   8  10 33.9191 197.615   1
  10   9  -8 1.65177 363.215   4
  10   9  -7 837.088 725.381   4
  10  -9  -7-447.317 525.482   3
  10   9  -6 235.551 364.172   4
  10  -9  -6 116.656 290.567   3
  10   9  -5-69.2288 240.026   4
  10  -9  -5 305.762 442.686   3
 -10   9   4 468.198 508.632   2
  10  -9  -4 1651.68 858.792   3
 -10   9   3 362.509 389.607   2
 -10   9   2 941.271 637.181   2
 -10   9   1 630.215 538.958   2
 -10   9   0 582.854 502.868   2
 -10   9  -1 12.2126 200.131   2
  10   9   1 178.455 192.560   1
 -10   9  -2 1097.59 704.025   2
  10   9   2 925.345 545.495   1
 -10   9  -3 92.7025 420.476   2
  10   9   3 26.9007 207.996   1
  10   9   4 853.174 608.588   1
  10   9   5 749.553 514.888   1
  10   9   6-652.862 520.136   1
  10   9   7 833.904 636.241   1
  10   9   8 66.2665 229.798   1
  10   9   9-361.344 413.522   1
  10  10  -7-403.976 482.885   4
  10  10  -6-12.5254 180.835   4
  10  10  -5-51.2247 228.482   4
  10 -10  -5-121.546 350.243   3
  10  10  -4 364.309 467.036   4
  10 -10  -4 583.423 546.662   3
 -10  10   3-712.583 540.541   2
 -10  10   2-236.739 335.210   2
 -10  10   1 1423.82 811.098   2
 -10  10   0 1144.78 772.792   2
  10  10   0 437.798 467.136   1
 -10  10  -1 1309.54 642.623   2
  10  10   1 639.830 539.723   1
  10  10   2 981.474 627.050   1
  10  10   3 594.119 571.599   1
  10  10   4 336.438 399.017   1
  10  10   5 1189.86 723.712   1
  10  10   6 491.467 484.571   1
  10  10   7 392.167 437.680   1
  10  10   8-949.079 675.842   1
  10  10   9 545.036 666.238   1
  10  11  -6-197.675 358.413   4
  10  11  -5 38.5861 200.677   4
  10  11  -4-136.554 306.919   4
  10  11  -3-124.151 284.071   4
 -10  11   2-59.7689 242.924   2
  10  11  -2-200.960 307.260   1
 -10  11   1 915.023 726.805   2
  10  11  -1 1956.71 882.804   1
 -10  11   0 515.938 505.905   2
  10  11   0 1078.72 666.582   1
  10  11   1-504.691 482.431   1
  10  11   2 494.303 473.432   1
  10  11   3-704.876 558.196   1
  10  11   4-156.812 299.226   1
  10  11   5 1147.64 684.307   1
  10  11   6 428.458 519.431   1
  10  11   7-137.878 290.461   1
  10  11   8 325.977 410.162   1
  10  12  -5 1103.29 732.853   4
  10  12  -4-120.187 263.571   4
  10  12  -3 209.275 339.864   1
  10  12  -3 1761.69 958.629   4
 -10  12   2-260.129 350.729   2
  10  12  -2-495.349 482.550   1
 -10  12   1 408.773 431.726   2
  10  12  -1-751.778 585.955   1
  10  12   0 3575.14 1224.82   1
  10  12   1 152.845 219.838   1
  10  12   2-825.035 610.141   1
  10  12   3 720.967 616.939   1
  10  12   4 166.556 290.476   1
  10  12   5-629.703 542.462   1
  10  12   6-640.680 560.389   1
  10  13  -4 845.924 707.907   4
  10  13  -3 918.437 661.754   1
  10  13  -3 49.3837 198.040   4
  10  13  -2-215.828 363.588   1
  10  13  -2 584.595 532.491   4
  10  13  -1-10.2515 206.653   1
  10  13   0-316.791 423.487   1
  10  13   1 364.362 459.618   1
  10  13   2-1045.76 708.404   1
  10  13   3 697.978 613.412   1
  10  13   4 969.408 698.522   1
  11   0 -12 63.5562 262.928   3
  11   0 -11 1162.60 774.741   3
  11   0 -10-523.447 513.340   3
  11   0  -9-412.100 345.746   3
  11   0  -8 155.768 290.312   3
  11   0  -7-2.75704 144.017   3
 -11   0   6-133.590 295.769   2
 -11   0   5-332.279 410.008   2
 -11   0   4-510.831 487.332   2
 -11   0   3 152.518 320.175   2
 -11   0   2 156.100 248.545   2
 -11   0   1 187.883 328.991   2
 -11   0   0 1002.23 756.235   2
 -11   0  -1 143.316 330.132   2
 -11   0  -2-427.790 488.182   2
 -11   0  -3-595.765 567.392   2
 -11   0  -4 1212.86 801.121   2
 -11   0  -5-983.991 729.311   2
 -11   0  -6-114.765 300.321   2
 -11   0  -7-293.033 435.218   2
  11   1 -12 108.286 268.940   3
  11  -1 -12-546.075 552.753   3
  11   1 -11 414.995 454.966   3
  11  -1 -11-1014.52 725.700   3
  11   1 -10 1390.91 806.392   3
  11  -1 -10 2034.16 991.574   3
  11   1  -9 987.088 670.132   3
  11  -1  -9 304.945 321.229   3
  11   1  -8 51.6436 203.414   3
  11  -1  -8-151.813 302.457   3
  11   1  -7 517.077 624.236   3
  11  -1  -7 1005.34 678.860   3
 -11   1   6-91.6136 263.719   2
  11  -1  -6-709.170 576.659   3
 -11   1   5-377.468 428.421   2
 -11  -1   5 162.766 313.143   2
 -11   1   4-318.415 392.387   2
 -11  -1   4-27.4405 178.120   2
 -11   1   3 155.796 291.904   2
 -11  -1   3-540.568 525.297   2
 -11   1   2 129.872 463.971   2
 -11  -1   2-161.659 306.658   2
 -11   1   1 143.980 394.148   2
 -11  -1   1-245.367 361.576   2
 -11   1   0 923.823 671.107   2
 -11  -1   0-7.57291 161.833   2
 -11   1  -1 138.675 294.369   2
 -11  -1  -1-75.1494 294.070   2
 -11   1  -2 6842.68 1808.37   2
 -11  -1  -2 5637.58 1672.32   2
 -11   1  -3 177.718 331.108   2
 -11  -1  -3 1142.05 782.311   2
 -11   1  -4-564.291 548.301   2
 -11  -1  -4 650.401 602.711   2
 -11   1  -5 202.380 354.205   2
 -11  -1  -5 267.812 410.104   2
 -11   1  -6-461.210 513.346   2
 -11  -1  -6 506.079 654.459   2
 -11   1  -7-354.010 473.734   2
 -11  -1  -7 1098.98 766.484   2
  11  -2 -11 153.879 331.839   3
  11   2 -10 996.442 664.417   3
  11  -2 -10 347.619 461.574   3
  11   2  -9-379.687 413.659   3
  11  -2  -9-201.546 359.672   3
  11   2  -8 1651.06 820.544   3
  11  -2  -8 134.810 311.855   3
 -11   2   7 939.231 580.930   2
  11  -2  -7 159.105 321.691   3
 -11   2   6-633.399 450.042   2
  11  -2  -6 71.3386 371.901   3
 -11   2   5 330.145 331.806   2
 -11   2   4 968.738 656.486   2
 -11  -2   4 164.074 319.331   2
 -11   2   3-361.224 416.202   2
 -11  -2   3 255.317 378.369   2
 -11   2   2 3346.05 1224.83   2
 -11  -2   2 4014.17 1389.39   2
 -11   2   1-437.930 460.537   2
 -11  -2   1 169.236 461.894   2
 -11   2   0 1277.31 810.410   2
 -11  -2   0 2106.80 1068.36   2
 -11   2  -1-145.989 308.035   2
 -11  -2  -1 57.7315 296.829   2
 -11   2  -2-19.5991 186.930   2
 -11  -2  -2-706.793 624.807   2
 -11   2  -3 651.856 546.965   2
 -11  -2  -3-1189.54 794.290   2
 -11   2  -4 1948.43 937.666   2
 -11  -2  -4 2961.04 1223.16   2
 -11   2  -5-659.374 598.002   2
 -11  -2  -5 414.349 557.498   2
 -11   2  -6 1323.60 841.862   2
 -11  -2  -6 1988.20 977.308   2
 -11   2  -7 508.913 538.455   2
 -11  -2  -7-780.148 680.696   2
  11  -3 -10 4031.24 1428.58   3
  11  -3  -9-1258.91 811.295   3
  11  -3  -8 453.879 523.311   3
  11  -3  -7-1017.34 725.257   3
 -11   3   6 3.84190 461.105   2
  11  -3  -6 383.145 468.739   3
 -11   3   5 1860.88 915.583   2
 -11   3   4 13.4529 189.141   2
 -11   3   3 262.292 357.753   2
 -11  -3   3 570.571 603.033   2
 -11   3   2 333.354 405.566   2
 -11  -3   2 498.644 469.699   2
 -11   3   1 462.984 480.968   2
 -11  -3   1 9.32067 388.194   2
 -11   3   0 4971.97 1483.75   2
 -11  -3   0 1767.27 1026.46   2
 -11   3  -1 1375.21 892.965   2
 -11  -3  -1-338.501 436.778   2
 -11   3  -2-219.021 352.385   2
 -11  -3  -2 1003.41 755.762   2
 -11   3  -3 522.089 530.244   2
 -11  -3  -3-312.848 441.266   2
 -11   3  -4 447.074 492.446   2
 -11  -3  -4 1204.99 843.550   2
 -11   3  -5 134.933 303.595   2
 -11  -3  -5 234.308 381.036   2
 -11   3  -6 872.242 696.727   2
 -11  -3  -6 1336.04 998.321   2
 -11   3  -7 296.379 431.274   2
 -11  -3  -7 121.556 328.560   2
  11  -4  -9 240.534 396.647   3
  11  -4  -8 2610.90 1134.45   3
  11  -4  -7-393.269 471.519   3
 -11   4   6 465.198 446.615   2
  11  -4  -6 1461.68 863.867   3
 -11   4   5-735.705 567.719   2
  11  -4  -5-49.2106 216.895   3
 -11   4   4 287.214 376.656   2
 -11   4   3 1709.02 854.719   2
 -11   4   2-30.3581 167.307   2
 -11   4   1 463.788 477.818   2
 -11  -4   1-601.325 597.908   2
 -11   4   0-100.966 252.617   2
 -11  -4   0 893.356 699.505   2
 -11   4  -1 940.995 659.590   2
 -11  -4  -1 118.785 304.800   2
 -11   4  -2 365.812 491.602   2
 -11  -4  -2-1521.81 904.499   2
 -11   4  -3 420.542 490.951   2
 -11  -4  -3-175.198 346.939   2
 -11   4  -4 500.695 555.038   2
 -11  -4  -4 171.871 438.101   2
 -11   4  -5 838.613 661.001   2
 -11  -4  -5 468.051 520.326   2
 -11   4  -6 682.772 615.164   2
 -11  -4  -6-537.489 571.394   2
 -11  -4  -7 215.168 404.623   2
  11  -5  -8 450.806 530.473   3
  11  -5  -7 1203.15 881.730   3
  11  -5  -6 3622.22 1362.13   3
 -11   5   5 1752.38 883.892   2
  11  -5  -5 2317.24 1147.86   3
 -11   5   4 4053.35 1287.72   2
 -11   5   3 1143.66 699.277   2
 -11   5   2 324.459 405.942   2
 -11   5   1-73.1383 269.312   2
 -11   5   0 252.978 373.453   2
 -11  -5   0 243.426 407.105   2
 -11   5  -1 171.816 306.523   2
 -11  -5  -1-257.886 412.131   2
 -11   5  -2-135.369 311.843   2
 -11  -5  -2 868.956 592.944   2
 -11   5  -3-280.513 414.543   2
 -11  -5  -3-462.865 518.486   2
 -11   5  -4 702.203 560.270   2
 -11  -5  -4-67.3324 257.099   2
 -11   5  -5-363.488 477.296   2
 -11  -5  -5-407.357 500.564   2
 -11   5  -6 6.65653 574.769   2
 -11  -5  -6 865.405 697.191   2
  11  -6  -7 515.581 565.644   3
  11  -6  -6 1378.84 934.166   3
 -11   6   5-806.783 589.940   2
  11  -6  -5 258.824 175.101   3
 -11   6   4-483.044 458.273   2
 -11   6   3 817.699 736.006   2
 -11   6   2-492.684 488.338   2
 -11   6   1-428.496 455.501   2
 -11   6   0 273.573 322.353   2
 -11   6  -1 312.696 521.226   2
 -11   6  -2-191.133 366.914   2
 -11  -6  -2 1049.95 636.841   2
 -11   6  -3 445.735 489.751   2
 -11  -6  -3 1277.51 847.009   2
 -11   6  -4-324.767 434.163   2
 -11  -6  -4 2311.28 1263.21   2
 -11   6  -5 1641.64 946.482   2
 -11  -6  -5 2928.12 1250.04   2
  11  -7  -5 1755.87 986.295   3
 -11   7   4 2116.97 918.483   2
 -11   7   3-209.719 340.370   2
 -11   7   2-63.7301 372.908   2
 -11   7   1 419.720 444.756   2
 -11   7   0 289.589 390.896   2
 -11   7  -1 1259.95 776.680   2
 -11   7  -2-140.494 322.842   2
 -11   7  -3-793.763 637.835   2
 -11   7  -4-548.718 554.102   2
 -11  -7  -4 258.800 427.371   2
 -11   8   3 535.906 508.242   2
 -11   8   2 1330.37 818.556   2
 -11   8   1 922.786 658.900   2
 -11   8   0 68.9165 239.134   2
 -11   8  -1-6.04232 174.691   2
 -11   8  -2-268.952 406.867   2
 -11   8  -3-438.682 493.882   2
 -11   9   3 475.206 471.366   2
 -11   9   2-618.255 530.745   2
 -11   9   1 114.463 235.948   2
 -11   9   0-1418.67 831.676   2
 -11   9  -1 146.356 446.811   2
 -11   9  -2-58.7526 227.457   2
 -11  10   2 2618.95 1092.15   2
 -11  10   1 662.781 581.890   2
 -11  10   0-474.940 495.311   2
 -11  10  -1 384.686 469.142   2
 -11  11   1 739.760 738.866   2
 -11  11   0 529.863 443.591   2
  12   0  -9-312.033 437.006   3
  12   0  -8 394.145 468.514   3
 -12   0   5 306.182 435.627   2
 -12   0   4 1459.78 910.920   2
 -12   0   3 718.280 620.989   2
 -12   0   2-656.258 608.834   2
 -12   0   1-958.683 728.709   2
 -12   0   0 872.580 718.624   2
 -12   0  -1 897.969 719.145   2
 -12   0  -2-131.213 347.408   2
  12  -1  -8 228.777 371.562   3
 -12   1   6-260.634 382.779   2
 -12   1   5 168.042 336.356   2
 -12   1   4-800.957 661.446   2
 -12  -1   4 9.83092 338.821   2
 -12   1   3-1131.72 764.559   2
 -12  -1   3 514.963 638.356   2
 -12   1   2-912.152 689.864   2
 -12  -1   2-309.847 431.506   2
 -12   1   1 539.598 609.588   2
 -12  -1   1 283.113 408.950   2
 -12   1   0 977.044 817.683   2
 -12  -1   0 937.889 723.911   2
 -12   1  -1-191.894 359.370   2
 -12  -1  -1-716.460 657.525   2
 -12   1  -2-485.107 544.854   2
 -12  -1  -2-111.595 325.283   2
 -12   2   6 412.860 453.189   2
 -12   2   5-63.9517 223.395   2
 -12   2   4 152.702 338.066   2
 -12   2   3-137.465 302.234   2
 -12  -2   3-1608.12 945.959   2
 -12   2   2-85.2607 267.605   2
 -12  -2   2 133.147 351.656   2
 -12   2   1 816.385 664.649   2
 -12  -2   1 919.714 717.832   2
 -12   2   0 721.738 548.182   2
 -12  -2   0-1217.25 830.684   2
 -12   2  -1-57.2478 225.927   2
 -12  -2  -1-863.803 719.038   2
 -12   2  -2 1584.77 889.466   2
 -12   3   5-594.134 550.038   2
 -12   3   4 877.619 697.092   2
 -12   3   3-1182.33 662.601   2
 -12   3   2 861.161 761.813   2
 -12  -3   2 478.135 526.430   2
 -12   3   1 41.9719 247.551   2
 -12  -3   1 358.002 478.723   2
 -12   3   0 604.632 483.305   2
 -12  -3   0 142.137 366.610   2
 -12   3  -1 145.592 317.941   2
 -12   3  -2 114.516 317.879   2
 -12   4   5 1483.10 828.243   2
 -12   4   4 3.05365 161.350   2
 -12   4   3 182.645 357.590   2
 -12   4   2-254.121 376.793   2
 -12   4   1-122.136 302.515   2
 -12  -4   1 239.624 325.901   2
 -12   4   0 1413.83 860.046   2
 -12   4  -1 719.817 650.750   2
 -12   4  -2 725.613 650.427   2
 -12   5   4 1119.02 737.898   2
 -12   5   3-339.320 435.463   2
 -12   5   2 267.506 379.385   2
 -12   5   1 67.4016 232.191   2
 -12   5   0 952.260 751.879   2
 -12   5  -1 45.4100 233.187   2
 -12   6   4-790.212 630.706   2
 -12   6   3-421.798 477.359   2
 -12   6   2-407.544 457.104   2
 -12   6   1-75.7938 236.404   2
 -12   6   0 674.142 615.768   2
 -12   7   3 641.037 554.815   2
 -12   7   2 900.852 827.758   2
 -12   7   1 763.392 633.206   2
 -12   8   1-868.280 688.411   2
   0   0   0    0.00    0.00   0
TITL chenwei_0311 in P2(1)/c
REM P2(1)/c (#14 in standard setting)
CELL 0.71073   9.659097  15.890264  16.151394  90.0000  91.9830  90.0000
ZERR   11.00   0.000664   0.001160   0.001185   0.0000   0.0066   0.0000
LATT  1
SYMM -x, y+1/2,-z+1/2
SFAC C H N O
UNIT 121.00 110.00 11.00 11.00
TREF
HKLF 4
END
;
_shelx_hkl_checksum              55996
_shelx_shelxl_version_number     2014/7
_olex2_submission_special_instructions 'No special instructions were received'
loop_
_space_group_symop_operation_xyz
'x, y, z'
'-x, y+1/2, -z+1/2'
'-x, -y, -z'
'x, -y-1/2, z-1/2'
loop_
_atom_site_label
_atom_site_type_symbol
_atom_site_fract_x
_atom_site_fract_y
_atom_site_fract_z
_atom_site_U_iso_or_equiv
_atom_site_adp_type
_atom_site_occupancy
_atom_site_site_symmetry_order
_atom_site_calc_flag
_atom_site_refinement_flags_posn
_atom_site_refinement_flags_adp
S1 S 0.71391(9) 0.23869(6) 0.17053(6) 0.0486(3) Uani 1 1 d . .
O1 O 0.6087(2) 0.20466(15) 0.22139(15) 0.0596(7) Uani 1 1 d . .
O2 O 0.8174(2) 0.18143(14) 0.14213(15) 0.0575(7) Uani 1 1 d . .
N1 N 0.9519(2) 0.40863(17) 0.26412(17) 0.0461(7) Uani 1 1 d . .
N2 N 0.7780(3) 0.31859(17) 0.22199(16) 0.0475(7) Uani 1 1 d . .
C1 C 1.0959(3) 0.4232(2) 0.2586(2) 0.0452(8) Uani 1 1 d . .
C2 C 1.1687(3) 0.4858(2) 0.2936(2) 0.0539(9) Uani 1 1 d . .
H2 H 1.1210 0.5285 0.3196 0.065 Uiso 1 1 calc R .
C3 C 1.3179(4) 0.4906(3) 0.2931(2) 0.0633(11) Uani 1 1 d . .
H3 H 1.3573 0.5440 0.2931 0.076 Uiso 1 1 calc R .
C4 C 1.4047(4) 0.4246(3) 0.2927(2) 0.0618(11) Uani 1 1 d . .
H4 H 1.4989 0.4363 0.2912 0.074 Uiso 1 1 calc R .
C5 C 1.3651(4) 0.3379(3) 0.2946(2) 0.0604(11) Uani 1 1 d . .
H5 H 1.4252 0.3013 0.3229 0.072 Uiso 1 1 calc R .
C6 C 1.2508(3) 0.3043(2) 0.2598(2) 0.0522(9) Uani 1 1 d . .
H6 H 1.2309 0.2480 0.2693 0.063 Uiso 1 1 calc R .
C7 C 1.1535(3) 0.3554(2) 0.2056(2) 0.0464(9) Uani 1 1 d . .
H7 H 1.2047 0.3809 0.1607 0.056 Uiso 1 1 calc R .
C8 C 1.0258(3) 0.3083(2) 0.1689(2) 0.0468(9) Uani 1 1 d . .
H8 H 1.0363 0.2479 0.1801 0.056 Uiso 1 1 calc R .
C9 C 0.9058(3) 0.3422(2) 0.2177(2) 0.0424(8) Uani 1 1 d . .
C10 C 1.0055(3) 0.3217(2) 0.0762(2) 0.0518(9) Uani 1 1 d . U
C11 C 0.9395(4) 0.3915(3) 0.0440(3) 0.0696(12) Uani 1 1 d . U
H11 H 0.9027 0.4312 0.0794 0.084 Uiso 1 1 calc R .
C12 C 0.9272(5) 0.4031(3) -0.0418(3) 0.0928(15) Uani 1 1 d . U
H12 H 0.8812 0.4500 -0.0635 0.111 Uiso 1 1 calc R .
C13 C 0.9833(6) 0.3451(4) -0.0936(3) 0.108(2) Uani 1 1 d . U
H13 H 0.9755 0.3531 -0.1507 0.130 Uiso 1 1 calc R .
C14 C 1.0501(6) 0.2762(4) -0.0631(3) 0.1074(19) Uani 1 1 d . U
H14 H 1.0885 0.2374 -0.0988 0.129 Uiso 1 1 calc R .
C15 C 1.0607(4) 0.2640(3) 0.0223(3) 0.0804(14) Uani 1 1 d . U
H15 H 1.1054 0.2164 0.0434 0.097 Uiso 1 1 calc R .
C16 C 0.6307(3) 0.2860(2) 0.0837(2) 0.0453(8) Uani 1 1 d . .
C17 C 0.5272(4) 0.3437(3) 0.0957(2) 0.0680(12) Uani 1 1 d . .
H17 H 0.5028 0.3581 0.1491 0.082 Uiso 1 1 calc R .
C18 C 0.4598(4) 0.3801(3) 0.0280(3) 0.0777(13) Uani 1 1 d . .
H18 H 0.3887 0.4184 0.0360 0.093 Uiso 1 1 calc R .
C19 C 0.4969(4) 0.3601(3) -0.0516(2) 0.0639(11) Uani 1 1 d . .
C20 C 0.6002(4) 0.3022(3) -0.0619(2) 0.0642(11) Uani 1 1 d . .
H20 H 0.6250 0.2876 -0.1151 0.077 Uiso 1 1 calc R .
C21 C 0.6677(3) 0.2653(2) 0.0049(2) 0.0549(10) Uani 1 1 d . .
H21 H 0.7380 0.2265 -0.0031 0.066 Uiso 1 1 calc R .
C22 C 0.4207(5) 0.4010(3) -0.1247(3) 0.0977(16) Uani 1 1 d . .
H22A H 0.4633 0.3846 -0.1751 0.147 Uiso 1 1 calc GR .
H22B H 0.4249 0.4611 -0.1190 0.147 Uiso 1 1 calc GR .
H22C H 0.3257 0.3832 -0.1264 0.147 Uiso 1 1 calc GR .
C23 C 0.8662(3) 0.4568(2) 0.3181(2) 0.0433(8) Uani 1 1 d . .
C24 C 0.8569(4) 0.4351(3) 0.3996(2) 0.0763(13) Uani 1 1 d . .
H24 H 0.9048 0.3884 0.4204 0.092 Uiso 1 1 calc R .
C25 C 0.7760(4) 0.4827(3) 0.4512(2) 0.0816(14) Uani 1 1 d . .
H25 H 0.7695 0.4672 0.5064 0.098 Uiso 1 1 calc R .
C26 C 0.7055(3) 0.5520(2) 0.4224(2) 0.0534(9) Uani 1 1 d . .
C27 C 0.7155(4) 0.5718(2) 0.3411(2) 0.0598(10) Uani 1 1 d . .
H27 H 0.6667 0.6179 0.3200 0.072 Uiso 1 1 calc R .
C28 C 0.7962(3) 0.5253(2) 0.2886(2) 0.0589(10) Uani 1 1 d . .
H28 H 0.8025 0.5410 0.2334 0.071 Uiso 1 1 calc R .
C29 C 0.6163(4) 0.6042(3) 0.4783(3) 0.0855(14) Uani 1 1 d . .
H29A H 0.6166 0.6618 0.4602 0.128 Uiso 1 1 calc GR .
H29B H 0.6526 0.6009 0.5342 0.128 Uiso 1 1 calc GR .
H29C H 0.5231 0.5831 0.4757 0.128 Uiso 1 1 calc GR .
loop_
_atom_site_aniso_label
_atom_site_aniso_U_11
_atom_site_aniso_U_22
_atom_site_aniso_U_33
_atom_site_aniso_U_23
_atom_site_aniso_U_13
_atom_site_aniso_U_12
S1 0.0537(5) 0.0458(6) 0.0470(6) -0.0013(5) 0.0096(4) -0.0066(4)
O1 0.0632(14) 0.0638(17) 0.0526(16) 0.0095(14) 0.0153(12) -0.0153(13)
O2 0.0612(14) 0.0439(15) 0.0683(18) -0.0061(14) 0.0149(12) 0.0023(12)
N1 0.0448(15) 0.0402(17) 0.0536(18) -0.0110(15) 0.0068(13) 0.0041(13)
N2 0.0488(16) 0.0511(18) 0.0429(17) -0.0105(15) 0.0066(12) -0.0050(14)
C1 0.0463(19) 0.041(2) 0.048(2) -0.0010(18) 0.0050(15) 0.0026(16)
C2 0.056(2) 0.047(2) 0.059(2) -0.010(2) 0.0028(17) 0.0023(18)
C3 0.058(2) 0.065(3) 0.067(3) -0.012(2) 0.0073(19) -0.016(2)
C4 0.051(2) 0.078(3) 0.057(3) -0.015(2) 0.0101(18) -0.005(2)
C5 0.052(2) 0.076(3) 0.053(2) -0.005(2) 0.0035(17) 0.014(2)
C6 0.056(2) 0.050(2) 0.052(2) -0.003(2) 0.0145(17) 0.0107(19)
C7 0.0483(19) 0.046(2) 0.046(2) -0.0043(18) 0.0111(15) -0.0020(16)
C8 0.0490(19) 0.044(2) 0.048(2) -0.0096(18) 0.0099(15) -0.0002(16)
C9 0.0471(19) 0.041(2) 0.040(2) 0.0005(17) 0.0071(15) 0.0018(16)
C10 0.056(2) 0.054(2) 0.046(2) -0.010(2) 0.0101(16) -0.0170(18)
C11 0.091(3) 0.064(3) 0.054(3) 0.004(2) 0.004(2) -0.020(2)
C12 0.119(4) 0.089(4) 0.070(3) 0.019(3) -0.007(3) -0.038(3)
C13 0.140(4) 0.134(5) 0.051(3) 0.000(3) 0.013(3) -0.066(4)
C14 0.124(4) 0.136(5) 0.066(3) -0.038(4) 0.043(3) -0.040(4)
C15 0.086(3) 0.089(3) 0.068(3) -0.027(3) 0.028(2) -0.012(2)
C16 0.0498(19) 0.046(2) 0.041(2) -0.0010(17) 0.0067(15) -0.0062(17)
C17 0.085(3) 0.079(3) 0.041(2) -0.004(2) 0.012(2) 0.017(2)
C18 0.086(3) 0.087(3) 0.060(3) 0.007(3) 0.006(2) 0.027(3)
C19 0.074(3) 0.074(3) 0.044(2) 0.003(2) 0.0011(19) -0.013(2)
C20 0.066(2) 0.088(3) 0.039(2) -0.011(2) 0.0070(18) -0.008(2)
C21 0.056(2) 0.067(3) 0.042(2) -0.013(2) 0.0070(16) -0.0043(19)
C22 0.119(4) 0.108(4) 0.065(3) 0.016(3) -0.013(3) 0.000(3)
C23 0.0466(18) 0.038(2) 0.045(2) -0.0052(17) 0.0044(15) 0.0047(16)
C24 0.103(3) 0.076(3) 0.052(3) 0.018(2) 0.016(2) 0.047(3)
C25 0.116(3) 0.086(3) 0.044(2) 0.012(2) 0.028(2) 0.044(3)
C26 0.061(2) 0.050(2) 0.049(2) -0.009(2) 0.0113(17) 0.0093(19)
C27 0.071(2) 0.054(2) 0.055(2) 0.002(2) 0.0065(19) 0.023(2)
C28 0.071(2) 0.064(3) 0.042(2) 0.008(2) 0.0072(17) 0.020(2)
C29 0.098(3) 0.082(3) 0.079(3) -0.017(3) 0.035(3) 0.023(3)
loop_
_atom_type_symbol
_atom_type_description
_atom_type_scat_dispersion_real
_atom_type_scat_dispersion_imag
_atom_type_scat_source
C C 0.0033 0.0016 'International Tables Vol C Tables 4.2.6.8 and 6.1.1.4'
H H 0.0000 0.0000 'International Tables Vol C Tables 4.2.6.8 and 6.1.1.4'
N N 0.0061 0.0033 'International Tables Vol C Tables 4.2.6.8 and 6.1.1.4'
O O 0.0106 0.0060 'International Tables Vol C Tables 4.2.6.8 and 6.1.1.4'
S S 0.1246 0.1234 'International Tables Vol C Tables 4.2.6.8 and 6.1.1.4'
loop_
_geom_angle_atom_site_label_1
_geom_angle_atom_site_label_2
_geom_angle_atom_site_label_3
_geom_angle
O1 S1 O2 117.27(15)
O1 S1 N2 105.42(14)
O1 S1 C16 107.72(14)
O2 S1 N2 113.59(14)
O2 S1 C16 108.59(15)
N2 S1 C16 103.23(16)
C1 N1 C23 122.5(3)
C9 N1 C1 113.3(3)
C9 N1 C23 124.1(2)
C9 N2 S1 123.0(2)
N1 C1 C7 107.7(3)
C2 C1 N1 126.9(3)
C2 C1 C7 125.4(3)
C1 C2 H2 118.3
C1 C2 C3 123.4(3)
C3 C2 H2 118.3
C2 C3 H3 117.2
C4 C3 C2 125.6(4)
C4 C3 H3 117.2
C3 C4 H4 117.1
C3 C4 C5 125.8(3)
C5 C4 H4 117.1
C4 C5 H5 116.7
C6 C5 C4 126.5(4)
C6 C5 H5 116.7
C5 C6 H6 119.3
C5 C6 C7 121.5(3)
C7 C6 H6 119.3
C1 C7 C6 107.1(3)
C1 C7 H7 109.5
C1 C7 C8 105.1(2)
C6 C7 H7 109.5
C6 C7 C8 115.9(3)
C8 C7 H7 109.5
C7 C8 H8 109.1
C9 C8 C7 104.0(3)
C9 C8 H8 109.1
C10 C8 C7 112.6(3)
C10 C8 H8 109.1
C10 C8 C9 112.7(3)
N1 C9 C8 108.6(3)
N2 C9 N1 119.3(3)
N2 C9 C8 132.0(3)
C11 C10 C8 122.0(3)
C11 C10 C15 118.8(4)
C15 C10 C8 119.2(4)
C10 C11 H11 119.8
C10 C11 C12 120.3(4)
C12 C11 H11 119.8
C11 C12 H12 120.2
C13 C12 C11 119.6(5)
C13 C12 H12 120.2
C12 C13 H13 119.5
C14 C13 C12 121.0(5)
C14 C13 H13 119.5
C13 C14 H14 120.3
C13 C14 C15 119.3(5)
C15 C14 H14 120.3
C10 C15 C14 120.9(5)
C10 C15 H15 119.5
C14 C15 H15 119.5
C17 C16 S1 119.0(3)
C21 C16 S1 120.7(3)
C21 C16 C17 120.3(3)
C16 C17 H17 120.3
C16 C17 C18 119.5(4)
C18 C17 H17 120.3
C17 C18 H18 119.7
C17 C18 C19 120.7(4)
C19 C18 H18 119.7
C18 C19 C22 119.4(4)
C20 C19 C18 118.6(4)
C20 C19 C22 121.9(4)
C19 C20 H20 119.4
C19 C20 C21 121.3(4)
C21 C20 H20 119.4
C16 C21 C20 119.6(3)
C16 C21 H21 120.2
C20 C21 H21 120.2
C19 C22 H22A 109.5
C19 C22 H22B 109.5
C19 C22 H22C 109.5
H22A C22 H22B 109.5
H22A C22 H22C 109.5
H22B C22 H22C 109.5
C24 C23 N1 120.4(3)
C28 C23 N1 120.2(3)
C28 C23 C24 119.4(3)
C23 C24 H24 120.1
C23 C24 C25 119.8(4)
C25 C24 H24 120.1
C24 C25 H25 119.3
C26 C25 C24 121.3(4)
C26 C25 H25 119.3
C25 C26 C29 121.7(4)
C27 C26 C25 117.6(3)
C27 C26 C29 120.7(4)
C26 C27 H27 119.0
C26 C27 C28 122.0(3)
C28 C27 H27 119.0
C23 C28 C27 119.8(3)
C23 C28 H28 120.1
C27 C28 H28 120.1
C26 C29 H29A 109.5
C26 C29 H29B 109.5
C26 C29 H29C 109.5
H29A C29 H29B 109.5
H29A C29 H29C 109.5
H29B C29 H29C 109.5
loop_
_geom_bond_atom_site_label_1
_geom_bond_atom_site_label_2
_geom_bond_distance
S1 O1 1.435(2)
S1 O2 1.438(2)
S1 N2 1.628(3)
S1 C16 1.761(3)
N1 C1 1.416(4)
N1 C9 1.361(4)
N1 C23 1.443(4)
N2 C9 1.295(4)
C1 C2 1.332(4)
C1 C7 1.495(4)
C2 H2 0.9300
C2 C3 1.443(4)
C3 H3 0.9300
C3 C4 1.342(5)
C4 H4 0.9300
C4 C5 1.430(5)
C5 H5 0.9300
C5 C6 1.333(5)
C6 H6 0.9300
C6 C7 1.500(5)
C7 H7 0.9800
C7 C8 1.544(4)
C8 H8 0.9800
C8 C9 1.522(4)
C8 C10 1.519(5)
C10 C11 1.372(5)
C10 C15 1.384(5)
C11 H11 0.9300
C11 C12 1.398(6)
C12 H12 0.9300
C12 C13 1.371(7)
C13 H13 0.9300
C13 C14 1.355(7)
C14 H14 0.9300
C14 C15 1.394(6)
C15 H15 0.9300
C16 C17 1.376(5)
C16 C21 1.372(4)
C17 H17 0.9300
C17 C18 1.380(5)
C18 H18 0.9300
C18 C19 1.383(5)
C19 C20 1.372(5)
C19 C22 1.516(5)
C20 H20 0.9300
C20 C21 1.373(5)
C21 H21 0.9300
C22 H22A 0.9600
C22 H22B 0.9600
C22 H22C 0.9600
C23 C24 1.367(5)
C23 C28 1.359(4)
C24 H24 0.9300
C24 C25 1.387(5)
C25 H25 0.9300
C25 C26 1.368(5)
C26 C27 1.358(5)
C26 C29 1.516(4)
C27 H27 0.9300
C27 C28 1.384(4)
C28 H28 0.9300
C29 H29A 0.9600
C29 H29B 0.9600
C29 H29C 0.9600
loop_
_geom_torsion_atom_site_label_1
_geom_torsion_atom_site_label_2
_geom_torsion_atom_site_label_3
_geom_torsion_atom_site_label_4
_geom_torsion
S1 N2 C9 N1 -178.6(2)
S1 N2 C9 C8 0.2(5)
S1 C16 C17 C18 -178.9(3)
S1 C16 C21 C20 179.2(3)
O1 S1 N2 C9 148.8(3)
O1 S1 C16 C17 52.2(3)
O1 S1 C16 C21 -127.3(3)
O2 S1 N2 C9 19.1(3)
O2 S1 C16 C17 -179.9(3)
O2 S1 C16 C21 0.6(3)
N1 C1 C2 C3 172.4(3)
N1 C1 C7 C6 -114.8(3)
N1 C1 C7 C8 9.0(4)
N1 C23 C24 C25 178.9(4)
N1 C23 C28 C27 -179.2(3)
N2 S1 C16 C17 -59.0(3)
N2 S1 C16 C21 121.4(3)
C1 N1 C9 N2 175.0(3)
C1 N1 C9 C8 -4.0(4)
C1 N1 C23 C24 -84.3(4)
C1 N1 C23 C28 94.3(4)
C1 C2 C3 C4 -30.6(6)
C1 C7 C8 C9 -10.9(3)
C1 C7 C8 C10 111.4(3)
C2 C1 C7 C6 65.4(4)
C2 C1 C7 C8 -170.7(3)
C2 C3 C4 C5 -1.4(7)
C3 C4 C5 C6 33.8(6)
C4 C5 C6 C7 6.2(5)
C5 C6 C7 C1 -63.5(4)
C5 C6 C7 C8 179.6(3)
C6 C7 C8 C9 107.1(3)
C6 C7 C8 C10 -130.6(3)
C7 C1 C2 C3 -7.9(6)
C7 C8 C9 N1 9.3(3)
C7 C8 C9 N2 -169.6(4)
C7 C8 C10 C11 -83.0(4)
C7 C8 C10 C15 94.0(4)
C8 C10 C11 C12 177.7(3)
C8 C10 C15 C14 -176.9(4)
C9 N1 C1 C2 176.4(3)
C9 N1 C1 C7 -3.3(4)
C9 N1 C23 C24 91.7(4)
C9 N1 C23 C28 -89.7(4)
C9 C8 C10 C11 34.2(4)
C9 C8 C10 C15 -148.8(3)
C10 C8 C9 N1 -112.9(3)
C10 C8 C9 N2 68.2(5)
C10 C11 C12 C13 -1.0(6)
C11 C10 C15 C14 0.2(6)
C11 C12 C13 C14 0.4(8)
C12 C13 C14 C15 0.5(8)
C13 C14 C15 C10 -0.8(7)
C15 C10 C11 C12 0.7(6)
C16 S1 N2 C9 -98.3(3)
C16 C17 C18 C19 -1.1(6)
C17 C16 C21 C20 -0.3(5)
C17 C18 C19 C20 1.3(6)
C17 C18 C19 C22 179.9(4)
C18 C19 C20 C21 -1.0(6)
C19 C20 C21 C16 0.5(6)
C21 C16 C17 C18 0.6(6)
C22 C19 C20 C21 -179.5(4)
C23 N1 C1 C2 -7.3(5)
C23 N1 C1 C7 173.0(3)
C23 N1 C9 N2 -1.2(5)
C23 N1 C9 C8 179.7(3)
C23 C24 C25 C26 -0.6(7)
C24 C23 C28 C27 -0.6(6)
C24 C25 C26 C27 1.2(7)
C24 C25 C26 C29 179.7(4)
C25 C26 C27 C28 -1.5(6)
C26 C27 C28 C23 1.2(6)
C28 C23 C24 C25 0.3(6)
C29 C26 C27 C28 180.0(4)
