#------------------------------------------------------------------------------
#$Date: 2016-10-29 04:41:55 +0300 (Sat, 29 Oct 2016) $
#$Revision: 187664 $
#$URL: file:///home/coder/svn-repositories/cod/cif/1/54/43/1544396.cif $
#------------------------------------------------------------------------------
#
# This file is available in the Crystallography Open Database (COD),
# http://www.crystallography.net/. The original data for this entry
# were provided by IUCr Journals, http://journals.iucr.org/.
#
# The file may be used within the scientific community so long as
# proper attribution is given to the journal article from which the
# data were obtained.
#
data_1544396
loop_
_publ_author_name
'El Bakri, Youness'
'Ramli, Youssef'
'Harmaoui, Abdallah'
'Elhafi, Mohamed'
'Essassi, El Mokhtar'
'Mague, Joel T.'
_publ_section_title
;
 5-Methoxy-2-{[(4-methoxy-3,5-dimethylpyridin-2-yl)methyl)]sulfinyl}-1-(prop-2-yn-1-yl)-1<i>H</i>-benzimidazole
;
_journal_coeditor_code           SU4087
_journal_issue                   10
_journal_name_full               IUCrData
_journal_page_first              x161695
_journal_paper_doi               10.1107/S2414314616016953
_journal_volume                  1
_journal_year                    2016
_chemical_formula_iupac          'C20 H21 N3 O3 S'
_chemical_formula_moiety         'C20 H21 N3 O3 S'
_chemical_formula_sum            'C20 H21 N3 O3 S'
_chemical_formula_weight         383.46
_chemical_name_systematic
5-Methoxy-2-{[(4-methoxy-3,5-dimethylpyridin-2-yl)methyl)]sulfinyl}-1-(prop-2-yn-1-yl)-1<i>H</i>-benzimidazole
_space_group_crystal_system      monoclinic
_space_group_IT_number           14
_space_group_name_Hall           '-P 2ybc'
_space_group_name_H-M_alt        'P 1 21/c 1'
_symmetry_space_group_name_Hall  '-P 2ybc'
_symmetry_space_group_name_H-M   'P 1 21/c 1'
_atom_sites_solution_hydrogens   geom
_atom_sites_solution_primary     direct
_atom_sites_solution_secondary   difmap
_audit_creation_method           SHELXL-2014/7
_cell_angle_alpha                90
_cell_angle_beta                 91.9610(10)
_cell_angle_gamma                90
_cell_formula_units_Z            4
_cell_length_a                   4.5974(3)
_cell_length_b                   30.675(2)
_cell_length_c                   13.8090(9)
_cell_measurement_reflns_used    6538
_cell_measurement_temperature    296(2)
_cell_measurement_theta_max      25.3231
_cell_measurement_theta_min      2.4790
_cell_volume                     1946.3(2)
_computing_cell_refinement
;
<i>SAINT</i> (Bruker, 2016)
;
_computing_data_collection
;
<i>APEX3</i> (Bruker, 2016)
;
_computing_data_reduction
;
<i>SAINT</i> (Bruker, 2016)
;
_computing_molecular_graphics
;
DIAMOND (Brandenburg & Putz, 2012) and Mercry (Macrae <i>et al.</i>,
2008)
;
_computing_publication_material
;
<i>SHELXTL</i> (Sheldrick, 2008)
;
_computing_structure_refinement
;
<i>SHELXL2014</i> (Sheldrick, 2015<i>b</i>)
;
_computing_structure_solution
;
<i>SHELXT</i> (Sheldrick, 2015<i>a</i>)
;
_diffrn_ambient_temperature      296(2)
_diffrn_detector_area_resol_mean 8.3333
_diffrn_measured_fraction_theta_full 0.997
_diffrn_measured_fraction_theta_max 0.994
_diffrn_measurement_device_type  'Bruker SMART APEX CCD'
_diffrn_measurement_method       '\f and \w scans'
_diffrn_radiation_monochromator  graphite
_diffrn_radiation_type           MoK\a
_diffrn_radiation_wavelength     0.71073
_diffrn_reflns_av_R_equivalents  0.0393
_diffrn_reflns_limit_h_max       6
_diffrn_reflns_limit_h_min       -6
_diffrn_reflns_limit_k_max       40
_diffrn_reflns_limit_k_min       -40
_diffrn_reflns_limit_l_max       18
_diffrn_reflns_limit_l_min       -18
_diffrn_reflns_number            35690
_diffrn_reflns_theta_full        27.900
_diffrn_reflns_theta_max         27.947
_diffrn_reflns_theta_min         1.328
_exptl_absorpt_coefficient_mu    0.191
_exptl_absorpt_correction_T_max  0.99
_exptl_absorpt_correction_T_min  0.82
_exptl_absorpt_correction_type   multi-scan
_exptl_absorpt_process_details
;
(TWINABS; Sheldrick, 2009)
;
_exptl_crystal_colour            colourless
_exptl_crystal_density_diffrn    1.309
_exptl_crystal_density_method    'not measured'
_exptl_crystal_description       rod
_exptl_crystal_F_000             808
_exptl_crystal_size_max          0.32
_exptl_crystal_size_mid          0.12
_exptl_crystal_size_min          0.06
_refine_diff_density_max         0.846
_refine_diff_density_min         -0.367
_refine_ls_extinction_method     none
_refine_ls_goodness_of_fit_ref   1.099
_refine_ls_hydrogen_treatment    constr
_refine_ls_matrix_type           full
_refine_ls_number_parameters     247
_refine_ls_number_reflns         4617
_refine_ls_number_restraints     0
_refine_ls_restrained_S_all      1.099
_refine_ls_R_factor_all          0.1019
_refine_ls_R_factor_gt           0.0825
_refine_ls_shift/su_max          0.001
_refine_ls_shift/su_mean         0.000
_refine_ls_structure_factor_coef Fsqd
_refine_ls_weighting_details
'w=1/[\s^2^(Fo^2^)+(0.0777P)^2^+2.7928P] where P=(Fo^2^+2Fc^2^)/3'
_refine_ls_weighting_scheme      calc
_refine_ls_wR_factor_gt          0.2167
_refine_ls_wR_factor_ref         0.2257
_reflns_number_gt                3504
_reflns_number_total             4617
_reflns_threshold_expression     'I > 2\s(I)'
_cod_data_source_file            su4087sup1.cif
_cod_data_source_block           I
_cod_database_code               1544396
_shelx_space_group_comment
;
The symmetry employed for this shelxl refinement is uniquely defined
by the following loop, which should always be used as a source of
symmetry information in preference to the above space-group names.
They are only intended as comments.
;
_shelx_estimated_absorpt_t_min   0.941
_shelx_estimated_absorpt_t_max   0.989
_shelx_hkl_file
;
   1   0   0  141.28    4.44
   2   0   0    0.41    0.04
   3   0   0    0.03    0.06
   4   0   0   35.87    1.40
   5   0   0    3.46    0.24
   6   0   0    0.00    0.21
   0   1   0    0.00    0.00
   1   1   0  312.54    6.94
   2   1   0    1.59    0.05
   3   1   0   11.49    0.30
   4   1   0    0.75    0.09
   5   1   0    0.41    0.10
   6   1   0    0.11    0.15
   0   2   0   11.40    0.44
   1   2   0  167.04    3.71
   2   2   0   16.45    0.41
   3   2   0    7.58    0.21
   4   2   0    2.00    0.11
   5   2   0    0.02    0.09
   6   2   0    0.47    0.15
   0   3   0    0.01    0.01
   1   3   0  158.96    3.53
   2   3   0    2.61    0.07
   3   3   0   18.85    0.47
   4   3   0    1.84    0.11
   5   3   0    0.05    0.11
   6   3   0    0.15    0.16
   0   4   0   23.25    0.73
   1   4   0   21.15    0.47
   2   4   0   21.40    0.48
   3   4   0   13.31    0.34
   4   4   0    0.17    0.08
   5   4   0    3.99    0.18
   6   4   0    0.10    0.16
   0   5   0    0.02    0.01
   1   5   0  409.80   10.01
   2   5   0    0.74    0.04
   3   5   0   13.60    0.35
   4   5   0    9.09    0.28
   5   5   0    0.56    0.11
   6   5   0    1.23    0.35
   0   6   0   54.09    1.70
   1   6   0   54.34    1.21
   2   6   0   21.99    0.50
   3   6   0    0.61    0.05
   4   6   0    0.07    0.08
   5   6   0    2.28    0.14
   0   7   0    0.00    0.02
   1   7   0    5.13    0.12
   2   7   0    0.16    0.03
   3   7   0    1.27    0.07
   4   7   0    0.50    0.08
   5   7   0    0.09    0.10
   0   8   0   10.11    0.33
   1   8   0  120.00    2.67
   2   8   0  154.18    3.43
   3   8   0   12.04    0.31
   4   8   0    2.34    0.12
   5   8   0    0.98    0.12
   0   9   0    0.05    0.02
   1   9   0   84.45    1.88
   2   9   0    1.64    0.06
   3   9   0    3.39    0.11
   4   9   0    3.04    0.14
   5   9   0    0.09    0.11
   0  10   0   84.11    2.65
   1  10   0   57.89    1.29
   2  10   0    1.04    0.05
   3  10   0    7.01    0.19
   4  10   0    0.22    0.08
   5  10   0    0.27    0.12
   0  11   0    0.06    0.03
   1  11   0   82.96    1.85
   2  11   0   55.84    1.25
   3  11   0    0.05    0.05
   4  11   0    0.15    0.08
   5  11   0    2.09    0.15
   0  12   0   13.87    0.45
   1  12   0    2.10    0.06
   2  12   0   64.50    1.44
   3  12   0    2.52    0.10
   4  12   0    0.72    0.09
   5  12   0    0.30    0.14
   0  13   0    0.05    0.03
   1  13   0  208.52    4.64
   2  13   0   23.32    0.53
   3  13   0    4.17    0.13
   4  13   0    0.94    0.10
   5  13   0    1.67    0.16
   0  14   0   22.57    0.72
   1  14   0   37.59    0.93
   2  14   0   14.11    0.33
   3  14   0    1.92    0.09
   4  14   0    0.33    0.10
   5  14   0    0.29    0.14
   0  15   0    0.07    0.03
   1  15   0    1.27    0.06
   2  15   0    0.45    0.04
   3  15   0    0.25    0.06
   4  15   0    7.86    0.30
   5  15   0    0.22    0.13
   0  16   0    0.86    0.05
   1  16   0   30.10    0.75
   2  16   0    0.33    0.04
   3  16   0    3.52    0.14
   4  16   0    2.20    0.15
   5  16   0    1.86    0.17
   0  17   0    0.13    0.03
   1  17   0    1.48    0.07
   2  17   0    1.76    0.08
   3  17   0    6.39    0.21
   4  17   0    0.12    0.10
   5  17   0    0.00    0.14
   0  18   0   30.13    0.97
   1  18   0    6.36    0.18
   2  18   0   23.55    0.59
   3  18   0    1.68    0.12
   4  18   0    0.08    0.10
   5  18   0    0.95    0.16
   0  19   0    0.21    0.04
   1  19   0    1.93    0.08
   2  19   0    2.69    0.11
   3  19   0    0.41    0.08
   4  19   0    0.89    0.12
   5  19   0    0.64    0.16
   0  20   0   15.85    0.64
   1  20   0    6.52    0.19
   2  20   0   22.16    0.56
   3  20   0    0.61    0.09
   4  20   0    0.16    0.11
   5  20   0    1.60    0.18
   0  21   0    0.06    0.08
   1  21   0    0.17    0.05
   2  21   0   12.85    0.34
   3  21   0    6.11    0.21
   4  21   0    3.79    0.20
   5  21   0    0.14    0.15
   0  22   0    0.62    0.10
   1  22   0   14.91    0.44
   2  22   0    9.43    0.26
   3  22   0    2.66    0.14
   4  22   0    1.25    0.14
   5  22   0    0.18    0.17
   0  23   0    0.44    0.10
   1  23   0    0.40    0.08
   2  23   0    2.04    0.10
   3  23   0    3.88    0.19
   4  23   0    1.00    0.14
   0  24   0   48.99    1.92
   1  24   0    0.41    0.08
   2  24   0    2.75    0.12
   3  24   0    0.97    0.14
   4  24   0    1.29    0.15
   0  25   0    0.40    0.12
   1  25   0   25.71    0.73
   2  25   0    0.89    0.10
   3  25   0    0.19    0.10
   4  25   0    0.36    0.14
   0  26   0   27.17    1.09
   1  26   0    4.13    0.17
   2  26   0    5.25    0.20
   3  26   0    0.10    0.13
   4  26   0    0.51    0.14
   0  27   0    0.34    0.13
   1  27   0    0.29    0.09
   2  27   0    0.35    0.10
   3  27   0    1.95    0.16
   4  27   0    1.05    0.20
   0  28   0    0.23    0.13
   1  28   0    0.72    0.10
   2  28   0    3.74    0.17
   3  28   0    1.11    0.15
   4  28   0    0.85    0.20
   0  29   0    0.04    0.13
   1  29   0    0.26    0.10
   2  29   0    1.31    0.12
   3  29   0    0.23    0.14
   4  29   0    1.24    0.23
   0  30   0    0.75    0.15
   1  30   0    0.95    0.11
   2  30   0    0.75    0.13
   3  30   0    4.27    0.24
   4  30   0    0.88    0.29
   0  31   0    0.00    0.13
   1  31   0    0.90    0.12
   2  31   0    1.15    0.15
   3  31   0    0.07    0.15
   0  32   0    2.49    0.22
   1  32   0    0.29    0.10
   2  32   0    4.51    0.24
   3  32   0    1.28    0.18
   0  33   0    0.04    0.16
   1  33   0    0.85    0.12
   2  33   0    0.16    0.14
   3  33   0    0.35    0.20
   0  34   0    0.73    0.18
   1  34   0    0.73    0.13
   2  34   0    0.44    0.16
   3  34   0    0.97    0.20
   0  35   0    0.13    0.16
   1  35   0    0.05    0.13
   2  35   0    1.05    0.17
   3  35   0    0.00    0.34
   0  36   0    2.25    0.24
   1  36   0    0.52    0.14
   2  36   0    1.87    0.21
   0  37   0    0.15    0.19
   1  37   0    2.14    0.18
   2  37   0    0.13    0.18
   0  38   0    1.94    0.25
   1  38   0    1.35    0.17
   2  38   0    0.24    0.31
   0  39   0    0.00    0.23
   1  39   0    0.05    0.16
   0  40   0    1.08    0.26
  -6   0   1    0.28    0.23
  -5   0   1    0.16    0.14
  -4   0   1    0.99    0.13
  -3   0   1    0.17    0.05
  -2   0   1    0.09    0.04
  -1   0   1    0.01    0.02
   0   0   1    0.29    0.02
   1   0   1    0.05    0.02
   2   0   1    3.51    0.12
   3   0   1    0.12    0.07
   4   0   1    0.37    0.18
   5   0   1    0.08    0.14
   6   0   1    0.19    0.29
  -6   1   1    0.11    0.15
  -5   1   1    0.49    0.12
  -4   1   1    8.90    0.28
  -3   1   1    1.41    0.07
  -2   1   1   26.48    0.60
  -1   1   1    7.49    0.17
   0   1   1   34.12    0.83
   1   1   1  116.75    2.83
   2   1   1   44.85    1.09
   3   1   1    0.90    0.06
   4   1   1    0.68    0.09
   5   1   1    0.73    0.11
   6   1   1    0.64    0.22
  -6   2   1    0.37    0.15
  -5   2   1    3.67    0.18
  -4   2   1    1.22    0.10
  -3   2   1   15.48    0.39
  -2   2   1   42.56    0.95
  -1   2   1  309.67    6.88
   0   2   1  291.50    6.47
   1   2   1  106.33    2.58
   2   2   1  186.30    4.52
   3   2   1    3.86    0.13
   4   2   1   14.03    0.41
   5   2   1    2.10    0.14
   6   2   1    0.07    0.30
  -6   3   1    0.42    0.15
  -5   3   1    0.50    0.11
  -4   3   1    0.16    0.08
  -3   3   1   12.19    0.31
  -2   3   1    2.89    0.08
  -1   3   1   27.70    0.62
   0   3   1    3.65    0.08
   1   3   1  263.91    5.85
   2   3   1    1.34    0.05
   3   3   1   54.83    1.34
   4   3   1    0.41    0.08
   5   3   1    0.58    0.11
   6   3   1    0.08    0.21
  -6   4   1    0.39    0.15
  -5   4   1    1.19    0.12
  -4   4   1    1.82    0.11
  -3   4   1    0.88    0.06
  -2   4   1    6.48    0.16
  -1   4   1  392.86    8.72
   0   4   1   64.63    1.44
   1   4   1  156.38    3.47
   2   4   1    0.86    0.05
   3   4   1    2.98    0.10
   4   4   1    0.86    0.09
   5   4   1    0.93    0.12
   6   4   1    0.69    0.36
  -6   5   1    0.00    0.28
  -5   5   1    0.00    0.09
  -4   5   1    0.89    0.09
  -3   5   1    4.28    0.13
  -2   5   1   37.85    0.85
  -1   5   1  572.18   12.69
   0   5   1    5.98    0.14
   1   5   1    0.63    0.04
   2   5   1   11.99    0.30
   3   5   1   12.95    0.33
   4   5   1    0.11    0.07
   5   5   1    0.21    0.10
  -5   6   1    0.52    0.11
  -4   6   1    0.08    0.07
  -3   6   1   12.40    0.32
  -2   6   1   14.40    0.33
  -1   6   1   34.98    0.78
   0   6   1  119.13    2.64
   1   6   1   79.55    1.77
   2   6   1   50.28    1.13
   3   6   1    3.63    0.12
   4   6   1    4.41    0.17
   5   6   1    0.61    0.11
  -5   7   1    0.35    0.11
  -4   7   1    2.00    0.11
  -3   7   1    5.13    0.15
  -2   7   1   79.99    1.79
  -1   7   1    2.27    0.06
   0   7   1   10.21    0.23
   1   7   1  312.94    6.95
   2   7   1    3.66    0.10
   3   7   1   17.18    0.43
   4   7   1    3.73    0.16
   5   7   1    0.08    0.11
  -5   8   1    2.70    0.15
  -4   8   1    0.88    0.10
  -3   8   1    0.19    0.05
  -2   8   1   76.84    1.71
  -1   8   1   59.62    1.33
   0   8   1    3.09    0.08
   1   8   1    0.92    0.04
   2   8   1    1.95    0.06
   3   8   1    1.50    0.07
   4   8   1    0.77    0.09
   5   8   1    0.25    0.12
  -5   9   1    0.12    0.11
  -4   9   1    1.14    0.10
  -3   9   1    0.50    0.06
  -2   9   1   29.48    0.67
  -1   9   1   17.20    0.39
   0   9   1   74.79    1.66
   1   9   1   11.59    0.27
   2   9   1   12.92    0.30
   3   9   1    0.19    0.05
   4   9   1    0.41    0.09
   5   9   1    1.25    0.12
  -5  10   1    2.32    0.14
  -4  10   1    1.09    0.10
  -3  10   1    0.31    0.05
  -2  10   1   48.45    1.09
  -1  10   1    8.41    0.20
   0  10   1   87.56    1.95
   1  10   1   19.88    0.45
   2  10   1   14.52    0.33
   3  10   1    1.47    0.07
   4  10   1    6.20    0.22
   5  10   1    0.87    0.12
  -5  11   1    0.48    0.13
  -4  11   1    7.52    0.25
  -3  11   1    4.74    0.14
  -2  11   1    1.26    0.05
  -1  11   1   39.32    0.88
   0  11   1   11.18    0.26
   1  11   1   91.16    2.03
   2  11   1    7.12    0.17
   3  11   1   23.05    0.58
   4  11   1    0.18    0.08
   5  11   1    1.64    0.14
  -5  12   1    0.27    0.13
  -4  12   1    1.03    0.10
  -3  12   1    3.98    0.13
  -2  12   1    4.73    0.12
  -1  12   1    0.63    0.03
   0  12   1   98.03    2.18
   1  12   1   57.32    1.28
   2  12   1    0.40    0.04
   3  12   1    2.27    0.09
   4  12   1    3.70    0.16
   5  12   1    1.01    0.15
  -5  13   1    1.32    0.16
  -4  13   1    5.56    0.20
  -3  13   1    1.52    0.08
  -2  13   1   54.22    1.21
  -1  13   1   14.23    0.33
   0  13   1   22.47    0.51
   1  13   1   27.84    0.63
   2  13   1   19.48    0.45
   3  13   1    2.08    0.09
   4  13   1    1.11    0.12
   5  13   1    0.20    0.11
  -5  14   1    2.28    0.20
  -4  14   1    1.37    0.13
  -3  14   1    1.06    0.07
  -2  14   1    4.84    0.13
  -1  14   1    5.32    0.15
   0  14   1    5.85    0.14
   1  14   1   11.46    0.27
   2  14   1   10.82    0.26
   3  14   1    1.10    0.07
   4  14   1    1.83    0.14
   5  14   1    1.07    0.15
  -5  15   1    0.14    0.14
  -4  15   1    0.33    0.11
  -3  15   1    7.59    0.24
  -2  15   1   25.60    0.58
  -1  15   1   67.68    1.66
   0  15   1    0.84    0.04
   1  15   1   79.14    1.77
   2  15   1    3.27    0.10
   3  15   1    8.18    0.23
   4  15   1    0.10    0.12
   5  15   1    2.50    0.18
  -5  16   1    0.54    0.14
  -4  16   1    5.31    0.24
  -3  16   1    2.05    0.11
  -2  16   1    3.89    0.12
  -1  16   1    5.43    0.15
   0  16   1   67.05    1.50
   1  16   1    2.76    0.08
   2  16   1   10.25    0.24
   3  16   1    4.60    0.17
   4  16   1    0.30    0.11
   5  16   1    0.08    0.14
  -5  17   1    0.07    0.14
  -4  17   1    0.36    0.11
  -3  17   1   11.20    0.34
  -2  17   1   13.87    0.36
  -1  17   1    0.31    0.05
   0  17   1   19.63    0.45
   1  17   1    3.12    0.09
   2  17   1    2.50    0.10
   3  17   1    6.84    0.23
   4  17   1    0.20    0.11
   5  17   1    0.15    0.14
  -5  18   1    1.71    0.18
  -4  18   1    1.42    0.14
  -3  18   1   28.06    0.79
  -2  18   1    1.32    0.07
  -1  18   1    0.58    0.05
   0  18   1   53.21    1.31
   1  18   1    5.94    0.17
   2  18   1    4.59    0.14
   3  18   1   18.46    0.53
   4  18   1    0.14    0.11
   5  18   1    2.54    0.20
  -5  19   1    0.24    0.15
  -4  19   1    2.51    0.17
  -3  19   1    1.28    0.10
  -2  19   1    9.13    0.25
  -1  19   1   13.48    0.35
   0  19   1    0.94    0.05
   1  19   1    0.16    0.05
   2  19   1    5.38    0.16
   3  19   1    0.04    0.07
   4  19   1    3.35    0.19
   5  19   1    0.68    0.16
  -5  20   1    0.14    0.15
  -4  20   1    0.11    0.13
  -3  20   1    1.41    0.10
  -2  20   1    8.54    0.24
  -1  20   1    9.53    0.26
   0  20   1    0.02    0.05
   1  20   1    1.30    0.07
   2  20   1   20.63    0.52
   3  20   1    1.52    0.11
   4  20   1    0.56    0.12
   5  20   1    0.21    0.17
  -5  21   1    0.26    0.17
  -4  21   1    3.09    0.21
  -3  21   1    0.07    0.08
  -2  21   1    6.08    0.18
  -1  21   1   12.64    0.33
   0  21   1    0.32    0.06
   1  21   1    2.73    0.10
   2  21   1    9.81    0.27
   3  21   1    0.90    0.10
   4  21   1    0.26    0.12
   5  21   1    0.62    0.17
  -5  22   1    0.65    0.18
  -4  22   1    0.31    0.12
  -3  22   1    3.30    0.15
  -2  22   1    0.80    0.07
  -1  22   1    4.31    0.14
   0  22   1    0.39    0.07
   1  22   1    3.35    0.14
   2  22   1   27.58    0.70
   3  22   1    0.17    0.09
   4  22   1    0.77    0.13
   5  22   1    0.14    0.24
  -4  23   1    2.98    0.19
  -3  23   1    0.45    0.09
  -2  23   1    0.57    0.07
  -1  23   1   13.60    0.40
   0  23   1    0.52    0.08
   1  23   1   29.82    0.84
   2  23   1    2.64    0.11
   3  23   1    5.50    0.21
   4  23   1    3.48    0.20
  -4  24   1    0.94    0.15
  -3  24   1    5.02    0.20
  -2  24   1    0.62    0.08
  -1  24   1    5.21    0.19
   0  24   1    5.25    0.19
   1  24   1    1.28    0.11
   2  24   1    1.08    0.10
   3  24   1    0.11    0.09
   4  24   1    0.46    0.14
  -4  25   1    1.22    0.15
  -3  25   1    1.90    0.13
  -2  25   1    0.50    0.09
  -1  25   1    1.54    0.11
   0  25   1    6.63    0.23
   1  25   1    6.66    0.23
   2  25   1    0.10    0.08
   3  25   1    0.21    0.09
   4  25   1    1.27    0.16
  -4  26   1    0.59    0.12
  -3  26   1    2.29    0.17
  -2  26   1    0.40    0.09
  -1  26   1   27.34    0.78
   0  26   1   10.34    0.32
   1  26   1    3.78    0.17
   2  26   1    0.13    0.12
   3  26   1    1.72    0.15
   4  26   1    2.10    0.18
  -4  27   1    1.42    0.15
  -3  27   1    0.22    0.13
  -2  27   1    2.51    0.14
  -1  27   1    0.25    0.09
   0  27   1   21.28    0.62
   1  27   1    3.56    0.16
   2  27   1    1.47    0.16
   3  27   1    0.70    0.12
   4  27   1    0.56    0.19
  -4  28   1    0.33    0.16
  -3  28   1    1.54    0.16
  -2  28   1    2.48    0.14
  -1  28   1    3.93    0.17
   0  28   1   13.43    0.41
   1  28   1    1.23    0.11
   2  28   1    2.36    0.17
   3  28   1    0.60    0.14
   4  28   1    0.34    0.24
  -4  29   1    0.19    0.17
  -3  29   1    0.48    0.17
  -2  29   1    0.04    0.10
  -1  29   1    0.34    0.10
   0  29   1    2.13    0.13
   1  29   1    0.01    0.09
   2  29   1    0.16    0.12
   3  29   1    0.34    0.14
   4  29   1    0.00    0.22
  -4  30   1    0.16    0.21
  -3  30   1    4.22    0.31
  -2  30   1    3.89    0.18
  -1  30   1    0.23    0.10
   0  30   1    0.53    0.10
   1  30   1    0.34    0.10
   2  30   1    1.22    0.15
   3  30   1    0.21    0.15
   4  30   1    0.93    0.30
  -3  31   1    0.06    0.14
  -2  31   1    0.72    0.12
  -1  31   1    0.84    0.13
   0  31   1    0.85    0.11
   1  31   1    0.33    0.11
   2  31   1    0.18    0.13
   3  31   1    1.20    0.17
  -3  32   1    0.66    0.17
  -2  32   1    0.27    0.14
  -1  32   1    0.43    0.11
   0  32   1    0.77    0.12
   1  32   1    0.16    0.11
   2  32   1    0.92    0.15
   3  32   1    1.38    0.19
  -3  33   1    0.03    0.16
  -2  33   1    0.12    0.14
  -1  33   1    0.00    0.11
   0  33   1    0.33    0.12
   1  33   1    0.27    0.13
   2  33   1    0.00    0.14
   3  33   1    0.44    0.17
  -3  34   1    0.57    0.18
  -2  34   1    1.07    0.17
  -1  34   1    0.28    0.12
   0  34   1    0.68    0.13
   1  34   1    2.49    0.17
   2  34   1    3.10    0.22
   3  34   1    1.07    0.20
  -2  35   1    0.26    0.16
  -1  35   1    0.23    0.13
   0  35   1    0.73    0.14
   1  35   1    0.20    0.13
   2  35   1    0.03    0.16
  -2  36   1    0.13    0.17
  -1  36   1    1.90    0.16
   0  36   1    0.69    0.14
   1  36   1    1.68    0.17
   2  36   1    0.71    0.18
  -2  37   1    0.27    0.18
  -1  37   1    0.83    0.15
   0  37   1    0.18    0.14
   1  37   1    0.17    0.17
   2  37   1    0.28    0.18
  -1  38   1    1.33    0.18
   0  38   1    0.28    0.16
   1  38   1    0.59    0.16
  -1  39   1    0.53    0.21
   0  39   1    0.66    0.17
   1  39   1    1.51    0.18
   0  40   1    0.19    0.19
  -6   0   2    2.01    0.26
  -5   0   2    4.15    0.27
  -4   0   2    0.34    0.11
  -3   0   2    6.55    0.23
  -2   0   2    3.72    0.13
  -1   0   2  472.72   14.85
   0   0   2  910.19   35.44
   1   0   2   20.80    0.66
   2   0   2   82.20    2.59
   3   0   2    2.08    0.13
   4   0   2   24.63    0.98
   5   0   2    2.31    0.21
   6   0   2    0.08    0.30
  -6   1   2    0.45    0.15
  -5   1   2    0.54    0.11
  -4   1   2    3.70    0.15
  -3   1   2   13.99    0.32
  -2   1   2    0.93    0.04
  -1   1   2  464.43   10.31
   0   1   2  412.72    9.16
   1   1   2  142.07    3.16
   2   1   2   25.68    0.63
   3   1   2    0.21    0.06
   4   1   2    1.23    0.10
   5   1   2    0.96    0.12
  -6   2   2    0.35    0.15
  -5   2   2    0.61    0.11
  -4   2   2    0.62    0.08
  -3   2   2    0.12    0.04
  -2   2   2   12.21    0.28
  -1   2   2  808.46   17.96
   0   2   2  108.22    2.40
   1   2   2   56.63    1.26
   2   2   2    5.42    0.15
   3   2   2    3.26    0.12
   4   2   2    0.39    0.08
   5   2   2    0.32    0.11
  -6   3   2    0.01    0.15
  -5   3   2    0.84    0.11
  -4   3   2    0.60    0.08
  -3   3   2    5.72    0.16
  -2   3   2    1.63    0.05
  -1   3   2   13.44    0.30
   0   3   2  381.82    8.48
   1   3   2  204.63    4.54
   2   3   2    4.08    0.12
   3   3   2    5.11    0.18
   4   3   2    0.73    0.09
   5   3   2    3.75    0.18
  -6   4   2    0.61    0.29
  -5   4   2    2.13    0.14
  -4   4   2    9.13    0.29
  -3   4   2    7.53    0.19
  -2   4   2   89.18    1.99
  -1   4   2  217.41    4.83
   0   4   2   13.92    0.31
   1   4   2    1.88    0.05
   2   4   2   69.96    1.70
   3   4   2   13.64    0.39
   4   4   2   12.80    0.38
   5   4   2    0.32    0.11
  -5   5   2    0.42    0.11
  -4   5   2    1.29    0.10
  -3   5   2    0.82    0.06
  -2   5   2   10.65    0.25
  -1   5   2 1000.00   22.20
   0   5   2   37.11    0.83
   1   5   2  319.24    7.08
   2   5   2    7.50    0.20
   3   5   2   61.53    1.50
   4   5   2    1.36    0.10
   5   5   2    0.18    0.11
  -5   6   2    2.85    0.16
  -4   6   2    0.21    0.08
  -3   6   2    0.37    0.05
  -2   6   2    1.42    0.05
  -1   6   2  314.08    6.97
   0   6   2  119.88    2.66
   1   6   2  130.06    2.89
   2   6   2    0.53    0.03
   3   6   2    1.86    0.08
   4   6   2    0.05    0.08
   5   6   2    0.65    0.11
  -5   7   2    0.26    0.11
  -4   7   2    1.18    0.10
  -3   7   2    0.08    0.04
  -2   7   2   15.79    0.36
  -1   7   2   79.88    1.78
   0   7   2   90.15    2.00
   1   7   2    0.22    0.03
   2   7   2   12.98    0.30
   3   7   2    1.53    0.07
   4   7   2    0.33    0.08
   5   7   2    0.06    0.11
  -5   8   2    0.59    0.11
  -4   8   2    0.05    0.08
  -3   8   2    8.98    0.24
  -2   8   2    0.70    0.04
  -1   8   2    2.13    0.06
   0   8   2  116.95    2.60
   1   8   2    8.88    0.21
   2   8   2   25.82    0.58
   3   8   2    0.28    0.05
   4   8   2   10.47    0.32
   5   8   2    0.18    0.11
  -5   9   2    5.27    0.22
  -4   9   2    2.66    0.14
  -3   9   2    1.35    0.07
  -2   9   2   29.98    0.68
  -1   9   2   14.06    0.32
   0   9   2   38.68    0.86
   1   9   2    7.34    0.17
   2   9   2    1.81    0.06
   3   9   2   33.55    0.83
   4   9   2    2.13    0.13
   5   9   2    5.41    0.23
  -5  10   2    1.39    0.13
  -4  10   2    0.26    0.08
  -3  10   2    5.80    0.17
  -2  10   2   29.00    0.66
  -1  10   2   43.33    0.97
   0  10   2  123.22    2.74
   1  10   2   16.50    0.38
   2  10   2   13.39    0.31
   3  10   2    1.19    0.08
   4  10   2    3.41    0.15
   5  10   2    1.50    0.14
  -5  11   2    0.50    0.14
  -4  11   2    1.87    0.12
  -3  11   2    8.75    0.23
  -2  11   2   71.13    1.59
  -1  11   2    3.05    0.08
   0  11   2   12.95    0.30
   1  11   2    0.04    0.03
   2  11   2    8.34    0.20
   3  11   2    9.14    0.25
   4  11   2    3.24    0.15
   5  11   2    0.73    0.12
  -5  12   2    0.75    0.15
  -4  12   2    0.08    0.08
  -3  12   2    7.94    0.22
  -2  12   2   10.41    0.25
  -1  12   2    7.48    0.18
   0  12   2    0.52    0.03
   1  12   2  196.76    4.40
   2  12   2   62.60    1.40
   3  12   2    0.62    0.06
   4  12   2    1.58    0.11
   5  12   2    0.04    0.13
  -5  13   2    0.09    0.13
  -4  13   2    3.53    0.18
  -3  13   2    0.16    0.06
  -2  13   2    2.99    0.09
  -1  13   2   51.03    1.14
   0  13   2  146.29    3.25
   1  13   2   45.03    1.01
   2  13   2   28.85    0.65
   3  13   2    1.67    0.08
   4  13   2    0.11    0.09
   5  13   2    0.50    0.14
  -5  14   2    0.85    0.15
  -4  14   2    0.43    0.11
  -3  14   2    0.15    0.06
  -2  14   2    2.39    0.08
  -1  14   2    2.60    0.08
   0  14   2    0.91    0.04
   1  14   2   80.54    1.80
   2  14   2   10.76    0.25
   3  14   2   12.04    0.32
   4  14   2    0.05    0.10
   5  14   2    0.20    0.14
  -5  15   2    0.65    0.15
  -4  15   2    4.85    0.22
  -3  15   2   11.49    0.34
  -2  15   2    0.37    0.04
  -1  15   2    4.18    0.11
   0  15   2   32.44    0.73
   1  15   2    0.49    0.04
   2  15   2    0.28    0.04
   3  15   2    0.05    0.06
   4  15   2    0.43    0.11
   5  15   2    0.77    0.15
  -5  16   2    1.53    0.17
  -4  16   2    0.33    0.11
  -3  16   2   20.20    0.57
  -2  16   2    0.78    0.06
  -1  16   2   12.90    0.33
   0  16   2    3.90    0.10
   1  16   2    0.25    0.04
   2  16   2   16.83    0.39
   3  16   2    1.84    0.11
   4  16   2    8.91    0.33
   5  16   2    1.14    0.16
  -5  17   2    0.66    0.15
  -4  17   2    1.55    0.14
  -3  17   2    6.41    0.21
  -2  17   2    1.92    0.08
  -1  17   2   11.99    0.31
   0  17   2    3.40    0.09
   1  17   2    0.29    0.04
   2  17   2    4.05    0.13
   3  17   2    9.97    0.30
   4  17   2    1.69    0.16
   5  17   2    2.66    0.21
  -5  18   2    0.67    0.18
  -4  18   2    0.44    0.11
  -3  18   2    8.03    0.26
  -2  18   2    2.59    0.10
  -1  18   2    2.73    0.09
   0  18   2   41.69    0.94
   1  18   2    0.33    0.04
   2  18   2    2.95    0.11
   3  18   2    0.44    0.09
   4  18   2    0.84    0.12
   5  18   2    0.18    0.15
  -5  19   2    0.21    0.15
  -4  19   2    1.06    0.13
  -3  19   2    2.47    0.12
  -2  19   2    0.46    0.06
  -1  19   2    1.96    0.08
   0  19   2   24.22    0.61
   1  19   2    1.66    0.08
   2  19   2    2.77    0.11
   3  19   2    2.45    0.13
   4  19   2    0.42    0.12
   5  19   2    0.82    0.17
  -5  20   2    2.45    0.20
  -4  20   2    0.19    0.11
  -3  20   2    0.26    0.08
  -2  20   2    6.46    0.19
  -1  20   2   16.39    0.42
   0  20   2   21.21    0.53
   1  20   2    0.11    0.05
   2  20   2   11.46    0.31
   3  20   2    0.05    0.08
   4  20   2    1.55    0.15
   5  20   2    1.49    0.24
  -5  21   2    0.29    0.16
  -4  21   2    1.67    0.14
  -3  21   2    0.13    0.08
  -2  21   2   18.60    0.48
  -1  21   2    6.39    0.18
   0  21   2    0.07    0.06
   1  21   2    8.73    0.24
   2  21   2    0.37    0.07
   3  21   2    9.05    0.29
   4  21   2    0.06    0.12
   5  21   2    0.62    0.17
  -5  22   2    0.03    0.16
  -4  22   2    0.39    0.11
  -3  22   2    0.77    0.10
  -2  22   2    0.89    0.08
  -1  22   2    2.06    0.09
   0  22   2    4.98    0.17
   1  22   2    5.99    0.20
   2  22   2    0.19    0.07
   3  22   2    1.75    0.12
   4  22   2    1.41    0.15
   5  22   2    0.00    0.32
  -4  23   2    1.57    0.13
  -3  23   2    0.34    0.09
  -2  23   2    7.84    0.23
  -1  23   2    6.15    0.21
   0  23   2   14.65    0.43
   1  23   2   12.24    0.37
   2  23   2    1.45    0.09
   3  23   2    0.13    0.09
   4  23   2    0.42    0.13
  -4  24   2    0.20    0.12
  -3  24   2    8.27    0.27
  -2  24   2    3.08    0.13
  -1  24   2   30.44    0.86
   0  24   2    2.77    0.13
   1  24   2   18.97    0.55
   2  24   2    5.53    0.20
   3  24   2    0.10    0.10
   4  24   2    2.18    0.17
  -4  25   2    2.66    0.16
  -3  25   2    1.81    0.13
  -2  25   2    2.38    0.13
  -1  25   2   10.10    0.32
   0  25   2   18.33    0.53
   1  25   2   30.95    0.88
   2  25   2    0.32    0.09
   3  25   2    0.01    0.10
   4  25   2    1.22    0.19
  -4  26   2    0.50    0.13
  -3  26   2    0.31    0.10
  -2  26   2    0.14    0.09
  -1  26   2    9.33    0.30
   0  26   2    6.34    0.22
   1  26   2    2.30    0.13
   2  26   2    3.35    0.18
   3  26   2    0.15    0.12
   4  26   2    0.20    0.14
  -4  27   2    0.67    0.13
  -3  27   2    0.72    0.13
  -2  27   2    0.80    0.11
  -1  27   2    2.48    0.14
   0  27   2    3.26    0.15
   1  27   2   14.36    0.43
   2  27   2    2.53    0.17
   3  27   2    0.22    0.13
   4  27   2    0.07    0.18
  -4  28   2    1.19    0.18
  -3  28   2    3.44    0.20
  -2  28   2    4.07    0.18
  -1  28   2    0.10    0.09
   0  28   2    0.08    0.09
   1  28   2    0.19    0.09
   2  28   2    0.37    0.12
   3  28   2    0.16    0.13
   4  28   2    1.77    0.23
  -4  29   2    0.99    0.18
  -3  29   2    0.22    0.16
  -2  29   2    1.66    0.13
  -1  29   2    1.98    0.13
   0  29   2    0.97    0.11
   1  29   2    0.16    0.11
   2  29   2    0.00    0.12
   3  29   2    3.32    0.21
   4  29   2    0.68    0.21
  -4  30   2    0.65    0.21
  -3  30   2    2.61    0.20
  -2  30   2    0.35    0.11
  -1  30   2    0.00    0.09
   0  30   2    1.01    0.11
   1  30   2    2.83    0.15
   2  30   2    4.18    0.22
   3  30   2    0.25    0.15
  -3  31   2    0.26    0.15
  -2  31   2    0.06    0.10
  -1  31   2    0.19    0.10
   0  31   2    2.23    0.14
   1  31   2    1.23    0.12
   2  31   2    0.33    0.13
   3  31   2    0.22    0.20
  -3  32   2    3.01    0.21
  -2  32   2    0.40    0.12
  -1  32   2    4.37    0.20
   0  32   2    1.87    0.14
   1  32   2    6.04    0.24
   2  32   2    2.57    0.22
   3  32   2    0.28    0.17
  -3  33   2    0.07    0.16
  -2  33   2    5.35    0.24
  -1  33   2    2.86    0.17
   0  33   2    0.12    0.11
   1  33   2    0.17    0.11
   2  33   2    0.30    0.15
   3  33   2    0.21    0.17
  -3  34   2    2.47    0.23
  -2  34   2    0.06    0.18
  -1  34   2    0.34    0.12
   0  34   2    0.11    0.14
   1  34   2    0.30    0.13
   2  34   2    0.65    0.16
   3  34   2    0.82    0.20
  -2  35   2    0.10    0.15
  -1  35   2    0.12    0.12
   0  35   2    0.25    0.13
   1  35   2    0.47    0.13
   2  35   2    0.00    0.16
  -2  36   2    0.32    0.18
  -1  36   2    2.07    0.17
   0  36   2    0.11    0.15
   1  36   2    0.36    0.14
   2  36   2    4.01    0.26
  -2  37   2    0.12    0.17
  -1  37   2    0.01    0.14
   0  37   2    1.77    0.17
   1  37   2    2.11    0.18
   2  37   2    0.62    0.19
  -1  38   2    0.31    0.16
   0  38   2    0.66    0.16
   1  38   2    0.07    0.16
  -1  39   2    0.44    0.17
   0  39   2    0.75    0.17
   1  39   2    0.15    0.16
   0  40   2    0.26    0.20
  -6   0   3    0.47    0.50
  -5   0   3    0.15    0.15
  -4   0   3    0.22    0.11
  -3   0   3    0.09    0.05
  -2   0   3    0.22    0.04
  -1   0   3    0.20    0.03
   0   0   3    0.06    0.02
   1   0   3    0.29    0.03
   2   0   3    0.06    0.04
   3   0   3    0.08    0.08
   4   0   3    0.00    0.09
   5   0   3    0.18    0.15
  -6   1   3    0.30    0.21
  -5   1   3    0.20    0.10
  -4   1   3    2.42    0.12
  -3   1   3    0.69    0.05
  -2   1   3    6.73    0.16
  -1   1   3   28.78    0.64
   0   1   3  299.28    6.64
   1   1   3  209.43    5.12
   2   1   3    6.28    0.15
   3   1   3    2.09    0.10
   4   1   3    2.89    0.13
   5   1   3    6.06    0.24
  -6   2   3    1.20    0.23
  -5   2   3    0.13    0.11
  -4   2   3    6.81    0.24
  -3   2   3   18.58    0.43
  -2   2   3    1.28    0.05
  -1   2   3   10.78    0.25
   0   2   3   38.84    0.87
   1   2   3  202.91    4.51
   2   2   3   53.17    1.19
   3   2   3   12.26    0.36
   4   2   3   14.40    0.42
   5   2   3    0.35    0.11
  -5   3   3    0.75    0.11
  -4   3   3    0.80    0.08
  -3   3   3    2.38    0.08
  -2   3   3    1.86    0.06
  -1   3   3   61.18    1.36
   0   3   3    2.26    0.06
   1   3   3    9.90    0.23
   2   3   3    2.49    0.07
   3   3   3   26.80    0.74
   4   3   3    0.17    0.08
   5   3   3    0.27    0.11
  -5   4   3    0.23    0.10
  -4   4   3    0.33    0.08
  -3   4   3    3.75    0.11
  -2   4   3    2.60    0.08
  -1   4   3   87.29    1.94
   0   4   3   42.28    0.94
   1   4   3    0.80    0.03
   2   4   3   11.19    0.29
   3   4   3    1.88    0.10
   4   4   3    0.05    0.08
   5   4   3    0.11    0.11
  -5   5   3    0.18    0.10
  -4   5   3    0.76    0.09
  -3   5   3    1.35    0.06
  -2   5   3    0.38    0.04
  -1   5   3    3.57    0.09
   0   5   3   39.47    0.88
   1   5   3   43.73    0.98
   2   5   3   33.99    0.77
   3   5   3    3.31    0.13
   4   5   3    1.14    0.10
   5   5   3    1.59    0.14
  -5   6   3    1.28    0.14
  -4   6   3    3.27    0.14
  -3   6   3   14.40    0.33
  -2   6   3   78.69    1.76
  -1   6   3   39.86    0.89
   0   6   3   32.64    0.73
   1   6   3   44.07    0.98
   2   6   3    4.74    0.12
   3   6   3    9.75    0.26
   4   6   3   13.31    0.40
   5   6   3    0.60    0.12
  -5   7   3    1.64    0.16
  -4   7   3    0.25    0.08
  -3   7   3   13.60    0.32
  -2   7   3  162.35    3.61
  -1   7   3   20.89    0.47
   0   7   3    0.04    0.02
   1   7   3   80.54    1.79
   2   7   3  174.20    3.88
   3   7   3   45.57    1.12
   4   7   3    2.00    0.12
   5   7   3    2.52    0.16
  -5   8   3    1.93    0.14
  -4   8   3    0.22    0.08
  -3   8   3   12.56    0.30
  -2   8   3  104.78    2.34
  -1   8   3    0.59    0.03
   0   8   3    2.95    0.08
   1   8   3    0.28    0.03
   2   8   3    5.93    0.15
   3   8   3    1.68    0.08
   4   8   3    1.61    0.11
   5   8   3    0.94    0.13
  -5   9   3    4.28    0.19
  -4   9   3    2.82    0.14
  -3   9   3    9.41    0.25
  -2   9   3   65.44    1.46
  -1   9   3    5.19    0.13
   0   9   3   94.11    2.10
   1   9   3   28.31    0.64
   2   9   3   76.82    1.72
   3   9   3    4.55    0.14
   4   9   3    1.03    0.10
   5   9   3    1.27    0.13
  -5  10   3    0.20    0.11
  -4  10   3    0.83    0.09
  -3  10   3    4.03    0.13
  -2  10   3   25.61    0.58
  -1  10   3   37.56    0.84
   0  10   3   59.91    1.34
   1  10   3    1.64    0.05
   2  10   3   22.94    0.52
   3  10   3    2.33    0.10
   4  10   3    1.59    0.11
   5  10   3    3.82    0.19
  -5  11   3    1.05    0.15
  -4  11   3   10.21    0.32
  -3  11   3    6.16    0.18
  -2  11   3    5.64    0.15
  -1  11   3    0.12    0.03
   0  11   3   43.40    0.97
   1  11   3   43.11    0.97
   2  11   3    0.14    0.04
   3  11   3    4.79    0.15
   4  11   3    6.95    0.24
   5  11   3    1.08    0.13
  -5  12   3    0.34    0.14
  -4  12   3    5.77    0.21
  -3  12   3    1.65    0.08
  -2  12   3    0.97    0.05
  -1  12   3    1.08    0.05
   0  12   3    9.30    0.22
   1  12   3    0.65    0.05
   2  12   3   21.30    0.49
   3  12   3    0.05    0.06
   4  12   3    2.98    0.15
   5  12   3    1.40    0.16
  -5  13   3    0.22    0.13
  -4  13   3   16.00    0.55
  -3  13   3   18.16    0.46
  -2  13   3   15.95    0.37
  -1  13   3   16.02    0.37
   0  13   3    7.50    0.18
   1  13   3    9.76    0.23
   2  13   3    5.08    0.13
   3  13   3   10.49    0.28
   4  13   3    1.34    0.12
   5  13   3    0.06    0.13
  -5  14   3    3.04    0.20
  -4  14   3    5.42    0.23
  -3  14   3    5.93    0.17
  -2  14   3    0.52    0.04
  -1  14   3   62.61    1.40
   0  14   3   22.38    0.51
   1  14   3   23.15    0.53
   2  14   3   27.62    0.63
   3  14   3    5.86    0.19
   4  14   3    2.61    0.15
   5  14   3    0.10    0.14
  -5  15   3    1.84    0.17
  -4  15   3    0.63    0.12
  -3  15   3    2.07    0.11
  -2  15   3    4.02    0.11
  -1  15   3    9.44    0.22
   0  15   3    2.63    0.08
   1  15   3   21.95    0.50
   2  15   3    4.23    0.12
   3  15   3    2.56    0.11
   4  15   3    2.50    0.16
   5  15   3    1.57    0.17
  -5  16   3    0.13    0.15
  -4  16   3    0.58    0.12
  -3  16   3    0.91    0.08
  -2  16   3    0.94    0.06
  -1  16   3    4.58    0.12
   0  16   3   19.29    0.44
   1  16   3    1.40    0.06
   2  16   3    8.15    0.20
   3  16   3    2.30    0.12
   4  16   3    0.17    0.11
   5  16   3    0.45    0.18
  -5  17   3    0.14    0.15
  -4  17   3    0.06    0.10
  -3  17   3    1.56    0.10
  -2  17   3   14.44    0.38
  -1  17   3    5.10    0.15
   0  17   3    6.54    0.16
   1  17   3    0.79    0.05
   2  17   3    4.02    0.12
   3  17   3    0.21    0.07
   4  17   3    1.88    0.15
   5  17   3    0.34    0.16
  -5  18   3    1.47    0.17
  -4  18   3    0.33    0.10
  -3  18   3   13.23    0.39
  -2  18   3    0.28    0.06
  -1  18   3   39.36    0.97
   0  18   3   28.14    0.64
   1  18   3    6.30    0.16
   2  18   3   11.48    0.30
   3  18   3    0.36    0.08
   4  18   3    3.48    0.20
   5  18   3    0.78    0.17
  -5  19   3    0.76    0.17
  -4  19   3    1.98    0.13
  -3  19   3    5.83    0.20
  -2  19   3   20.52    0.52
  -1  19   3    1.73    0.08
   0  19   3   20.31    0.51
   1  19   3    3.21    0.11
   2  19   3    4.92    0.15
   3  19   3    8.28    0.27
   4  19   3    0.20    0.12
   5  19   3    1.73    0.19
  -5  20   3    0.04    0.17
  -4  20   3    0.56    0.10
  -3  20   3    0.14    0.08
  -2  20   3    9.91    0.27
  -1  20   3    8.48    0.23
   0  20   3    2.21    0.09
   1  20   3    0.56    0.06
   2  20   3    5.71    0.18
   3  20   3    1.66    0.12
   4  20   3    1.24    0.14
   5  20   3    0.25    0.17
  -5  21   3    0.29    0.16
  -4  21   3    0.34    0.10
  -3  21   3    0.72    0.09
  -2  21   3    6.00    0.18
  -1  21   3    0.30    0.06
   0  21   3   16.57    0.48
   1  21   3    3.05    0.11
   2  21   3    8.35    0.24
   3  21   3    0.32    0.08
   4  21   3    0.81    0.14
   5  21   3    0.35    0.30
  -5  22   3    0.68    0.32
  -4  22   3    1.46    0.13
  -3  22   3    4.07    0.17
  -2  22   3    3.22    0.13
  -1  22   3   11.58    0.31
   0  22   3    1.14    0.09
   1  22   3    3.29    0.14
   2  22   3    0.61    0.08
   3  22   3    5.79    0.21
   4  22   3    2.69    0.18
  -4  23   3    0.94    0.12
  -3  23   3    0.22    0.09
  -2  23   3    4.51    0.15
  -1  23   3   18.48    0.47
   0  23   3    7.55    0.24
   1  23   3    0.10    0.08
   2  23   3    0.09    0.07
   3  23   3    4.10    0.18
   4  23   3    0.53    0.14
  -4  24   3    0.40    0.12
  -3  24   3    0.48    0.12
  -2  24   3    0.86    0.08
  -1  24   3    0.30    0.08
   0  24   3    0.28    0.08
   1  24   3    6.60    0.23
   2  24   3    0.83    0.11
   3  24   3    0.06    0.09
   4  24   3    0.49    0.15
  -4  25   3    1.21    0.14
  -3  25   3    0.28    0.09
  -2  25   3    0.79    0.10
  -1  25   3   16.22    0.48
   0  25   3    7.79    0.25
   1  25   3    0.25    0.08
   2  25   3    2.27    0.16
   3  25   3    0.80    0.12
   4  25   3    0.07    0.14
  -4  26   3    0.40    0.14
  -3  26   3    5.22    0.21
  -2  26   3    4.42    0.19
  -1  26   3    3.88    0.17
   0  26   3    1.45    0.11
   1  26   3    4.17    0.17
   2  26   3    0.06    0.11
   3  26   3    1.54    0.15
   4  26   3    0.64    0.16
  -4  27   3    1.14    0.15
  -3  27   3    0.00    0.12
  -2  27   3    2.71    0.15
  -1  27   3    1.03    0.10
   0  27   3   30.62    0.87
   1  27   3    8.64    0.29
   2  27   3    0.08    0.11
   3  27   3    5.25    0.27
   4  27   3    0.24    0.19
  -4  28   3    0.13    0.16
  -3  28   3    0.40    0.13
  -2  28   3    0.36    0.10
  -1  28   3    1.30    0.11
   0  28   3    0.73    0.10
   1  28   3    3.63    0.17
   2  28   3    1.19    0.14
   3  28   3    0.11    0.13
   4  28   3    0.57    0.21
  -4  29   3    0.23    0.16
  -3  29   3    0.96    0.15
  -2  29   3    1.73    0.13
  -1  29   3    5.17    0.21
   0  29   3   12.59    0.39
   1  29   3    0.16    0.12
   2  29   3    0.10    0.12
   3  29   3    2.20    0.19
   4  29   3    1.32    0.36
  -3  30   3    1.63    0.21
  -2  30   3    0.20    0.12
  -1  30   3    3.74    0.18
   0  30   3    0.10    0.10
   1  30   3    4.39    0.19
   2  30   3    0.09    0.12
   3  30   3    1.98    0.19
  -3  31   3    1.12    0.17
  -2  31   3    8.33    0.29
  -1  31   3    0.60    0.12
   0  31   3    0.53    0.11
   1  31   3    1.75    0.14
   2  31   3    2.62    0.19
   3  31   3    0.00    0.16
  -3  32   3    1.59    0.19
  -2  32   3    0.13    0.12
  -1  32   3    3.61    0.18
   0  32   3    0.02    0.12
   1  32   3    0.97    0.13
   2  32   3    0.22    0.14
   3  32   3    0.00    0.16
  -3  33   3    0.40    0.21
  -2  33   3    0.29    0.13
  -1  33   3    0.34    0.12
   0  33   3    4.05    0.19
   1  33   3    0.15    0.12
   2  33   3    0.05    0.14
   3  33   3    0.04    0.18
  -3  34   3    1.25    0.19
  -2  34   3    0.26    0.13
  -1  34   3    4.02    0.20
   0  34   3    0.10    0.12
   1  34   3    2.24    0.17
   2  34   3    1.33    0.19
   3  34   3    0.21    0.23
  -2  35   3    0.12    0.17
  -1  35   3    0.13    0.13
   0  35   3    1.48    0.15
   1  35   3    0.39    0.13
   2  35   3    0.77    0.17
  -2  36   3    0.29    0.17
  -1  36   3    0.06    0.13
   0  36   3    0.45    0.14
   1  36   3    0.07    0.14
   2  36   3    0.49    0.20
  -2  37   3    0.11    0.17
  -1  37   3    2.40    0.18
   0  37   3    0.98    0.16
   1  37   3    1.07    0.16
   2  37   3    0.48    0.19
  -1  38   3    0.45    0.16
   0  38   3    0.07    0.15
   1  38   3    1.53    0.18
  -1  39   3    0.57    0.26
   0  39   3    0.90    0.17
   1  39   3    0.07    0.23
  -5   0   4    0.28    0.15
  -4   0   4   19.40    0.78
  -3   0   4    8.10    0.28
  -2   0   4    1.98    0.09
  -1   0   4   64.59    2.04
   0   0   4   36.76    1.16
   1   0   4   37.65    1.19
   2   0   4   78.53    2.48
   3   0   4   10.07    0.42
   4   0   4    7.66    0.36
   5   0   4    0.08    0.16
  -5   1   4    2.76    0.16
  -4   1   4    3.31    0.15
  -3   1   4    0.39    0.05
  -2   1   4   73.48    1.64
  -1   1   4   32.10    0.72
   0   1   4   10.97    0.25
   1   1   4  235.97    5.24
   2   1   4    3.43    0.09
   3   1   4    0.70    0.07
   4   1   4    2.29    0.13
   5   1   4    2.06    0.16
  -5   2   4    1.24    0.12
  -4   2   4    0.27    0.08
  -3   2   4    1.17    0.06
  -2   2   4    1.41    0.06
  -1   2   4   96.50    2.15
   0   2   4   29.97    0.67
   1   2   4   16.22    0.37
   2   2   4   57.46    1.29
   3   2   4    3.11    0.12
   4   2   4    3.87    0.16
   5   2   4    0.53    0.12
  -5   3   4    0.12    0.11
  -4   3   4    1.09    0.10
  -3   3   4    2.73    0.09
  -2   3   4   51.02    1.14
  -1   3   4    2.07    0.06
   0   3   4  112.77    2.51
   1   3   4   17.17    0.39
   2   3   4    2.87    0.08
   3   3   4    0.69    0.08
   4   3   4    1.98    0.12
   5   3   4    4.48    0.20
  -5   4   4    0.01    0.11
  -4   4   4    7.88    0.25
  -3   4   4    4.43    0.12
  -2   4   4    5.81    0.14
  -1   4   4  162.29    3.61
   0   4   4    0.25    0.02
   1   4   4   16.07    0.36
   2   4   4    0.05    0.03
   3   4   4   12.19    0.36
   4   4   4   18.11    0.52
   5   4   4    1.14    0.13
  -5   5   4    0.49    0.12
  -4   5   4    1.10    0.10
  -3   5   4   14.24    0.33
  -2   5   4   14.15    0.33
  -1   5   4  135.23    3.01
   0   5   4   43.71    0.98
   1   5   4   61.28    1.37
   2   5   4   13.81    0.32
   3   5   4   20.99    0.59
   4   5   4    1.58    0.12
   5   5   4    0.76    0.13
  -5   6   4    0.34    0.11
  -4   6   4    1.60    0.11
  -3   6   4    2.04    0.08
  -2   6   4    0.06    0.03
  -1   6   4  108.12    2.41
   0   6   4    0.07    0.02
   1   6   4    1.31    0.05
   2   6   4    0.56    0.04
   3   6   4    0.20    0.07
   4   6   4    2.36    0.13
   5   6   4    0.08    0.11
  -5   7   4    0.21    0.10
  -4   7   4    3.39    0.15
  -3   7   4    4.19    0.13
  -2   7   4   34.04    0.77
  -1   7   4   41.43    0.93
   0   7   4   38.04    0.85
   1   7   4    0.62    0.04
   2   7   4   26.10    0.59
   3   7   4    4.57    0.16
   4   7   4    3.91    0.17
   5   7   4    0.15    0.12
  -5   8   4    0.91    0.13
  -4   8   4    1.28    0.10
  -3   8   4    0.41    0.05
  -2   8   4   30.77    0.69
  -1   8   4   30.69    0.69
   0   8   4    0.42    0.03
   1   8   4   55.03    1.23
   2   8   4    4.96    0.13
   3   8   4    7.18    0.20
   4   8   4    1.25    0.11
   5   8   4    1.66    0.15
  -5   9   4    4.52    0.20
  -4   9   4    0.48    0.09
  -3   9   4   18.30    0.42
  -2   9   4  136.08    3.03
  -1   9   4   10.11    0.25
   0   9   4   11.22    0.26
   1   9   4    5.16    0.13
   2   9   4    4.12    0.11
   3   9   4    9.62    0.26
   4   9   4    2.14    0.13
   5   9   4    3.32    0.18
  -5  10   4    1.02    0.15
  -4  10   4    1.88    0.12
  -3  10   4    4.90    0.14
  -2  10   4    7.89    0.19
  -1  10   4    3.95    0.10
   0  10   4  145.11    3.23
   1  10   4    7.05    0.17
   2  10   4   49.30    1.11
   3  10   4    5.23    0.16
   4  10   4    0.14    0.09
   5  10   4    0.14    0.12
  -5  11   4    2.86    0.19
  -4  11   4    7.14    0.24
  -3  11   4    1.53    0.07
  -2  11   4   71.26    1.59
  -1  11   4    2.46    0.07
   0  11   4   10.33    0.24
   1  11   4   91.28    2.04
   2  11   4    4.14    0.11
   3  11   4   43.04    1.06
   4  11   4    8.00    0.27
   5  11   4    0.64    0.13
  -5  12   4    0.09    0.14
  -4  12   4    2.39    0.15
  -3  12   4    0.35    0.06
  -2  12   4    5.88    0.15
  -1  12   4    6.29    0.15
   0  12   4    6.74    0.16
   1  12   4   49.90    1.12
   2  12   4   29.02    0.66
   3  12   4    1.14    0.08
   4  12   4    0.24    0.09
   5  12   4    0.84    0.18
  -5  13   4    1.39    0.16
  -4  13   4    3.55    0.18
  -3  13   4    0.67    0.07
  -2  13   4    0.16    0.04
  -1  13   4    0.25    0.03
   0  13   4   29.36    0.66
   1  13   4   10.97    0.26
   2  13   4   15.65    0.36
   3  13   4   13.25    0.35
   4  13   4    0.67    0.10
   5  13   4    0.30    0.15
  -5  14   4    0.39    0.15
  -4  14   4    2.16    0.16
  -3  14   4    0.06    0.06
  -2  14   4    0.60    0.05
  -1  14   4    6.42    0.16
   0  14   4    8.75    0.21
   1  14   4   25.40    0.58
   2  14   4    4.75    0.13
   3  14   4    3.93    0.14
   4  14   4    6.97    0.24
   5  14   4    0.45    0.15
  -5  15   4    0.14    0.14
  -4  15   4    1.36    0.13
  -3  15   4    0.91    0.09
  -2  15   4   17.61    0.41
  -1  15   4    1.17    0.05
   0  15   4   18.27    0.42
   1  15   4    0.28    0.04
   2  15   4    5.09    0.14
   3  15   4    3.16    0.12
   4  15   4    6.61    0.28
   5  15   4    0.09    0.16
  -5  16   4    0.40    0.15
  -4  16   4    3.70    0.17
  -3  16   4   18.64    0.53
  -2  16   4    3.09    0.11
  -1  16   4   71.03    1.59
   0  16   4   20.64    0.52
   1  16   4   17.55    0.40
   2  16   4    3.97    0.12
   3  16   4    4.04    0.15
   4  16   4    4.90    0.23
   5  16   4    0.00    0.15
  -5  17   4    1.88    0.18
  -4  17   4    3.51    0.16
  -3  17   4    1.57    0.10
  -2  17   4    0.54    0.06
  -1  17   4   16.81    0.43
   0  17   4   40.86    0.92
   1  17   4    2.91    0.09
   2  17   4   13.59    0.36
   3  17   4    0.11    0.08
   4  17   4    2.38    0.17
   5  17   4    0.90    0.18
  -5  18   4    0.32    0.15
  -4  18   4    0.34    0.10
  -3  18   4    2.97    0.14
  -2  18   4    1.30    0.08
  -1  18   4    8.45    0.23
   0  18   4   13.11    0.31
   1  18   4    0.64    0.05
   2  18   4    0.12    0.06
   3  18   4    2.91    0.14
   4  18   4    0.68    0.13
   5  18   4    0.07    0.16
  -5  19   4    0.08    0.16
  -4  19   4    0.64    0.11
  -3  19   4    1.65    0.11
  -2  19   4    6.67    0.19
  -1  19   4   13.44    0.35
   0  19   4   11.41    0.30
   1  19   4    2.74    0.09
   2  19   4    3.36    0.12
   3  19   4    1.30    0.11
   4  19   4    1.00    0.17
   5  19   4    0.23    0.17
  -5  20   4    0.67    0.18
  -4  20   4    0.43    0.11
  -3  20   4    4.65    0.19
  -2  20   4    6.31    0.19
  -1  20   4   28.64    0.72
   0  20   4    1.57    0.08
   1  20   4    7.55    0.21
   2  20   4    2.42    0.11
   3  20   4    6.32    0.22
   4  20   4    1.90    0.16
   5  20   4    0.01    0.23
  -5  21   4    0.75    0.18
  -4  21   4    1.66    0.13
  -3  21   4    0.36    0.09
  -2  21   4    2.42    0.11
  -1  21   4   10.23    0.28
   0  21   4   23.95    0.60
   1  21   4    3.52    0.12
   2  21   4    4.98    0.19
   3  21   4    1.62    0.12
   4  21   4    0.48    0.13
  -4  22   4    0.04    0.10
  -3  22   4    0.29    0.09
  -2  22   4    3.64    0.13
  -1  22   4    6.79    0.20
   0  22   4    3.08    0.13
   1  22   4    2.96    0.13
   2  22   4    0.01    0.08
   3  22   4    0.97    0.11
   4  22   4    0.14    0.13
  -4  23   4    0.85    0.13
  -3  23   4    0.26    0.09
  -2  23   4    2.65    0.12
  -1  23   4   10.55    0.29
   0  23   4    1.44    0.10
   1  23   4    0.43    0.08
   2  23   4    0.66    0.09
   3  23   4    0.08    0.09
   4  23   4    0.23    0.15
  -4  24   4    0.48    0.12
  -3  24   4    3.07    0.15
  -2  24   4    0.17    0.07
  -1  24   4    0.83    0.09
   0  24   4    2.93    0.14
   1  24   4    6.09    0.22
   2  24   4    4.95    0.27
   3  24   4    2.49    0.14
   4  24   4    1.87    0.18
  -4  25   4    0.56    0.14
  -3  25   4    1.01    0.11
  -2  25   4    2.70    0.12
  -1  25   4    0.45    0.09
   0  25   4    1.76    0.11
   1  25   4   19.89    0.58
   2  25   4    9.61    0.41
   3  25   4    0.64    0.13
   4  25   4    0.00    0.14
  -4  26   4    0.46    0.13
  -3  26   4    0.06    0.09
  -2  26   4    1.92    0.12
  -1  26   4    5.88    0.21
   0  26   4    6.44    0.23
   1  26   4    1.41    0.12
   2  26   4    0.18    0.11
   3  26   4    0.48    0.14
   4  26   4    0.08    0.18
  -4  27   4    0.18    0.15
  -3  27   4    0.11    0.12
  -2  27   4    8.02    0.27
  -1  27   4    0.07    0.09
   0  27   4    0.35    0.09
   1  27   4    4.24    0.18
   2  27   4    5.59    0.25
   3  27   4    1.33    0.16
   4  27   4    0.12    0.20
  -4  28   4    0.21    0.16
  -3  28   4    1.90    0.17
  -2  28   4    0.52    0.12
  -1  28   4    7.32    0.26
   0  28   4   17.49    0.52
   1  28   4    1.18    0.11
   2  28   4    1.61    0.15
   3  28   4    0.31    0.14
   4  28   4    0.00    0.22
  -4  29   4    0.36    0.17
  -3  29   4    5.68    0.26
  -2  29   4   14.97    0.46
  -1  29   4    4.56    0.19
   0  29   4    8.72    0.29
   1  29   4    3.10    0.16
   2  29   4    0.28    0.12
   3  29   4    2.21    0.19
  -3  30   4    0.68    0.15
  -2  30   4    0.44    0.11
  -1  30   4    0.87    0.11
   0  30   4    5.52    0.22
   1  30   4    5.44    0.21
   2  30   4    0.24    0.13
   3  30   4    2.01    0.19
  -3  31   4    0.57    0.16
  -2  31   4    1.34    0.13
  -1  31   4    0.56    0.11
   0  31   4    1.45    0.14
   1  31   4    0.58    0.12
   2  31   4    0.01    0.13
   3  31   4    0.82    0.21
  -3  32   4    0.23    0.16
  -2  32   4    0.43    0.12
  -1  32   4    2.24    0.15
   0  32   4    1.13    0.13
   1  32   4    6.05    0.24
   2  32   4    0.94    0.15
   3  32   4    1.71    0.20
  -3  33   4    0.20    0.35
  -2  33   4    1.47    0.15
  -1  33   4    0.30    0.12
   0  33   4    2.12    0.15
   1  33   4    0.40    0.13
   2  33   4    0.28    0.14
   3  33   4    0.66    0.19
  -3  34   4    0.91    0.23
  -2  34   4    0.61    0.14
  -1  34   4    1.67    0.15
   0  34   4    0.26    0.12
   1  34   4    0.11    0.12
   2  34   4    0.01    0.16
  -2  35   4    0.15    0.14
  -1  35   4    0.49    0.20
   0  35   4    0.50    0.13
   1  35   4    0.72    0.14
   2  35   4    0.03    0.17
  -2  36   4    0.69    0.18
  -1  36   4    1.25    0.16
   0  36   4    0.16    0.14
   1  36   4    1.16    0.17
   2  36   4    0.07    0.17
  -2  37   4    0.30    0.36
  -1  37   4    0.65    0.16
   0  37   4    2.78    0.19
   1  37   4    0.10    0.17
  -1  38   4    0.08    0.15
   0  38   4    0.18    0.16
   1  38   4    0.48    0.16
   0  39   4    0.06    0.16
  -5   0   5    0.23    0.16
  -4   0   5    0.02    0.11
  -3   0   5    1.39    0.09
  -2   0   5    7.08    0.24
  -1   0   5    2.62    0.10
   0   0   5    0.84    0.04
   1   0   5    0.02    0.03
   2   0   5    0.00    0.12
   3   0   5    0.24    0.10
   4   0   5    0.18    0.13
   5   0   5    0.11    0.17
  -5   1   5    1.50    0.13
  -4   1   5    1.93    0.12
  -3   1   5    4.77    0.13
  -2   1   5    7.91    0.19
  -1   1   5    7.92    0.19
   0   1   5   35.30    0.79
   1   1   5    0.41    0.03
   2   1   5   11.47    0.27
   3   1   5   11.40    0.34
   4   1   5    0.68    0.09
   5   1   5    3.18    0.18
  -5   2   5    1.02    0.13
  -4   2   5   14.29    0.42
  -3   2   5    0.25    0.05
  -2   2   5   13.40    0.31
  -1   2   5    4.20    0.11
   0   2   5   35.82    0.80
   1   2   5   39.55    0.89
   2   2   5    8.88    0.21
   3   2   5    9.46    0.29
   4   2   5    3.89    0.19
   5   2   5    1.35    0.14
  -5   3   5    1.20    0.13
  -4   3   5    3.93    0.17
  -3   3   5   10.55    0.26
  -2   3   5   19.73    0.45
  -1   3   5    0.41    0.03
   0   3   5   20.51    0.46
   1   3   5    5.50    0.13
   2   3   5    4.48    0.12
   3   3   5    2.87    0.12
   4   3   5    9.02    0.29
   5   3   5    0.20    0.12
  -5   4   5    1.12    0.13
  -4   4   5    1.24    0.10
  -3   4   5    1.34    0.06
  -2   4   5    0.71    0.04
  -1   4   5    3.59    0.09
   0   4   5   12.31    0.28
   1   4   5   18.19    0.41
   2   4   5    4.97    0.13
   3   4   5    0.49    0.07
   4   4   5    0.95    0.10
   5   4   5    0.86    0.13
  -5   5   5    1.38    0.13
  -4   5   5    0.85    0.09
  -3   5   5    1.31    0.07
  -2   5   5   12.36    0.29
  -1   5   5   38.49    0.88
   0   5   5  132.21    2.94
   1   5   5   15.82    0.36
   2   5   5    0.21    0.04
   3   5   5    1.42    0.09
   4   5   5   12.83    0.39
   5   5   5    0.22    0.15
  -5   6   5    1.02    0.12
  -4   6   5    3.14    0.15
  -3   6   5    2.91    0.10
  -2   6   5   62.15    1.39
  -1   6   5    8.46    0.20
   0   6   5   29.41    0.66
   1   6   5    0.69    0.04
   2   6   5    0.38    0.04
   3   6   5   22.94    0.64
   4   6   5    0.69    0.10
   5   6   5    0.24    0.12
  -5   7   5    2.35    0.15
  -4   7   5    4.62    0.18
  -3   7   5   26.14    0.60
  -2   7   5    1.53    0.06
  -1   7   5   23.25    0.53
   0   7   5    0.70    0.04
   1   7   5   78.47    1.75
   2   7   5   16.91    0.39
   3   7   5    0.96    0.08
   4   7   5    1.09    0.11
   5   7   5    4.15    0.20
  -5   8   5    1.26    0.14
  -4   8   5    0.75    0.09
  -3   8   5   12.73    0.30
  -2   8   5    0.91    0.05
  -1   8   5   50.98    1.14
   0   8   5   39.88    0.89
   1   8   5    2.56    0.08
   2   8   5   10.03    0.24
   3   8   5    0.58    0.07
   4   8   5    2.54    0.14
   5   8   5    3.16    0.19
  -5   9   5    4.35    0.20
  -4   9   5    0.88    0.10
  -3   9   5    1.70    0.07
  -2   9   5   23.71    0.54
  -1   9   5   12.89    0.30
   0   9   5  102.62    2.29
   1   9   5   62.26    1.39
   2   9   5    2.14    0.07
   3   9   5    0.22    0.07
   4   9   5    0.10    0.09
   5   9   5    1.55    0.15
  -5  10   5    1.18    0.16
  -4  10   5    3.25    0.15
  -3  10   5    2.55    0.09
  -2  10   5    0.16    0.04
  -1  10   5    4.64    0.12
   0  10   5   10.23    0.24
   1  10   5   14.10    0.33
   2  10   5    1.80    0.07
   3  10   5    4.85    0.15
   4  10   5    1.51    0.12
   5  10   5    5.55    0.23
  -5  11   5    0.18    0.14
  -4  11   5    0.32    0.09
  -3  11   5   38.30    0.87
  -2  11   5    6.37    0.16
  -1  11   5    4.35    0.11
   0  11   5    8.88    0.21
   1  11   5   19.42    0.44
   2  11   5    7.21    0.18
   3  11   5    0.44    0.07
   4  11   5    0.19    0.10
   5  11   5    0.34    0.13
  -5  12   5    0.18    0.14
  -4  12   5    3.23    0.16
  -3  12   5   12.77    0.31
  -2  12   5    0.86    0.06
  -1  12   5    2.10    0.07
   0  12   5   12.89    0.30
   1  12   5   32.07    0.72
   2  12   5    8.89    0.22
   3  12   5    4.07    0.14
   4  12   5    1.02    0.11
   5  12   5    0.37    0.15
  -5  13   5    0.12    0.15
  -4  13   5    3.40    0.16
  -3  13   5   28.78    0.66
  -2  13   5   10.44    0.25
  -1  13   5   13.08    0.30
   0  13   5    8.81    0.21
   1  13   5    4.54    0.12
   2  13   5   18.20    0.43
   3  13   5    2.80    0.12
   4  13   5    0.04    0.10
   5  13   5    0.11    0.15
  -5  14   5    0.35    0.19
  -4  14   5    3.72    0.17
  -3  14   5   24.52    0.62
  -2  14   5    2.15    0.08
  -1  14   5   22.64    0.52
   0  14   5    1.54    0.06
   1  14   5   57.94    1.30
   2  14   5    2.14    0.08
   3  14   5    3.51    0.13
   4  14   5    2.69    0.15
   5  14   5    1.06    0.17
  -5  15   5    2.74    0.25
  -4  15   5    0.15    0.09
  -3  15   5    1.13    0.09
  -2  15   5    0.93    0.06
  -1  15   5    2.89    0.09
   0  15   5    1.50    0.06
   1  15   5    2.08    0.07
   2  15   5   29.72    0.68
   3  15   5    2.30    0.11
   4  15   5    1.39    0.18
   5  15   5    0.17    0.16
  -5  16   5    0.87    0.20
  -4  16   5    3.31    0.16
  -3  16   5    3.33    0.14
  -2  16   5    3.13    0.11
  -1  16   5    0.22    0.04
   0  16   5   37.02    0.83
   1  16   5    3.35    0.10
   2  16   5    0.36    0.06
   3  16   5    3.46    0.14
   4  16   5    0.64    0.13
   5  16   5    0.11    0.18
  -5  17   5    0.00    0.18
  -4  17   5    2.17    0.14
  -3  17   5    1.99    0.11
  -2  17   5    4.15    0.16
  -1  17   5    0.75    0.06
   0  17   5    1.23    0.06
   1  17   5   15.85    0.37
   2  17   5   14.67    0.35
   3  17   5    4.65    0.18
   4  17   5    0.61    0.13
   5  17   5    0.09    0.17
  -5  18   5    0.12    0.21
  -4  18   5    2.43    0.17
  -3  18   5    0.31    0.08
  -2  18   5   17.95    0.46
  -1  18   5   30.65    0.77
   0  18   5    1.63    0.07
   1  18   5    4.50    0.12
   2  18   5    0.40    0.08
   3  18   5    9.08    0.29
   4  18   5    0.55    0.13
   5  18   5    0.13    0.22
  -5  19   5    1.65    0.25
  -4  19   5    2.05    0.17
  -3  19   5    0.47    0.08
  -2  19   5    2.75    0.11
  -1  19   5   35.25    0.88
   0  19   5   13.95    0.36
   1  19   5    0.28    0.05
   2  19   5    0.68    0.08
   3  19   5    0.17    0.09
   4  19   5    2.66    0.18
   5  19   5    0.54    0.32
  -5  20   5    0.17    0.22
  -4  20   5    0.33    0.11
  -3  20   5    2.39    0.13
  -2  20   5    1.44    0.09
  -1  20   5    1.43    0.08
   0  20   5    5.08    0.16
   1  20   5    1.89    0.10
   2  20   5    1.55    0.10
   3  20   5    0.25    0.09
   4  20   5    0.46    0.14
  -4  21   5    1.31    0.13
  -3  21   5    0.10    0.09
  -2  21   5    3.10    0.13
  -1  21   5    2.99    0.12
   0  21   5    1.51    0.08
   1  21   5    0.36    0.06
   2  21   5    0.10    0.08
   3  21   5    0.12    0.09
   4  21   5    0.38    0.14
  -4  22   5    0.34    0.12
  -3  22   5    1.99    0.12
  -2  22   5    5.98    0.18
  -1  22   5   29.66    0.74
   0  22   5    2.41    0.12
   1  22   5    7.37    0.24
   2  22   5    1.71    0.11
   3  22   5    4.74    0.23
   4  22   5    1.12    0.16
  -4  23   5    0.29    0.17
  -3  23   5    4.64    0.19
  -2  23   5   23.15    0.59
  -1  23   5    3.50    0.14
   0  23   5   14.70    0.43
   1  23   5    0.07    0.07
   2  23   5    3.72    0.19
   3  23   5    0.27    0.10
   4  23   5    0.72    0.16
  -4  24   5    0.25    0.14
  -3  24   5    0.22    0.10
  -2  24   5    3.82    0.14
  -1  24   5    1.81    0.11
   0  24   5    7.22    0.24
   1  24   5    0.43    0.09
   2  24   5    0.39    0.11
   3  24   5    0.10    0.10
   4  24   5    0.49    0.16
  -4  25   5    0.61    0.15
  -3  25   5    0.10    0.10
  -2  25   5    0.84    0.09
  -1  25   5    9.03    0.29
   0  25   5    7.83    0.26
   1  25   5    0.79    0.10
   2  25   5    0.49    0.12
   3  25   5    4.77    0.24
   4  25   5    0.96    0.19
  -4  26   5    0.93    0.17
  -3  26   5    2.38    0.14
  -2  26   5    0.89    0.11
  -1  26   5    2.32    0.13
   0  26   5    6.78    0.24
   1  26   5   24.04    0.69
   2  26   5    0.43    0.12
   3  26   5    0.42    0.14
   4  26   5    0.00    0.20
  -4  27   5    0.20    0.18
  -3  27   5    1.90    0.16
  -2  27   5    7.43    0.26
  -1  27   5    1.69    0.13
   0  27   5   13.72    0.42
   1  27   5    0.24    0.09
   2  27   5    2.63    0.17
   3  27   5    5.23    0.27
   4  27   5    1.15    0.26
  -4  28   5    0.26    0.19
  -3  28   5    0.21    0.13
  -2  28   5    1.07    0.12
  -1  28   5    1.07    0.11
   0  28   5    3.56    0.17
   1  28   5    0.79    0.11
   2  28   5    2.21    0.18
   3  28   5    2.23    0.19
  -3  29   5    0.61    0.15
  -2  29   5    1.64    0.13
  -1  29   5    0.99    0.12
   0  29   5    3.93    0.18
   1  29   5    0.03    0.10
   2  29   5    0.31    0.14
   3  29   5    1.83    0.18
  -3  30   5    0.03    0.18
  -2  30   5    1.36    0.14
  -1  30   5    0.47    0.11
   0  30   5    6.17    0.24
   1  30   5    3.42    0.17
   2  30   5    0.64    0.14
   3  30   5    0.45    0.16
  -3  31   5    1.73    0.22
  -2  31   5    2.32    0.16
  -1  31   5    4.18    0.19
   0  31   5    1.51    0.14
   1  31   5    0.26    0.11
   2  31   5    3.01    0.20
   3  31   5    0.34    0.17
  -3  32   5    0.00    0.19
  -2  32   5    1.14    0.14
  -1  32   5    7.74    0.28
   0  32   5    0.65    0.12
   1  32   5    0.14    0.11
   2  32   5    0.69    0.16
   3  32   5    0.26    0.18
  -3  33   5    0.18    0.20
  -2  33   5    1.95    0.16
  -1  33   5    0.80    0.13
   0  33   5    0.07    0.12
   1  33   5    0.14    0.12
   2  33   5    1.25    0.17
  -2  34   5    0.20    0.16
  -1  34   5    7.39    0.28
   0  34   5    0.90    0.14
   1  34   5    0.48    0.13
   2  34   5    0.00    0.15
  -2  35   5    0.28    0.17
  -1  35   5    0.21    0.14
   0  35   5    3.76    0.20
   1  35   5    0.70    0.15
   2  35   5    0.95    0.18
  -2  36   5    0.49    0.18
  -1  36   5    0.12    0.14
   0  36   5    0.06    0.14
   1  36   5    2.03    0.18
   2  36   5    0.08    0.21
  -1  37   5    1.27    0.18
   0  37   5    0.17    0.15
   1  37   5    0.21    0.15
  -1  38   5    0.17    0.17
   0  38   5    0.07    0.15
   1  38   5    0.00    0.23
  -5   0   6    1.92    0.21
  -4   0   6    5.58    0.27
  -3   0   6    0.08    0.07
  -2   0   6    2.36    0.11
  -1   0   6    4.64    0.17
   0   0   6  140.89    4.43
   1   0   6  163.37    5.14
   2   0   6   83.97    2.65
   3   0   6   24.52    0.97
   4   0   6    3.41    0.23
   5   0   6    2.00    0.23
  -5   1   6    2.37    0.15
  -4   1   6    0.67    0.10
  -3   1   6    1.84    0.08
  -2   1   6    2.47    0.08
  -1   1   6    0.17    0.03
   0   1   6   13.74    0.32
   1   1   6   31.17    0.70
   2   1   6   21.11    0.48
   3   1   6    0.89    0.09
   4   1   6    6.59    0.23
   5   1   6    1.91    0.16
  -5   2   6    0.80    0.15
  -4   2   6    0.31    0.08
  -3   2   6    9.30    0.23
  -2   2   6   16.48    0.38
  -1   2   6    5.07    0.13
   0   2   6    0.99    0.04
   1   2   6   17.58    0.40
   2   2   6    8.07    0.20
   3   2   6    3.37    0.14
   4   2   6   10.93    0.35
   5   2   6    0.18    0.13
  -5   3   6    1.85    0.17
  -4   3   6    0.22    0.09
  -3   3   6    3.35    0.10
  -2   3   6    0.77    0.05
  -1   3   6    6.34    0.15
   0   3   6    0.53    0.03
   1   3   6    0.81    0.05
   2   3   6    5.03    0.13
   3   3   6    0.13    0.07
   4   3   6    1.30    0.11
   5   3   6    0.90    0.14
  -5   4   6    0.21    0.14
  -4   4   6    2.97    0.14
  -3   4   6    1.60    0.07
  -2   4   6   85.08    1.90
  -1   4   6   13.30    0.31
   0   4   6    1.03    0.04
   1   4   6   20.55    0.47
   2   4   6    0.16    0.04
   3   4   6    0.33    0.08
   4   4   6    3.26    0.16
   5   4   6    1.53    0.15
  -5   5   6    0.84    0.14
  -4   5   6    1.31    0.11
  -3   5   6   28.62    0.65
  -2   5   6    3.52    0.10
  -1   5   6    8.39    0.20
   0   5   6    2.99    0.08
   1   5   6   47.06    1.05
   2   5   6    1.64    0.06
   3   5   6    0.85    0.10
   4   5   6    6.23    0.23
   5   5   6    0.84    0.14
  -5   6   6    0.69    0.15
  -4   6   6    0.65    0.12
  -3   6   6    9.37    0.23
  -2   6   6    3.34    0.10
  -1   6   6    1.72    0.06
   0   6   6    1.39    0.05
   1   6   6    0.25    0.03
   2   6   6   10.83    0.26
   3   6   6    8.76    0.27
   4   6   6    0.06    0.09
   5   6   6    0.12    0.13
  -5   7   6    1.06    0.16
  -4   7   6    0.63    0.11
  -3   7   6    7.33    0.19
  -2   7   6    9.18    0.22
  -1   7   6   62.65    1.40
   0   7   6   10.07    0.24
   1   7   6    0.21    0.03
   2   7   6   20.86    0.48
   3   7   6    6.57    0.22
   4   7   6    2.22    0.14
   5   7   6    0.40    0.17
  -5   8   6    0.74    0.15
  -4   8   6    4.79    0.18
  -3   8   6    0.67    0.06
  -2   8   6   11.54    0.28
  -1   8   6    0.98    0.05
   0   8   6    7.85    0.19
   1   8   6    4.56    0.12
   2   8   6   33.20    0.75
   3   8   6   13.29    0.39
   4   8   6    0.21    0.10
   5   8   6    1.51    0.15
  -5   9   6    0.66    0.14
  -4   9   6    2.66    0.14
  -3   9   6    8.80    0.22
  -2   9   6    9.03    0.22
  -1   9   6   33.67    0.76
   0   9   6    0.34    0.03
   1   9   6    6.60    0.16
   2   9   6    3.85    0.11
   3   9   6    1.80    0.11
   4   9   6    0.09    0.09
   5   9   6    0.12    0.14
  -5  10   6    0.35    0.19
  -4  10   6    0.86    0.09
  -3  10   6    2.47    0.09
  -2  10   6    3.34    0.10
  -1  10   6    0.86    0.05
   0  10   6    1.16    0.06
   1  10   6   14.56    0.34
   2  10   6   20.46    0.47
   3  10   6   11.41    0.35
   4  10   6    0.03    0.09
   5  10   6    0.25    0.14
  -5  11   6    0.06    0.19
  -4  11   6    1.15    0.10
  -3  11   6    1.05    0.07
  -2  11   6   33.86    0.77
  -1  11   6    3.58    0.10
   0  11   6   27.08    0.61
   1  11   6    3.70    0.10
   2  11   6   26.20    0.60
   3  11   6    6.42    0.22
   4  11   6    0.12    0.10
   5  11   6    0.10    0.14
  -5  12   6    0.34    0.18
  -4  12   6    5.88    0.25
  -3  12   6    0.17    0.06
  -2  12   6    6.94    0.18
  -1  12   6    0.66    0.05
   0  12   6    4.27    0.11
   1  12   6   31.82    0.72
   2  12   6   11.61    0.28
   3  12   6   44.97    1.11
   4  12   6    0.82    0.11
   5  12   6    1.43    0.18
  -5  13   6    0.77    0.22
  -4  13   6    2.26    0.15
  -3  13   6    7.99    0.21
  -2  13   6    1.39    0.07
  -1  13   6    0.46    0.04
   0  13   6   24.44    0.56
   1  13   6   15.06    0.35
   2  13   6   51.51    1.16
   3  13   6    7.00    0.21
   4  13   6    3.07    0.16
   5  13   6    0.23    0.16
  -5  14   6    0.24    0.18
  -4  14   6    1.37    0.13
  -3  14   6    1.29    0.10
  -2  14   6    6.40    0.17
  -1  14   6    8.28    0.20
   0  14   6    1.07    0.05
   1  14   6    0.31    0.04
   2  14   6    2.78    0.09
   3  14   6    2.48    0.12
   4  14   6    3.19    0.16
   5  14   6    0.08    0.17
  -5  15   6    0.06    0.20
  -4  15   6    2.31    0.15
  -3  15   6    3.34    0.13
  -2  15   6    2.38    0.09
  -1  15   6   41.29    0.93
   0  15   6    0.84    0.05
   1  15   6    8.05    0.20
   2  15   6    0.55    0.06
   3  15   6    0.19    0.07
   4  15   6    0.30    0.13
   5  15   6    0.40    0.17
  -5  16   6    0.16    0.21
  -4  16   6    6.46    0.27
  -3  16   6    0.59    0.07
  -2  16   6   10.57    0.28
  -1  16   6   34.93    0.79
   0  16   6   44.36    1.00
   1  16   6   18.24    0.42
   2  16   6    0.79    0.07
   3  16   6    0.25    0.08
   4  16   6    0.57    0.13
   5  16   6    0.96    0.19
  -5  17   6    0.39    0.21
  -4  17   6    0.42    0.13
  -3  17   6    0.21    0.07
  -2  17   6    6.43    0.19
  -1  17   6   13.30    0.34
   0  17   6   16.38    0.38
   1  17   6    1.20    0.06
   2  17   6    0.28    0.09
   3  17   6    4.04    0.17
   4  17   6    1.93    0.16
   5  17   6    0.37    0.24
  -5  18   6    1.59    0.24
  -4  18   6    0.46    0.13
  -3  18   6    0.16    0.08
  -2  18   6    4.67    0.15
  -1  18   6    0.16    0.06
   0  18   6    2.88    0.10
   1  18   6    0.25    0.05
   2  18   6    0.17    0.07
   3  18   6    2.58    0.14
   4  18   6    0.48    0.14
  -5  19   6    0.21    0.28
  -4  19   6    0.55    0.15
  -3  19   6    0.80    0.10
  -2  19   6    1.00    0.08
  -1  19   6    1.95    0.09
   0  19   6    0.08    0.06
   1  19   6    2.12    0.09
   2  19   6    3.83    0.16
   3  19   6    1.26    0.11
   4  19   6    0.68    0.14
  -4  20   6    0.71    0.14
  -3  20   6    0.47    0.11
  -2  20   6   12.05    0.37
  -1  20   6    5.17    0.16
   0  20   6    2.75    0.11
   1  20   6   29.22    0.67
   2  20   6    2.16    0.12
   3  20   6    7.47    0.26
   4  20   6    0.27    0.14
  -4  21   6    0.06    0.13
  -3  21   6    2.96    0.17
  -2  21   6    2.90    0.12
  -1  21   6   14.63    0.38
   0  21   6   21.63    0.55
   1  21   6    4.52    0.17
   2  21   6    0.09    0.09
   3  21   6    0.07    0.10
   4  21   6    2.11    0.19
  -4  22   6    0.50    0.15
  -3  22   6    1.52    0.15
  -2  22   6    0.34    0.08
  -1  22   6    2.44    0.11
   0  22   6    7.77    0.22
   1  22   6   16.75    0.49
   2  22   6    0.96    0.10
   3  22   6    0.39    0.10
   4  22   6    0.42    0.16
  -4  23   6    0.31    0.15
  -3  23   6    0.36    0.11
  -2  23   6    0.39    0.08
  -1  23   6    0.33    0.07
   0  23   6    2.02    0.13
   1  23   6   15.38    0.45
   2  23   6    1.37    0.13
   3  23   6    2.00    0.14
   4  23   6    1.14    0.18
  -4  24   6    1.33    0.17
  -3  24   6    1.51    0.14
  -2  24   6    0.33    0.08
  -1  24   6    3.33    0.15
   0  24   6   10.91    0.34
   1  24   6    0.91    0.10
   2  24   6    0.32    0.12
   3  24   6    3.95    0.20
   4  24   6    0.12    0.16
  -4  25   6    0.20    0.15
  -3  25   6    2.55    0.17
  -2  25   6    5.22    0.18
  -1  25   6    0.36    0.09
   0  25   6   12.92    0.39
   1  25   6    0.31    0.09
   2  25   6   17.81    0.61
   3  25   6    0.26    0.13
   4  25   6    1.04    0.19
  -4  26   6    0.06    0.17
  -3  26   6    0.20    0.13
  -2  26   6    0.59    0.13
  -1  26   6    0.46    0.10
   0  26   6    5.55    0.21
   1  26   6    7.51    0.26
   2  26   6    2.80    0.18
   3  26   6    0.29    0.14
   4  26   6    0.13    0.22
  -4  27   6    0.08    0.17
  -3  27   6    0.37    0.16
  -2  27   6    0.15    0.12
  -1  27   6    0.10    0.10
   0  27   6    1.23    0.12
   1  27   6    0.45    0.10
   2  27   6    0.78    0.13
   3  27   6    0.46    0.15
  -3  28   6    0.43    0.26
  -2  28   6    2.63    0.18
  -1  28   6    0.44    0.10
   0  28   6    6.41    0.23
   1  28   6    0.23    0.10
   2  28   6    3.08    0.19
   3  28   6    0.44    0.16
  -3  29   6    3.51    0.27
  -2  29   6    3.52    0.21
  -1  29   6    1.08    0.12
   0  29   6    1.18    0.12
   1  29   6    1.13    0.12
   2  29   6    1.98    0.17
   3  29   6    0.01    0.15
  -3  30   6    0.09    0.18
  -2  30   6    2.01    0.18
  -1  30   6    0.14    0.13
   0  30   6    1.81    0.14
   1  30   6    1.10    0.12
   2  30   6    0.07    0.13
   3  30   6    0.01    0.17
  -3  31   6    0.02    0.19
  -2  31   6    0.34    0.14
  -1  31   6    0.14    0.12
   0  31   6    4.62    0.21
   1  31   6    0.04    0.13
   2  31   6    0.72    0.15
   3  31   6    0.16    0.18
  -3  32   6    0.24    0.22
  -2  32   6    0.22    0.15
  -1  32   6    0.34    0.14
   0  32   6    0.03    0.12
   1  32   6    1.97    0.19
   2  32   6    0.19    0.15
   3  32   6    0.33    0.23
  -2  33   6    0.43    0.17
  -1  33   6    3.26    0.21
   0  33   6    0.02    0.12
   1  33   6    1.17    0.14
   2  33   6    1.80    0.19
  -2  34   6    1.31    0.20
  -1  34   6    1.29    0.18
   0  34   6    0.74    0.14
   1  34   6    2.01    0.17
   2  34   6    0.38    0.17
  -2  35   6    0.12    0.17
  -1  35   6    0.90    0.17
   0  35   6    0.09    0.14
   1  35   6    0.28    0.14
   2  35   6    0.05    0.18
  -1  36   6    1.15    0.19
   0  36   6    0.15    0.17
   1  36   6    0.62    0.15
  -1  37   6    0.02    0.19
   0  37   6    0.12    0.18
   1  37   6    0.22    0.17
   0  38   6    0.00    0.23
  -5   0   7    0.28    0.24
  -4   0   7    0.77    0.19
  -3   0   7    9.02    0.31
  -2   0   7    0.51    0.06
  -1   0   7    2.47    0.10
   0   0   7    2.12    0.09
   1   0   7    0.07    0.05
   2   0   7    0.03    0.06
   3   0   7    0.03    0.11
   4   0   7    0.17    0.14
   5   0   7    0.26    0.19
  -5   1   7    0.23    0.17
  -4   1   7    0.30    0.11
  -3   1   7   23.96    0.55
  -2   1   7    4.82    0.13
  -1   1   7   38.01    0.85
   0   1   7   84.48    1.88
   1   1   7    3.08    0.09
   2   1   7    0.43    0.04
   3   1   7   10.07    0.31
   4   1   7    0.55    0.11
   5   1   7    0.39    0.14
  -5   2   7    0.92    0.19
  -4   2   7    3.22    0.18
  -3   2   7   17.52    0.41
  -2   2   7   50.58    1.13
  -1   2   7    0.84    0.05
   0   2   7    2.21    0.07
   1   2   7   33.48    0.75
   2   2   7    6.53    0.17
   3   2   7    0.06    0.08
   4   2   7    0.62    0.11
   5   2   7    2.63    0.18
  -5   3   7    1.20    0.19
  -4   3   7    5.78    0.24
  -3   3   7   15.49    0.36
  -2   3   7    3.42    0.10
  -1   3   7    2.79    0.09
   0   3   7   10.10    0.24
   1   3   7   33.91    0.76
   2   3   7   15.48    0.36
   3   3   7    0.22    0.08
   4   3   7   12.96    0.40
   5   3   7    0.18    0.15
  -5   4   7    0.69    0.21
  -4   4   7    0.57    0.11
  -3   4   7    1.22    0.07
  -2   4   7   10.30    0.25
  -1   4   7    4.40    0.13
   0   4   7    2.23    0.07
   1   4   7   36.25    0.82
   2   4   7    0.38    0.04
   3   4   7    5.41    0.19
   4   4   7    1.04    0.13
   5   4   7    0.14    0.14
  -5   5   7    0.65    0.19
  -4   5   7    0.33    0.10
  -3   5   7    0.08    0.05
  -2   5   7    3.04    0.09
  -1   5   7   19.90    0.45
   0   5   7   26.04    0.59
   1   5   7    0.44    0.04
   2   5   7    4.53    0.12
   3   5   7    2.60    0.13
   4   5   7   12.85    0.40
   5   5   7    0.04    0.14
  -5   6   7    0.54    0.19
  -4   6   7    3.02    0.17
  -3   6   7    0.03    0.05
  -2   6   7    0.03    0.04
  -1   6   7   31.72    0.72
   0   6   7   26.07    0.60
   1   6   7    0.04    0.03
   2   6   7    1.81    0.07
   3   6   7    3.15    0.14
   4   6   7    1.80    0.13
   5   6   7    0.57    0.14
  -5   7   7    2.83    0.25
  -4   7   7    0.20    0.10
  -3   7   7    1.29    0.08
  -2   7   7    3.92    0.11
  -1   7   7    7.10    0.17
   0   7   7    1.97    0.06
   1   7   7    5.59    0.14
   2   7   7    3.74    0.11
   3   7   7    2.04    0.12
   4   7   7    0.40    0.10
   5   7   7    0.07    0.14
  -5   8   7    0.32    0.18
  -4   8   7    0.32    0.11
  -3   8   7    5.83    0.17
  -2   8   7   10.25    0.25
  -1   8   7    3.62    0.10
   0   8   7    1.97    0.07
   1   8   7    2.13    0.07
   2   8   7    1.91    0.08
   3   8   7    3.59    0.16
   4   8   7    0.10    0.10
   5   8   7    0.83    0.15
  -5   9   7    0.52    0.19
  -4   9   7    0.39    0.11
  -3   9   7    2.34    0.10
  -2   9   7    1.91    0.08
  -1   9   7   42.48    0.96
   0   9   7   27.32    0.62
   1   9   7    0.88    0.05
   2   9   7    0.64    0.05
   3   9   7    0.16    0.08
   4   9   7    1.33    0.12
   5   9   7    0.15    0.14
  -5  10   7    2.47    0.34
  -4  10   7    5.24    0.20
  -3  10   7    0.56    0.07
  -2  10   7   14.22    0.33
  -1  10   7    1.92    0.07
   0  10   7   38.34    0.86
   1  10   7    0.81    0.05
   2  10   7    6.70    0.17
   3  10   7   17.89    0.52
   4  10   7    0.01    0.12
   5  10   7    3.34    0.22
  -5  11   7    0.54    0.26
  -4  11   7    3.55    0.19
  -3  11   7   10.36    0.29
  -2  11   7    3.87    0.11
  -1  11   7    8.54    0.21
   0  11   7    3.36    0.10
   1  11   7    7.50    0.18
   2  11   7    3.25    0.10
   3  11   7    0.59    0.09
   4  11   7    0.03    0.10
   5  11   7    0.26    0.14
  -5  12   7    0.00    0.25
  -4  12   7    0.35    0.11
  -3  12   7    0.88    0.08
  -2  12   7    4.24    0.12
  -1  12   7    1.18    0.06
   0  12   7    0.69    0.05
   1  12   7    2.85    0.09
   2  12   7   19.04    0.44
   3  12   7    0.05    0.09
   4  12   7    0.21    0.11
   5  12   7    0.02    0.15
  -5  13   7    0.05    0.26
  -4  13   7    0.74    0.13
  -3  13   7    5.18    0.17
  -2  13   7    3.15    0.10
  -1  13   7    0.54    0.05
   0  13   7   12.99    0.30
   1  13   7   14.65    0.34
   2  13   7    6.24    0.18
   3  13   7    0.24    0.09
   4  13   7    0.90    0.12
   5  13   7    0.03    0.17
  -5  14   7    0.35    0.23
  -4  14   7    0.76    0.13
  -3  14   7    0.14    0.08
  -2  14   7   24.12    0.61
  -1  14   7    6.96    0.18
   0  14   7    0.24    0.04
   1  14   7    0.39    0.06
   2  14   7   15.65    0.40
   3  14   7   13.29    0.36
   4  14   7    0.06    0.11
   5  14   7    0.61    0.18
  -5  15   7    0.10    0.23
  -4  15   7    5.02    0.24
  -3  15   7    0.36    0.09
  -2  15   7    0.60    0.07
  -1  15   7    4.72    0.13
   0  15   7    0.68    0.05
   1  15   7    3.48    0.11
   2  15   7    0.04    0.06
   3  15   7    3.12    0.13
   4  15   7    4.43    0.23
   5  15   7    0.05    0.18
  -5  16   7    0.63    0.23
  -4  16   7    8.23    0.33
  -3  16   7    0.31    0.08
  -2  16   7    0.10    0.07
  -1  16   7    0.15    0.05
   0  16   7   35.25    0.80
   1  16   7    0.20    0.05
   2  16   7    0.03    0.06
   3  16   7    1.13    0.10
   4  16   7    0.16    0.13
  -5  17   7    0.17    0.22
  -4  17   7    1.51    0.15
  -3  17   7    0.56    0.09
  -2  17   7    0.36    0.08
  -1  17   7    5.74    0.17
   0  17   7    4.22    0.12
   1  17   7    7.28    0.19
   2  17   7    2.63    0.12
   3  17   7    0.34    0.09
   4  17   7    0.21    0.14
  -4  18   7    4.45    0.25
  -3  18   7    0.25    0.10
  -2  18   7    6.59    0.22
  -1  18   7    6.49    0.17
   0  18   7   39.32    0.89
   1  18   7   12.43    0.30
   2  18   7    0.81    0.08
   3  18   7    3.82    0.17
   4  18   7    0.70    0.14
  -4  19   7    0.73    0.14
  -3  19   7    0.24    0.09
  -2  19   7    1.50    0.10
  -1  19   7   18.29    0.47
   0  19   7    0.89    0.07
   1  19   7    0.44    0.06
   2  19   7    1.17    0.10
   3  19   7    2.90    0.15
   4  19   7    2.29    0.20
  -4  20   7    0.16    0.13
  -3  20   7    0.38    0.11
  -2  20   7    9.16    0.29
  -1  20   7    4.78    0.16
   0  20   7    1.01    0.08
   1  20   7    0.26    0.06
   2  20   7    0.27    0.09
   3  20   7    0.46    0.11
   4  20   7    0.70    0.16
  -4  21   7    0.04    0.14
  -3  21   7    0.13    0.11
  -2  21   7    0.28    0.08
  -1  21   7    0.06    0.07
   0  21   7    0.14    0.07
   1  21   7    0.51    0.09
   2  21   7    2.61    0.14
   3  21   7    2.35    0.15
   4  21   7    0.30    0.15
  -4  22   7    0.64    0.16
  -3  22   7    1.25    0.13
  -2  22   7    0.32    0.09
  -1  22   7    2.32    0.13
   0  22   7    4.42    0.15
   1  22   7   13.27    0.40
   2  22   7    1.91    0.13
   3  22   7    1.48    0.13
   4  22   7    0.07    0.15
  -4  23   7    0.24    0.15
  -3  23   7    2.48    0.17
  -2  23   7    0.11    0.09
  -1  23   7   10.38    0.33
   0  23   7    4.78    0.18
   1  23   7    0.03    0.08
   2  23   7   17.12    0.58
   3  23   7    0.36    0.12
   4  23   7    1.86    0.20
  -4  24   7    0.17    0.17
  -3  24   7    1.86    0.19
  -2  24   7    6.95    0.25
  -1  24   7    1.01    0.10
   0  24   7    3.68    0.16
   1  24   7    3.50    0.17
   2  24   7    5.09    0.23
   3  24   7    0.23    0.13
   4  24   7    0.21    0.19
  -4  25   7    0.16    0.16
  -3  25   7    0.13    0.13
  -2  25   7    2.02    0.13
  -1  25   7    3.70    0.19
   0  25   7    0.31    0.10
   1  25   7    0.15    0.09
   2  25   7    2.86    0.18
   3  25   7    3.25    0.20
   4  25   7    1.72    0.25
  -4  26   7    0.27    0.17
  -3  26   7    0.38    0.14
  -2  26   7    1.49    0.15
  -1  26   7    0.07    0.14
   0  26   7    4.73    0.19
   1  26   7    0.71    0.10
   2  26   7    3.44    0.20
   3  26   7    0.18    0.14
  -3  27   7    2.55    0.24
  -2  27   7    1.70    0.15
  -1  27   7    2.20    0.16
   0  27   7    1.30    0.12
   1  27   7    7.64    0.27
   2  27   7    1.97    0.17
   3  27   7    0.28    0.14
  -3  28   7    0.05    0.18
  -2  28   7    1.16    0.15
  -1  28   7    0.27    0.12
   0  28   7    0.00    0.11
   1  28   7    0.71    0.12
   2  28   7    0.01    0.12
   3  28   7    0.74    0.16
  -3  29   7    0.17    0.19
  -2  29   7    0.31    0.13
  -1  29   7    0.89    0.14
   0  29   7    0.30    0.12
   1  29   7    0.02    0.11
   2  29   7    0.46    0.15
   3  29   7    0.53    0.16
  -3  30   7    0.63    0.20
  -2  30   7    0.76    0.15
  -1  30   7    0.26    0.13
   0  30   7    0.44    0.13
   1  30   7    0.13    0.12
   2  30   7    0.97    0.16
   3  30   7    0.62    0.21
  -3  31   7    0.42    0.21
  -2  31   7    0.03    0.14
  -1  31   7    1.84    0.17
   0  31   7    1.66    0.16
   1  31   7    1.98    0.15
   2  31   7    3.14    0.22
   3  31   7    0.25    0.24
  -2  32   7    0.10    0.15
  -1  32   7    0.28    0.14
   0  32   7    0.59    0.15
   1  32   7    2.19    0.19
   2  32   7    0.52    0.17
  -2  33   7    0.12    0.18
  -1  33   7    2.05    0.19
   0  33   7    0.14    0.15
   1  33   7    0.15    0.15
   2  33   7    0.17    0.16
  -2  34   7    0.12    0.18
  -1  34   7    0.23    0.17
   0  34   7    0.92    0.19
   1  34   7    0.37    0.17
   2  34   7    0.21    0.26
  -1  35   7    0.19    0.17
   0  35   7    0.20    0.19
   1  35   7    2.15    0.21
  -1  36   7    0.45    0.19
   0  36   7    1.88    0.21
   1  36   7    1.62    0.23
   0  37   7    0.26    0.20
  -5   0   8    1.77    0.31
  -4   0   8   10.34    0.66
  -3   0   8    3.98    0.23
  -2   0   8   11.68    0.49
  -1   0   8    4.42    0.22
   0   0   8    7.89    0.27
   1   0   8    1.54    0.09
   2   0   8    5.05    0.19
   3   0   8   33.94    1.33
   4   0   8    1.77    0.19
   5   0   8    0.21    0.22
  -5   1   8    0.36    0.19
  -4   1   8    3.49    0.23
  -3   1   8   12.68    0.38
  -2   1   8    2.49    0.11
  -1   1   8    6.50    0.18
   0   1   8   40.96    0.92
   1   1   8   53.05    1.19
   2   1   8    5.70    0.15
   3   1   8    7.71    0.26
   4   1   8    3.60    0.18
   5   1   8    0.18    0.18
  -5   2   8    0.15    0.18
  -4   2   8    0.95    0.15
  -3   2   8    2.93    0.14
  -2   2   8    3.76    0.13
  -1   2   8   19.17    0.49
   0   2   8    7.81    0.19
   1   2   8    3.22    0.09
   2   2   8    5.63    0.15
   3   2   8   23.68    0.67
   4   2   8    0.14    0.11
   5   2   8    0.63    0.15
  -5   3   8    0.51    0.18
  -4   3   8    1.24    0.17
  -3   3   8    0.14    0.08
  -2   3   8   11.46    0.30
  -1   3   8    5.40    0.15
   0   3   8   22.51    0.52
   1   3   8   32.52    0.74
   2   3   8    7.34    0.18
   3   3   8    0.55    0.09
   4   3   8    2.71    0.15
   5   3   8    0.26    0.15
  -5   4   8    0.27    0.18
  -4   4   8    0.59    0.14
  -3   4   8    1.60    0.10
  -2   4   8   13.77    0.36
  -1   4   8   11.33    0.30
   0   4   8   18.07    0.42
   1   4   8    0.32    0.04
   2   4   8   12.09    0.29
   3   4   8    2.62    0.13
   4   4   8    0.17    0.11
   5   4   8    0.66    0.16
  -5   5   8    1.33    0.21
  -4   5   8    0.25    0.13
  -3   5   8    2.71    0.13
  -2   5   8    2.03    0.09
  -1   5   8   28.35    0.71
   0   5   8    0.24    0.03
   1   5   8    1.84    0.07
   2   5   8   27.84    0.63
   3   5   8    0.46    0.09
   4   5   8    0.71    0.11
   5   5   8    0.11    0.15
  -5   6   8    0.24    0.18
  -4   6   8    0.58    0.14
  -3   6   8   12.54    0.35
  -2   6   8    1.88    0.09
  -1   6   8    3.65    0.12
   0   6   8    0.94    0.04
   1   6   8    3.69    0.10
   2   6   8    1.14    0.07
   3   6   8    0.45    0.09
   4   6   8    1.33    0.14
   5   6   8    0.64    0.16
  -5   7   8    0.20    0.22
  -4   7   8    2.21    0.17
  -3   7   8    5.42    0.20
  -2   7   8    4.07    0.13
  -1   7   8   25.51    0.64
   0   7   8    4.93    0.13
   1   7   8    5.67    0.15
   2   7   8    2.01    0.08
   3   7   8    5.52    0.20
   4   7   8    4.22    0.20
   5   7   8    0.14    0.15
  -5   8   8    0.70    0.22
  -4   8   8    1.00    0.13
  -3   8   8    7.16    0.21
  -2   8   8    0.43    0.06
  -1   8   8    5.31    0.16
   0   8   8   29.29    0.66
   1   8   8    0.19    0.04
   2   8   8    0.47    0.06
   3   8   8    1.93    0.12
   4   8   8    2.14    0.14
   5   8   8    3.10    0.20
  -5   9   8    0.45    0.28
  -4   9   8    1.07    0.13
  -3   9   8    4.41    0.15
  -2   9   8    7.21    0.20
  -1   9   8    0.91    0.07
   0   9   8   26.73    0.61
   1   9   8    3.11    0.10
   2   9   8    4.11    0.13
   3   9   8    5.84    0.21
   4   9   8    0.09    0.11
   5   9   8    0.19    0.15
  -5  10   8    0.03    0.26
  -4  10   8    0.61    0.13
  -3  10   8    1.92    0.10
  -2  10   8    5.59    0.17
  -1  10   8    1.57    0.08
   0  10   8    2.57    0.08
   1  10   8    0.20    0.04
   2  10   8    0.42    0.06
   3  10   8    0.62    0.10
   4  10   8    0.76    0.12
   5  10   8    0.29    0.16
  -5  11   8    0.33    0.27
  -4  11   8    0.99    0.13
  -3  11   8    3.12    0.13
  -2  11   8    1.08    0.08
  -1  11   8    8.25    0.23
   0  11   8    4.23    0.12
   1  11   8   11.55    0.30
   2  11   8    0.41    0.06
   3  11   8    1.25    0.11
   4  11   8    0.04    0.11
   5  11   8    0.19    0.15
  -5  12   8    0.90    0.29
  -4  12   8    0.23    0.16
  -3  12   8   10.60    0.29
  -2  12   8   22.09    0.56
  -1  12   8    5.88    0.17
   0  12   8    4.02    0.13
   1  12   8   18.34    0.42
   2  12   8   91.24    2.04
   3  12   8    6.69    0.24
   4  12   8    0.60    0.12
   5  12   8    0.51    0.16
  -5  13   8    0.00    0.28
  -4  13   8    1.28    0.18
  -3  13   8    6.95    0.21
  -2  13   8    0.41    0.07
  -1  13   8    7.17    0.20
   0  13   8    1.31    0.07
   1  13   8   12.95    0.31
   2  13   8    0.38    0.07
   3  13   8    7.28    0.25
   4  13   8    0.93    0.13
  -5  14   8    0.60    0.29
  -4  14   8    3.59    0.27
  -3  14   8    0.70    0.10
  -2  14   8    5.43    0.17
  -1  14   8    0.28    0.06
   0  14   8    6.55    0.19
   1  14   8    9.47    0.23
   2  14   8   11.18    0.30
   3  14   8    0.29    0.09
   4  14   8    0.38    0.12
  -5  15   8    0.30    0.34
  -4  15   8    0.58    0.16
  -3  15   8    1.96    0.12
  -2  15   8    1.03    0.09
  -1  15   8    1.08    0.07
   0  15   8    0.77    0.07
   1  15   8    2.24    0.09
   2  15   8   20.62    0.58
   3  15   8    1.01    0.11
   4  15   8    0.04    0.13
  -4  16   8    2.52    0.22
  -3  16   8    0.81    0.10
  -2  16   8    2.86    0.14
  -1  16   8    0.15    0.06
   0  16   8   30.31    0.76
   1  16   8    3.20    0.11
   2  16   8    1.08    0.09
   3  16   8    1.87    0.15
   4  16   8    0.10    0.14
  -4  17   8    2.51    0.18
  -3  17   8    0.23    0.09
  -2  17   8    9.06    0.29
  -1  17   8    6.69    0.22
   0  17   8    0.62    0.08
   1  17   8    5.32    0.15
   2  17   8    0.30    0.08
   3  17   8    6.14    0.23
   4  17   8    1.32    0.17
  -4  18   8    0.27    0.13
  -3  18   8    0.72    0.10
  -2  18   8    0.07    0.08
  -1  18   8   25.15    0.72
   0  18   8    0.33    0.07
   1  18   8   25.92    0.60
   2  18   8    6.51    0.20
   3  18   8    0.25    0.11
   4  18   8    0.21    0.14
  -4  19   8    0.40    0.14
  -3  19   8    1.88    0.13
  -2  19   8    0.44    0.09
  -1  19   8    1.57    0.11
   0  19   8    7.20    0.24
   1  19   8    2.34    0.10
   2  19   8    1.90    0.13
   3  19   8    4.07    0.19
   4  19   8    0.05    0.15
  -4  20   8    0.73    0.16
  -3  20   8    1.20    0.12
  -2  20   8    3.01    0.15
  -1  20   8   12.12    0.37
   0  20   8    7.81    0.25
   1  20   8   32.91    0.75
   2  20   8    2.57    0.14
   3  20   8    1.86    0.14
   4  20   8    0.41    0.16
  -4  21   8    0.18    0.15
  -3  21   8    0.22    0.11
  -2  21   8    0.89    0.10
  -1  21   8   14.47    0.43
   0  21   8    6.84    0.23
   1  21   8   11.21    0.34
   2  21   8    0.16    0.10
   3  21   8    1.85    0.14
   4  21   8    1.11    0.22
  -4  22   8    0.15    0.16
  -3  22   8    0.47    0.14
  -2  22   8    0.47    0.09
  -1  22   8    0.66    0.09
   0  22   8    1.89    0.12
   1  22   8    4.25    0.18
   2  22   8    0.05    0.12
   3  22   8    0.13    0.11
   4  22   8    0.35    0.18
  -4  23   8    0.20    0.15
  -3  23   8    0.04    0.12
  -2  23   8    0.23    0.09
  -1  23   8    2.30    0.13
   0  23   8    0.34    0.10
   1  23   8    1.64    0.14
   2  23   8    3.74    0.20
   3  23   8    3.88    0.19
   4  23   8    0.12    0.18
  -4  24   8    0.04    0.16
  -3  24   8    0.37    0.14
  -2  24   8    1.92    0.13
  -1  24   8    0.78    0.11
   0  24   8    5.16    0.24
   1  24   8    1.01    0.13
   2  24   8    1.10    0.14
   3  24   8    0.31    0.14
  -4  25   8    0.92    0.19
  -3  25   8    2.85    0.19
  -2  25   8    0.21    0.10
  -1  25   8    0.68    0.12
   0  25   8    0.17    0.12
   1  25   8    8.94    0.34
   2  25   8    4.04    0.21
   3  25   8    0.51    0.15
  -3  26   8    0.32    0.14
  -2  26   8    1.24    0.16
  -1  26   8    0.11    0.12
   0  26   8    0.01    0.11
   1  26   8    0.68    0.14
   2  26   8    1.98    0.17
   3  26   8    0.34    0.15
  -3  27   8    0.69    0.16
  -2  27   8    0.44    0.13
  -1  27   8    0.12    0.12
   0  27   8    5.10    0.24
   1  27   8    0.16    0.12
   2  27   8    0.31    0.14
   3  27   8    0.32    0.15
  -3  28   8    1.62    0.22
  -2  28   8    2.20    0.18
  -1  28   8    1.21    0.15
   0  28   8    0.29    0.12
   1  28   8    0.03    0.13
   2  28   8    2.14    0.23
   3  28   8    0.44    0.17
  -3  29   8    0.28    0.21
  -2  29   8    0.29    0.14
  -1  29   8    0.76    0.14
   0  29   8    0.41    0.13
   1  29   8    3.97    0.22
   2  29   8    1.97    0.23
   3  29   8    0.13    0.24
  -3  30   8    0.13    0.21
  -2  30   8    0.11    0.15
  -1  30   8    0.37    0.14
   0  30   8    0.62    0.14
   1  30   8    0.27    0.13
   2  30   8    0.00    0.19
  -2  31   8    0.18    0.18
  -1  31   8    0.03    0.14
   0  31   8    0.00    0.14
   1  31   8    0.82    0.18
   2  31   8    0.06    0.20
  -2  32   8    0.05    0.16
  -1  32   8    0.13    0.15
   0  32   8    0.00    0.14
   1  32   8    0.05    0.15
   2  32   8    0.42    0.22
  -2  33   8    0.29    0.18
  -1  33   8    0.56    0.20
   0  33   8    0.00    0.15
   1  33   8    2.94    0.22
   2  33   8    0.19    0.21
  -1  34   8    0.22    0.17
   0  34   8    1.93    0.21
   1  34   8    0.11    0.18
  -1  35   8    0.63    0.19
   0  35   8    0.27    0.18
   1  35   8    1.02    0.24
   0  36   8    0.78    0.24
  -5   0   9    0.00    0.29
  -4   0   9    0.00    0.19
  -3   0   9    0.11    0.10
  -2   0   9    3.05    0.19
  -1   0   9    2.19    0.15
   0   0   9    0.96    0.12
   1   0   9    0.02    0.06
   2   0   9    0.04    0.07
   3   0   9    0.15    0.14
   4   0   9    0.01    0.16
   5   0   9    0.00    0.21
  -5   1   9    0.36    0.19
  -4   1   9    0.34    0.14
  -3   1   9    2.55    0.14
  -2   1   9   21.99    0.63
  -1   1   9   45.50    1.27
   0   1   9   43.11    1.21
   1   1   9    2.72    0.09
   2   1   9    0.39    0.05
   3   1   9   19.84    0.57
   4   1   9    0.57    0.12
   5   1   9    1.52    0.18
  -5   2   9    1.73    0.23
  -4   2   9    1.07    0.16
  -3   2   9    6.52    0.23
  -2   2   9    5.87    0.20
  -1   2   9    1.78    0.10
   0   2   9   15.68    0.46
   1   2   9    5.46    0.14
   2   2   9    3.33    0.11
   3   2   9    2.23    0.13
   4   2   9    0.06    0.11
   5   2   9    0.81    0.17
  -5   3   9    0.77    0.21
  -4   3   9    4.48    0.29
  -3   3   9    1.54    0.11
  -2   3   9    9.00    0.28
  -1   3   9    4.03    0.15
   0   3   9    1.76    0.09
   1   3   9    2.94    0.09
   2   3   9    0.12    0.05
   3   3   9    0.04    0.08
   4   3   9    1.62    0.14
   5   3   9    0.00    0.19
  -5   4   9    0.43    0.21
  -4   4   9    2.18    0.20
  -3   4   9   10.15    0.32
  -2   4   9    8.74    0.28
  -1   4   9    5.41    0.18
   0   4   9    4.87    0.14
   1   4   9   11.16    0.27
   2   4   9    0.06    0.05
   3   4   9    3.27    0.15
   4   4   9    2.92    0.17
   5   4   9    0.13    0.16
  -5   5   9    0.08    0.19
  -4   5   9    1.99    0.17
  -3   5   9    1.24    0.11
  -2   5   9    7.65    0.25
  -1   5   9    8.77    0.27
   0   5   9    8.24    0.26
   1   5   9    1.05    0.06
   2   5   9    1.85    0.08
   3   5   9    5.64    0.21
   4   5   9    0.45    0.12
   5   5   9    0.16    0.17
  -5   6   9    0.41    0.20
  -4   6   9    1.61    0.15
  -3   6   9    3.07    0.15
  -2   6   9    6.14    0.21
  -1   6   9   36.96    1.04
   0   6   9   31.70    0.79
   1   6   9   11.58    0.28
   2   6   9    4.18    0.13
   3   6   9    0.25    0.09
   4   6   9    3.89    0.19
   5   6   9    0.55    0.17
  -5   7   9    0.21    0.20
  -4   7   9    0.79    0.13
  -3   7   9    7.66    0.26
  -2   7   9    0.08    0.07
  -1   7   9    5.43    0.16
   0   7   9    4.48    0.14
   1   7   9   41.42    0.94
   2   7   9    0.10    0.05
   3   7   9    0.27    0.09
   4   7   9    1.27    0.13
   5   7   9    0.36    0.19
  -5   8   9    0.27    0.19
  -4   8   9    0.49    0.13
  -3   8   9    2.28    0.14
  -2   8   9    7.32    0.24
  -1   8   9    0.86    0.07
   0   8   9    0.63    0.06
   1   8   9    1.13    0.07
   2   8   9   10.14    0.25
   3   8   9    1.02    0.11
   4   8   9    0.11    0.11
   5   8   9    0.43    0.36
  -5   9   9    0.80    0.31
  -4   9   9    4.20    0.22
  -3   9   9    3.52    0.16
  -2   9   9    0.93    0.09
  -1   9   9    0.12    0.05
   0   9   9    0.50    0.06
   1   9   9    4.77    0.15
   2   9   9    0.16    0.06
   3   9   9    4.81    0.19
   4   9   9    1.66    0.15
  -5  10   9    0.04    0.44
  -4  10   9    0.51    0.19
  -3  10   9    5.56    0.22
  -2  10   9    0.56    0.08
  -1  10   9    5.11    0.16
   0  10   9    2.34    0.10
   1  10   9    5.84    0.17
   2  10   9   10.04    0.27
   3  10   9    0.25    0.09
   4  10   9    4.21    0.20
  -5  11   9    0.00    0.28
  -4  11   9    1.30    0.19
  -3  11   9    1.01    0.10
  -2  11   9    1.03    0.09
  -1  11   9    5.84    0.17
   0  11   9    5.79    0.17
   1  11   9    5.94    0.20
   2  11   9    1.23    0.08
   3  11   9    0.95    0.11
   4  11   9    0.14    0.13
  -4  12   9    0.73    0.22
  -3  12   9    0.34    0.10
  -2  12   9    2.94    0.13
  -1  12   9   15.97    0.41
   0  12   9    1.78    0.09
   1  12   9    0.07    0.05
   2  12   9    1.71    0.10
   3  12   9    0.12    0.10
   4  12   9    0.38    0.12
  -4  13   9    0.84    0.17
  -3  13   9    0.64    0.11
  -2  13   9    3.50    0.13
  -1  13   9   11.37    0.31
   0  13   9    4.67    0.15
   1  13   9    0.43    0.07
   2  13   9    0.42    0.08
   3  13   9    0.76    0.11
   4  13   9    0.06    0.12
  -4  14   9    0.13    0.16
  -3  14   9    5.87    0.26
  -2  14   9   10.72    0.30
  -1  14   9   24.98    0.63
   0  14   9    0.04    0.06
   1  14   9    8.52    0.24
   2  14   9   12.95    0.34
   3  14   9    0.16    0.10
   4  14   9    0.60    0.13
  -4  15   9    1.12    0.19
  -3  15   9    0.24    0.11
  -2  15   9   11.75    0.36
  -1  15   9    0.31    0.07
   0  15   9    2.04    0.10
   1  15   9    0.69    0.07
   2  15   9    4.70    0.16
   3  15   9    0.49    0.11
   4  15   9    1.48    0.18
  -4  16   9    0.86    0.19
  -3  16   9    0.06    0.11
  -2  16   9    0.20    0.08
  -1  16   9    0.29    0.07
   0  16   9    7.73    0.22
   1  16   9    0.26    0.07
   2  16   9    0.23    0.07
   3  16   9    0.08    0.10
   4  16   9    0.10    0.15
  -4  17   9    0.30    0.18
  -3  17   9    1.18    0.14
  -2  17   9    0.11    0.09
  -1  17   9    0.90    0.09
   0  17   9    1.20    0.08
   1  17   9   11.38    0.31
   2  17   9    1.29    0.10
   3  17   9    0.42    0.12
   4  17   9    0.37    0.21
  -4  18   9    1.81    0.21
  -3  18   9    0.29    0.12
  -2  18   9    1.76    0.12
  -1  18   9    0.08    0.08
   0  18   9   15.67    0.41
   1  18   9    1.64    0.09
   2  18   9    4.69    0.18
   3  18   9    2.45    0.18
   4  18   9    1.12    0.17
  -4  19   9    0.26    0.18
  -3  19   9    2.31    0.17
  -2  19   9    3.05    0.15
  -1  19   9    1.68    0.11
   0  19   9    3.47    0.15
   1  19   9    5.78    0.18
   2  19   9    0.63    0.10
   3  19   9    6.63    0.29
   4  19   9    0.21    0.17
  -4  20   9    0.01    0.18
  -3  20   9    0.03    0.12
  -2  20   9    2.42    0.14
  -1  20   9    2.26    0.15
   0  20   9    1.74    0.12
   1  20   9    0.36    0.08
   2  20   9    0.12    0.11
   3  20   9    0.42    0.13
   4  20   9    0.00    0.16
  -4  21   9    0.41    0.20
  -3  21   9    1.66    0.16
  -2  21   9    1.36    0.12
  -1  21   9    0.25    0.12
   0  21   9    3.31    0.15
   1  21   9    1.09    0.10
   2  21   9    1.66    0.15
   3  21   9    0.15    0.13
   4  21   9    0.03    0.19
  -4  22   9    0.00    0.21
  -3  22   9    2.26    0.16
  -2  22   9    0.05    0.09
  -1  22   9    0.32    0.10
   0  22   9    3.58    0.16
   1  22   9    0.11    0.14
   2  22   9    2.24    0.19
   3  22   9    0.18    0.13
   4  22   9    0.55    0.34
  -4  23   9    0.18    0.21
  -3  23   9    0.18    0.16
  -2  23   9    0.94    0.12
  -1  23   9    4.33    0.18
   0  23   9    0.38    0.11
   1  23   9    0.07    0.11
   2  23   9    1.03    0.17
   3  23   9    1.20    0.16
  -3  24   9    0.16    0.14
  -2  24   9    0.76    0.12
  -1  24   9    0.24    0.10
   0  24   9    0.34    0.12
   1  24   9    2.33    0.17
   2  24   9    0.13    0.15
   3  24   9    0.97    0.23
  -3  25   9    1.23    0.16
  -2  25   9    0.48    0.11
  -1  25   9    0.06    0.11
   0  25   9    0.09    0.11
   1  25   9    0.24    0.12
   2  25   9    0.00    0.15
   3  25   9    0.06    0.19
  -3  26   9    0.44    0.15
  -2  26   9    0.28    0.13
  -1  26   9    0.03    0.12
   0  26   9    1.70    0.15
   1  26   9    0.65    0.13
   2  26   9    0.28    0.20
   3  26   9    0.16    0.19
  -3  27   9    0.30    0.16
  -2  27   9    0.41    0.16
  -1  27   9    0.44    0.13
   0  27   9    0.87    0.14
   1  27   9    5.78    0.27
   2  27   9    0.09    0.17
   3  27   9    1.50    0.23
  -3  28   9    0.38    0.21
  -2  28   9    0.20    0.15
  -1  28   9    0.43    0.13
   0  28   9    0.47    0.15
   1  28   9    0.66    0.14
   2  28   9    0.17    0.18
   3  28   9    0.14    0.22
  -3  29   9    0.05    0.21
  -2  29   9    0.08    0.14
  -1  29   9    0.28    0.14
   0  29   9    0.23    0.16
   1  29   9    0.78    0.15
   2  29   9    0.79    0.23
  -2  30   9    0.18    0.17
  -1  30   9    0.05    0.15
   0  30   9    1.07    0.17
   1  30   9    0.66    0.16
   2  30   9    1.84    0.24
  -2  31   9    0.37    0.17
  -1  31   9    1.47    0.18
   0  31   9    0.84    0.17
   1  31   9    4.09    0.30
   2  31   9    0.09    0.21
  -2  32   9    0.31    0.17
  -1  32   9    0.08    0.16
   0  32   9    0.48    0.16
   1  32   9    0.29    0.19
   2  32   9    0.13    0.22
  -1  33   9    0.20    0.18
   0  33   9    0.17    0.17
   1  33   9    0.74    0.23
  -1  34   9    0.09    0.18
   0  34   9    0.25    0.18
   1  34   9    0.23    0.24
   0  35   9    0.02    0.36
  -5   0  10    0.59    0.31
  -4   0  10    1.53    0.26
  -3   0  10    5.45    0.29
  -2   0  10    6.63    0.32
  -1   0  10    1.12    0.13
   0   0  10    3.44    0.19
   1   0  10    4.11    0.22
   2   0  10    0.06    0.08
   3   0  10    0.39    0.14
   4   0  10    0.48    0.23
  -5   1  10    0.27    0.21
  -4   1  10    1.24    0.18
  -3   1  10    0.11    0.08
  -2   1  10   12.67    0.39
  -1   1  10    0.28    0.07
   0   1  10    8.33    0.26
   1   1  10    3.11    0.13
   2   1  10    8.87    0.23
   3   1  10    1.40    0.12
   4   1  10    0.44    0.12
  -5   2  10    0.00    0.21
  -4   2  10    1.08    0.18
  -3   2  10    0.37    0.09
  -2   2  10    3.81    0.16
  -1   2  10    0.71    0.07
   0   2  10    0.58    0.07
   1   2  10    0.53    0.07
   2   2  10    0.55    0.06
   3   2  10    3.99    0.17
   4   2  10    0.06    0.12
  -5   3  10    0.21    0.21
  -4   3  10    0.14    0.14
  -3   3  10    2.24    0.13
  -2   3  10   23.14    0.67
  -1   3  10   15.43    0.46
   0   3  10    8.57    0.27
   1   3  10    6.83    0.22
   2   3  10   15.77    0.37
   3   3  10    1.43    0.11
   4   3  10    0.05    0.12
  -5   4  10    0.84    0.22
  -4   4  10    0.15    0.12
  -3   4  10    1.54    0.11
  -2   4  10    6.03    0.21
  -1   4  10   22.62    0.65
   0   4  10    5.30    0.18
   1   4  10    1.34    0.09
   2   4  10   28.63    0.66
   3   4  10    1.08    0.11
   4   4  10    1.75    0.16
  -5   5  10    0.21    0.21
  -4   5  10    0.96    0.14
  -3   5  10    1.07    0.11
  -2   5  10    0.40    0.10
  -1   5  10    1.46    0.09
   0   5  10    6.79    0.22
   1   5  10    1.34    0.11
   2   5  10    8.50    0.24
   3   5  10    1.48    0.12
   4   5  10    0.14    0.12
  -5   6  10    0.07    0.21
  -4   6  10    1.08    0.14
  -3   6  10    0.65    0.10
  -2   6  10    0.36    0.09
  -1   6  10    0.52    0.07
   0   6  10    2.39    0.12
   1   6  10   33.86    0.85
   2   6  10    0.71    0.07
   3   6  10    0.47    0.10
   4   6  10    0.18    0.13
  -5   7  10    0.31    0.23
  -4   7  10    3.26    0.22
  -3   7  10    0.63    0.10
  -2   7  10    1.69    0.11
  -1   7  10    1.04    0.08
   0   7  10   17.68    0.51
   1   7  10    2.48    0.10
   2   7  10    4.38    0.15
   3   7  10    5.09    0.24
   4   7  10    0.00    0.12
  -4   8  10    0.00    0.16
  -3   8  10    1.62    0.13
  -2   8  10    1.37    0.10
  -1   8  10    8.85    0.28
   0   8  10    9.62    0.30
   1   8  10   10.54    0.28
   2   8  10    3.54    0.15
   3   8  10    0.08    0.09
   4   8  10    1.58    0.14
  -4   9  10    0.95    0.15
  -3   9  10    6.79    0.24
  -2   9  10    6.59    0.23
  -1   9  10    1.93    0.11
   0   9  10    6.25    0.21
   1   9  10   33.01    0.83
   2   9  10    3.31    0.15
   3   9  10    3.68    0.17
   4   9  10    0.18    0.12
  -4  10  10    0.49    0.15
  -3  10  10    1.21    0.12
  -2  10  10    0.44    0.10
  -1  10  10    0.09    0.07
   0  10  10    1.56    0.10
   1  10  10    1.32    0.08
   2  10  10    6.08    0.21
   3  10  10    0.41    0.10
   4  10  10    0.04    0.12
  -4  11  10    2.44    0.23
  -3  11  10    2.97    0.15
  -2  11  10    4.07    0.18
  -1  11  10    1.60    0.10
   0  11  10    1.18    0.08
   1  11  10    0.34    0.07
   2  11  10    5.91    0.24
   3  11  10    0.57    0.13
   4  11  10    0.36    0.13
  -4  12  10    2.21    0.22
  -3  12  10    8.10    0.29
  -2  12  10    1.52    0.11
  -1  12  10   10.14    0.32
   0  12  10    0.13    0.07
   1  12  10   13.32    0.35
   2  12  10    0.70    0.09
   3  12  10    0.06    0.12
   4  12  10    1.61    0.15
  -4  13  10    0.41    0.19
  -3  13  10    0.27    0.12
  -2  13  10    7.16    0.25
  -1  13  10    2.72    0.13
   0  13  10    3.23    0.12
   1  13  10   11.35    0.31
   2  13  10    2.21    0.13
   3  13  10    1.05    0.13
   4  13  10    2.17    0.19
  -4  14  10    0.26    0.19
  -3  14  10    2.84    0.18
  -2  14  10    2.91    0.14
  -1  14  10    0.00    0.08
   0  14  10    0.74    0.08
   1  14  10    7.06    0.21
   2  14  10    1.29    0.11
   3  14  10    0.37    0.12
   4  14  10    0.24    0.16
  -4  15  10    0.09    0.19
  -3  15  10    0.69    0.15
  -2  15  10    0.26    0.11
  -1  15  10    1.07    0.10
   0  15  10   10.21    0.28
   1  15  10    9.54    0.27
   2  15  10    2.21    0.14
   3  15  10    1.97    0.17
   4  15  10    0.22    0.19
  -4  16  10    0.09    0.18
  -3  16  10    4.01    0.22
  -2  16  10    0.05    0.11
  -1  16  10    0.11    0.08
   0  16  10   35.99    0.90
   1  16  10    2.08    0.11
   2  16  10    4.26    0.17
   3  16  10    0.26    0.13
   4  16  10    1.41    0.23
  -4  17  10    1.12    0.21
  -3  17  10    0.87    0.17
  -2  17  10    0.16    0.11
  -1  17  10    2.35    0.15
   0  17  10   22.55    0.59
   1  17  10   13.71    0.37
   2  17  10    0.21    0.09
   3  17  10    2.40    0.19
   4  17  10    0.20    0.20
  -4  18  10    0.13    0.21
  -3  18  10    0.17    0.13
  -2  18  10    0.22    0.11
  -1  18  10    3.28    0.16
   0  18  10    1.20    0.10
   1  18  10    5.73    0.24
   2  18  10    0.15    0.09
   3  18  10    0.07    0.16
   4  18  10    0.18    0.21
  -4  19  10    0.07    0.20
  -3  19  10    0.41    0.15
  -2  19  10    2.23    0.16
  -1  19  10    0.44    0.09
   0  19  10    2.16    0.13
   1  19  10    0.06    0.08
   2  19  10    0.15    0.09
   3  19  10    0.20    0.16
   4  19  10    0.00    0.21
  -4  20  10    0.09    0.20
  -3  20  10    1.26    0.16
  -2  20  10    0.11    0.11
  -1  20  10    2.48    0.14
   0  20  10    0.31    0.09
   1  20  10    0.45    0.10
   2  20  10    0.51    0.12
   3  20  10    0.00    0.24
  -4  21  10    0.69    0.23
  -3  21  10    0.17    0.14
  -2  21  10    0.01    0.11
  -1  21  10    0.37    0.09
   0  21  10    2.78    0.15
   1  21  10    5.57    0.21
   2  21  10    0.39    0.15
   3  21  10    0.17    0.19
  -3  22  10    0.05    0.14
  -2  22  10    0.20    0.13
  -1  22  10    3.01    0.16
   0  22  10    2.04    0.13
   1  22  10    0.27    0.12
   2  22  10    1.62    0.19
   3  22  10    0.14    0.17
  -3  23  10    0.32    0.16
  -2  23  10    0.18    0.13
  -1  23  10    0.27    0.10
   0  23  10    0.46    0.11
   1  23  10    1.18    0.15
   2  23  10    0.08    0.16
   3  23  10    0.00    0.24
  -3  24  10    1.59    0.21
  -2  24  10    0.88    0.14
  -1  24  10    1.11    0.12
   0  24  10    0.26    0.13
   1  24  10    0.19    0.12
   2  24  10    2.22    0.22
   3  24  10    0.46    0.27
  -3  25  10    0.31    0.21
  -2  25  10    3.22    0.20
  -1  25  10    0.38    0.15
   0  25  10    0.10    0.14
   1  25  10    0.11    0.12
   2  25  10    0.43    0.17
   3  25  10    0.70    0.32
  -3  26  10    0.24    0.21
  -2  26  10    0.88    0.17
  -1  26  10    0.32    0.13
   0  26  10    0.15    0.13
   1  26  10    0.02    0.13
   2  26  10    0.14    0.19
   3  26  10    0.64    0.29
  -3  27  10    0.04    0.32
  -2  27  10    0.16    0.19
  -1  27  10    0.44    0.14
   0  27  10    0.77    0.15
   1  27  10    0.11    0.13
   2  27  10    0.21    0.27
  -2  28  10    0.24    0.19
  -1  28  10    1.39    0.17
   0  28  10    0.49    0.14
   1  28  10    0.20    0.15
   2  28  10    2.88    0.27
  -2  29  10    1.56    0.25
  -1  29  10    1.62    0.18
   0  29  10    2.80    0.20
   1  29  10    0.63    0.16
   2  29  10    0.00    0.21
  -2  30  10    0.13    0.22
  -1  30  10    0.17    0.16
   0  30  10    0.15    0.16
   1  30  10    0.05    0.17
   2  30  10    0.12    0.22
  -2  31  10    0.26    0.32
  -1  31  10    1.22    0.18
   0  31  10    0.23    0.16
   1  31  10    0.66    0.21
  -1  32  10    0.02    0.21
   0  32  10    0.11    0.18
   1  32  10    0.29    0.21
  -1  33  10    0.78    0.20
   0  33  10    0.25    0.18
  -4   0  11    0.00    0.22
  -3   0  11    0.14    0.14
  -2   0  11    2.49    0.19
  -1   0  11    0.53    0.12
   0   0  11    0.07    0.10
   1   0  11    0.07    0.10
   2   0  11    0.12    0.10
   3   0  11    0.00    0.19
   4   0  11    0.13    0.18
  -4   1  11    0.25    0.18
  -3   1  11    0.33    0.10
  -2   1  11   13.25    0.40
  -1   1  11    0.05    0.07
   0   1  11    5.98    0.21
   1   1  11    1.50    0.10
   2   1  11   10.68    0.33
   3   1  11    3.90    0.26
   4   1  11    0.08    0.13
  -4   2  11    0.18    0.14
  -3   2  11    1.76    0.13
  -2   2  11    1.21    0.11
  -1   2  11    3.02    0.14
   0   2  11    9.97    0.31
   1   2  11    1.70    0.11
   2   2  11    0.25    0.09
   3   2  11    0.13    0.14
   4   2  11    2.00    0.20
  -4   3  11    0.12    0.13
  -3   3  11    0.61    0.11
  -2   3  11    6.26    0.22
  -1   3  11    2.03    0.12
   0   3  11    1.39    0.10
   1   3  11    1.90    0.11
   2   3  11    0.60    0.09
   3   3  11    0.19    0.18
   4   3  11    1.85    0.19
  -4   4  11    0.33    0.14
  -3   4  11    0.12    0.10
  -2   4  11    0.79    0.09
  -1   4  11    6.70    0.23
   0   4  11    0.88    0.09
   1   4  11    2.36    0.13
   2   4  11    5.10    0.19
   3   4  11    0.50    0.12
   4   4  11    0.24    0.16
  -4   5  11    1.33    0.17
  -3   5  11    0.10    0.10
  -2   5  11    0.53    0.09
  -1   5  11   15.71    0.47
   0   5  11    8.16    0.26
   1   5  11    0.90    0.09
   2   5  11    6.06    0.26
   3   5  11    2.18    0.16
   4   5  11    1.51    0.18
  -4   6  11    0.10    0.14
  -3   6  11    2.09    0.13
  -2   6  11    1.75    0.13
  -1   6  11   17.53    0.52
   0   6  11    1.25    0.10
   1   6  11   22.60    0.65
   2   6  11    7.07    0.28
   3   6  11    2.21    0.16
   4   6  11    1.74    0.18
  -4   7  11    1.26    0.16
  -3   7  11    0.76    0.12
  -2   7  11    7.00    0.26
  -1   7  11    3.36    0.15
   0   7  11    3.53    0.15
   1   7  11    2.10    0.11
   2   7  11    0.84    0.12
   3   7  11    0.07    0.12
   4   7  11    0.30    0.17
  -4   8  11    0.18    0.14
  -3   8  11    1.07    0.12
  -2   8  11    4.33    0.18
  -1   8  11    0.72    0.09
   0   8  11   17.54    0.53
   1   8  11    3.16    0.15
   2   8  11    1.92    0.14
   3   8  11    0.07    0.11
   4   8  11    0.21    0.16
  -4   9  11    0.51    0.16
  -3   9  11    0.64    0.11
  -2   9  11    3.95    0.17
  -1   9  11    3.87    0.16
   0   9  11    0.18    0.08
   1   9  11   18.73    0.55
   2   9  11    0.55    0.09
   3   9  11    0.71    0.13
   4   9  11    0.14    0.16
  -4  10  11    1.44    0.21
  -3  10  11    2.03    0.14
  -2  10  11    8.27    0.28
  -1  10  11    4.29    0.18
   0  10  11    0.31    0.08
   1  10  11    2.14    0.12
   2  10  11    2.33    0.16
   3  10  11    0.35    0.15
   4  10  11    0.23    0.17
  -4  11  11    0.55    0.19
  -3  11  11    0.27    0.11
  -2  11  11    1.57    0.12
  -1  11  11   24.03    0.70
   0  11  11   20.26    0.59
   1  11  11    0.10    0.08
   2  11  11    0.78    0.10
   3  11  11    5.96    0.28
   4  11  11    0.00    0.16
  -4  12  11    0.17    0.19
  -3  12  11    0.15    0.11
  -2  12  11    6.57    0.24
  -1  12  11    4.71    0.19
   0  12  11    6.26    0.22
   1  12  11    3.37    0.16
   2  12  11    0.16    0.09
   3  12  11    0.50    0.13
   4  12  11    0.45    0.23
  -4  13  11    0.13    0.20
  -3  13  11    1.26    0.17
  -2  13  11    0.22    0.10
  -1  13  11   10.42    0.33
   0  13  11    0.91    0.10
   1  13  11    3.83    0.17
   2  13  11    0.06    0.09
   3  13  11    2.27    0.17
   4  13  11    0.00    0.18
  -4  14  11    0.54    0.22
  -3  14  11    4.09    0.23
  -2  14  11    0.13    0.10
  -1  14  11    5.96    0.22
   0  14  11    1.17    0.11
   1  14  11    5.24    0.20
   2  14  11    5.10    0.20
   3  14  11    1.56    0.16
   4  14  11    1.28    0.19
  -4  15  11    0.26    0.22
  -3  15  11    0.53    0.16
  -2  15  11    0.37    0.12
  -1  15  11    2.16    0.15
   0  15  11    0.58    0.09
   1  15  11    3.29    0.14
   2  15  11    1.45    0.11
   3  15  11    0.94    0.15
   4  15  11    0.14    0.22
  -4  16  11    0.39    0.22
  -3  16  11    0.28    0.13
  -2  16  11    0.06    0.11
  -1  16  11    0.88    0.12
   0  16  11    1.57    0.11
   1  16  11    2.82    0.13
   2  16  11    1.84    0.13
   3  16  11    0.13    0.13
   4  16  11    0.38    0.21
  -4  17  11    0.55    0.21
  -3  17  11    0.25    0.14
  -2  17  11    0.03    0.11
  -1  17  11    0.50    0.11
   0  17  11    0.14    0.09
   1  17  11    0.05    0.08
   2  17  11    1.91    0.14
   3  17  11    0.36    0.14
  -4  18  11    0.86    0.22
  -3  18  11    1.41    0.17
  -2  18  11    0.02    0.12
  -1  18  11    1.81    0.15
   0  18  11    3.63    0.20
   1  18  11    1.18    0.10
   2  18  11    0.12    0.10
   3  18  11    0.56    0.19
  -4  19  11    1.53    0.24
  -3  19  11    0.12    0.14
  -2  19  11    0.32    0.13
  -1  19  11    2.38    0.17
   0  19  11   18.58    0.64
   1  19  11    3.34    0.14
   2  19  11    0.21    0.11
   3  19  11    0.96    0.18
  -3  20  11    0.22    0.14
  -2  20  11    0.38    0.13
  -1  20  11    0.96    0.13
   0  20  11    1.63    0.16
   1  20  11    1.42    0.12
   2  20  11    0.26    0.12
   3  20  11    0.27    0.17
  -3  21  11    0.46    0.15
  -2  21  11    0.22    0.14
  -1  21  11    0.82    0.13
   0  21  11    1.15    0.17
   1  21  11    0.63    0.11
   2  21  11    1.01    0.14
   3  21  11    0.34    0.21
  -3  22  11    0.17    0.15
  -2  22  11    0.27    0.15
  -1  22  11    3.66    0.21
   0  22  11    1.05    0.14
   1  22  11    0.19    0.13
   2  22  11    0.97    0.18
   3  22  11    0.62    0.20
  -3  23  11    0.14    0.16
  -2  23  11    2.20    0.18
  -1  23  11    0.55    0.13
   0  23  11    0.15    0.12
   1  23  11    0.24    0.12
   2  23  11    0.55    0.17
   3  23  11    0.67    0.28
  -3  24  11    0.04    0.16
  -2  24  11    0.24    0.14
  -1  24  11    0.85    0.15
   0  24  11    0.05    0.15
   1  24  11    2.15    0.17
   2  24  11    1.20    0.21
   3  24  11    0.30    0.31
  -3  25  11    0.04    0.20
  -2  25  11    0.21    0.14
  -1  25  11    0.35    0.17
   0  25  11    0.14    0.13
   1  25  11    0.19    0.13
   2  25  11    0.08    0.18
  -2  26  11    0.51    0.17
  -1  26  11    1.59    0.21
   0  26  11    0.80    0.15
   1  26  11    1.84    0.17
   2  26  11    0.07    0.18
  -2  27  11    2.52    0.27
  -1  27  11    0.36    0.19
   0  27  11    0.11    0.15
   1  27  11    0.09    0.14
   2  27  11    0.14    0.19
  -2  28  11    0.26    0.22
  -1  28  11    0.30    0.25
   0  28  11    0.58    0.16
   1  28  11    0.83    0.21
   2  28  11    0.63    0.24
  -2  29  11    0.69    0.26
  -1  29  11    0.07    0.20
   0  29  11    0.28    0.16
   1  29  11    0.44    0.20
  -1  30  11    0.31    0.21
   0  30  11    0.63    0.18
   1  30  11    0.53    0.24
  -1  31  11    0.34    0.23
   0  31  11    0.71    0.18
   1  31  11    0.53    0.25
   0  32  11    0.16    0.23
  -4   0  12    0.29    0.20
  -3   0  12    0.59    0.16
  -2   0  12    1.53    0.17
  -1   0  12    7.72    0.37
   0   0  12   14.54    0.62
   1   0  12    0.79    0.13
   2   0  12    0.06    0.13
   3   0  12    0.75    0.25
   4   0  12    0.78    0.32
  -4   1  12    0.04    0.15
  -3   1  12    0.22    0.10
  -2   1  12    0.64    0.10
  -1   1  12    0.55    0.09
   0   1  12   11.36    0.35
   1   1  12    0.35    0.08
   2   1  12    1.65    0.12
   3   1  12    0.25    0.16
   4   1  12    1.23    0.23
  -4   2  12    0.10    0.15
  -3   2  12    0.54    0.11
  -2   2  12    0.98    0.11
  -1   2  12    0.41    0.09
   0   2  12    1.27    0.10
   1   2  12    1.79    0.11
   2   2  12    0.23    0.09
   3   2  12    0.51    0.18
   4   2  12    0.14    0.21
  -4   3  12    0.22    0.15
  -3   3  12    0.35    0.11
  -2   3  12    0.12    0.09
  -1   3  12    3.38    0.16
   0   3  12   10.30    0.33
   1   3  12    0.60    0.09
   2   3  12    9.41    0.36
   3   3  12    1.75    0.18
   4   3  12    0.24    0.21
  -4   4  12    0.24    0.15
  -3   4  12    3.07    0.18
  -2   4  12    0.56    0.10
  -1   4  12    7.05    0.24
   0   4  12    3.41    0.16
   1   4  12   10.36    0.33
   2   4  12    2.37    0.16
   3   4  12    2.44    0.23
   4   4  12    0.82    0.22
  -4   5  12    0.55    0.16
  -3   5  12    2.38    0.15
  -2   5  12    2.59    0.14
  -1   5  12    1.92    0.12
   0   5  12    0.80    0.09
   1   5  12    0.95    0.10
   2   5  12    0.26    0.10
   3   5  12    0.17    0.16
   4   5  12    0.32    0.25
  -4   6  12    0.04    0.15
  -3   6  12    2.62    0.16
  -2   6  12    0.17    0.09
  -1   6  12    0.13    0.09
   0   6  12    6.64    0.23
   1   6  12    6.78    0.24
   2   6  12    0.75    0.14
   3   6  12    0.03    0.16
   4   6  12    0.38    0.19
  -4   7  12    0.90    0.17
  -3   7  12    2.46    0.15
  -2   7  12    0.17    0.09
  -1   7  12    2.46    0.14
   0   7  12   13.42    0.41
   1   7  12    6.59    0.23
   2   7  12    0.06    0.14
   3   7  12    0.04    0.16
   4   7  12    0.10    0.22
  -4   8  12    1.51    0.19
  -3   8  12    2.36    0.16
  -2   8  12    0.32    0.10
  -1   8  12    0.20    0.09
   0   8  12    4.22    0.17
   1   8  12   27.77    0.80
   2   8  12    0.31    0.11
   3   8  12    0.96    0.19
   4   8  12    0.50    0.28
  -4   9  12    0.52    0.17
  -3   9  12    1.11    0.15
  -2   9  12    6.30    0.23
  -1   9  12    2.59    0.14
   0   9  12    1.11    0.12
   1   9  12   10.59    0.34
   2   9  12    9.33    0.36
   3   9  12    0.22    0.17
   4   9  12    0.41    0.23
  -4  10  12    0.00    0.17
  -3  10  12    0.59    0.12
  -2  10  12    1.16    0.12
  -1  10  12    3.72    0.17
   0  10  12    3.14    0.15
   1  10  12    0.90    0.10
   2  10  12    0.12    0.11
   3  10  12    0.00    0.16
   4  10  12    0.27    0.23
  -4  11  12    0.20    0.20
  -3  11  12    0.73    0.12
  -2  11  12    2.57    0.16
  -1  11  12    5.58    0.22
   0  11  12    3.04    0.15
   1  11  12    5.20    0.20
   2  11  12    0.05    0.11
   3  11  12    0.37    0.19
   4  11  12    0.18    0.23
  -4  12  12    2.01    0.25
  -3  12  12    0.10    0.13
  -2  12  12    0.54    0.11
  -1  12  12    5.97    0.22
   0  12  12    1.55    0.12
   1  12  12    0.20    0.09
   2  12  12    0.88    0.13
   3  12  12    0.93    0.19
   4  12  12    1.36    0.26
  -4  13  12    0.33    0.26
  -3  13  12    0.93    0.15
  -2  13  12    2.34    0.14
  -1  13  12    2.61    0.15
   0  13  12    0.40    0.10
   1  13  12    0.17    0.10
   2  13  12    1.34    0.14
   3  13  12    1.82    0.21
  -4  14  12    0.11    0.21
  -3  14  12    0.17    0.14
  -2  14  12    0.39    0.12
  -1  14  12    0.50    0.10
   0  14  12    7.20    0.25
   1  14  12    2.78    0.15
   2  14  12    0.08    0.11
   3  14  12    2.50    0.26
  -4  15  12    0.20    0.23
  -3  15  12    0.07    0.14
  -2  15  12    0.76    0.13
  -1  15  12    4.02    0.19
   0  15  12    3.47    0.17
   1  15  12    0.25    0.10
   2  15  12    0.90    0.13
   3  15  12    0.08    0.21
  -3  16  12    0.86    0.17
  -2  16  12    0.11    0.13
  -1  16  12    4.91    0.24
   0  16  12    0.40    0.10
   1  16  12    3.37    0.18
   2  16  12    0.11    0.12
   3  16  12    1.43    0.22
  -3  17  12    0.14    0.15
  -2  17  12    0.04    0.12
  -1  17  12    0.69    0.15
   0  17  12   14.52    0.45
   1  17  12    2.46    0.14
   2  17  12    0.65    0.13
   3  17  12    0.97    0.20
  -3  18  12    0.35    0.15
  -2  18  12    0.14    0.15
  -1  18  12    0.07    0.12
   0  18  12    0.35    0.12
   1  18  12    0.23    0.10
   2  18  12    0.19    0.12
   3  18  12    0.04    0.28
  -3  19  12    0.24    0.23
  -2  19  12    0.16    0.13
  -1  19  12    0.26    0.12
   0  19  12    0.12    0.12
   1  19  12    0.15    0.13
   2  19  12    0.06    0.13
   3  19  12    2.23    0.37
  -3  20  12    0.68    0.17
  -2  20  12    1.11    0.16
  -1  20  12    0.31    0.13
   0  20  12    0.13    0.12
   1  20  12    0.30    0.13
   2  20  12    0.01    0.16
   3  20  12    0.82    0.32
  -3  21  12    0.00    0.16
  -2  21  12    0.49    0.15
  -1  21  12    0.37    0.13
   0  21  12    1.59    0.16
   1  21  12    0.18    0.13
   2  21  12    0.83    0.28
   3  21  12    0.00    0.30
  -3  22  12    0.30    0.17
  -2  22  12    0.19    0.15
  -1  22  12    0.49    0.14
   0  22  12    0.17    0.13
   1  22  12    0.66    0.18
   2  22  12    0.67    0.45
  -3  23  12    0.30    0.18
  -2  23  12    0.42    0.15
  -1  23  12    0.16    0.13
   0  23  12    1.10    0.15
   1  23  12    0.01    0.17
   2  23  12    0.49    0.30
  -2  24  12    1.19    0.18
  -1  24  12    2.97    0.20
   0  24  12    0.09    0.17
   1  24  12    0.43    0.18
   2  24  12    0.06    0.25
  -2  25  12    1.48    0.19
  -1  25  12    0.16    0.19
   0  25  12    0.06    0.18
   1  25  12    0.12    0.18
   2  25  12    0.71    0.30
  -2  26  12    0.31    0.22
  -1  26  12    0.41    0.29
   0  26  12    0.28    0.19
   1  26  12    1.07    0.29
   2  26  12    0.22    0.31
  -2  27  12    0.79    0.23
  -1  27  12    0.34    0.21
   0  27  12    0.25    0.19
   1  27  12    0.00    0.27
  -1  28  12    0.64    0.24
   0  28  12    0.09    0.20
   1  28  12    1.52    0.33
  -1  29  12    0.10    0.23
   0  29  12    1.24    0.23
   0  30  12    0.55    0.35
  -4   0  13    0.17    0.21
  -3   0  13    0.23    0.16
  -2   0  13    0.32    0.14
  -1   0  13    0.16    0.13
   0   0  13    0.32    0.13
   1   0  13    0.00    0.12
   2   0  13    0.40    0.22
   3   0  13    0.04    0.25
   4   0  13    0.00    0.32
  -4   1  13    0.17    0.19
  -3   1  13    0.05    0.11
  -2   1  13    1.05    0.12
  -1   1  13    1.80    0.12
   0   1  13    3.77    0.17
   1   1  13    0.19    0.09
   2   1  13    6.78    0.29
   3   1  13    0.65    0.20
   4   1  13    0.05    0.23
  -4   2  13    0.03    0.16
  -3   2  13    0.16    0.12
  -2   2  13    3.64    0.18
  -1   2  13   18.90    0.56
   0   2  13    1.73    0.12
   1   2  13    0.57    0.10
   2   2  13    0.15    0.10
   3   2  13    2.11    0.33
   4   2  13    0.09    0.24
  -4   3  13    0.04    0.16
  -3   3  13    1.57    0.14
  -2   3  13    0.25    0.10
  -1   3  13    1.39    0.12
   0   3  13    1.90    0.12
   1   3  13    0.40    0.09
   2   3  13    1.26    0.14
   3   3  13    1.67    0.22
   4   3  13    1.40    0.37
  -4   4  13    0.06    0.17
  -3   4  13    0.47    0.13
  -2   4  13    0.47    0.11
  -1   4  13    1.21    0.11
   0   4  13    1.99    0.13
   1   4  13    7.55    0.27
   2   4  13    1.85    0.15
   3   4  13    0.28    0.18
   4   4  13    0.26    0.33
  -4   5  13    0.03    0.17
  -3   5  13    2.28    0.15
  -2   5  13    2.12    0.14
  -1   5  13    1.73    0.13
   0   5  13    0.15    0.09
   1   5  13    2.02    0.13
   2   5  13    0.71    0.12
   3   5  13    0.00    0.17
   4   5  13    0.84    0.36
  -4   6  13    1.97    0.21
  -3   6  13    0.44    0.12
  -2   6  13    3.88    0.18
  -1   6  13    0.46    0.11
   0   6  13    2.29    0.13
   1   6  13    5.03    0.20
   2   6  13    1.36    0.14
   3   6  13    1.06    0.20
  -4   7  13    0.27    0.17
  -3   7  13    0.20    0.12
  -2   7  13    3.63    0.18
  -1   7  13    1.85    0.14
   0   7  13    0.03    0.09
   1   7  13    0.07    0.09
   2   7  13    1.50    0.14
   3   7  13    0.03    0.17
  -4   8  13    0.17    0.17
  -3   8  13    0.31    0.14
  -2   8  13    3.76    0.18
  -1   8  13    3.32    0.16
   0   8  13    0.01    0.09
   1   8  13    0.48    0.10
   2   8  13    0.79    0.13
   3   8  13    0.57    0.19
  -4   9  13    0.11    0.22
  -3   9  13    0.25    0.12
  -2   9  13    2.06    0.14
  -1   9  13    4.00    0.19
   0   9  13    2.50    0.14
   1   9  13    0.68    0.11
   2   9  13    0.20    0.12
   3   9  13    0.37    0.19
  -4  10  13    1.18    0.26
  -3  10  13    1.16    0.15
  -2  10  13    3.76    0.18
  -1  10  13    0.22    0.09
   0  10  13   11.41    0.36
   1  10  13    8.85    0.30
   2  10  13    0.05    0.12
   3  10  13    3.03    0.38
  -4  11  13    0.05    0.33
  -3  11  13    0.35    0.12
  -2  11  13    0.58    0.12
  -1  11  13    0.00    0.09
   0  11  13   12.40    0.39
   1  11  13    0.41    0.10
   2  11  13    0.20    0.15
   3  11  13    1.41    0.24
  -3  12  13    0.32    0.15
  -2  12  13    0.22    0.11
  -1  12  13    0.14    0.10
   0  12  13    7.22    0.26
   1  12  13    0.61    0.11
   2  12  13    0.02    0.11
   3  12  13    0.47    0.19
  -3  13  13    0.53    0.16
  -2  13  13    0.27    0.12
  -1  13  13    0.75    0.11
   0  13  13    5.13    0.22
   1  13  13    0.44    0.10
   2  13  13    0.17    0.13
   3  13  13    0.08    0.19
  -3  14  13    0.20    0.16
  -2  14  13    2.08    0.20
  -1  14  13    0.42    0.11
   0  14  13    2.85    0.16
   1  14  13    1.57    0.13
   2  14  13    0.41    0.13
   3  14  13    0.97    0.21
  -3  15  13    0.56    0.16
  -2  15  13    0.80    0.15
  -1  15  13    4.06    0.19
   0  15  13    1.40    0.13
   1  15  13    0.74    0.12
   2  15  13    3.26    0.20
   3  15  13    0.11    0.21
  -3  16  13    0.28    0.17
  -2  16  13    0.39    0.14
  -1  16  13    4.16    0.23
   0  16  13    0.29    0.12
   1  16  13    0.93    0.12
   2  16  13    0.06    0.13
   3  16  13    0.56    0.21
  -3  17  13    1.32    0.19
  -2  17  13    1.65    0.17
  -1  17  13    1.78    0.16
   0  17  13    1.42    0.15
   1  17  13    0.36    0.11
   2  17  13    0.44    0.14
   3  17  13    0.37    0.21
  -3  18  13    0.23    0.17
  -2  18  13    0.22    0.15
  -1  18  13    0.28    0.13
   0  18  13    1.97    0.16
   1  18  13    0.75    0.12
   2  18  13    0.14    0.16
   3  18  13    0.28    0.31
  -3  19  13    0.10    0.17
  -2  19  13    0.21    0.16
  -1  19  13    0.01    0.13
   0  19  13    1.48    0.16
   1  19  13    0.56    0.15
   2  19  13    1.86    0.17
  -3  20  13    0.25    0.19
  -2  20  13    0.15    0.16
  -1  20  13    0.94    0.16
   0  20  13    0.16    0.14
   1  20  13    0.11    0.14
   2  20  13    0.31    0.19
  -2  21  13    0.97    0.18
  -1  21  13    0.29    0.18
   0  21  13    1.20    0.16
   1  21  13    0.34    0.15
   2  21  13    0.91    0.29
  -2  22  13    3.56    0.24
  -1  22  13    0.50    0.16
   0  22  13    0.24    0.14
   1  22  13    0.25    0.19
   2  22  13    0.00    0.32
  -2  23  13    0.42    0.17
  -1  23  13    1.25    0.18
   0  23  13    0.13    0.15
   1  23  13    0.31    0.26
   2  23  13    1.00    0.33
  -2  24  13    0.02    0.18
  -1  24  13    1.04    0.18
   0  24  13    0.04    0.19
   1  24  13    2.00    0.34
   2  24  13    0.77    0.62
  -2  25  13    0.10    0.23
  -1  25  13    1.06    0.23
   0  25  13    0.20    0.19
   1  25  13    0.97    0.32
  -1  26  13    1.16    0.24
   0  26  13    0.45    0.26
   1  26  13    1.00    0.33
  -1  27  13    0.24    0.24
   0  27  13    0.38    0.23
   1  27  13    0.16    0.31
   0  28  13    0.48    0.31
  -4   0  14    1.35    0.35
  -3   0  14    0.36    0.19
  -2   0  14    1.64    0.19
  -1   0  14    2.71    0.22
   0   0  14    0.83    0.15
   1   0  14    0.28    0.14
   2   0  14    0.59    0.24
   3   0  14    1.30    0.32
  -4   1  14    0.84    0.24
  -3   1  14    0.14    0.13
  -2   1  14    0.13    0.11
  -1   1  14    2.92    0.16
   0   1  14    0.73    0.12
   1   1  14    0.05    0.09
   2   1  14    1.16    0.18
   3   1  14    0.11    0.19
  -3   2  14    0.02    0.11
  -2   2  14    0.10    0.11
  -1   2  14    0.87    0.11
   0   2  14    0.25    0.10
   1   2  14    1.40    0.12
   2   2  14    0.08    0.16
   3   2  14    0.22    0.20
  -3   3  14    0.04    0.13
  -2   3  14    0.28    0.13
  -1   3  14    1.56    0.13
   0   3  14    0.37    0.10
   1   3  14    1.60    0.12
   2   3  14    0.27    0.15
   3   3  14    0.46    0.20
  -3   4  14    0.08    0.14
  -2   4  14    0.77    0.12
  -1   4  14    0.81    0.11
   0   4  14    0.32    0.10
   1   4  14    5.33    0.21
   2   4  14    0.77    0.16
   3   4  14    2.52    0.27
  -3   5  14    0.11    0.13
  -2   5  14    0.14    0.11
  -1   5  14    0.03    0.11
   0   5  14    0.89    0.11
   1   5  14    0.59    0.10
   2   5  14    1.99    0.17
   3   5  14    0.22    0.20
  -3   6  14    0.78    0.15
  -2   6  14    0.37    0.12
  -1   6  14    0.32    0.10
   0   6  14    1.37    0.12
   1   6  14    0.13    0.10
   2   6  14    0.02    0.13
   3   6  14    0.00    0.28
  -3   7  14    1.01    0.15
  -2   7  14    0.49    0.12
  -1   7  14    1.30    0.12
   0   7  14    0.52    0.11
   1   7  14    0.39    0.11
   2   7  14    0.13    0.12
   3   7  14    0.12    0.19
  -3   8  14    0.00    0.14
  -2   8  14    1.71    0.14
  -1   8  14    0.19    0.10
   0   8  14    5.64    0.22
   1   8  14    1.25    0.13
   2   8  14    0.20    0.13
   3   8  14    0.97    0.22
  -3   9  14    0.45    0.14
  -2   9  14    0.45    0.12
  -1   9  14    0.06    0.10
   0   9  14    0.11    0.10
   1   9  14    0.28    0.11
   2   9  14    1.23    0.15
   3   9  14    0.51    0.21
  -3  10  14    0.26    0.14
  -2  10  14    0.73    0.14
  -1  10  14    0.30    0.11
   0  10  14    0.02    0.10
   1  10  14    1.13    0.12
   2  10  14    0.16    0.13
   3  10  14    0.52    0.22
  -3  11  14    0.07    0.16
  -2  11  14    0.07    0.12
  -1  11  14    0.26    0.10
   0  11  14    0.00    0.10
   1  11  14    0.61    0.12
   2  11  14    0.12    0.14
   3  11  14    0.78    0.23
  -3  12  14    0.35    0.17
  -2  12  14    0.72    0.16
  -1  12  14    1.11    0.13
   0  12  14    1.76    0.14
   1  12  14    1.19    0.13
   2  12  14    2.25    0.19
   3  12  14    0.69    0.23
  -3  13  14    0.97    0.18
  -2  13  14    0.01    0.14
  -1  13  14    0.13    0.11
   0  13  14    9.32    0.32
   1  13  14    1.17    0.13
   2  13  14    3.78    0.25
   3  13  14    0.37    0.24
  -3  14  14    0.41    0.18
  -2  14  14    0.09    0.14
  -1  14  14    0.46    0.12
   0  14  14    1.74    0.14
   1  14  14    0.80    0.12
   2  14  14    0.28    0.14
   3  14  14    0.72    0.25
  -3  15  14    0.96    0.19
  -2  15  14    0.36    0.15
  -1  15  14    0.79    0.15
   0  15  14    0.96    0.14
   1  15  14    0.39    0.11
   2  15  14    1.02    0.17
  -3  16  14    0.14    0.19
  -2  16  14    0.06    0.15
  -1  16  14    0.21    0.14
   0  16  14    1.79    0.14
   1  16  14    0.17    0.11
   2  16  14    0.13    0.15
  -3  17  14    0.93    0.20
  -2  17  14    0.05    0.16
  -1  17  14    0.65    0.16
   0  17  14    0.10    0.13
   1  17  14    0.38    0.12
   2  17  14    0.16    0.16
  -2  18  14    0.64    0.17
  -1  18  14    1.01    0.17
   0  18  14    0.28    0.14
   1  18  14    1.41    0.17
   2  18  14    0.08    0.15
  -2  19  14    0.45    0.18
  -1  19  14    0.07    0.18
   0  19  14    0.00    0.14
   1  19  14    1.12    0.16
   2  19  14    0.32    0.18
  -2  20  14    2.15    0.22
  -1  20  14    0.10    0.15
   0  20  14    0.18    0.15
   1  20  14    0.96    0.16
   2  20  14    0.73    0.30
  -2  21  14    0.34    0.18
  -1  21  14    0.21    0.16
   0  21  14    0.92    0.17
   1  21  14    0.08    0.26
   2  21  14    0.68    0.30
  -2  22  14    0.58    0.24
  -1  22  14    0.56    0.18
   0  22  14    0.11    0.16
   1  22  14    0.00    0.27
  -1  23  14    0.21    0.23
   0  23  14    0.91    0.19
   1  23  14    0.27    0.28
  -1  24  14    0.83    0.19
   0  24  14    0.57    0.23
   1  24  14    0.00    0.29
  -1  25  14    1.01    0.44
   0  25  14    0.31    0.22
  -3   0  15    0.13    0.33
  -2   0  15    1.04    0.19
  -1   0  15    0.23    0.15
   0   0  15    0.00    0.14
   1   0  15    0.09    0.15
   2   0  15    0.01    0.24
   3   0  15    0.15    0.33
  -3   1  15    0.83    0.16
  -2   1  15    3.77    0.20
  -1   1  15    0.47    0.11
   0   1  15    1.37    0.13
   1   1  15    0.15    0.10
   2   1  15    0.17    0.17
   3   1  15    3.03    0.30
  -3   2  15    0.23    0.15
  -2   2  15    0.70    0.13
  -1   2  15    0.12    0.13
   0   2  15    1.65    0.14
   1   2  15    1.02    0.13
   2   2  15    0.00    0.16
   3   2  15    0.78    0.22
  -3   3  15    0.96    0.16
  -2   3  15    0.20    0.12
  -1   3  15    1.21    0.13
   0   3  15    0.10    0.10
   1   3  15    2.19    0.16
   2   3  15    0.21    0.16
   3   3  15    0.59    0.23
  -3   4  15    1.70    0.17
  -2   4  15    0.01    0.12
  -1   4  15    0.39    0.11
   0   4  15    0.00    0.10
   1   4  15    0.26    0.11
   2   4  15    0.73    0.19
   3   4  15    0.09    0.21
  -3   5  15    1.65    0.17
  -2   5  15    0.06    0.12
  -1   5  15    0.65    0.12
   0   5  15    0.65    0.14
   1   5  15    0.03    0.11
   2   5  15    0.30    0.18
   3   5  15    0.11    0.28
  -3   6  15    0.85    0.16
  -2   6  15    0.67    0.13
  -1   6  15    1.20    0.13
   0   6  15    0.10    0.11
   1   6  15    0.38    0.12
   2   6  15    2.94    0.26
   3   6  15    0.73    0.23
  -3   7  15    0.34    0.15
  -2   7  15    0.75    0.15
  -1   7  15    0.82    0.13
   0   7  15    0.18    0.11
   1   7  15    0.71    0.12
   2   7  15    1.57    0.22
   3   7  15    0.23    0.22
  -3   8  15    0.09    0.16
  -2   8  15    0.11    0.16
  -1   8  15    0.53    0.12
   0   8  15    0.90    0.12
   1   8  15    0.12    0.12
   2   8  15    0.36    0.19
   3   8  15    0.15    0.22
  -3   9  15    0.70    0.16
  -2   9  15    0.24    0.13
  -1   9  15    0.13    0.11
   0   9  15    0.79    0.12
   1   9  15    0.68    0.12
   2   9  15    0.15    0.15
  -3  10  15    0.23    0.16
  -2  10  15    1.61    0.15
  -1  10  15    0.26    0.12
   0  10  15    1.14    0.14
   1  10  15    1.26    0.13
   2  10  15    0.06    0.15
  -3  11  15    0.05    0.18
  -2  11  15    0.32    0.14
  -1  11  15    1.28    0.14
   0  11  15    0.39    0.12
   1  11  15    0.46    0.12
   2  11  15    1.30    0.17
  -3  12  15    0.02    0.23
  -2  12  15    0.98    0.14
  -1  12  15    1.87    0.16
   0  12  15    0.12    0.12
   1  12  15    0.13    0.12
   2  12  15    0.09    0.17
  -2  13  15    0.23    0.16
  -1  13  15    0.53    0.13
   0  13  15    0.44    0.12
   1  13  15    0.69    0.13
   2  13  15    0.24    0.17
  -2  14  15    0.36    0.17
  -1  14  15    1.42    0.15
   0  14  15    1.92    0.15
   1  14  15    0.38    0.13
   2  14  15    0.86    0.18
  -2  15  15    0.25    0.17
  -1  15  15    5.59    0.30
   0  15  15    0.02    0.12
   1  15  15    0.42    0.14
   2  15  15    0.03    0.17
  -2  16  15    0.39    0.18
  -1  16  15    0.47    0.17
   0  16  15    0.42    0.16
   1  16  15    0.03    0.13
   2  16  15    0.25    0.21
  -2  17  15    0.46    0.19
  -1  17  15    2.15    0.20
   0  17  15    0.13    0.15
   1  17  15    0.41    0.15
   2  17  15    0.52    0.18
  -2  18  15    0.15    0.18
  -1  18  15    1.04    0.18
   0  18  15    0.05    0.20
   1  18  15    0.15    0.17
  -2  19  15    0.15    0.21
  -1  19  15    0.48    0.18
   0  19  15    0.42    0.17
   1  19  15    0.30    0.23
  -1  20  15    0.07    0.18
   0  20  15    0.21    0.18
   1  20  15    0.24    0.21
  -1  21  15    0.31    0.19
   0  21  15    0.48    0.18
   1  21  15    1.08    0.23
  -1  22  15    0.03    0.31
   0  22  15    1.27    0.20
  -3   0  16    0.00    0.23
  -2   0  16    0.09    0.20
  -1   0  16    0.15    0.17
   0   0  16    3.72    0.26
   1   0  16    0.07    0.22
   2   0  16    0.51    0.31
  -3   1  16    0.15    0.16
  -2   1  16    0.95    0.15
  -1   1  16    0.79    0.13
   0   1  16    0.60    0.13
   1   1  16    0.24    0.12
   2   1  16    0.00    0.20
  -3   2  16    0.02    0.23
  -2   2  16    0.41    0.14
  -1   2  16    1.32    0.17
   0   2  16    0.33    0.13
   1   2  16    0.03    0.12
   2   2  16    0.37    0.21
  -3   3  16    0.00    0.36
  -2   3  16    1.71    0.16
  -1   3  16    2.01    0.16
   0   3  16    1.07    0.14
   1   3  16    0.33    0.13
   2   3  16    0.73    0.22
  -2   4  16    0.22    0.14
  -1   4  16    0.62    0.13
   0   4  16    0.07    0.12
   1   4  16    0.09    0.12
   2   4  16    1.48    0.23
  -2   5  16    0.17    0.16
  -1   5  16    0.01    0.12
   0   5  16    1.40    0.14
   1   5  16    0.30    0.12
   2   5  16    0.49    0.21
  -2   6  16    0.12    0.13
  -1   6  16    0.05    0.13
   0   6  16    0.33    0.14
   1   6  16    0.25    0.13
   2   6  16    0.30    0.20
  -2   7  16    0.30    0.15
  -1   7  16    0.14    0.13
   0   7  16    0.33    0.14
   1   7  16    0.13    0.13
   2   7  16    0.29    0.21
  -2   8  16    0.78    0.16
  -1   8  16    0.04    0.13
   0   8  16    2.28    0.16
   1   8  16    0.02    0.13
   2   8  16    0.00    0.24
  -2   9  16    0.16    0.16
  -1   9  16    0.03    0.13
   0   9  16    0.37    0.13
   1   9  16    2.73    0.18
   2   9  16    0.82    0.22
  -2  10  16    0.15    0.16
  -1  10  16    0.21    0.13
   0  10  16    0.54    0.13
   1  10  16    0.33    0.13
   2  10  16    0.20    0.21
  -2  11  16    0.18    0.15
  -1  11  16    0.14    0.13
   0  11  16    0.64    0.13
   1  11  16    2.09    0.17
   2  11  16    0.02    0.23
  -2  12  16    0.85    0.19
  -1  12  16    0.79    0.15
   0  12  16    1.54    0.16
   1  12  16    0.07    0.14
   2  12  16    0.23    0.22
  -2  13  16    1.06    0.20
  -1  13  16    1.72    0.20
   0  13  16    0.15    0.14
   1  13  16    0.07    0.14
  -2  14  16    0.02    0.21
  -1  14  16    0.22    0.17
   0  14  16    0.05    0.13
   1  14  16    0.36    0.18
  -1  15  16    0.04    0.20
   0  15  16    0.26    0.15
   1  15  16    0.33    0.20
  -1  16  16    0.17    0.18
   0  16  16    0.30    0.17
   1  16  16    0.06    0.17
  -1  17  16    0.97    0.19
   0  17  16    0.10    0.17
   1  17  16    0.93    0.25
  -1  18  16    0.92    0.24
   0  18  16    0.06    0.18
   0  19  16    0.20    0.37
  -2   0  17    0.14    0.23
  -1   0  17    0.17    0.20
   0   0  17    0.05    0.19
   1   0  17    0.04    0.17
  -2   1  17    0.99    0.19
  -1   1  17    0.31    0.15
   0   1  17    0.08    0.13
   1   1  17    0.45    0.15
  -2   2  17    0.04    0.16
  -1   2  17    0.72    0.15
   0   2  17    0.28    0.14
   1   2  17    0.72    0.18
  -2   3  17    0.01    0.18
  -1   3  17    0.10    0.14
   0   3  17    0.08    0.15
   1   3  17    0.14    0.15
  -2   4  17    0.41    0.16
  -1   4  17    0.22    0.17
   0   4  17    0.00    0.13
   1   4  17    0.64    0.15
  -2   5  17    0.00    0.16
  -1   5  17    1.20    0.17
   0   5  17    0.18    0.14
   1   5  17    0.06    0.15
  -2   6  17    0.48    0.25
  -1   6  17    0.17    0.15
   0   6  17    0.73    0.15
   1   6  17    0.08    0.14
  -2   7  17    0.54    0.38
  -1   7  17    0.06    0.14
   0   7  17    0.48    0.14
   1   7  17    0.07    0.15
  -1   8  17    0.27    0.15
   0   8  17    0.19    0.14
   1   8  17    0.29    0.15
  -1   9  17    0.26    0.16
   0   9  17    0.41    0.15
   1   9  17    0.70    0.16
  -1  10  17    0.50    0.16
   0  10  17    1.06    0.16
   1  10  17    0.14    0.15
  -1  11  17    0.13    0.16
   0  11  17    0.82    0.18
   1  11  17    0.48    0.19
  -1  12  17    0.09    0.16
   0  12  17    0.15    0.15
  -1  13  17    0.31    0.30
   0  13  17    0.28    0.16
   0  14  17    0.43    0.17
   0   0  18    0.08    0.22
   0   1  18    0.43    0.21
   0   2  18    0.27    0.16
   0   3  18    0.19    0.18
   0   4  18    0.32    0.18
   0   5  18    0.08    0.19
   0   0   0    0.00    0.00
;
_shelx_hkl_checksum              67154
_shelx_res_file
;
    JTM613_0m_4.res created by SHELXL-2014/7
TITL JTM613_0m_4_a.res in P2(1)/c
REM Old TITL JTM613_0m_4 in P2(1)/c
REM SHELXT solution in P2(1)/c
REM R1 0.172,  Rweak 0.029,  Alpha 0.044,  Orientation as input
REM Formula found by SHELXT:  C21 N4 O S
CELL  0.71073   4.5974  30.6754  13.8090   90.000   91.961   90.000
ZERR    4.000   0.0003   0.0020   0.0009    0.000    0.001    0.000
LATT  1
SYMM -X, 1/2+Y, 1/2-Z
SFAC C H N O S
UNIT 80 84 12 12 4
TEMP 23
SIZE 0.06 0.12 0.32
L.S. 8
BOND $H
LIST 4
ACTA 55.8
FMAP 2
PLAN 5
MPLA C1 > C6 C8 N1 N2
MPLA C10 > C15
CONF
OMIT -1 3 2
OMIT -2 1 7
WGHT    0.077700    2.792800
FVAR       0.19174
S1    5    0.289872    0.627708    0.186806    11.00000    0.04604    0.05015 =
         0.05947    0.00028   -0.00179    0.00778
O1    4    1.084638    0.415528    0.142656    11.00000    0.08756    0.05510 =
         0.06331   -0.00943   -0.00707    0.01868
O2    4    0.203953    0.643951    0.282493    11.00000    0.06134    0.05952 =
         0.07222   -0.00048    0.02130    0.00940
O3    4    0.499656    0.821637    0.189171    11.00000    0.12023    0.07903 =
         0.14612   -0.01399    0.00956   -0.00012
N1    3    0.517849    0.551921    0.131851    11.00000    0.05290    0.04965 =
         0.04804    0.00031   -0.00430    0.00435
N2    3    0.680476    0.569880    0.282671    11.00000    0.04740    0.04062 =
         0.04370   -0.00241   -0.00163   -0.00180
N3    3    0.269140    0.708428    0.045591    11.00000    0.11566    0.05896 =
         0.06774   -0.00481   -0.02467    0.01901
C1    1    0.808721    0.530350    0.260209    11.00000    0.04209    0.03856 =
         0.04803   -0.00247    0.00108   -0.00291
C2    1    1.000787    0.503535    0.312471    11.00000    0.05642    0.05004 =
         0.04541    0.00046   -0.01033   -0.00003
AFIX  43
H2    2    1.069662    0.510781    0.374505    11.00000   -1.20000
AFIX   0
C3    1    1.082970    0.465935    0.267750    11.00000    0.05642    0.04970 =
         0.05895    0.00524   -0.00810    0.00647
AFIX  43
H3    2    1.210767    0.447108    0.300484    11.00000   -1.20000
AFIX   0
C4    1    0.980729    0.454862    0.174133    11.00000    0.05419    0.04194 =
         0.05566   -0.00104    0.00374    0.00326
C5    1    0.795103    0.481298    0.121481    11.00000    0.05865    0.04943 =
         0.04278   -0.00426   -0.00055   -0.00236
AFIX  43
H5    2    0.730206    0.474095    0.058990    11.00000   -1.20000
AFIX   0
C6    1    0.707673    0.519952    0.166915    11.00000    0.04393    0.04181 =
         0.04324    0.00153   -0.00090   -0.00216
C7    1    0.980849    0.401321    0.049659    11.00000    0.11671    0.06718 =
         0.06273   -0.01769    0.00794    0.01593
AFIX 137
H7A   2    1.058071    0.419837    0.000728    11.00000   -1.50000
H7B   2    0.772137    0.402704    0.046337    11.00000   -1.50000
H7C   2    1.042320    0.371838    0.039170    11.00000   -1.50000
AFIX   0
C8    1    0.511407    0.580284    0.202373    11.00000    0.04405    0.04431 =
         0.04866    0.00260    0.00140    0.00027
C9    1    0.574773    0.663896    0.147721    11.00000    0.05059    0.05449 =
         0.06545    0.01193    0.01317    0.01218
AFIX  23
H9A   2    0.723903    0.666850    0.198705    11.00000   -1.20000
H9B   2    0.664120    0.652002    0.090840    11.00000   -1.20000
AFIX   0
C10   1    0.442438    0.707963    0.124261    11.00000    0.05161    0.05090 =
         0.05409    0.01322    0.00780    0.00902
C11   1    0.153394    0.746654    0.019550    11.00000    0.10957    0.07096 =
         0.06513    0.01347   -0.02692    0.01634
AFIX  43
H11   2    0.027731    0.746842   -0.034676    11.00000   -1.20000
AFIX   0
C12   1    0.201830    0.785167    0.064691    11.00000    0.08303    0.05608 =
         0.06628    0.02087    0.00825    0.01356
C13   1    0.389573    0.783585    0.145649    11.00000    0.10713    0.04743 =
         0.07846   -0.00138   -0.00331    0.00665
C14   1    0.506790    0.743930    0.179056    11.00000    0.07426    0.05275 =
         0.05930    0.00345   -0.00192    0.00339
C15   1    0.070045    0.826880    0.026323    11.00000    0.13870    0.07409 =
         0.11552    0.03855    0.00339    0.03351
AFIX  33
H15A  2    0.128802    0.850625    0.067839    11.00000   -1.50000
H15B  2    0.135506    0.832148   -0.037906    11.00000   -1.50000
H15C  2   -0.138272    0.824487    0.024551    11.00000   -1.50000
AFIX   0
C16   1    0.319018    0.838896    0.252778    11.00000    0.18105    0.19989 =
         0.15100   -0.02029    0.04357    0.09132
AFIX 137
H16A  2    0.302975    0.869727    0.241925    11.00000   -1.50000
H16B  2    0.394011    0.833660    0.317469    11.00000   -1.50000
H16C  2    0.130504    0.825681    0.244563    11.00000   -1.50000
AFIX   0
C17   1    0.702293    0.742049    0.269397    11.00000    0.14146    0.08776 =
         0.09972   -0.00870   -0.05493    0.01168
AFIX 137
H17A  2    0.777798    0.770610    0.283545    11.00000   -1.50000
H17B  2    0.860617    0.722372    0.259061    11.00000   -1.50000
H17C  2    0.592470    0.731971    0.322886    11.00000   -1.50000
AFIX   0
C18   1    0.721291    0.592958    0.374301    11.00000    0.05691    0.04305 =
         0.04858   -0.00809   -0.00208   -0.00847
AFIX  23
H18A  2    0.653273    0.622713    0.366230    11.00000   -1.20000
H18B  2    0.927427    0.593999    0.391633    11.00000   -1.20000
AFIX   0
C19   1    0.566742    0.572526    0.453138    11.00000    0.05646    0.05165 =
         0.04529   -0.00475   -0.00492   -0.00336
C20   1    0.446535    0.557277    0.517240    11.00000    0.08903    0.08487 =
         0.05183   -0.00052    0.00094   -0.01952
AFIX 163
H20   2    0.350007    0.545032    0.568716    11.00000   -1.20000
AFIX   0
HKLF 4
REM  JTM613_0m_4_a.res in P2(1)/c
REM R1 =  0.0825 for    3504 Fo > 4sig(Fo)  and  0.1019 for all    4617 data
REM    247 parameters refined using      0 restraints
END
WGHT      0.0779      2.7947
REM Highest difference peak  0.846,  deepest hole -0.367,  1-sigma level  0.064
Q1    1   0.2391  0.8108  0.2208  11.00000  0.05    0.85
Q2    1   0.5010  0.7390  0.2931  11.00000  0.05    0.45
Q3    1   0.4298  0.6391  0.2478  11.00000  0.05    0.39
Q4    1   0.3102  0.8420  0.2806  11.00000  0.05    0.38
Q5    1   0.2367  0.7784  0.1754  11.00000  0.05    0.37
;
_shelx_res_checksum              23882
loop_
_space_group_symop_operation_xyz
'x, y, z'
'-x, y+1/2, -z+1/2'
'-x, -y, -z'
'x, -y-1/2, z-1/2'
loop_
_atom_site_type_symbol
_atom_site_label
_atom_site_fract_x
_atom_site_fract_y
_atom_site_fract_z
_atom_site_U_iso_or_equiv
_atom_site_adp_type
_atom_site_calc_flag
_atom_site_occupancy
S S1 0.28987(19) 0.62771(3) 0.18681(7) 0.0520(3) Uani d 1
O O1 1.0846(7) 0.41553(9) 0.1427(2) 0.0689(8) Uani d 1
O O2 0.2040(6) 0.64395(9) 0.2825(2) 0.0639(7) Uani d 1
O O3 0.4997(10) 0.82164(13) 0.1892(4) 0.1150(14) Uani d 1
N N1 0.5178(7) 0.55192(10) 0.1319(2) 0.0503(7) Uani d 1
N N2 0.6805(6) 0.56988(9) 0.28267(19) 0.0440(6) Uani d 1
N N3 0.2691(10) 0.70843(12) 0.0456(3) 0.0814(12) Uani d 1
C C1 0.8087(7) 0.53035(10) 0.2602(2) 0.0429(7) Uani d 1
C C2 1.0008(8) 0.50354(12) 0.3125(3) 0.0509(8) Uani d 1
H H2 1.0697 0.5108 0.3745 0.061 Uiso calc 1
C C3 1.0830(8) 0.46594(12) 0.2678(3) 0.0553(9) Uani d 1
H H3 1.2108 0.4471 0.3005 0.066 Uiso calc 1
C C4 0.9807(8) 0.45486(11) 0.1741(3) 0.0506(8) Uani d 1
C C5 0.7951(8) 0.48130(11) 0.1215(3) 0.0503(8) Uani d 1
H H5 0.7302 0.4741 0.0590 0.060 Uiso calc 1
C C6 0.7077(7) 0.51995(10) 0.1669(2) 0.0430(7) Uani d 1
C C7 0.9808(13) 0.40132(16) 0.0497(3) 0.0821(14) Uani d 1
H H7A 1.0581 0.4198 0.0007 0.123 Uiso calc 1
H H7B 0.7721 0.4027 0.0463 0.123 Uiso calc 1
H H7C 1.0423 0.3718 0.0392 0.123 Uiso calc 1
C C8 0.5114(7) 0.58028(11) 0.2024(2) 0.0457(7) Uani d 1
C C9 0.5748(8) 0.66390(12) 0.1477(3) 0.0566(9) Uani d 1
H H9A 0.7239 0.6669 0.1987 0.068 Uiso calc 1
H H9B 0.6641 0.6520 0.0908 0.068 Uiso calc 1
C C10 0.4424(8) 0.70796(12) 0.1243(3) 0.0521(8) Uani d 1
C C11 0.1534(12) 0.74665(16) 0.0195(3) 0.0826(14) Uani d 1
H H11 0.0277 0.7468 -0.0347 0.099 Uiso calc 1
C C12 0.2018(11) 0.78517(14) 0.0647(3) 0.0683(11) Uani d 1
C C13 0.3896(13) 0.78359(14) 0.1456(4) 0.0778(13) Uani d 1
C C14 0.5068(10) 0.74393(13) 0.1791(3) 0.0622(10) Uani d 1
C C15 0.0700(16) 0.82688(18) 0.0263(5) 0.109(2) Uani d 1
H H15A 0.1288 0.8506 0.0678 0.164 Uiso calc 1
H H15B 0.1355 0.8321 -0.0379 0.164 Uiso calc 1
H H15C -0.1383 0.8245 0.0246 0.164 Uiso calc 1
C C16 0.319(2) 0.8389(3) 0.2528(7) 0.176(4) Uani d 1
H H16A 0.3030 0.8697 0.2419 0.265 Uiso calc 1
H H16B 0.3940 0.8337 0.3175 0.265 Uiso calc 1
H H16C 0.1305 0.8257 0.2446 0.265 Uiso calc 1
C C17 0.7023(16) 0.7420(2) 0.2694(5) 0.111(2) Uani d 1
H H17A 0.7778 0.7706 0.2835 0.166 Uiso calc 1
H H17B 0.8606 0.7224 0.2591 0.166 Uiso calc 1
H H17C 0.5925 0.7320 0.3229 0.166 Uiso calc 1
C C18 0.7213(8) 0.59296(11) 0.3743(2) 0.0496(8) Uani d 1
H H18A 0.6533 0.6227 0.3662 0.060 Uiso calc 1
H H18B 0.9274 0.5940 0.3916 0.060 Uiso calc 1
C C19 0.5667(8) 0.57253(12) 0.4531(3) 0.0513(8) Uani d 1
C C20 0.4465(11) 0.55728(16) 0.5172(3) 0.0753(13) Uani d 1
H H20 0.3500 0.5450 0.5687 0.090 Uiso calc 1
loop_
_atom_site_aniso_label
_atom_site_aniso_U_11
_atom_site_aniso_U_22
_atom_site_aniso_U_33
_atom_site_aniso_U_12
_atom_site_aniso_U_13
_atom_site_aniso_U_23
S1 0.0460(5) 0.0502(5) 0.0595(5) 0.0078(4) -0.0018(4) 0.0003(4)
O1 0.088(2) 0.0551(16) 0.0633(17) 0.0187(14) -0.0071(15) -0.0094(13)
O2 0.0613(16) 0.0595(16) 0.0722(18) 0.0094(13) 0.0213(14) -0.0005(13)
O3 0.120(3) 0.079(3) 0.146(4) 0.000(2) 0.010(3) -0.014(3)
N1 0.0529(16) 0.0496(16) 0.0480(16) 0.0043(13) -0.0043(13) 0.0003(13)
N2 0.0474(15) 0.0406(14) 0.0437(14) -0.0018(11) -0.0016(12) -0.0024(11)
N3 0.116(3) 0.059(2) 0.068(2) 0.019(2) -0.025(2) -0.0048(18)
C1 0.0421(16) 0.0386(16) 0.0480(17) -0.0029(13) 0.0011(13) -0.0025(13)
C2 0.056(2) 0.0500(19) 0.0454(18) 0.0000(15) -0.0103(15) 0.0005(15)
C3 0.056(2) 0.0497(19) 0.059(2) 0.0065(16) -0.0081(17) 0.0052(17)
C4 0.054(2) 0.0419(17) 0.056(2) 0.0033(15) 0.0037(16) -0.0010(15)
C5 0.059(2) 0.0494(19) 0.0428(18) -0.0024(16) -0.0006(15) -0.0043(15)
C6 0.0439(17) 0.0418(16) 0.0432(17) -0.0022(13) -0.0009(13) 0.0015(13)
C7 0.117(4) 0.067(3) 0.063(3) 0.016(3) 0.008(3) -0.018(2)
C8 0.0440(17) 0.0443(17) 0.0487(18) 0.0003(13) 0.0014(14) 0.0026(14)
C9 0.051(2) 0.054(2) 0.065(2) 0.0122(16) 0.0132(17) 0.0119(18)
C10 0.0516(19) 0.0509(19) 0.054(2) 0.0090(15) 0.0078(16) 0.0132(16)
C11 0.110(4) 0.071(3) 0.065(3) 0.016(3) -0.027(3) 0.013(2)
C12 0.083(3) 0.056(2) 0.066(3) 0.014(2) 0.008(2) 0.021(2)
C13 0.107(4) 0.047(2) 0.078(3) 0.007(2) -0.003(3) -0.001(2)
C14 0.074(3) 0.053(2) 0.059(2) 0.0034(19) -0.0019(19) 0.0034(18)
C15 0.139(5) 0.074(3) 0.116(5) 0.034(3) 0.003(4) 0.039(3)
C16 0.181(9) 0.200(10) 0.151(8) 0.091(8) 0.044(7) -0.020(7)
C17 0.141(6) 0.088(4) 0.100(4) 0.012(4) -0.055(4) -0.009(3)
C18 0.057(2) 0.0431(17) 0.0486(19) -0.0085(15) -0.0021(15) -0.0081(14)
C19 0.056(2) 0.052(2) 0.0453(19) -0.0034(16) -0.0049(16) -0.0048(15)
C20 0.089(3) 0.085(3) 0.052(2) -0.020(3) 0.001(2) -0.001(2)
loop_
_atom_type_symbol
_atom_type_description
_atom_type_scat_dispersion_real
_atom_type_scat_dispersion_imag
_atom_type_scat_source
C C 0.0033 0.0016 'International Tables Vol C Tables 4.2.6.8 and 6.1.1.4'
H H 0.0000 0.0000 'International Tables Vol C Tables 4.2.6.8 and 6.1.1.4'
N N 0.0061 0.0033 'International Tables Vol C Tables 4.2.6.8 and 6.1.1.4'
O O 0.0106 0.0060 'International Tables Vol C Tables 4.2.6.8 and 6.1.1.4'
S S 0.1246 0.1234 'International Tables Vol C Tables 4.2.6.8 and 6.1.1.4'
loop_
_geom_angle_atom_site_label_1
_geom_angle_atom_site_label_2
_geom_angle_atom_site_label_3
_geom_angle
O2 S1 C8 109.63(17)
O2 S1 C9 106.11(18)
C8 S1 C9 96.88(16)
C4 O1 C7 116.4(3)
C16 O3 C13 112.9(7)
C8 N1 C6 103.9(3)
C8 N2 C1 104.8(3)
C8 N2 C18 130.0(3)
C1 N2 C18 125.1(3)
C10 N3 C11 117.0(4)
N2 C1 C2 131.9(3)
N2 C1 C6 106.0(3)
C2 C1 C6 122.1(3)
C3 C2 C1 116.4(3)
C3 C2 H2 121.8
C1 C2 H2 121.8
C2 C3 C4 122.1(3)
C2 C3 H3 118.9
C4 C3 H3 118.9
C5 C4 O1 124.7(3)
C5 C4 C3 122.0(3)
O1 C4 C3 113.3(3)
C4 C5 C6 116.4(3)
C4 C5 H5 121.8
C6 C5 H5 121.8
N1 C6 C1 110.3(3)
N1 C6 C5 128.7(3)
C1 C6 C5 121.0(3)
O1 C7 H7A 109.5
O1 C7 H7B 109.5
H7A C7 H7B 109.5
O1 C7 H7C 109.5
H7A C7 H7C 109.5
H7B C7 H7C 109.5
N1 C8 N2 114.9(3)
N1 C8 S1 118.7(3)
N2 C8 S1 126.4(3)
C10 C9 S1 108.8(3)
C10 C9 H9A 109.9
S1 C9 H9A 109.9
C10 C9 H9B 109.9
S1 C9 H9B 109.9
H9A C9 H9B 108.3
N3 C10 C14 124.0(3)
N3 C10 C9 114.3(4)
C14 C10 C9 121.7(4)
N3 C11 C12 126.0(4)
N3 C11 H11 117.0
C12 C11 H11 117.0
C11 C12 C13 115.4(4)
C11 C12 C15 121.6(5)
C13 C12 C15 123.0(5)
C12 C13 O3 121.5(4)
C12 C13 C14 121.1(4)
O3 C13 C14 116.9(5)
C10 C14 C13 116.5(4)
C10 C14 C17 122.5(4)
C13 C14 C17 121.0(4)
C12 C15 H15A 109.5
C12 C15 H15B 109.5
H15A C15 H15B 109.5
C12 C15 H15C 109.5
H15A C15 H15C 109.5
H15B C15 H15C 109.5
O3 C16 H16A 109.5
O3 C16 H16B 109.5
H16A C16 H16B 109.5
O3 C16 H16C 109.5
H16A C16 H16C 109.5
H16B C16 H16C 109.5
C14 C17 H17A 109.5
C14 C17 H17B 109.5
H17A C17 H17B 109.5
C14 C17 H17C 109.5
H17A C17 H17C 109.5
H17B C17 H17C 109.5
N2 C18 C19 112.8(3)
N2 C18 H18A 109.0
C19 C18 H18A 109.0
N2 C18 H18B 109.0
C19 C18 H18B 109.0
H18A C18 H18B 107.8
C20 C19 C18 178.1(4)
C19 C20 H20 180.0
loop_
_geom_bond_atom_site_label_1
_geom_bond_atom_site_label_2
_geom_bond_distance
S1 O2 1.478(3)
S1 C8 1.785(3)
S1 C9 1.813(4)
O1 C4 1.374(4)
O1 C7 1.423(5)
O3 C16 1.338(8)
O3 C13 1.400(6)
N1 C8 1.307(4)
N1 C6 1.389(4)
N2 C8 1.370(4)
N2 C1 1.388(4)
N2 C18 1.456(4)
N3 C10 1.325(5)
N3 C11 1.332(5)
C1 C2 1.391(5)
C1 C6 1.392(5)
C2 C3 1.368(5)
C2 H2 0.9300
C3 C4 1.402(5)
C3 H3 0.9300
C4 C5 1.368(5)
C5 C6 1.407(5)
C5 H5 0.9300
C7 H7A 0.9600
C7 H7B 0.9600
C7 H7C 0.9600
C9 C10 1.513(5)
C9 H9A 0.9700
C9 H9B 0.9700
C10 C14 1.365(6)
C11 C12 1.351(6)
C11 H11 0.9300
C12 C13 1.390(7)
C12 C15 1.504(6)
C13 C14 1.402(6)
C14 C17 1.514(6)
C15 H15A 0.9600
C15 H15B 0.9600
C15 H15C 0.9600
C16 H16A 0.9600
C16 H16B 0.9600
C16 H16C 0.9600
C17 H17A 0.9600
C17 H17B 0.9600
C17 H17C 0.9600
C18 C19 1.461(5)
C18 H18A 0.9700
C18 H18B 0.9700
C19 C20 1.158(6)
C20 H20 0.9300
loop_
_geom_hbond_atom_site_label_D
_geom_hbond_atom_site_label_H
_geom_hbond_atom_site_label_A
_geom_hbond_site_symmetry_A
_geom_hbond_distance_DH
_geom_hbond_distance_HA
_geom_hbond_distance_DA
_geom_hbond_angle_DHA
C9 H9A O2 1_655 0.97 2.56 3.441(5) 152
loop_
_geom_torsion_atom_site_label_1
_geom_torsion_atom_site_label_2
_geom_torsion_atom_site_label_3
_geom_torsion_atom_site_label_4
_geom_torsion
C8 N2 C1 C2 -179.8(4)
C18 N2 C1 C2 -1.1(6)
C8 N2 C1 C6 0.4(3)
C18 N2 C1 C6 179.1(3)
N2 C1 C2 C3 179.4(4)
C6 C1 C2 C3 -0.8(5)
C1 C2 C3 C4 0.2(6)
C7 O1 C4 C5 -2.2(6)
C7 O1 C4 C3 177.6(4)
C2 C3 C4 C5 0.8(6)
C2 C3 C4 O1 -179.0(4)
O1 C4 C5 C6 178.7(3)
C3 C4 C5 C6 -1.1(5)
C8 N1 C6 C1 0.6(4)
C8 N1 C6 C5 179.6(3)
N2 C1 C6 N1 -0.6(4)
C2 C1 C6 N1 179.5(3)
N2 C1 C6 C5 -179.7(3)
C2 C1 C6 C5 0.5(5)
C4 C5 C6 N1 -178.4(3)
C4 C5 C6 C1 0.5(5)
C6 N1 C8 N2 -0.4(4)
C6 N1 C8 S1 179.7(2)
C1 N2 C8 N1 0.0(4)
C18 N2 C8 N1 -178.6(3)
C1 N2 C8 S1 179.9(2)
C18 N2 C8 S1 1.3(5)
O2 S1 C8 N1 154.0(3)
C9 S1 C8 N1 -96.1(3)
O2 S1 C8 N2 -25.8(4)
C9 S1 C8 N2 84.0(3)
O2 S1 C9 C10 -69.6(3)
C8 S1 C9 C10 177.6(3)
C11 N3 C10 C14 0.1(7)
C11 N3 C10 C9 -178.0(4)
S1 C9 C10 N3 -69.5(4)
S1 C9 C10 C14 112.3(4)
C10 N3 C11 C12 1.6(9)
N3 C11 C12 C13 -0.3(9)
N3 C11 C12 C15 177.1(6)
C11 C12 C13 O3 168.6(5)
C15 C12 C13 O3 -8.8(8)
C11 C12 C13 C14 -2.8(8)
C15 C12 C13 C14 179.8(5)
C16 O3 C13 C12 84.8(8)
C16 O3 C13 C14 -103.5(7)
N3 C10 C14 C13 -3.0(7)
C9 C10 C14 C13 175.0(4)
N3 C10 C14 C17 179.1(5)
C9 C10 C14 C17 -3.0(7)
C12 C13 C14 C10 4.3(7)
O3 C13 C14 C10 -167.4(4)
C12 C13 C14 C17 -177.7(5)
O3 C13 C14 C17 10.6(8)
C8 N2 C18 C19 104.5(4)
C1 N2 C18 C19 -73.8(4)

_cod_database_fobs_code 1544396
