#------------------------------------------------------------------------------
#$Date: 2017-02-04 04:27:47 +0200 (Sat, 04 Feb 2017) $
#$Revision: 191396 $
#$URL: file:///home/coder/svn-repositories/cod/cif/1/54/49/1544930.cif $
#------------------------------------------------------------------------------
#
# This file is available in the Crystallography Open Database (COD),
# http://www.crystallography.net/
#
# All data on this site have been placed in the public domain by the
# contributors.
#
data_1544930
loop_
_publ_author_name
'Wang, Gaonan'
'You, Xu'
'Gan, Yi'
'Liu, Yuanhong'
_publ_section_title
;
 Synthesis of \d- and \a-Carbolines via Nickel-Catalyzed [2 + 2 + 2]
 Cycloaddition of Functionalized Alkyne-Nitriles with Alkynes.
;
_journal_issue                   1
_journal_name_full               'Organic letters'
_journal_page_first              110
_journal_page_last               113
_journal_paper_doi               10.1021/acs.orglett.6b03385
_journal_volume                  19
_journal_year                    2017
_chemical_formula_sum            'C30 H22 N2 O2 S'
_chemical_formula_weight         474.55
_chemical_name_systematic
; 
 ? 
;
_space_group_crystal_system      triclinic
_space_group_IT_number           2
_space_group_name_Hall           '-P 1'
_space_group_name_H-M_alt        'P -1'
_symmetry_space_group_name_Hall  '-P 1'
_symmetry_space_group_name_H-M   'P -1'
_atom_sites_solution_hydrogens   geom
_audit_creation_method           SHELXL-2013
_cell_angle_alpha                72.805(5)
_cell_angle_beta                 85.559(5)
_cell_angle_gamma                79.074(5)
_cell_formula_units_Z            2
_cell_length_a                   9.003(2)
_cell_length_b                   10.963(3)
_cell_length_c                   12.428(3)
_cell_measurement_reflns_used    1792
_cell_measurement_temperature    293(2)
_cell_measurement_theta_max      49.316
_cell_measurement_theta_min      4.427
_cell_volume                     1150.3(5)
_computing_cell_refinement       'Bruker SMART'
_computing_data_collection       'Bruker SMART'
_computing_data_reduction        'Bruker SHELXTL'
_computing_molecular_graphics    'Bruker SHELXTL'
_computing_publication_material  'Bruker SHELXTL'
_computing_structure_refinement  'SHELXL-2013 (Sheldrick, 2013)'
_computing_structure_solution    'Bruker SHELXTL'
_diffrn_ambient_temperature      293(2)
_diffrn_measured_fraction_theta_full 0.994
_diffrn_measured_fraction_theta_max 0.994
_diffrn_measurement_device_type  'CCD area detector'
_diffrn_measurement_method       'phi and omega scans'
_diffrn_radiation_type           MoK\a
_diffrn_radiation_wavelength     0.71073
_diffrn_reflns_av_R_equivalents  0.0226
_diffrn_reflns_av_unetI/netI     0.0508
_diffrn_reflns_Laue_measured_fraction_full 0.994
_diffrn_reflns_Laue_measured_fraction_max 0.994
_diffrn_reflns_limit_h_max       10
_diffrn_reflns_limit_h_min       -10
_diffrn_reflns_limit_k_max       13
_diffrn_reflns_limit_k_min       -13
_diffrn_reflns_limit_l_max       10
_diffrn_reflns_limit_l_min       -15
_diffrn_reflns_number            6577
_diffrn_reflns_point_group_measured_fraction_full 0.994
_diffrn_reflns_point_group_measured_fraction_max 0.994
_diffrn_reflns_theta_full        25.242
_diffrn_reflns_theta_max         25.500
_diffrn_reflns_theta_min         1.716
_exptl_absorpt_coefficient_mu    0.173
_exptl_absorpt_correction_T_max  0.7456
_exptl_absorpt_correction_T_min  0.6804
_exptl_absorpt_correction_type   multi-scan
_exptl_absorpt_process_details   sadabs
_exptl_crystal_colour            colorless
_exptl_crystal_density_diffrn    1.370
_exptl_crystal_description       prismatic
_exptl_crystal_F_000             496
_exptl_crystal_size_max          0.220
_exptl_crystal_size_mid          0.180
_exptl_crystal_size_min          0.140
_refine_diff_density_max         0.295
_refine_diff_density_min         -0.255
_refine_diff_density_rms         0.057
_refine_ls_extinction_method     none
_refine_ls_goodness_of_fit_ref   1.023
_refine_ls_hydrogen_treatment    constr
_refine_ls_matrix_type           full
_refine_ls_number_parameters     317
_refine_ls_number_reflns         4252
_refine_ls_number_restraints     0
_refine_ls_restrained_S_all      1.023
_refine_ls_R_factor_all          0.0667
_refine_ls_R_factor_gt           0.0487
_refine_ls_shift/su_max          0.025
_refine_ls_shift/su_mean         0.000
_refine_ls_structure_factor_coef Fsqd
_refine_ls_weighting_details
'w=1/[\s^2^(Fo^2^)+(0.0777P)^2^] where P=(Fo^2^+2Fc^2^)/3'
_refine_ls_weighting_scheme      calc
_refine_ls_wR_factor_gt          0.1243
_refine_ls_wR_factor_ref         0.1356
_reflns_Friedel_coverage         0.000
_reflns_number_gt                3188
_reflns_number_total             4252
_reflns_threshold_expression     'I > 2\s(I)'
_cod_data_source_file            ol6b03385_si_006.cif
_cod_data_source_block           cd16628
_cod_depositor_comments
'Adding full bibliography for 1544929--1544930.cif.'
_cod_database_code               1544930
_shelx_space_group_comment
; 
The symmetry employed for this shelxl refinement is uniquely defined 
by the following loop, which should always be used as a source of 
symmetry information in preference to the above space-group names. 
They are only intended as comments. 
;
_shelx_estimated_absorpt_t_min   0.963
_shelx_estimated_absorpt_t_max   0.976
_shelxl_version_number           2013-4
_shelx_res_file
; 
TITL cd16628 in P-1 
CELL 0.71073   9.0032  10.9629  12.4277  72.805  85.559  79.074 
ZERR    2.00   0.0021   0.0026   0.0030   0.005   0.005   0.005 
LATT 1 
SFAC C  H  N  O  S 
UNIT 60 44 4 4 2 
OMIT   0  -1   5 
OMIT    -4   5   1 
OMIT    -2   8   7 
OMIT  -3.00  51.00 
L.S. 16 
ACTA 
BOND $H 
FMAP 2 
PLAN 20 
HTAB C2 O2 
HTAB C2 O2 
HTAB C2 O2 
HTAB C2 O2 
conf 
htab 
mpla n2 c1 > c8 
mpla n1 c7 > c11 
mpla c12 > c17 
mpla c18 > c23 
mpla c24 > c29 
size  0.22 0.18 0.14 
wpdb -1 
HTAB C2 O2 
HTAB C2 O2 
HTAB C2 O2 
WGHT    0.077700 
FVAR       0.17810 
MOLE 1 
S1    5    0.378472    0.155120    0.702909    11.00000    0.03097    0.03893 = 
         0.03459   -0.00861   -0.00009    0.00009 
N1    3    0.059524    0.299040    0.622135    11.00000    0.03034    0.03771 = 
         0.03480   -0.00996   -0.00284   -0.00399 
N2    3    0.292598    0.304205    0.701444    11.00000    0.03064    0.03597 = 
         0.03912   -0.00841   -0.00554   -0.00345 
O1    4    0.349563    0.135981    0.599113    11.00000    0.04734    0.05117 = 
         0.03494   -0.01570    0.00214   -0.00106 
O2    4    0.528928    0.144594    0.736091    11.00000    0.02967    0.05027 = 
         0.05378   -0.00833   -0.00210   -0.00116 
C1    1    0.337200    0.383221    0.762385    11.00000    0.03476    0.03766 = 
         0.03486   -0.00508   -0.00427   -0.01062 
C2    1    0.478939    0.381573    0.800114    11.00000    0.03623    0.05328 = 
         0.05470   -0.01186   -0.00815   -0.00977 
AFIX  43 
H2    2    0.561585    0.319336    0.792173    11.00000   -1.20000 
AFIX   0 
C3    1    0.492246    0.475436    0.849593    11.00000    0.04597    0.06835 = 
         0.06187   -0.01686   -0.01639   -0.01907 
AFIX  43 
H3    2    0.585374    0.474956    0.877433    11.00000   -1.20000 
AFIX   0 
C4    1    0.371584    0.570576    0.859309    11.00000    0.05708    0.05880 = 
         0.05635   -0.02462   -0.00760   -0.01975 
AFIX  43 
H4    2    0.385099    0.633732    0.891984    11.00000   -1.20000 
AFIX   0 
C5    1    0.231928    0.572617    0.821117    11.00000    0.04546    0.04490 = 
         0.05013   -0.01806   -0.00345   -0.01091 
AFIX  43 
H5    2    0.150746    0.636643    0.827891    11.00000   -1.20000 
AFIX   0 
C6    1    0.213155    0.478049    0.772250    11.00000    0.03543    0.03526 = 
         0.03194   -0.00460   -0.00352   -0.00927 
C7    1    0.086516    0.456504    0.719348    11.00000    0.03464    0.03166 = 
         0.02876   -0.00468   -0.00310   -0.00730 
C8    1    0.137572    0.351399    0.676556    11.00000    0.02954    0.03188 = 
         0.03014   -0.00483   -0.00216   -0.00409 
C9    1   -0.085082    0.358661    0.602043    11.00000    0.03362    0.03473 = 
         0.02906   -0.00664   -0.00232   -0.00406 
C10   1   -0.146488    0.466060    0.638571    11.00000    0.03091    0.03765 = 
         0.03742   -0.01123   -0.00547    0.00049 
AFIX  43 
H10   2   -0.246367    0.505040    0.621924    11.00000   -1.20000 
AFIX   0 
C11   1   -0.064128    0.517107    0.698924    11.00000    0.03498    0.03070 = 
         0.03033   -0.00611   -0.00113   -0.00361 
C12   1   -0.140604    0.624804    0.744021    11.00000    0.03202    0.03429 = 
         0.03909   -0.01207   -0.00264   -0.00420 
C13   1   -0.215464    0.738290    0.672308    11.00000    0.05437    0.04254 = 
         0.04038   -0.01038   -0.00690    0.00125 
AFIX  43 
H13   2   -0.211168    0.749505    0.595043    11.00000   -1.20000 
AFIX   0 
C14   1   -0.296062    0.834517    0.714269    11.00000    0.06119    0.04084 = 
         0.06394   -0.01620   -0.01229    0.01045 
AFIX  43 
H14   2   -0.343928    0.911342    0.665351    11.00000   -1.20000 
AFIX   0 
C15   1   -0.305949    0.817137    0.828924    11.00000    0.05569    0.05272 = 
         0.07193   -0.03728   -0.00411    0.00347 
AFIX  43 
H15   2   -0.361837    0.881707    0.857391    11.00000   -1.20000 
AFIX   0 
C16   1   -0.233787    0.705251    0.900685    11.00000    0.05622    0.05903 = 
         0.04517   -0.02724    0.00064   -0.00764 
AFIX  43 
H16   2   -0.240975    0.693713    0.977994    11.00000   -1.20000 
AFIX   0 
C17   1   -0.150243    0.609197    0.859105    11.00000    0.04383    0.04094 = 
         0.03884   -0.01165   -0.00532   -0.00494 
AFIX  43 
H17   2   -0.100204    0.533706    0.908407    11.00000   -1.20000 
AFIX   0 
C18   1   -0.175991    0.299613    0.543353    11.00000    0.03162    0.04049 = 
         0.03174   -0.01128   -0.00063   -0.00599 
C19   1   -0.313626    0.363786    0.495817    11.00000    0.04286    0.04288 = 
         0.04332   -0.01346   -0.00585   -0.00609 
AFIX  43 
H19   2   -0.350859    0.447531    0.499741    11.00000   -1.20000 
AFIX   0 
C20   1   -0.396127    0.305926    0.442968    11.00000    0.03618    0.06547 = 
         0.04933   -0.01794   -0.00808   -0.00870 
AFIX  43 
H20   2   -0.487917    0.351058    0.411040    11.00000   -1.20000 
AFIX   0 
C21   1   -0.344479    0.182699    0.436928    11.00000    0.04967    0.06801 = 
         0.05349   -0.03063   -0.00402   -0.01833 
AFIX  43 
H21   2   -0.400792    0.143708    0.401283    11.00000   -1.20000 
AFIX   0 
C22   1   -0.209393    0.117209    0.483692    11.00000    0.05942    0.06145 = 
         0.07274   -0.04046   -0.01168   -0.00183 
AFIX  43 
H22   2   -0.173937    0.032887    0.480636    11.00000   -1.20000 
AFIX   0 
C23   1   -0.125944    0.175414    0.535112    11.00000    0.04873    0.05858 = 
         0.06755   -0.03551   -0.01676    0.00604 
AFIX  43 
H23   2   -0.033215    0.130174    0.565253    11.00000   -1.20000 
AFIX   0 
C24   1    0.286648    0.052071    0.811123    11.00000    0.03348    0.03162 = 
         0.03622   -0.01113   -0.00466    0.00080 
C25   1    0.181369   -0.011843    0.786384    11.00000    0.05295    0.04354 = 
         0.04136   -0.01521   -0.00554   -0.00989 
AFIX  43 
H25   2    0.155083    0.002470    0.712194    11.00000   -1.20000 
AFIX   0 
C26   1    0.115890   -0.097019    0.873053    11.00000    0.05651    0.04120 = 
         0.05930   -0.01605    0.00004   -0.01762 
AFIX  43 
H26   2    0.044450   -0.139597    0.856508    11.00000   -1.20000 
AFIX   0 
C27   1    0.153517   -0.120885    0.983915    11.00000    0.04752    0.03501 = 
         0.04853   -0.00508    0.00575   -0.00340 
C28   1    0.257066   -0.054110    1.006732    11.00000    0.05305    0.05834 = 
         0.03251   -0.00317   -0.00547   -0.00633 
AFIX  43 
H28   2    0.282054   -0.067667    1.081087    11.00000   -1.20000 
AFIX   0 
C29   1    0.323907    0.031719    0.922324    11.00000    0.04407    0.04977 = 
         0.03836   -0.01038   -0.00644   -0.01083 
AFIX  43 
H29   2    0.393393    0.075821    0.939284    11.00000   -1.20000 
AFIX   0 
C30   1    0.084937   -0.217904    1.077006    11.00000    0.07240    0.05186 = 
         0.07006    0.00242    0.01523   -0.01199 
AFIX 137 
H30A  2    0.052792   -0.181575    1.138180    11.00000   -1.50000 
H30B  2    0.158856   -0.295091    1.103036    11.00000   -1.50000 
H30C  2   -0.000614   -0.238977    1.049228    11.00000   -1.50000 
AFIX   0 
HKLF 4 
  
REM  cd16628 in P-1 
REM R1 =  0.0487 for    3188 Fo > 4sig(Fo)  and  0.0667 for all    4252 data 
REM    317 parameters refined using      0 restraints 
  
END 
  
WGHT      0.0777      0.0000 
  
REM Instructions for potential hydrogen bonds 
HTAB C2 O2 
  
REM Highest difference peak  0.295,  deepest hole -0.255,  1-sigma level  0.057 
Q1    1   0.2118  0.0633  0.8030  11.00000  0.05    0.30 
Q2    1  -0.0299 -0.1784  1.0855  11.00000  0.05    0.26 
Q3    1   0.3032  0.0447  0.8625  11.00000  0.05    0.24 
Q4    1   0.2845 -0.0130  0.7989  11.00000  0.05    0.24 
Q5    1   0.4967  0.1536  0.6922  11.00000  0.05    0.24 
Q6    1   0.0003  0.4746  0.7376  11.00000  0.05    0.22 
Q7    1   0.1047 -0.3062  1.0610  11.00000  0.05    0.21 
Q8    1   0.3388  0.0759  0.7671  11.00000  0.05    0.21 
Q9    1   0.1453 -0.2345  1.1462  11.00000  0.05    0.21 
Q10   1  -0.1063  0.3435  0.5275  11.00000  0.05    0.21 
Q11   1  -0.1206  0.2619  0.5098  11.00000  0.05    0.20 
Q12   1  -0.1936  0.8018  0.7001  11.00000  0.05    0.20 
Q13   1   0.0200  0.5230  0.6845  11.00000  0.05    0.19 
Q14   1  -0.2561  0.1972  0.3987  11.00000  0.05    0.18 
Q15   1  -0.1458  0.1629  0.4306  11.00000  0.05    0.18 
Q16   1  -0.2102  0.3346  0.4921  11.00000  0.05    0.18 
Q17   1   0.3194  0.3365  0.7209  11.00000  0.05    0.18 
Q18   1   0.4553  0.0964  0.7687  11.00000  0.05    0.17 
Q19   1   0.4530  0.1325  0.7789  11.00000  0.05    0.17 
Q20   1   0.5827  0.1284  0.7421  11.00000  0.05    0.17 
;
_shelx_res_checksum              99278
_shelx_hkl_file
; 
   1   0   0   -0.01    0.03 
   1   0   0   -0.06    0.03 
   2   0   0  159.10    5.00 
   2   0   0  156.52    4.98 
   3   0   0    1.80    0.12 
   3   0   0    1.71    0.13 
   4   0   0   57.26    1.96 
   4   0   0   58.55    1.95 
   4   0   0   61.21    1.73 
   5   0   0   14.80    0.58 
   5   0   0   14.78    0.46 
   5   0   0   14.35    0.59 
   6   0   0    5.39    0.31 
   6   0   0    5.40    0.32 
   6   0   0    5.95    0.21 
   7   0   0    6.24    0.35 
   7   0   0    6.17    0.38 
   8   0   0    1.77    0.24 
   8   0   0    1.60    0.22 
  -9   0   0    2.65    0.27 
   9   0   0    1.77    0.26 
  10   0   0   -0.14    0.12 
  11   0   0    0.20    0.20 
  11  -1   0    2.59    0.37 
  10  -1   0    0.17    0.16 
   9  -1   0    0.33    0.16 
   9  -1   0    0.23    0.14 
   8  -1   0    1.43    0.22 
   8  -1   0    1.57    0.23 
   7  -1   0    0.08    0.09 
   7  -1   0    0.22    0.12 
   6  -1   0    4.79    0.30 
   6  -1   0    5.48    0.31 
   5  -1   0    0.24    0.08 
   5  -1   0    0.24    0.08 
   4  -1   0   11.99    0.49 
   4  -1   0   12.03    0.49 
   3  -1   0    3.41    0.18 
   3  -1   0    3.10    0.18 
   2  -1   0  148.84    4.68 
   2  -1   0  145.79    4.65 
   1  -1   0   -0.24    0.04 
   1  -1   0   -0.34    0.02 
  -1   1   0   -0.29    0.02 
   0  -1   0   14.75    0.49 
   0   1   0   14.54    0.44 
   1   1   0  141.33    4.11 
   1   1   0  142.77    4.49 
   3   1   0  100.11    2.85 
   3   1   0   95.76    3.14 
  -4  -1   0   20.18    0.72 
   4   1   0   20.78    0.76 
   4   1   0   20.65    0.64 
  -5  -1   0    4.37    0.23 
   5   1   0    4.26    0.26 
   5   1   0    4.21    0.18 
  -6  -1   0    0.26    0.07 
   6   1   0    0.15    0.05 
   6   1   0    0.22    0.10 
  -7  -1   0    1.58    0.16 
   7   1   0    1.66    0.21 
  -8  -1   0    0.18    0.09 
   8   1   0    0.06    0.12 
  -9  -1   0    0.73    0.17 
   9   1   0    0.73    0.19 
  10   1   0    0.52    0.18 
  11   1   0    0.42    0.21 
  11  -2   0    0.38    0.23 
  10  -2   0    1.75    0.29 
  10  -2   0    1.94    0.30 
   9  -2   0    0.79    0.20 
   9  -2   0    0.56    0.18 
   8  -2   0    0.67    0.18 
   8  -2   0    0.42    0.15 
   7  -2   0    3.12    0.28 
   7  -2   0    3.22    0.29 
   6  -2   0   20.29    0.82 
   6  -2   0   20.11    0.81 
   5  -2   0    9.75    0.46 
   5  -2   0    9.77    0.44 
   4  -2   0   22.89    0.87 
   4  -2   0   23.78    0.85 
   3  -2   0   17.08    0.65 
   3  -2   0   16.71    0.62 
   2  -2   0  283.42    8.97 
   2  -2   0  284.07    8.91 
   1  -2   0    0.03    0.02 
   1  -2   0    0.05    0.03 
  -1   2   0    0.04    0.03 
   0  -2   0    0.19    0.05 
   0   2   0    0.42    0.05 
  -1  -2   0    5.08    0.20 
   1   2   0    5.15    0.19 
   1   2   0    4.51    0.18 
   2   2   0  299.52    9.23 
   2   2   0  288.76    8.46 
   3   2   0    7.35    0.26 
   3   2   0    6.97    0.30 
   5   2   0    2.48    0.19 
   5   2   0    2.57    0.14 
   6   2   0   17.40    0.57 
   6   2   0   16.00    0.69 
   7   2   0    3.28    0.28 
   7   2   0    3.37    0.18 
   8   2   0    0.96    0.19 
   9   2   0    2.49    0.30 
  10   2   0    0.80    0.20 
  11   2   0    0.87    0.26 
  11  -3   0    0.62    0.26 
  10  -3   0    0.01    0.16 
  10  -3   0    0.58    0.23 
   9  -3   0   -0.04    0.15 
   9  -3   0    0.35    0.16 
   8  -3   0    3.63    0.32 
   8  -3   0    3.06    0.33 
   7  -3   0    8.42    0.45 
   7  -3   0    7.53    0.46 
   6  -3   0    0.13    0.09 
   6  -3   0    0.41    0.14 
   5  -3   0   14.00    0.63 
   5  -3   0   15.47    0.61 
   4  -3   0   16.97    0.68 
   4  -3   0   16.17    0.63 
   3  -3   0    5.68    0.30 
   3  -3   0    5.46    0.25 
   2  -3   0   39.08    1.34 
   2  -3   0   42.39    1.41 
  -2   3   0   41.95    1.23 
   1  -3   0    3.78    0.15 
   1  -3   0    3.60    0.20 
  -1   3   0    3.96    0.16 
   0  -3   0   25.49    0.88 
   0   3   0   25.58    0.79 
  -1  -3   0   50.84    1.67 
   1   3   0   50.76    1.52 
   1   3   0   51.56    1.62 
  -2  -3   0    3.69    0.18 
   2   3   0    4.10    0.18 
   2   3   0    4.46    0.19 
   3   3   0   57.45    1.71 
   3   3   0   56.11    1.85 
  -4  -3   0    0.99    0.09 
   4   3   0    0.98    0.12 
   4   3   0    0.90    0.09 
  -5  -3   0    5.02    0.24 
   5   3   0    5.09    0.23 
   5   3   0    4.98    0.28 
  -6  -3   0    0.43    0.09 
   6   3   0    0.42    0.12 
  -7  -3   0    5.77    0.30 
   7   3   0    5.55    0.35 
   7   3   0    5.69    0.26 
  -8  -3   0    5.86    0.32 
   8   3   0    5.58    0.38 
   9   3   0   -0.09    0.11 
  10   3   0    0.29    0.17 
  11   3   0    0.23    0.20 
  10  -4   0    2.27    0.36 
  10  -4   0    1.74    0.31 
   9  -4   0    0.52    0.19 
   9  -4   0    0.69    0.23 
   8  -4   0    5.02    0.37 
   8  -4   0    5.08    0.41 
   7  -4   0    0.24    0.13 
   7  -4   0    0.23    0.15 
   6  -4   0   15.21    0.68 
   6  -4   0   13.09    0.61 
   5  -4   0    4.52    0.27 
   5  -4   0    3.88    0.30 
   4  -4   0   36.18    1.26 
   4  -4   0   36.94    1.34 
   3  -4   0    7.88    0.40 
   2  -4   0    0.11    0.04 
   2  -4   0    0.14    0.07 
  -2   4   0    0.16    0.05 
   1  -4   0   27.85    0.88 
   1  -4   0   26.71    0.97 
  -1   4   0   26.67    0.85 
   0  -4   0   67.50    2.21 
   0   4   0   66.98    2.00 
  -1  -4   0   26.60    0.94 
   1   4   0   27.20    0.85 
  -2  -4   0    4.41    0.22 
   2   4   0    4.28    0.19 
   2   4   0    4.29    0.20 
  -3  -4   0    0.11    0.04 
   3   4   0    0.34    0.07 
   3   4   0    0.32    0.07 
  -4  -4   0   13.78    0.58 
   4   4   0   17.05    0.62 
   4   4   0   17.59    0.57 
  -5  -4   0    0.06    0.06 
   5   4   0    0.00    0.05 
   5   4   0    0.05    0.07 
  -6  -4   0    0.94    0.12 
   6   4   0    0.98    0.15 
   6   4   0    1.11    0.13 
  -7  -4   0    2.45    0.19 
   7   4   0    2.17    0.18 
   7   4   0    2.77    0.26 
   8   4   0    4.35    0.24 
   8   4   0    4.47    0.33 
   9   4   0    1.27    0.23 
  10   4   0    0.20    0.15 
  11   4   0    0.16    0.19 
  10  -5   0    0.24    0.23 
  10  -5   0    0.27    0.26 
   9  -5   0    1.70    0.32 
   9  -5   0    1.48    0.27 
   8  -5   0    0.87    0.19 
   8  -5   0    0.83    0.24 
   7  -5   0    4.27    0.33 
   7  -5   0    5.03    0.39 
   6  -5   0   -0.06    0.12 
   6  -5   0    0.06    0.11 
   5  -5   0    5.78    0.39 
   5  -5   0    5.70    0.32 
   4  -5   0    1.79    0.22 
   3  -5   0    0.16    0.08 
   3  -5   0    0.29    0.07 
  -3   5   0    0.18    0.05 
   2  -5   0   13.14    0.45 
   2  -5   0   11.43    0.54 
  -2   5   0   11.97    0.44 
   1  -5   0   16.93    0.67 
  -1   5   0   16.66    0.57 
   0  -5   0    5.26    0.28 
   0   5   0    5.44    0.24 
  -1  -5   0    0.04    0.05 
   1   5   0    0.08    0.05 
  -2  -5   0   18.25    0.69 
   2   5   0   18.55    0.62 
   2   5   0   18.20    0.63 
  -3  -5   0    7.37    0.34 
   3   5   0    7.46    0.33 
   3   5   0    8.10    0.32 
   4   5   0   10.76    0.42 
   4   5   0   10.59    0.44 
  -5  -5   0   30.04    1.06 
   5   5   0   30.21    1.08 
   5   5   0   29.60    0.99 
  -6  -5   0   13.89    0.56 
   6   5   0   13.42    0.59 
   6   5   0   13.58    0.53 
  -7  -5   0    2.33    0.20 
   7   5   0    2.19    0.19 
   7   5   0    2.37    0.25 
   8   5   0    5.01    0.35 
   8   5   0    4.90    0.29 
   9   5   0   11.04    0.60 
  10   5   0    1.06    0.24 
  11   5   0    0.13    0.19 
   9  -6   0   -0.05    0.22 
   8  -6   0    2.56    0.37 
   7  -6   0    1.01    0.23 
   7  -6   0    1.09    0.21 
   6  -6   0    3.07    0.27 
   6  -6   0    3.16    0.34 
   5  -6   0    6.44    0.43 
   4  -6   0   33.19    1.30 
   4  -6   0   33.76    1.17 
   3  -6   0    1.42    0.12 
   3  -6   0    1.15    0.19 
  -3   6   0    1.36    0.12 
   2  -6   0    2.49    0.23 
   2  -6   0    2.47    0.13 
  -2   6   0    2.15    0.15 
   1  -6   0    3.44    0.24 
  -1   6   0    3.94    0.21 
   0  -6   0   48.87    1.71 
   0   6   0   49.94    1.53 
  -1  -6   0    3.42    0.22 
   1   6   0    3.53    0.20 
  -2  -6   0    0.03    0.05 
   2   6   0    0.00    0.03 
   2   6   0   -0.01    0.06 
  -3  -6   0    3.58    0.22 
   3   6   0    3.53    0.22 
   3   6   0    3.91    0.19 
  -4  -6   0    4.29    0.25 
   4   6   0    4.76    0.26 
   4   6   0    4.82    0.25 
  -5  -6   0    5.55    0.32 
   5   6   0    7.68    0.35 
   5   6   0    7.63    0.34 
  -6  -6   0   16.55    0.66 
   6   6   0   17.44    0.65 
   6   6   0   16.32    0.69 
   7   6   0    5.69    0.35 
   7   6   0    5.61    0.31 
   8   6   0    2.37    0.27 
   8   6   0    2.54    0.24 
   9   6   0    8.17    0.50 
  10   6   0    0.33    0.19 
  11   6   0    0.01    0.19 
   9  -7   0    3.74    0.50 
   8  -7   0    0.42    0.25 
   7  -7   0    2.16    0.33 
   6  -7   0    0.39    0.19 
   5  -7   0   16.68    0.82 
   4  -7   0    3.42    0.34 
   3  -7   0    0.53    0.17 
  -3   7   0    0.62    0.11 
   2  -7   0    2.75    0.28 
  -2   7   0    2.94    0.19 
   1  -7   0    2.05    0.22 
  -1   7   0    2.38    0.18 
   0  -7   0    9.94    0.47 
   0   7   0    9.31    0.40 
  -1  -7   0   19.99    0.80 
   1   7   0   20.23    0.72 
  -2  -7   0    0.27    0.09 
   2   7   0    0.26    0.09 
  -3  -7   0    1.65    0.17 
   3   7   0    1.66    0.12 
   3   7   0    1.66    0.17 
  -4  -7   0   13.54    0.57 
   4   7   0   13.97    0.54 
   4   7   0   13.53    0.55 
   5   7   0    3.13    0.25 
   5   7   0    2.91    0.21 
  -6  -7   0    0.06    0.08 
   6   7   0   -0.01    0.08 
   6   7   0    0.14    0.11 
   7   7   0    0.40    0.13 
   7   7   0    0.33    0.13 
   8   7   0    0.80    0.17 
   8   7   0    1.08    0.20 
   9   7   0    0.08    0.13 
  10   7   0    0.35    0.18 
  11   7   0    0.16    0.21 
   8  -8   0    0.49    0.31 
   7  -8   0    1.51    0.31 
   6  -8   0    4.01    0.43 
   5  -8   0    0.63    0.20 
   4  -8   0    0.60    0.19 
   3  -8   0    1.77    0.26 
  -3   8   0    1.89    0.17 
   2  -8   0    1.50    0.24 
  -2   8   0    1.18    0.15 
   1  -8   0    8.47    0.47 
  -1   8   0    7.49    0.36 
   0  -8   0    0.94    0.18 
   0   8   0    0.61    0.13 
  -1  -8   0    5.93    0.35 
   1   8   0    5.10    0.30 
  -2  -8   0   11.16    0.52 
   2   8   0   10.90    0.48 
  -3  -8   0   13.41    0.58 
   3   8   0   12.13    0.53 
  -4  -8   0    8.55    0.42 
   4   8   0    8.50    0.42 
  -5  -8   0    2.85    0.22 
   5   8   0    2.69    0.25 
   6   8   0    2.67    0.25 
   6   8   0    3.29    0.24 
   7   8   0    0.18    0.12 
   7   8   0    0.12    0.11 
   8   8   0    0.15    0.13 
   8   8   0    0.14    0.13 
   9   8   0    0.62    0.19 
   9   8   0    0.27    0.15 
  10   8   0    0.15    0.18 
   7  -9   0    0.62    0.30 
   6  -9   0    1.50    0.31 
   5  -9   0    1.21    0.27 
   4  -9   0    0.32    0.18 
   3  -9   0   -0.04    0.12 
  -3   9   0    0.34    0.11 
   2  -9   0   -0.01    0.13 
  -2   9   0    0.09    0.09 
   1  -9   0   12.02    0.63 
  -1   9   0   12.35    0.52 
   0  -9   0    8.03    0.47 
   0   9   0    7.56    0.39 
  -1  -9   0    0.21    0.13 
   1   9   0   -0.03    0.10 
  -2  -9   0    2.95    0.29 
   2   9   0    3.14    0.26 
  -3  -9   0    8.69    0.48 
   3   9   0    8.76    0.44 
  -4  -9   0    0.35    0.15 
   4   9   0    0.00    0.09 
  -5  -9   0    3.19    0.28 
   5   9   0    3.02    0.27 
   6   9   0    5.40    0.35 
   7   9   0    1.97    0.25 
   8   9   0    0.15    0.14 
   9   9   0    0.35    0.18 
   6 -10   0    0.35    0.26 
   5 -10   0    0.09    0.21 
   4 -10   0    2.25    0.34 
   3 -10   0    1.05    0.25 
   2 -10   0    0.12    0.16 
  -2  10   0    0.19    0.11 
   1 -10   0    0.21    0.15 
  -1  10   0    0.20    0.12 
   0 -10   0    1.27    0.24 
   0  10   0    1.22    0.18 
  -1 -10   0   11.89    0.61 
   1  10   0   11.10    0.52 
  -2 -10   0    0.60    0.18 
   2  10   0    0.40    0.13 
  -3 -10   0    0.58    0.18 
   3  10   0    0.87    0.17 
  -4 -10   0    0.09    0.15 
   4  10   0    0.13    0.11 
  -5 -10   0    0.37    0.21 
   5  10   0    0.59    0.16 
   6  10   0    1.85    0.24 
   7  10   0    0.05    0.14 
   8  10   0    2.33    0.29 
   9  10   0   -0.13    0.17 
   5 -11   0    0.01    0.25 
   4 -11   0   -0.24    0.19 
   3 -11   0    0.96    0.25 
   2 -11   0    0.45    0.20 
  -2  11   0    0.36    0.13 
   1 -11   0    1.26    0.26 
  -1  11   0    0.81    0.18 
   0 -11   0    0.02    0.15 
   0  11   0    0.01    0.11 
  -1 -11   0    2.16    0.30 
   1  11   0    1.99    0.24 
  -2 -11   0    0.11    0.17 
   2  11   0    0.37    0.14 
  -3 -11   0    0.34    0.17 
   3  11   0   -0.10    0.13 
  -4 -11   0    4.47    0.38 
   4  11   0    4.12    0.35 
   5  11   0    3.72    0.33 
   6  11   0    0.26    0.17 
   7  11   0    0.29    0.17 
   8  11   0    0.52    0.22 
   4 -12   0    0.61    0.29 
   3 -12   0   -0.18    0.21 
   2 -12   0    0.50    0.24 
   1 -12   0    4.15    0.45 
  -1  12   0    4.88    0.35 
   0 -12   0    1.75    0.31 
   0  12   0    1.33    0.24 
  -1 -12   0    0.96    0.25 
   1  12   0    1.02    0.22 
  -2 -12   0    0.07    0.17 
   2  12   0    0.16    0.15 
  -3 -12   0    1.05    0.25 
   3  12   0    0.92    0.21 
   4  12   0    0.55    0.20 
   5  12   0    1.03    0.23 
   6  12   0    0.22    0.18 
   7  12   0    0.34    0.20 
   2 -13   0   -0.09    0.25 
   1 -13   0    0.35    0.25 
  -1  13   0    0.04    0.16 
   0 -13   0    1.90    0.35 
   0  13   0    1.71    0.28 
  -1 -13   0    0.92    0.28 
   1  13   0    0.41    0.19 
  -2 -13   0    0.24    0.22 
   2  13   0    0.25    0.19 
  -3 -13   0    0.20    0.24 
   3  13   0   -0.03    0.18 
   4  13   0    0.44    0.22 
   5  13   0    0.27    0.19 
   6  13   0    0.16    0.19 
   5  13  -1    0.38    0.22 
   4  13  -1    0.11    0.19 
   3  13  -1    0.34    0.21 
   2  13  -1    1.83    0.30 
  -2 -13   1    1.80    0.36 
   1  13  -1    0.02    0.17 
  -1 -13   1    0.02    0.22 
   0  13  -1    0.32    0.20 
   0 -13   1    0.23    0.26 
  -1  13  -1    0.60    0.22 
   1 -13   1    0.27    0.27 
   7  12  -1    0.40    0.21 
   6  12  -1    0.31    0.19 
   5  12  -1    0.90    0.23 
   4  12  -1    0.06    0.17 
   3  12  -1   -0.03    0.14 
   2  12  -1    0.01    0.14 
  -2 -12   1   -0.23    0.17 
   1  12  -1    1.36    0.24 
  -1 -12   1    1.48    0.30 
   0  12  -1    2.88    0.30 
   0 -12   1    2.60    0.37 
  -1  12  -1    1.01    0.21 
   1 -12   1    0.73    0.25 
   2 -12   1    0.39    0.25 
   3 -12   1    1.21    0.35 
   8  11  -1    1.76    0.30 
   7  11  -1    0.07    0.17 
   6  11  -1    0.31    0.17 
   5  11  -1    1.64    0.25 
   4  11  -1    0.12    0.15 
   3  11  -1   -0.06    0.11 
  -3 -11   1    0.15    0.17 
   2  11  -1    0.48    0.16 
  -2 -11   1    0.51    0.19 
   1  11  -1    0.54    0.16 
  -1 -11   1    0.51    0.19 
   0  11  -1    0.36    0.16 
   0 -11   1    0.48    0.21 
  -1  11  -1    0.36    0.15 
   1 -11   1    0.39    0.20 
  -2  11  -1    1.76    0.23 
   2 -11   1    1.72    0.31 
   3 -11   1    0.01    0.20 
   5 -11   1    0.63    0.29 
   9  10  -1    0.99    0.26 
   8  10  -1    1.96    0.29 
   7  10  -1    2.93    0.32 
   6  10  -1    0.60    0.16 
   5  10  -1    1.12    0.20 
   4  10  -1    0.38    0.14 
  -4 -10   1    0.44    0.18 
   3  10  -1    0.23    0.13 
  -3 -10   1    0.18    0.15 
   2  10  -1    0.01    0.10 
  -2 -10   1    0.29    0.15 
   1  10  -1    1.33    0.20 
  -1 -10   1    1.63    0.26 
   0  10  -1    1.56    0.20 
   0 -10   1    1.54    0.26 
  -1  10  -1    3.74    0.29 
   1 -10   1    3.47    0.36 
  -2  10  -1    0.29    0.13 
   2 -10   1    0.30    0.19 
   3 -10   1    2.61    0.35 
   4 -10   1    1.22    0.29 
   6 -10   1    0.01    0.25 
   9   9  -1   -0.20    0.15 
   8   9  -1    1.16    0.23 
   7   9  -1   -0.06    0.13 
   6   9  -1    2.16    0.25 
   5   9  -1    0.81    0.17 
   4   9  -1    0.74    0.16 
  -4  -9   1    1.09    0.17 
   3   9  -1    0.46    0.14 
  -3  -9   1    0.38    0.14 
   2   9  -1    6.48    0.36 
  -2  -9   1    6.32    0.40 
   1   9  -1    3.61    0.26 
  -1  -9   1    3.85    0.33 
   0   9  -1    4.12    0.27 
   0  -9   1    4.13    0.35 
  -1   9  -1    3.84    0.26 
   1  -9   1    4.21    0.37 
  -2   9  -1    9.08    0.42 
   2  -9   1    9.75    0.56 
  -3   9  -1    0.34    0.12 
   3  -9   1    0.17    0.16 
   4  -9   1    0.37    0.20 
   5  -9   1    0.87    0.26 
   6  -9   1    2.55    0.39 
   7  -9   1    0.87    0.33 
  10   8  -1    0.82    0.26 
   9   8  -1    0.11    0.15 
   9   8  -1    0.12    0.15 
   8   8  -1    0.08    0.13 
   8   8  -1    0.23    0.13 
   7   8  -1   -0.05    0.10 
   6   8  -1    2.33    0.25 
   5   8  -1    2.30    0.24 
  -5  -8   1    2.48    0.21 
   4   8  -1    0.49    0.14 
  -4  -8   1    1.01    0.15 
   3   8  -1   11.91    0.52 
  -3  -8   1   11.62    0.53 
   2   8  -1    0.29    0.12 
  -2  -8   1    0.08    0.07 
   1   8  -1   12.51    0.51 
  -1  -8   1   10.87    0.54 
   0   8  -1    0.67    0.13 
   0  -8   1    0.54    0.15 
  -1   8  -1    4.73    0.28 
   1  -8   1    5.35    0.37 
  -2   8  -1    0.09    0.08 
   2  -8   1   -0.09    0.11 
  -3   8  -1   12.63    0.51 
   3  -8   1   13.01    0.67 
   4  -8   1    0.42    0.18 
   5  -8   1    2.48    0.34 
   6  -8   1   -0.04    0.17 
   7  -8   1    2.65    0.40 
   8  -8   1    0.24    0.29 
  11   7  -1   -0.02    0.20 
  10   7  -1   -0.21    0.14 
   9   7  -1    1.62    0.26 
   9   7  -1    1.68    0.24 
   8   7  -1    2.97    0.27 
   8   7  -1    2.40    0.28 
   7   7  -1    1.14    0.19 
   7   7  -1    1.23    0.20 
   6   7  -1    1.78    0.19 
   6   7  -1    1.67    0.21 
   5   7  -1    3.52    0.24 
   5   7  -1    3.55    0.25 
  -5  -7   1    3.77    0.24 
   4   7  -1    0.25    0.09 
   4   7  -1    0.12    0.10 
  -4  -7   1    0.01    0.05 
   3   7  -1    1.75    0.19 
   3   7  -1    2.32    0.15 
  -3  -7   1    1.98    0.19 
   2   7  -1    0.62    0.13 
  -2  -7   1    0.95    0.14 
   1   7  -1   16.90    0.63 
  -1  -7   1   17.30    0.70 
   0   7  -1   24.21    0.84 
   0  -7   1   24.58    0.96 
  -1   7  -1    7.08    0.31 
   1  -7   1    5.64    0.37 
  -2   7  -1   -0.03    0.06 
   2  -7   1   -0.02    0.11 
  -3   7  -1   10.34    0.42 
   3  -7   1   10.46    0.56 
   4  -7   1    5.31    0.41 
   5  -7   1    9.10    0.56 
   6  -7   1    3.49    0.39 
   7  -7   1    0.81    0.25 
   8  -7   1    0.15    0.24 
   9  -7   1    0.60    0.33 
  11   6  -1    0.30    0.22 
  10   6  -1    0.25    0.18 
   9   6  -1    0.60    0.19 
   8   6  -1    0.64    0.18 
   8   6  -1    0.56    0.16 
   7   6  -1    0.15    0.11 
   7   6  -1    0.00    0.09 
   6   6  -1    0.28    0.10 
   6   6  -1    0.16    0.11 
   5   6  -1   19.18    0.73 
   5   6  -1   18.19    0.69 
  -5  -6   1   18.59    0.71 
   4   6  -1   -0.07    0.06 
   4   6  -1    0.00    0.07 
  -4  -6   1    0.02    0.06 
   3   6  -1   15.79    0.58 
   3   6  -1   15.69    0.59 
   2   6  -1    8.70    0.37 
   2   6  -1    8.47    0.32 
  -2  -6   1    8.28    0.39 
   1   6  -1   10.98    0.44 
  -1  -6   1   10.91    0.48 
   0   6  -1    4.40    0.23 
   0  -6   1    4.35    0.27 
  -1   6  -1    4.17    0.22 
   1  -6   1    4.11    0.27 
  -2   6  -1    2.86    0.17 
   2  -6   1    2.78    0.25 
  -3   6  -1    0.32    0.08 
   3  -6   1    0.37    0.08 
   3  -6   1    0.44    0.14 
  -4   6  -1    3.44    0.19 
   4  -6   1    3.33    0.32 
   4  -6   1    3.41    0.23 
   5  -6   1    3.43    0.34 
   5  -6   1    2.99    0.22 
   6  -6   1    6.13    0.38 
   6  -6   1    6.30    0.45 
   7  -6   1   -0.05    0.16 
   8  -6   1    0.02    0.19 
   9  -6   1   -0.17    0.24 
  11   5  -1    0.98    0.27 
  10   5  -1    0.08    0.15 
   9   5  -1    6.89    0.45 
   8   5  -1    0.46    0.13 
   8   5  -1    0.29    0.14 
   7   5  -1   13.23    0.54 
   7   5  -1   14.10    0.63 
   6   5  -1    3.72    0.23 
   6   5  -1    3.63    0.27 
  -6  -5   1    3.66    0.22 
   5   5  -1   35.28    1.24 
   5   5  -1   33.58    1.14 
  -5  -5   1   35.60    1.20 
   4   5  -1    0.43    0.10 
   4   5  -1    0.26    0.08 
  -4  -5   1    0.29    0.07 
   3   5  -1    1.47    0.13 
   3   5  -1    1.32    0.14 
  -3  -5   1    1.38    0.13 
   2   5  -1   28.29    0.94 
   2   5  -1   29.15    0.96 
  -2  -5   1   28.67    1.01 
   1   5  -1    2.06    0.15 
  -1  -5   1    2.14    0.16 
   0   5  -1   35.28    1.13 
   0  -5   1   36.41    1.26 
  -1   5  -1   17.70    0.60 
   1  -5   1   17.65    0.71 
  -2   5  -1    1.69    0.12 
   2  -5   1    1.60    0.11 
   2  -5   1    1.61    0.18 
  -3   5  -1    2.48    0.14 
   3  -5   1    2.28    0.16 
   3  -5   1    2.16    0.22 
   4  -5   1    8.02    0.37 
   5  -5   1    1.30    0.22 
   5  -5   1    1.69    0.18 
   6  -5   1    2.45    0.25 
   6  -5   1    2.52    0.30 
   7  -5   1    4.85    0.35 
   7  -5   1    5.08    0.44 
   8  -5   1    0.54    0.18 
   8  -5   1    0.31    0.21 
   9  -5   1    0.35    0.20 
   9  -5   1    0.11    0.22 
  10  -5   1    0.36    0.27 
  10  -5   1    0.05    0.26 
  11   4  -1   -0.02    0.18 
  10   4  -1    1.46    0.26 
   9   4  -1    6.32    0.43 
   8   4  -1    3.17    0.30 
   8   4  -1    1.89    0.17 
   7   4  -1   18.08    0.65 
   7   4  -1   17.03    0.75 
   6   4  -1   -0.04    0.09 
   6   4  -1   -0.02    0.07 
  -6  -4   1    0.12    0.07 
   5   4  -1    0.18    0.09 
   5   4  -1    0.19    0.07 
  -5  -4   1    0.13    0.06 
   4   4  -1   -0.02    0.06 
   4   4  -1    0.01    0.05 
  -4  -4   1    0.09    0.05 
   3   4  -1    2.87    0.17 
   3   4  -1    2.89    0.17 
  -3  -4   1    2.79    0.16 
   2   4  -1    6.54    0.28 
   2   4  -1    6.78    0.28 
   1   4  -1    9.11    0.33 
   1   4  -1    9.10    0.35 
  -1  -4   1    9.32    0.38 
   0   4  -1    6.55    0.26 
   0  -4   1    6.48    0.30 
  -1   4  -1   21.17    0.68 
   1  -4   1   21.02    0.79 
  -2   4  -1   12.56    0.43 
   2  -4   1   13.15    0.47 
   2  -4   1   12.20    0.53 
  -3   4  -1    3.80    0.16 
   3  -4   1    2.65    0.17 
   3  -4   1    3.65    0.24 
   4  -4   1   13.55    0.61 
   4  -4   1   13.08    0.53 
   5  -4   1    9.89    0.51 
   5  -4   1    9.68    0.45 
   6  -4   1    0.86    0.17 
   6  -4   1    0.93    0.20 
   7  -4   1    3.63    0.36 
   7  -4   1    3.77    0.32 
   8  -4   1    4.14    0.35 
   8  -4   1    2.70    0.35 
   9  -4   1    0.98    0.22 
   9  -4   1    1.17    0.26 
  10  -4   1   -0.21    0.19 
  10  -4   1   -0.05    0.18 
  11   3  -1    0.19    0.19 
  10   3  -1    2.59    0.33 
   9   3  -1    3.28    0.33 
   8   3  -1    0.26    0.14 
   7   3  -1   15.99    0.70 
  -7  -3   1   15.83    0.61 
   6   3  -1   25.68    0.85 
   6   3  -1   25.57    0.97 
  -6  -3   1   25.10    0.89 
   5   3  -1    3.01    0.17 
   5   3  -1    3.65    0.23 
  -5  -3   1    2.98    0.17 
   4   3  -1   40.12    1.39 
   4   3  -1   41.54    1.26 
  -4  -3   1   40.24    1.34 
   3   3  -1    6.40    0.26 
   3   3  -1    5.92    0.28 
  -3  -3   1    6.10    0.25 
   2   3  -1   43.53    1.42 
   2   3  -1   42.35    1.32 
  -2  -3   1   44.11    1.42 
   1   3  -1    4.68    0.19 
   1   3  -1    4.65    0.20 
  -1  -3   1    4.44    0.20 
   0   3  -1    1.99    0.12 
   0  -3   1    1.76    0.12 
  -1   3  -1    8.24    0.29 
   1  -3   1    7.83    0.34 
  -2   3  -1    0.00    0.03 
   2  -3   1   -0.01    0.02 
   2  -3   1   -0.02    0.04 
  -3   3  -1    0.16    0.04 
   3  -3   1    0.12    0.07 
   3  -3   1    0.13    0.05 
   4  -3   1    2.63    0.21 
   4  -3   1    2.65    0.18 
   5  -3   1   18.71    0.79 
   5  -3   1   19.97    0.76 
   6  -3   1   24.23    0.94 
   6  -3   1   20.77    0.87 
   7  -3   1   23.75    0.95 
   7  -3   1   22.18    0.97 
   8  -3   1    2.64    0.29 
   8  -3   1    2.14    0.29 
   9  -3   1    1.72    0.29 
   9  -3   1    1.44    0.25 
  10  -3   1    0.12    0.20 
  10  -3   1    0.35    0.19 
  11  -3   1    0.00    0.21 
  11  -3   1    0.36    0.31 
  11   2  -1    1.03    0.27 
  10   2  -1    0.16    0.15 
   9   2  -1    2.51    0.31 
   8   2  -1    0.02    0.11 
   7   2  -1    0.06    0.11 
   7   2  -1    0.15    0.07 
  -7  -2   1    0.25    0.08 
   6   2  -1    1.94    0.13 
   6   2  -1    1.95    0.22 
  -6  -2   1    2.08    0.15 
   5   2  -1   51.88    1.78 
  -5  -2   1   52.46    1.71 
   4   2  -1   13.28    0.53 
   4   2  -1   13.33    0.46 
  -4  -2   1   13.14    0.48 
   3   2  -1   54.57    1.62 
   3   2  -1   52.57    1.77 
  -3  -2   1   54.49    1.73 
   2   2  -1   23.48    0.80 
   2   2  -1   23.09    0.73 
  -2  -2   1   23.87    0.77 
   1   2  -1    0.97    0.08 
   1   2  -1    1.02    0.09 
  -1  -2   1    1.04    0.07 
   0   2  -1   69.35    2.02 
   0  -2   1   68.50    2.21 
  -1   2  -1   10.06    0.32 
   1  -2   1    9.66    0.38 
   1  -2   1    9.77    0.35 
  -2   2  -1    0.56    0.05 
   2  -2   1    0.54    0.07 
   2  -2   1    0.45    0.08 
   3  -2   1   24.17    0.86 
   3  -2   1   24.83    0.90 
   4  -2   1    0.50    0.09 
   4  -2   1    0.86    0.13 
   5  -2   1    1.65    0.19 
   5  -2   1    1.37    0.16 
   6  -2   1    0.42    0.11 
   6  -2   1    0.40    0.12 
   7  -2   1    2.48    0.26 
   7  -2   1    2.07    0.25 
   8  -2   1   14.63    0.72 
   8  -2   1   15.48    0.72 
   9  -2   1    0.45    0.17 
   9  -2   1    0.32    0.15 
  10  -2   1    3.16    0.37 
  10  -2   1    3.64    0.39 
  11  -2   1    0.08    0.20 
  11   1  -1    0.64    0.22 
  10   1  -1    0.12    0.15 
   9   1  -1    1.53    0.24 
   8   1  -1   13.63    0.67 
  -8  -1   1   14.12    0.59 
   7   1  -1   11.32    0.54 
   7   1  -1   10.84    0.40 
  -7  -1   1   10.66    0.46 
   6   1  -1    1.15    0.10 
   6   1  -1    1.50    0.19 
  -6  -1   1    1.14    0.12 
   5   1  -1   10.03    0.36 
   5   1  -1    9.93    0.46 
  -5  -1   1   10.26    0.40 
   4   1  -1   11.08    0.46 
  -4  -1   1   10.93    0.41 
   3   1  -1    3.02    0.18 
  -3  -1   1    2.72    0.13 
   2   1  -1  130.96    4.19 
  -2  -1   1  133.36    4.18 
   1   1  -1   19.60    0.64 
  -1  -1   1   19.09    0.63 
   0  -1   1   10.64    0.37 
  -1   1  -1  199.04    5.76 
   1  -1   1  199.22    6.27 
   1  -1   1  200.35    6.30 
  -2   1  -1   44.65    1.31 
   2  -1   1   44.16    1.48 
   2  -1   1   45.10    1.46 
   3  -1   1    0.09    0.04 
   3  -1   1    0.21    0.06 
   4  -1   1   -0.04    0.05 
   4  -1   1    0.04    0.05 
   5  -1   1   25.54    0.95 
   5  -1   1   24.73    0.93 
   6  -1   1    0.59    0.13 
   6  -1   1    0.53    0.13 
   7  -1   1    8.14    0.44 
   7  -1   1    7.89    0.44 
   8  -1   1   -0.11    0.09 
   8  -1   1   -0.08    0.11 
   9  -1   1    0.30    0.15 
   9  -1   1    0.19    0.13 
  10  -1   1    0.24    0.16 
  10  -1   1    0.03    0.15 
  11  -1   1    1.57    0.31 
  11   0  -1    2.10    0.35 
  10   0  -1    0.85    0.22 
   9   0  -1    0.09    0.13 
   8   0  -1    1.90    0.21 
   8   0  -1    1.87    0.25 
   7   0  -1    8.05    0.43 
   7   0  -1    6.88    0.37 
   6   0  -1   18.04    0.73 
   6   0  -1   19.86    0.61 
   6   0  -1   18.59    0.76 
   5   0  -1    2.08    0.19 
   5   0  -1    2.70    0.17 
   4   0  -1    6.17    0.30 
   3   0  -1   23.57    0.79 
   3   0  -1   22.99    0.82 
   2   0  -1   84.88    2.74 
   2   0  -1   86.70    2.73 
   1   0  -1  100.58    3.18 
   1   0  -1  100.76    3.24 
   0   0  -1   29.42    0.95 
   1   0   1   75.12    2.39 
   1   0   1   75.53    2.40 
   2   0   1  116.16    3.70 
   2   0   1  116.26    3.68 
   3   0   1    0.39    0.07 
   3   0   1    0.43    0.07 
   4   0   1   51.90    1.77 
   4   0   1   53.95    1.77 
   5   0   1   18.69    0.73 
   5   0   1   18.69    0.73 
   6   0   1    9.65    0.47 
   6   0   1   10.08    0.47 
   7   0   1    0.08    0.08 
   7   0   1    0.09    0.10 
   8   0   1    0.08    0.10 
   8   0   1    0.11    0.12 
  -9   0  -1    0.41    0.16 
   9   0   1    0.32    0.15 
 -10   0  -1    1.58    0.25 
  10   0   1    1.54    0.27 
  11   0   1    0.83    0.25 
  11  -1  -1    1.15    0.27 
  10  -1  -1    1.36    0.26 
   9  -1  -1    5.63    0.41 
   9  -1  -1    5.76    0.39 
   8  -1  -1    6.08    0.39 
   8  -1  -1    4.97    0.34 
   7  -1  -1    3.32    0.25 
   7  -1  -1    3.21    0.29 
   6  -1  -1    4.49    0.27 
   6  -1  -1    4.13    0.28 
   5  -1  -1    1.21    0.14 
   5  -1  -1    1.22    0.15 
   4  -1  -1   17.85    0.68 
   4  -1  -1   19.34    0.71 
   3  -1  -1    2.21    0.15 
   3  -1  -1    2.54    0.15 
   2  -1  -1   -0.01    0.02 
   2  -1  -1    0.11    0.05 
   1  -1  -1    3.23    0.14 
   1  -1  -1    3.30    0.14 
   0  -1  -1  126.89    4.01 
  -1  -1  -1    1.22    0.08 
   1   1   1    1.08    0.06 
   1   1   1    1.11    0.07 
  -2  -1  -1  114.81    3.65 
   2   1   1  114.09    3.64 
   2   1   1  115.53    3.32 
  -3  -1  -1   63.16    2.10 
   3   1   1   64.46    2.11 
   3   1   1   66.91    1.89 
  -4  -1  -1    0.29    0.06 
   4   1   1    0.36    0.04 
   4   1   1    0.32    0.08 
  -5  -1  -1   60.79    2.06 
   5   1   1   61.88    2.09 
   5   1   1   63.82    1.83 
  -6  -1  -1    2.17    0.17 
   6   1   1    2.02    0.21 
   6   1   1    2.07    0.11 
  -7  -1  -1    1.87    0.18 
   7   1   1    1.40    0.20 
  -8  -1  -1    2.59    0.24 
   8   1   1    2.94    0.29 
  -9  -1  -1    0.69    0.18 
   9   1   1    0.83    0.19 
  10   1   1    0.80    0.21 
  11   1   1    0.07    0.19 
  11  -2  -1   -0.18    0.17 
  10  -2  -1    0.12    0.17 
   9  -2  -1    0.41    0.17 
   9  -2  -1    1.11    0.22 
   8  -2  -1   13.59    0.66 
   8  -2  -1   14.27    0.67 
   7  -2  -1    2.08    0.24 
   7  -2  -1    2.22    0.24 
   6  -2  -1    0.98    0.16 
   6  -2  -1    0.89    0.15 
   5  -2  -1   21.01    0.82 
   5  -2  -1   22.24    0.83 
   4  -2  -1    1.01    0.13 
   4  -2  -1    0.81    0.11 
   3  -2  -1   15.64    0.58 
   3  -2  -1   15.72    0.60 
   2  -2  -1   17.66    0.62 
   2  -2  -1   17.33    0.63 
   1  -2  -1  389.97   12.27 
   0  -2  -1  153.65    4.73 
   0  -2  -1  149.08    4.75 
   0   2   1  146.68    4.33 
   1   2   1    5.42    0.20 
   1   2   1    5.59    0.20 
  -2  -2  -1    0.44    0.06 
   2   2   1    0.60    0.06 
   2   2   1    0.42    0.06 
  -3  -2  -1    3.84    0.19 
   3   2   1    4.28    0.21 
  -4  -2  -1   35.23    1.21 
   4   2   1   36.38    1.23 
   4   2   1   35.36    1.08 
  -5  -2  -1   19.64    0.73 
   5   2   1   20.38    0.64 
   5   2   1   19.53    0.76 
  -6  -2  -1    0.06    0.07 
   6   2   1    0.11    0.06 
   6   2   1    0.20    0.09 
  -7  -2  -1    1.26    0.16 
   7   2   1    1.40    0.20 
  -8  -2  -1    1.54    0.19 
   8   2   1    1.17    0.20 
  -9  -2  -1    4.65    0.34 
   9   2   1    5.29    0.38 
  10   2   1    0.25    0.15 
  11   2   1    0.35    0.21 
  11  -3  -1    0.91    0.28 
  10  -3  -1    0.27    0.18 
   9  -3  -1    0.93    0.22 
   9  -3  -1    0.51    0.18 
   8  -3  -1    0.07    0.12 
   8  -3  -1    0.07    0.15 
   7  -3  -1   13.47    0.63 
   7  -3  -1   13.97    0.65 
   6  -3  -1   24.19    0.92 
   6  -3  -1   21.45    0.89 
   5  -3  -1    1.00    0.14 
   5  -3  -1    0.90    0.15 
   4  -3  -1    0.59    0.10 
   4  -3  -1    0.76    0.13 
   3  -3  -1   18.51    0.70 
   3  -3  -1   18.07    0.67 
   1  -3  -1  130.65    4.10 
   1  -3  -1  131.23    4.17 
  -1   3   1  128.40    3.78 
   0  -3  -1   21.39    0.77 
   0   3   1   22.74    0.69 
  -1  -3  -1   27.06    0.91 
   1   3   1   26.30    0.86 
   1   3   1   25.77    0.82 
  -2  -3  -1   18.78    0.66 
   2   3   1   17.60    0.59 
   2   3   1   18.92    0.63 
  -3  -3  -1    0.92    0.09 
   3   3   1    1.19    0.11 
   3   3   1    0.77    0.08 
  -4  -3  -1    6.89    0.31 
   4   3   1    6.86    0.32 
   4   3   1    7.29    0.28 
  -5  -3  -1    1.26    0.13 
   5   3   1    1.41    0.16 
  -6  -3  -1    7.48    0.35 
   6   3   1    7.32    0.39 
   6   3   1    7.36    0.30 
  -7  -3  -1    0.07    0.07 
   7   3   1   -0.05    0.08 
   7   3   1    0.05    0.06 
  -8  -3  -1    7.91    0.40 
   8   3   1    7.50    0.45 
  -9  -3  -1    1.60    0.22 
   9   3   1    1.39    0.23 
  10   3   1   -0.01    0.13 
  11   3   1   -0.04    0.17 
  12   3   1    0.18    0.24 
  10  -4  -1   -0.21    0.22 
  10  -4  -1    0.19    0.19 
   9  -4  -1    0.46    0.18 
   9  -4  -1    0.50    0.20 
   8  -4  -1    5.02    0.40 
   8  -4  -1    5.39    0.38 
   7  -4  -1    1.30    0.23 
   7  -4  -1    0.81    0.17 
   6  -4  -1   17.69    0.77 
   6  -4  -1   17.34    0.73 
   5  -4  -1   23.00    0.90 
   5  -4  -1   25.30    0.97 
   4  -4  -1    5.15    0.31 
   4  -4  -1    4.61    0.25 
   3  -4  -1   69.97    2.35 
   2  -4  -1  127.43    4.02 
   2  -4  -1  125.87    4.10 
   1  -4  -1    1.74    0.09 
   1  -4  -1    1.76    0.15 
  -1   4   1    1.86    0.12 
   0  -4  -1   19.87    0.74 
   0   4   1   20.35    0.65 
  -1  -4  -1   19.24    0.71 
   1   4   1   19.60    0.64 
  -2  -4  -1    2.06    0.14 
   2   4   1    1.69    0.12 
   2   4   1    2.01    0.11 
  -3  -4  -1   31.04    1.08 
   3   4   1   31.49    0.99 
   3   4   1   31.53    1.06 
  -4  -4  -1    7.27    0.33 
   4   4   1    7.05    0.33 
   4   4   1    6.98    0.29 
  -5  -4  -1    3.89    0.22 
   5   4   1    3.60    0.20 
   5   4   1    3.77    0.24 
  -6  -4  -1   21.75    0.81 
   6   4   1   21.83    0.73 
   6   4   1   21.23    0.84 
  -7  -4  -1    6.52    0.33 
   7   4   1    7.11    0.39 
   7   4   1    5.30    0.28 
  -8  -4  -1    2.10    0.20 
   8   4   1    2.09    0.26 
   9   4   1   -0.02    0.11 
  10   4   1    0.90    0.21 
  11   4   1    0.56    0.23 
  10  -5  -1    0.10    0.20 
  10  -5  -1    0.32    0.27 
   9  -5  -1    0.30    0.21 
   9  -5  -1    0.02    0.15 
   8  -5  -1    0.92    0.23 
   8  -5  -1    1.01    0.20 
   7  -5  -1    3.05    0.28 
   7  -5  -1    3.11    0.33 
   6  -5  -1    1.70    0.24 
   6  -5  -1    1.63    0.20 
   5  -5  -1   11.62    0.59 
   5  -5  -1   11.99    0.52 
   4  -5  -1    3.90    0.22 
   3  -5  -1    0.56    0.12 
   3  -5  -1    0.44    0.08 
   2  -5  -1    3.51    0.24 
   2  -5  -1    3.45    0.17 
  -2   5   1    3.70    0.18 
   1  -5  -1   12.20    0.54 
  -1   5   1   13.26    0.46 
   0  -5  -1    0.53    0.10 
   0   5   1    0.51    0.08 
  -1  -5  -1   26.19    0.97 
   1   5   1   27.71    0.88 
  -2  -5  -1    5.27    0.27 
   2   5   1    5.68    0.22 
   2   5   1    5.45    0.25 
  -3  -5  -1    0.68    0.11 
   3   5   1    0.72    0.10 
   3   5   1    0.69    0.08 
  -4  -5  -1    0.22    0.07 
   4   5   1    0.17    0.07 
   4   5   1    0.14    0.07 
  -5  -5  -1    0.56    0.10 
   5   5   1    0.41    0.10 
   5   5   1    0.47    0.10 
  -6  -5  -1    4.32    0.26 
   6   5   1    3.89    0.23 
   6   5   1    3.87    0.26 
   7   5   1    3.85    0.29 
   7   5   1    3.71    0.23 
   9   5   1    0.67    0.17 
  10   5   1   -0.02    0.13 
  11   5   1    0.99    0.26 
   9  -6  -1    0.13    0.23 
   8  -6  -1    3.02    0.38 
   8  -6  -1    2.74    0.31 
   7  -6  -1    2.00    0.25 
   7  -6  -1    2.03    0.30 
   6  -6  -1   10.99    0.62 
   6  -6  -1   11.74    0.54 
   5  -6  -1    0.62    0.11 
   5  -6  -1    1.52    0.23 
   4  -6  -1   61.87    2.05 
   4  -6  -1   61.69    2.19 
   3  -6  -1    1.03    0.10 
   3  -6  -1    0.98    0.17 
   2  -6  -1    0.46    0.11 
   2  -6  -1    0.66    0.07 
  -2   6   1    0.71    0.10 
   1  -6  -1    0.05    0.05 
  -1   6   1    0.01    0.07 
   0  -6  -1   66.95    2.29 
   0   6   1   68.90    2.07 
  -1  -6  -1    0.20    0.07 
   1   6   1    0.22    0.07 
  -2  -6  -1    0.48    0.10 
   2   6   1    0.22    0.08 
   2   6   1    0.38    0.05 
  -3  -6  -1    0.45    0.09 
   3   6   1    0.61    0.10 
   3   6   1    0.61    0.07 
  -4  -6  -1    1.77    0.17 
   4   6   1    2.13    0.17 
   4   6   1    1.90    0.15 
  -5  -6  -1    0.41    0.10 
   5   6   1    0.52    0.11 
   5   6   1    0.50    0.11 
  -6  -6  -1    5.43    0.30 
   6   6   1    4.87    0.31 
   6   6   1    5.59    0.29 
   7   6   1    3.11    0.24 
   7   6   1    3.54    0.27 
   8   6   1   -0.01    0.10 
   8   6   1    0.22    0.12 
   9   6   1    3.13    0.34 
  10   6   1    0.00    0.15 
  11   6   1   -0.06    0.18 
   9  -7  -1    0.17    0.27 
   8  -7  -1    0.06    0.22 
   7  -7  -1    2.77    0.36 
   5  -7  -1    0.08    0.13 
   4  -7  -1    6.26    0.42 
   3  -7  -1   15.38    0.71 
   2  -7  -1    0.21    0.12 
  -2   7   1    0.15    0.07 
   1  -7  -1    2.43    0.23 
  -1   7   1    2.67    0.18 
   0  -7  -1    3.88    0.27 
   0   7   1    4.21    0.23 
  -1  -7  -1    6.57    0.37 
   1   7   1    7.58    0.34 
  -2  -7  -1    4.95    0.29 
   2   7   1    5.42    0.28 
  -3  -7  -1    0.04    0.08 
   3   7   1    0.16    0.08 
   3   7   1    0.16    0.05 
  -4  -7  -1    0.84    0.14 
   4   7   1    0.62    0.14 
   4   7   1    0.67    0.10 
  -5  -7  -1    0.30    0.10 
   5   7   1    0.31    0.12 
   5   7   1    0.30    0.09 
  -6  -7  -1    9.06    0.44 
   6   7   1    9.28    0.44 
   6   7   1    8.57    0.42 
   7   7   1    0.66    0.15 
   7   7   1    0.74    0.15 
   8   7   1    2.51    0.24 
   8   7   1    2.30    0.27 
   9   7   1    0.18    0.14 
  10   7   1    2.15    0.31 
  11   7   1    0.04    0.19 
   8  -8  -1    0.72    0.30 
   7  -8  -1    0.28    0.22 
   6  -8  -1    0.29    0.21 
   5  -8  -1    2.64    0.33 
   4  -8  -1    3.02    0.33 
   3  -8  -1    3.31    0.33 
   2  -8  -1   20.82    0.89 
  -2   8   1   20.26    0.74 
   1  -8  -1    1.49    0.22 
  -1   8   1    1.27    0.15 
   0  -8  -1   -0.08    0.10 
   0   8   1    0.07    0.08 
  -1  -8  -1    6.50    0.38 
   1   8   1    7.10    0.35 
  -2  -8  -1    0.27    0.09 
   2   8   1    0.30    0.11 
  -3  -8  -1    0.25    0.09 
   3   8   1    0.23    0.11 
  -4  -8  -1   10.12    0.49 
   4   8   1   10.63    0.47 
  -5  -8  -1    0.36    0.11 
   5   8   1    0.24    0.11 
   5   8   1    0.19    0.09 
  -6  -8  -1    4.64    0.30 
   6   8   1    4.59    0.29 
   6   8   1    4.98    0.31 
   7   8   1    0.66    0.15 
   7   8   1    0.62    0.16 
   8   8   1    0.13    0.13 
   8   8   1   -0.15    0.11 
   9   8   1    1.33    0.24 
   9   8   1    1.51    0.23 
  10   8   1    0.03    0.18 
  11   8   1    0.06    0.23 
   7  -9  -1    0.87    0.31 
   6  -9  -1    0.31    0.22 
   5  -9  -1    0.23    0.18 
   4  -9  -1    0.65    0.20 
   3  -9  -1    0.35    0.16 
   2  -9  -1    2.04    0.28 
  -2   9   1    1.57    0.18 
   1  -9  -1    5.88    0.40 
  -1   9   1    5.32    0.31 
   0  -9  -1   11.20    0.58 
   0   9   1   11.51    0.50 
  -1  -9  -1    0.36    0.14 
   1   9   1    0.22    0.11 
  -2  -9  -1    9.98    0.53 
   2   9   1   10.20    0.47 
  -3  -9  -1    0.26    0.15 
   3   9   1    0.20    0.12 
  -4  -9  -1   19.87    0.81 
   4   9   1   17.80    0.74 
  -5  -9  -1    0.29    0.14 
   5   9   1    0.35    0.12 
  -6  -9  -1    0.15    0.15 
   6   9   1   -0.01    0.09 
   7   9   1    2.47    0.27 
   8   9   1    4.61    0.33 
   9   9   1    0.39    0.17 
   6 -10  -1    1.60    0.34 
   5 -10  -1    1.86    0.34 
   4 -10  -1    0.76    0.23 
   3 -10  -1    0.56    0.19 
   2 -10  -1    2.04    0.30 
  -2  10   1    2.45    0.23 
   1 -10  -1    0.27    0.15 
  -1  10   1    0.20    0.11 
   0 -10  -1    0.26    0.14 
   0  10   1    0.07    0.11 
  -1 -10  -1    1.33    0.24 
   1  10   1    1.46    0.20 
  -2 -10  -1    2.33    0.27 
   2  10   1    1.82    0.23 
  -3 -10  -1    0.01    0.14 
   3  10   1    0.04    0.11 
  -4 -10  -1    1.10    0.21 
   4  10   1    1.12    0.19 
  -5 -10  -1    1.03    0.21 
   5  10   1    1.42    0.21 
   6  10   1    1.38    0.22 
   7  10   1    5.51    0.37 
   8  10   1    0.31    0.16 
   9  10   1    0.10    0.17 
   5 -11  -1    0.55    0.28 
   4 -11  -1    1.07    0.28 
   3 -11  -1    0.53    0.20 
   2 -11  -1    2.81    0.36 
  -2  11   1    2.93    0.27 
   1 -11  -1    1.67    0.28 
  -1  11   1    1.69    0.22 
   0 -11  -1    1.01    0.24 
   0  11   1    1.12    0.20 
  -1 -11  -1    6.29    0.43 
   1  11   1    5.28    0.35 
  -2 -11  -1    2.25    0.30 
   2  11   1    2.96    0.28 
  -3 -11  -1    2.58    0.31 
   3  11   1    2.58    0.27 
  -4 -11  -1    5.76    0.41 
   4  11   1    5.31    0.36 
  -5 -11  -1    0.65    0.20 
   5  11   1    0.34    0.15 
   6  11   1    0.02    0.14 
   7  11   1    0.15    0.16 
   8  11   1    1.13    0.24 
   9  11   1   -0.02    0.17 
   4 -12  -1    3.09    0.45 
   3 -12  -1    0.29    0.23 
   2 -12  -1    0.06    0.20 
  -2  12   1    0.17    0.13 
   1 -12  -1    2.35    0.35 
  -1  12   1    2.33    0.27 
   0 -12  -1    3.74    0.41 
   0  12   1    4.18    0.34 
  -1 -12  -1    1.59    0.29 
   1  12   1    1.60    0.24 
  -2 -12  -1    3.47    0.37 
   2  12   1    3.52    0.33 
  -3 -12  -1    0.25    0.18 
   3  12   1   -0.08    0.13 
  -4 -12  -1    7.32    0.49 
   4  12   1    6.51    0.43 
   5  12   1    2.21    0.29 
   6  12   1   -0.02    0.15 
   7  12   1    0.16    0.16 
   8  12   1   -0.15    0.17 
   2 -13  -1    0.72    0.29 
   1 -13  -1    0.12    0.22 
  -1  13   1    0.23    0.18 
   0 -13  -1    2.27    0.36 
   0  13   1    2.94    0.32 
  -1 -13  -1    0.08    0.19 
   1  13   1    0.26    0.18 
  -2 -13  -1    1.10    0.28 
   2  13   1    0.88    0.23 
  -3 -13  -1    0.17    0.20 
   3  13   1    0.16    0.17 
  -4 -13  -1    1.27    0.32 
   4  13   1    1.24    0.27 
   5  13   1    0.74    0.21 
   6  13   1    0.65    0.23 
  -1 -14  -1    0.22    0.26 
   1  14   1    0.00    0.19 
  -2 -14  -1   -0.07    0.23 
   2  14   1    0.19    0.22 
  -3 -14  -1    0.87    0.31 
   3  14   1    0.71    0.25 
   4  14   1   -0.15    0.19 
   4  13  -2    0.43    0.22 
   3  13  -2   -0.05    0.20 
   2  13  -2    0.26    0.18 
   1  13  -2    0.41    0.22 
  -1 -13   2    0.36    0.28 
   0  13  -2    2.70    0.34 
   0 -13   2    2.49    0.41 
   6  12  -2    2.17    0.33 
   5  12  -2    3.32    0.36 
   4  12  -2    0.04    0.17 
   3  12  -2    0.24    0.16 
   2  12  -2    0.68    0.20 
  -2 -12   2    0.64    0.26 
   1  12  -2    0.07    0.16 
  -1 -12   2    0.16    0.21 
   0  12  -2    0.37    0.19 
   0 -12   2    0.68    0.26 
  -1  12  -2    2.63    0.30 
   1 -12   2    2.71    0.40 
   2 -12   2    0.48    0.28 
   3 -12   2   -0.07    0.26 
   8  11  -2    0.97    0.26 
   7  11  -2    2.88    0.35 
   6  11  -2    0.12    0.17 
   5  11  -2    0.15    0.14 
   4  11  -2    0.80    0.22 
   3  11  -2    0.30    0.16 
   2  11  -2    0.35    0.16 
  -2 -11   2    0.08    0.17 
   1  11  -2   -0.10    0.12 
  -1 -11   2   -0.04    0.17 
   0  11  -2    0.54    0.16 
   0 -11   2    0.43    0.20 
  -1  11  -2    0.15    0.12 
   1 -11   2   -0.05    0.17 
   2 -11   2    1.16    0.28 
   3 -11   2    0.65    0.27 
   4 -11   2    0.33    0.25 
   9  10  -2    1.65    0.31 
   8  10  -2    1.95    0.29 
   7  10  -2    0.52    0.20 
   6  10  -2    0.14    0.14 
   5  10  -2    5.22    0.36 
   4  10  -2   -0.15    0.10 
   3  10  -2    1.09    0.20 
  -3 -10   2    1.14    0.23 
   2  10  -2    1.21    0.21 
  -2 -10   2    1.51    0.25 
   1  10  -2    6.92    0.40 
  -1 -10   2    7.89    0.49 
   0  10  -2    2.35    0.24 
   0 -10   2    2.16    0.30 
  -1  10  -2    0.18    0.11 
   1 -10   2   -0.03    0.16 
  -2  10  -2    0.74    0.16 
   2 -10   2    0.58    0.21 
   3 -10   2    0.36    0.21 
   4 -10   2    0.02    0.18 
   5 -10   2    0.16    0.24 
   6 -10   2    0.01    0.26 
   9   9  -2    0.53    0.21 
   8   9  -2    0.11    0.13 
   7   9  -2    0.18    0.15 
   6   9  -2    0.67    0.18 
   5   9  -2    1.63    0.22 
   4   9  -2    3.38    0.29 
   3   9  -2    0.68    0.16 
  -3  -9   2    0.84    0.18 
   2   9  -2    2.47    0.24 
  -2  -9   2    2.31    0.26 
   1   9  -2    0.53    0.15 
  -1  -9   2    0.89    0.20 
   0   9  -2    2.47    0.23 
   0  -9   2    2.44    0.28 
  -1   9  -2    3.05    0.25 
   1  -9   2    3.89    0.36 
  -2   9  -2    0.11    0.10 
   2  -9   2    0.19    0.16 
   3  -9   2    0.43    0.19 
   5  -9   2    0.05    0.17 
   6  -9   2    0.33    0.25 
   7  -9   2   -0.02    0.28 
   9   8  -2    0.06    0.15 
   8   8  -2    1.42    0.24 
   7   8  -2    3.16    0.30 
   6   8  -2    0.12    0.12 
   5   8  -2    4.09    0.28 
   4   8  -2   -0.01    0.08 
  -4  -8   2    0.11    0.08 
   3   8  -2    3.11    0.26 
  -3  -8   2    2.86    0.22 
   2   8  -2   10.19    0.47 
  -2  -8   2    9.59    0.48 
   1   8  -2    0.71    0.15 
  -1  -8   2    0.66    0.15 
   0   8  -2   -0.01    0.09 
   0  -8   2   -0.03    0.11 
  -1   8  -2    1.55    0.17 
   1  -8   2    0.94    0.19 
  -2   8  -2    5.12    0.28 
   2  -8   2    5.01    0.38 
  -3   8  -2    5.53    0.29 
   3  -8   2    6.00    0.43 
   4  -8   2    1.12    0.25 
   6  -8   2    0.38    0.22 
   7  -8   2    0.53    0.27 
   8  -8   2    1.90    0.42 
  10   7  -2    3.96    0.42 
   9   7  -2    0.32    0.17 
   9   7  -2    0.74    0.20 
   8   7  -2    0.08    0.12 
   8   7  -2    0.29    0.14 
   7   7  -2    1.67    0.22 
   7   7  -2    1.43    0.21 
   6   7  -2    3.53    0.28 
   6   7  -2    2.77    0.25 
   5   7  -2    3.69    0.26 
   5   7  -2    3.40    0.27 
   4   7  -2    6.17    0.32 
   4   7  -2    6.10    0.34 
  -4  -7   2    6.73    0.33 
   3   7  -2    0.07    0.07 
   3   7  -2    0.00    0.09 
  -3  -7   2    0.00    0.05 
   2   7  -2    6.37    0.33 
  -2  -7   2    6.72    0.35 
   1   7  -2   21.74    0.78 
  -1  -7   2   21.81    0.86 
   0   7  -2    1.35    0.15 
   0  -7   2    0.98    0.16 
  -1   7  -2   -0.03    0.06 
   1  -7   2    0.14    0.12 
  -2   7  -2    3.16    0.20 
   2  -7   2    3.30    0.31 
  -3   7  -2   12.27    0.48 
   3  -7   2   12.68    0.65 
   4  -7   2    7.55    0.49 
   5  -7   2    0.11    0.16 
   6  -7   2    0.32    0.19 
   7  -7   2    3.09    0.40 
   8  -7   2    0.22    0.27 
  11   6  -2   -0.01    0.21 
  10   6  -2    0.47    0.20 
   9   6  -2    8.70    0.46 
   9   6  -2    9.76    0.55 
   8   6  -2    1.33    0.22 
   8   6  -2    1.27    0.20 
   7   6  -2    0.19    0.12 
   7   6  -2    0.10    0.10 
   6   6  -2    1.76    0.20 
   6   6  -2    1.22    0.18 
   5   6  -2    0.68    0.14 
   5   6  -2    0.56    0.13 
   4   6  -2    4.88    0.28 
   4   6  -2    4.30    0.26 
  -4  -6   2    4.76    0.25 
   3   6  -2    3.61    0.21 
   3   6  -2    3.15    0.21 
  -3  -6   2    3.24    0.20 
   2   6  -2    9.12    0.36 
   2   6  -2    8.73    0.39 
  -2  -6   2    9.26    0.41 
   1   6  -2   12.77    0.45 
   1   6  -2   12.74    0.50 
  -1  -6   2   12.49    0.54 
   0   6  -2   47.70    1.45 
   0  -6   2   44.06    1.61 
  -1   6  -2    0.63    0.10 
   1  -6   2    0.64    0.12 
  -2   6  -2   14.48    0.50 
   2  -6   2   12.26    0.61 
  -3   6  -2    4.03    0.21 
   3  -6   2    4.30    0.33 
   4  -6   2   -0.04    0.07 
   4  -6   2    0.05    0.12 
   5  -6   2    0.22    0.15 
   5  -6   2    0.27    0.10 
   6  -6   2    0.70    0.21 
   7  -6   2    1.15    0.27 
   8  -6   2   -0.02    0.20 
   9  -6   2   -0.23    0.23 
  11   5  -2    0.34    0.23 
  10   5  -2   -0.12    0.14 
   9   5  -2   -0.11    0.14 
   8   5  -2    2.80    0.30 
   8   5  -2    2.99    0.25 
   7   5  -2    0.63    0.16 
   7   5  -2    0.94    0.16 
   6   5  -2    7.63    0.42 
   6   5  -2    8.54    0.39 
   5   5  -2    1.48    0.16 
   5   5  -2    1.58    0.18 
  -5  -5   2    1.58    0.13 
   4   5  -2    2.72    0.19 
   4   5  -2    2.56    0.20 
  -4  -5   2    2.78    0.16 
   3   5  -2    0.03    0.07 
   3   5  -2   -0.03    0.05 
  -3  -5   2    0.13    0.05 
   2   5  -2   41.95    1.34 
   2   5  -2   42.40    1.40 
   1   5  -2    5.82    0.24 
   1   5  -2    5.97    0.28 
  -1  -5   2    5.96    0.29 
   0   5  -2   55.34    1.77 
   0   5  -2   54.44    1.69 
   0  -5   2   56.08    1.88 
  -1   5  -2   22.07    0.74 
   1  -5   2   22.82    0.86 
  -2   5  -2    4.90    0.23 
   2  -5   2    5.15    0.31 
  -3   5  -2    1.33    0.11 
   3  -5   2    0.88    0.16 
   3  -5   2    1.26    0.13 
  -4   5  -2    9.32    0.35 
   4  -5   2   10.11    0.52 
   5  -5   2   13.22    0.57 
   5  -5   2   12.16    0.63 
   6  -5   2   -0.20    0.12 
   6  -5   2   -0.06    0.10 
   7  -5   2    0.01    0.13 
   7  -5   2   -0.12    0.14 
   8  -5   2   -0.05    0.17 
   8  -5   2    0.08    0.16 
   9  -5   2    1.67    0.34 
   9  -5   2    1.22    0.29 
  10  -5   2   -0.48    0.24 
  11   4  -2    0.07    0.20 
  10   4  -2    0.49    0.20 
   9   4  -2    0.83    0.21 
   8   4  -2    1.54    0.18 
   8   4  -2    1.75    0.25 
   7   4  -2    0.15    0.12 
   7   4  -2    0.00    0.07 
   6   4  -2    5.98    0.36 
   6   4  -2    6.06    0.30 
   5   4  -2    3.98    0.26 
   5   4  -2    3.46    0.21 
  -5  -4   2    3.61    0.19 
   4   4  -2    0.07    0.08 
   4   4  -2    0.04    0.06 
  -4  -4   2    0.09    0.04 
   3   4  -2    8.41    0.37 
   3   4  -2    8.08    0.34 
  -3  -4   2    8.36    0.33 
   2   4  -2   56.06    1.73 
   2   4  -2   56.76    1.84 
  -2  -4   2   56.86    1.85 
   1   4  -2   17.01    0.58 
   1   4  -2   16.47    0.57 
  -1  -4   2   16.08    0.61 
   0   4  -2    0.08    0.03 
   0   4  -2    0.04    0.05 
   0  -4   2    0.09    0.05 
  -1   4  -2    6.58    0.27 
   1  -4   2    7.07    0.34 
  -2   4  -2    4.34    0.19 
   2  -4   2    3.97    0.25 
  -3   4  -2    2.22    0.12 
   3  -4   2    1.92    0.20 
  -4   4  -2    0.27    0.05 
   4  -4   2    0.15    0.08 
   4  -4   2    0.21    0.10 
   5  -4   2   29.45    1.09 
   5  -4   2   29.53    1.16 
   6  -4   2    6.83    0.39 
   6  -4   2    6.30    0.43 
   7  -4   2    0.03    0.14 
   7  -4   2    0.34    0.14 
   8  -4   2    0.32    0.15 
   8  -4   2    0.07    0.16 
   9  -4   2   -0.07    0.14 
   9  -4   2   -0.04    0.18 
  10  -4   2    0.21    0.25 
  10  -4   2    0.52    0.23 
  11   3  -2    0.02    0.19 
  10   3  -2    1.57    0.27 
   9   3  -2    0.06    0.14 
   8   3  -2    8.56    0.49 
   7   3  -2    7.68    0.34 
   7   3  -2    7.26    0.43 
   6   3  -2   18.06    0.75 
   6   3  -2   18.01    0.64 
  -6  -3   2   17.48    0.64 
   5   3  -2   17.85    0.71 
   5   3  -2   17.82    0.63 
  -5  -3   2   17.46    0.62 
   4   3  -2   20.47    0.69 
   4   3  -2   18.87    0.76 
  -4  -3   2   21.29    0.69 
   3   3  -2    0.11    0.05 
   3   3  -2    0.25    0.09 
  -3  -3   2    0.12    0.03 
   2   3  -2   75.74    2.27 
   2   3  -2   75.41    2.44 
  -2  -3   2   76.63    2.43 
   1   3  -2    0.59    0.08 
   1   3  -2    0.74    0.07 
   0   3  -2   80.13    2.38 
   0  -3   2   81.40    2.62 
  -1   3  -2   15.04    0.49 
   1  -3   2   14.73    0.57 
  -2   3  -2   32.57    0.99 
   2  -3   2   33.10    1.17 
  -3   3  -2    3.35    0.14 
   3  -3   2    2.97    0.18 
   3  -3   2    2.93    0.22 
  -4   3  -2    5.91    0.21 
   4  -3   2    6.13    0.31 
   4  -3   2    6.05    0.34 
   5  -3   2    0.48    0.11 
   5  -3   2    0.45    0.13 
   6  -3   2    0.12    0.12 
   6  -3   2   -0.02    0.09 
   7  -3   2    4.90    0.37 
   7  -3   2    5.02    0.35 
   8  -3   2    0.03    0.12 
   8  -3   2   -0.17    0.13 
   9  -3   2    1.71    0.27 
   9  -3   2    1.63    0.30 
  10  -3   2   -0.12    0.18 
  10  -3   2   -0.02    0.17 
  11   2  -2    0.32    0.22 
  10   2  -2    0.06    0.14 
   9   2  -2    0.04    0.12 
   8   2  -2    8.92    0.50 
   7   2  -2    6.02    0.38 
   6   2  -2   13.63    0.62 
   6   2  -2   14.66    0.52 
  -6  -2   2   14.11    0.53 
   5   2  -2   -0.01    0.08 
   5   2  -2   -0.01    0.05 
  -5  -2   2    0.04    0.04 
   4   2  -2    9.14    0.42 
  -4  -2   2    9.51    0.34 
   3   2  -2    0.04    0.07 
   2   2  -2   10.58    0.41 
  -2  -2   2   10.82    0.36 
   1   2  -2  394.39   12.21 
  -1  -2   2  385.16   12.25 
   0  -2   2   69.21    2.23 
  -1   2  -2   24.73    0.75 
   1  -2   2   23.77    0.85 
  -2   2  -2    1.50    0.08 
   2  -2   2    1.41    0.11 
   2  -2   2    1.67    0.13 
  -3   2  -2   75.79    2.22 
   3  -2   2   77.33    2.54 
   3  -2   2   76.69    2.49 
   4  -2   2   10.49    0.45 
   4  -2   2   10.26    0.48 
   5  -2   2    0.70    0.13 
   5  -2   2    0.92    0.16 
   6  -2   2    1.11    0.19 
   6  -2   2    1.00    0.17 
   7  -2   2    6.43    0.42 
   7  -2   2    7.51    0.42 
   8  -2   2    1.24    0.23 
   8  -2   2    1.10    0.21 
   9  -2   2    0.25    0.16 
   9  -2   2   -0.10    0.14 
  10  -2   2    0.29    0.19 
  10  -2   2    0.39    0.20 
  11  -2   2   -0.07    0.20 
  11   1  -2   -0.23    0.16 
  10   1  -2    5.56    0.43 
   9   1  -2    1.04    0.22 
   8   1  -2    0.85    0.20 
   7   1  -2    3.98    0.21 
   7   1  -2    4.15    0.31 
  -7  -1   2    4.12    0.24 
   6   1  -2    5.25    0.34 
  -6  -1   2    5.88    0.27 
   5   1  -2   33.83    1.23 
  -5  -1   2   34.23    1.14 
   4   1  -2    4.48    0.26 
  -4  -1   2    3.93    0.18 
   3   1  -2    0.72    0.11 
  -3  -1   2    0.64    0.05 
   2   1  -2   58.41    1.90 
   1   1  -2  741.51   22.97 
  -1  -1   2  728.79   23.28 
   0  -1   2  192.80    6.09 
   1  -1   2   60.21    1.96 
   2  -1   2    0.69    0.08 
   2  -1   2    0.65    0.09 
   3  -1   2   23.41    0.86 
   3  -1   2   23.62    0.84 
   4  -1   2   23.13    0.85 
   4  -1   2   23.71    0.88 
   5  -1   2    5.53    0.32 
   5  -1   2    5.53    0.30 
   6  -1   2    7.27    0.39 
   6  -1   2    7.67    0.41 
   7  -1   2   -0.14    0.08 
   7  -1   2    0.24    0.12 
   8  -1   2    0.09    0.13 
   8  -1   2    0.72    0.18 
   9  -1   2   -0.06    0.13 
   9  -1   2    0.17    0.14 
  10  -1   2    0.10    0.15 
 -11   1  -2    1.48    0.29 
  11  -1   2    1.54    0.32 
  11   0  -2    0.05    0.18 
  10   0  -2    0.81    0.21 
   9   0  -2    2.64    0.32 
   8   0  -2    0.18    0.13 
   7   0  -2    0.00    0.11 
   7   0  -2    0.06    0.08 
   6   0  -2    2.14    0.23 
   6   0  -2    2.82    0.19 
   5   0  -2    0.03    0.07 
   5   0  -2    0.05    0.05 
   4   0  -2    3.35    0.17 
   4   0  -2    3.13    0.21 
   3   0  -2   15.82    0.61 
   3   0  -2   16.26    0.55 
   2   0  -2   63.66    2.09 
   2   0  -2   65.38    2.06 
   1   0  -2   29.83    0.98 
   1   0  -2   29.51    0.96 
   0   0  -2  129.17    4.08 
   1   0   2   21.94    0.75 
   2   0   2   15.79    0.56 
   2   0   2   14.57    0.54 
   3   0   2    2.35    0.15 
   3   0   2    2.72    0.17 
   4   0   2   15.32    0.60 
   4   0   2   14.31    0.58 
   5   0   2    9.17    0.43 
   5   0   2    8.33    0.41 
   6   0   2    4.76    0.30 
   6   0   2    4.90    0.30 
   7   0   2    4.63    0.32 
   7   0   2    4.18    0.31 
   8   0   2    3.00    0.30 
   8   0   2    3.41    0.32 
  -9   0  -2    0.49    0.16 
   9   0   2    0.34    0.15 
 -10   0  -2   -0.10    0.13 
  10   0   2    0.07    0.14 
  11   0   2    0.20    0.19 
  11  -1  -2    2.32    0.35 
  10  -1  -2    0.16    0.17 
   9  -1  -2    7.03    0.47 
   8  -1  -2    7.40    0.46 
   8  -1  -2    7.85    0.42 
   7  -1  -2    0.11    0.09 
   7  -1  -2    0.11    0.13 
   6  -1  -2    3.97    0.29 
   6  -1  -2    4.17    0.26 
   5  -1  -2    6.95    0.33 
   5  -1  -2    6.61    0.35 
   4  -1  -2    0.65    0.11 
   4  -1  -2    0.97    0.10 
   3  -1  -2   20.79    0.76 
   3  -1  -2   20.67    0.72 
   2  -1  -2   13.97    0.49 
   2  -1  -2   14.04    0.52 
   1  -1  -2  170.86    5.34 
   1  -1  -2  167.11    5.32 
   0  -1  -2    1.61    0.09 
  -1  -1  -2  306.25    9.63 
  -2  -1  -2    9.94    0.39 
   2   1   2   10.68    0.39 
  -3  -1  -2    9.69    0.39 
   3   1   2    9.93    0.40 
  -4  -1  -2   49.60    1.68 
   4   1   2   50.78    1.69 
  -5  -1  -2   18.88    0.70 
   5   1   2   17.69    0.72 
  -6  -1  -2    8.44    0.39 
   6   1   2    7.68    0.41 
  -7  -1  -2    0.63    0.13 
   7   1   2    0.80    0.16 
  -8  -1  -2    2.48    0.25 
   8   1   2    1.97    0.25 
  -9  -1  -2    0.79    0.18 
   9   1   2    0.76    0.19 
 -10  -1  -2   -0.03    0.13 
  10   1   2   -0.30    0.11 
  11   1   2    0.19    0.19 
  11  -2  -2    0.24    0.21 
  10  -2  -2   -0.04    0.17 
   9  -2  -2    0.52    0.18 
   8  -2  -2    3.76    0.34 
   8  -2  -2    3.41    0.30 
   7  -2  -2   21.40    0.87 
   7  -2  -2   22.08    0.91 
   6  -2  -2   12.95    0.58 
   6  -2  -2   13.77    0.61 
   5  -2  -2    1.33    0.17 
   5  -2  -2    1.24    0.15 
   4  -2  -2    0.32    0.08 
   4  -2  -2    0.25    0.08 
   3  -2  -2    5.81    0.26 
   3  -2  -2    5.22    0.27 
   2  -2  -2    3.73    0.19 
   2  -2  -2    3.59    0.18 
   1  -2  -2  115.47    3.48 
   1  -2  -2  103.59    3.49 
   0  -2  -2    7.59    0.30 
  -1  -2  -2  179.90    5.69 
  -2  -2  -2   83.87    2.68 
   2   2   2   83.57    2.66 
   2   2   2   81.86    2.43 
  -3  -2  -2    3.29    0.18 
   3   2   2    3.33    0.18 
  -4  -2  -2   25.18    0.89 
   4   2   2   24.65    0.77 
   4   2   2   25.05    0.90 
  -5  -2  -2    4.25    0.25 
   5   2   2    5.02    0.28 
   5   2   2    4.90    0.19 
  -6  -2  -2    7.18    0.36 
   6   2   2    7.44    0.27 
   6   2   2    7.37    0.39 
  -7  -2  -2    0.34    0.10 
   7   2   2    0.25    0.11 
  -8  -2  -2    0.69    0.16 
   8   2   2    0.54    0.16 
  -9  -2  -2    0.48    0.16 
   9   2   2    0.49    0.17 
 -10  -2  -2    1.81    0.26 
  10   2   2    1.99    0.29 
  11   2   2    0.08    0.19 
  11  -3  -2    0.10    0.23 
  10  -3  -2    3.21    0.37 
   9  -3  -2    1.48    0.24 
   9  -3  -2    1.88    0.27 
   8  -3  -2   -0.01    0.11 
   8  -3  -2   -0.08    0.12 
   7  -3  -2    1.43    0.21 
   7  -3  -2    1.79    0.23 
   6  -3  -2    6.67    0.40 
   6  -3  -2    7.06    0.38 
   5  -3  -2    5.95    0.33 
   5  -3  -2    5.94    0.33 
   4  -3  -2    8.86    0.41 
   4  -3  -2    8.96    0.40 
   3  -3  -2   13.20    0.53 
   3  -3  -2   12.82    0.51 
   2  -3  -2   50.82    1.72 
   2  -3  -2   52.09    1.69 
   1  -3  -2  108.23    3.43 
   0  -3  -2    0.65    0.05 
   0  -3  -2    0.53    0.08 
  -1  -3  -2   10.72    0.42 
   1   3   2   10.84    0.37 
  -2  -3  -2   12.20    0.48 
   2   3   2   12.90    0.43 
   2   3   2   12.37    0.46 
  -3  -3  -2   38.50    1.28 
   3   3   2   38.03    1.16 
   3   3   2   36.85    1.27 
  -4  -3  -2  100.58    3.32 
   4   3   2  104.22    3.32 
  -5  -3  -2   12.60    0.52 
   5   3   2   12.73    0.54 
   5   3   2   12.98    0.45 
  -6  -3  -2    0.26    0.08 
   6   3   2    0.23    0.07 
   6   3   2    0.20    0.09 
  -7  -3  -2    4.64    0.28 
   7   3   2    4.97    0.33 
   7   3   2    4.73    0.22 
  -8  -3  -2    7.51    0.41 
   8   3   2    7.23    0.44 
  -9  -3  -2    3.34    0.29 
   9   3   2    3.24    0.34 
  10   3   2    0.26    0.15 
  11   3   2    0.05    0.18 
  12   3   2    0.08    0.22 
  10  -4  -2    0.38    0.21 
   9  -4  -2    1.86    0.28 
   9  -4  -2    2.09    0.31 
   8  -4  -2    2.12    0.27 
   8  -4  -2    2.37    0.30 
   7  -4  -2    0.43    0.15 
   7  -4  -2    0.27    0.13 
   6  -4  -2    1.61    0.21 
   6  -4  -2    1.30    0.21 
   5  -4  -2    4.52    0.30 
   5  -4  -2    4.54    0.28 
   4  -4  -2    0.25    0.09 
   4  -4  -2    0.48    0.11 
   3  -4  -2   47.38    1.57 
   3  -4  -2   46.40    1.62 
   2  -4  -2    5.85    0.30 
   2  -4  -2    5.33    0.25 
   1  -4  -2  177.33    5.67 
   1  -4  -2  177.51    5.58 
   0  -4  -2    4.73    0.18 
   0  -4  -2    4.63    0.24 
   0   4   2    4.73    0.21 
  -1  -4  -2   42.61    1.41 
   1   4   2   40.75    1.28 
  -2  -4  -2    1.01    0.11 
   2   4   2    1.05    0.09 
   2   4   2    1.14    0.10 
  -3  -4  -2    5.70    0.27 
   3   4   2    5.49    0.24 
   3   4   2    5.17    0.25 
  -4  -4  -2   66.35    2.21 
   4   4   2   66.82    2.00 
   4   4   2   66.61    2.20 
  -5  -4  -2    0.22    0.08 
   5   4   2    0.08    0.07 
   5   4   2    0.30    0.07 
  -6  -4  -2    1.17    0.15 
   6   4   2    1.19    0.17 
  -7  -4  -2    5.62    0.31 
   7   4   2    5.00    0.34 
   7   4   2    5.23    0.26 
  -8  -4  -2   27.49    1.05 
   8   4   2   27.09    1.10 
  -9  -4  -2    0.08    0.13 
   9   4   2   -0.10    0.11 
  10   4   2    0.15    0.14 
  11   4   2   -0.04    0.16 
  10  -5  -2    0.34    0.21 
   9  -5  -2    0.88    0.21 
   9  -5  -2    0.52    0.24 
   8  -5  -2    2.17    0.31 
   8  -5  -2    1.74    0.25 
   7  -5  -2    1.75    0.27 
   7  -5  -2    2.44    0.26 
   6  -5  -2    1.69    0.21 
   6  -5  -2    1.57    0.24 
   5  -5  -2   52.10    1.80 
   5  -5  -2   52.79    1.88 
   4  -5  -2    1.05    0.16 
   4  -5  -2    1.28    0.14 
   3  -5  -2   26.93    0.99 
   3  -5  -2   25.15    0.91 
   2  -5  -2    3.38    0.18 
   2  -5  -2    3.92    0.25 
   1  -5  -2   12.60    0.52 
   1  -5  -2   11.83    0.43 
  -1   5   2   11.75    0.44 
   0  -5  -2    7.29    0.35 
   0   5   2    7.81    0.31 
  -1  -5  -2   11.01    0.46 
   1   5   2   10.69    0.41 
  -2  -5  -2    0.66    0.10 
   2   5   2    0.61    0.09 
  -3  -5  -2    3.08    0.20 
   3   5   2    2.87    0.17 
   3   5   2    2.98    0.17 
  -4  -5  -2    0.25    0.08 
   4   5   2    0.32    0.08 
   4   5   2    0.31    0.08 
  -5  -5  -2   10.35    0.47 
   5   5   2   11.19    0.47 
   5   5   2   10.18    0.41 
  -6  -5  -2    0.29    0.10 
   6   5   2    0.13    0.08 
   6   5   2    0.25    0.10 
  -7  -5  -2    0.60    0.13 
   7   5   2    0.44    0.11 
   7   5   2    0.70    0.16 
  -8  -5  -2    2.30    0.24 
   8   5   2    2.23    0.27 
   9   5   2    0.91    0.20 
  10   5   2    0.16    0.14 
  11   5   2   -0.04    0.18 
   9  -6  -2    0.12    0.23 
   8  -6  -2   -0.11    0.17 
   8  -6  -2    0.14    0.15 
   7  -6  -2    2.14    0.26 
   7  -6  -2    2.28    0.31 
   6  -6  -2   13.83    0.61 
   6  -6  -2   12.93    0.68 
   5  -6  -2    5.13    0.29 
   5  -6  -2    4.43    0.35 
   4  -6  -2    1.42    0.21 
   4  -6  -2    1.63    0.16 
   3  -6  -2    5.63    0.34 
   3  -6  -2    5.22    0.26 
   2  -6  -2   10.26    0.40 
   2  -6  -2   10.73    0.50 
   1  -6  -2   12.93    0.60 
   1  -6  -2   14.86    0.49 
  -1   6   2   14.58    0.52 
   0  -6  -2    3.06    0.22 
   0   6   2    3.24    0.19 
  -1  -6  -2    5.27    0.29 
   1   6   2    5.29    0.26 
  -2  -6  -2    0.29    0.08 
   2   6   2    0.50    0.10 
  -3  -6  -2    4.52    0.27 
   3   6   2    4.34    0.22 
   3   6   2    4.72    0.24 
  -4  -6  -2    0.39    0.10 
   4   6   2    0.37    0.09 
   4   6   2    0.61    0.10 
  -5  -6  -2   -0.01    0.07 
   5   6   2    0.13    0.08 
   5   6   2    0.08    0.07 
  -6  -6  -2   13.33    0.57 
   6   6   2   12.93    0.51 
   6   6   2   12.27    0.56 
  -7  -6  -2    2.48    0.23 
   7   6   2    2.36    0.24 
   7   6   2    2.25    0.20 
  -8  -6  -2    0.71    0.18 
   8   6   2    1.02    0.16 
   8   6   2    1.12    0.20 
   9   6   2    3.31    0.35 
  10   6   2    0.17    0.15 
  11   6   2    1.21    0.28 
   9  -7  -2    1.07    0.33 
   8  -7  -2    1.30    0.29 
   7  -7  -2    1.84    0.31 
   6  -7  -2    2.20    0.31 
   5  -7  -2    0.46    0.17 
   4  -7  -2    0.07    0.11 
   3  -7  -2    0.01    0.10 
   3  -7  -2    0.01    0.05 
   2  -7  -2    0.05    0.09 
   2  -7  -2    0.06    0.04 
   1  -7  -2    1.28    0.18 
  -1   7   2    1.61    0.15 
   0  -7  -2    4.49    0.29 
   0   7   2    4.26    0.24 
  -1  -7  -2    4.07    0.26 
   1   7   2    4.15    0.24 
  -2  -7  -2    0.26    0.08 
   2   7   2    0.29    0.09 
  -3  -7  -2    6.06    0.33 
   3   7   2    5.36    0.29 
   3   7   2    5.84    0.26 
  -4  -7  -2    0.32    0.10 
   4   7   2    0.35    0.09 
   4   7   2    0.25    0.09 
  -5  -7  -2    0.36    0.11 
   5   7   2    0.33    0.09 
   5   7   2    0.41    0.12 
  -6  -7  -2    1.25    0.17 
   6   7   2    1.00    0.16 
   6   7   2    1.22    0.17 
  -7  -7  -2   -0.02    0.13 
   7   7   2   -0.13    0.08 
   7   7   2   -0.03    0.09 
  -8  -7  -2    0.11    0.16 
   8   7   2    0.21    0.14 
   8   7   2    0.21    0.12 
   9   7   2   -0.05    0.11 
  10   7   2    0.18    0.18 
  11   7   2    0.30    0.22 
   8  -8  -2    1.79    0.37 
   7  -8  -2    4.29    0.45 
   6  -8  -2    0.61    0.21 
   5  -8  -2    2.93    0.33 
   4  -8  -2   -0.04    0.11 
   3  -8  -2    0.17    0.13 
   2  -8  -2    0.17    0.13 
   1  -8  -2    0.05    0.11 
  -1   8   2    0.14    0.08 
   0  -8  -2    7.18    0.41 
   0   8   2    5.90    0.32 
  -1  -8  -2    4.83    0.32 
   1   8   2    5.23    0.29 
  -2  -8  -2   11.65    0.54 
   2   8   2   11.20    0.48 
  -3  -8  -2    3.23    0.24 
   3   8   2    2.53    0.22 
  -4  -8  -2    1.31    0.18 
   4   8   2    1.13    0.13 
   4   8   2    1.56    0.19 
  -5  -8  -2    4.46    0.30 
   5   8   2    5.18    0.31 
   5   8   2    5.07    0.28 
  -6  -8  -2    0.00    0.13 
   6   8   2    0.07    0.09 
   6   8   2   -0.03    0.07 
  -7  -8  -2    3.00    0.29 
   7   8   2    2.52    0.25 
   7   8   2    2.75    0.26 
   8   8   2    0.22    0.14 
   8   8   2    0.05    0.11 
   9   8   2    1.23    0.24 
  10   8   2   -0.03    0.18 
  11   8   2   -0.05    0.22 
   7  -9  -2    0.34    0.25 
   6  -9  -2    1.35    0.29 
   5  -9  -2    0.55    0.21 
   4  -9  -2    2.34    0.31 
   3  -9  -2    0.07    0.13 
   2  -9  -2    1.26    0.23 
   1  -9  -2    6.19    0.41 
  -1   9   2    6.64    0.35 
   0  -9  -2    9.50    0.52 
   0   9   2    9.29    0.44 
  -1  -9  -2    0.76    0.18 
   1   9   2    1.15    0.18 
  -2  -9  -2    0.16    0.14 
   2   9   2    0.39    0.13 
  -3  -9  -2    2.66    0.27 
   3   9   2    2.42    0.23 
  -4  -9  -2    2.01    0.24 
   4   9   2    2.07    0.23 
  -5  -9  -2    2.38    0.26 
   5   9   2    1.78    0.22 
  -6  -9  -2    5.37    0.37 
   6   9   2    4.88    0.32 
  -7  -9  -2    5.93    0.41 
   7   9   2    5.88    0.36 
   8   9   2    0.27    0.15 
   9   9   2    0.27    0.17 
   7 -10  -2    0.28    0.29 
   6 -10  -2    0.34    0.26 
   5 -10  -2    1.45    0.29 
   4 -10  -2    0.15    0.17 
   3 -10  -2    0.88    0.22 
   2 -10  -2    0.43    0.18 
   1 -10  -2    7.65    0.48 
  -1  10   2    7.07    0.38 
   0 -10  -2    1.76    0.26 
   0  10   2    1.30    0.19 
  -1 -10  -2    6.32    0.42 
   1  10   2    5.64    0.35 
  -2 -10  -2    0.84    0.20 
   2  10   2    0.39    0.14 
  -3 -10  -2    0.10    0.14 
   3  10   2    0.01    0.09 
  -4 -10  -2   13.11    0.63 
   4  10   2   12.15    0.57 
  -5 -10  -2    0.12    0.15 
   5  10   2    0.04    0.11 
  -6 -10  -2    0.26    0.18 
   6  10   2    0.46    0.16 
   7  10   2    0.19    0.14 
   8  10   2    1.88    0.26 
   9  10   2    0.16    0.17 
   6 -11  -2    0.12    0.28 
   5 -11  -2   -0.02    0.22 
   4 -11  -2   -0.11    0.17 
   3 -11  -2    0.50    0.21 
   2 -11  -2    0.27    0.18 
   1 -11  -2    6.33    0.47 
  -1  11   2    6.41    0.37 
   0 -11  -2    0.13    0.14 
   0  11   2   -0.08    0.10 
  -1 -11  -2    1.75    0.27 
   1  11   2    1.53    0.22 
  -2 -11  -2    7.87    0.49 
   2  11   2    7.26    0.42 
  -3 -11  -2    4.41    0.38 
   3  11   2    4.28    0.34 
  -4 -11  -2    0.89    0.22 
   4  11   2    0.27    0.15 
  -5 -11  -2   -0.14    0.13 
   5  11   2   -0.10    0.12 
  -6 -11  -2    0.14    0.19 
   6  11   2    0.16    0.14 
   7  11   2    0.62    0.20 
   8  11   2    0.03    0.16 
   9  11   2   -0.04    0.18 
   4 -12  -2    0.08    0.25 
   3 -12  -2    0.06    0.20 
   2 -12  -2    0.69    0.23 
   1 -12  -2    0.36    0.20 
  -1  12   2    0.17    0.14 
   0 -12  -2    1.03    0.26 
   0  12   2    1.23    0.22 
  -1 -12  -2    0.81    0.23 
   1  12   2    0.91    0.20 
  -2 -12  -2    2.08    0.31 
   2  12   2    2.75    0.30 
  -3 -12  -2    0.10    0.17 
   3  12   2    0.21    0.15 
  -4 -12  -2    0.36    0.19 
   4  12   2   -0.03    0.12 
  -5 -12  -2    0.26    0.19 
   5  12   2    0.19    0.15 
   6  12   2   -0.25    0.12 
   7  12   2   -0.12    0.15 
   8  12   2    0.34    0.21 
   3 -13  -2    0.13    0.26 
   2 -13  -2    0.00    0.22 
   1 -13  -2    1.54    0.32 
   0 -13  -2    1.48    0.31 
   0  13   2    1.10    0.22 
  -1 -13  -2    0.07    0.19 
   1  13   2    0.14    0.16 
  -2 -13  -2   -0.06    0.18 
   2  13   2    0.15    0.16 
  -3 -13  -2    0.21    0.21 
   3  13   2    0.29    0.20 
  -4 -13  -2    0.20    0.21 
   4  13   2    0.23    0.20 
   5  13   2    0.10    0.17 
   6  13   2    0.55    0.21 
   7  13   2    0.17    0.17 
   0 -14  -2    0.70    0.30 
   0  14   2    1.29    0.27 
  -1 -14  -2    0.30    0.26 
   1  14   2    0.09    0.19 
  -2 -14  -2    1.04    0.30 
   2  14   2    0.69    0.25 
  -3 -14  -2    0.14    0.23 
   3  14   2    0.23    0.21 
  -4 -14  -2    0.39    0.27 
   4  14   2    0.33    0.23 
   5  12  -3    0.06    0.19 
   4  12  -3   -0.04    0.18 
   3  12  -3    1.19    0.27 
   2  12  -3    0.60    0.22 
   1  12  -3    0.14    0.17 
  -1 -12   3    0.75    0.29 
   0  12  -3    0.30    0.18 
   0 -12   3    0.59    0.27 
  -1  12  -3    0.26    0.18 
   1 -12   3    0.32    0.27 
   2 -12   3    1.30    0.35 
   7  11  -3    0.10    0.19 
   6  11  -3   -0.21    0.15 
   5  11  -3    0.93    0.22 
   4  11  -3    0.20    0.17 
   3  11  -3    0.05    0.15 
   2  11  -3    0.81    0.20 
   1  11  -3    1.41    0.23 
  -1 -11   3    1.53    0.28 
   0  11  -3    0.58    0.18 
   0 -11   3    0.81    0.25 
  -1  11  -3    0.45    0.16 
   1 -11   3    0.14    0.21 
   2 -11   3    0.14    0.24 
   3 -11   3    2.06    0.37 
   4 -11   3    2.16    0.41 
   8  10  -3    0.72    0.23 
   7  10  -3    4.69    0.40 
   6  10  -3    1.04    0.22 
   5  10  -3    1.63    0.24 
   4  10  -3    1.46    0.24 
   3  10  -3    0.44    0.16 
   2  10  -3    0.23    0.15 
  -2 -10   3    0.61    0.21 
   1  10  -3    0.20    0.13 
  -1 -10   3    0.34    0.17 
   0  10  -3    5.01    0.34 
   0 -10   3    5.81    0.43 
  -1  10  -3    0.79    0.17 
   1 -10   3    0.70    0.22 
  -2  10  -3    0.40    0.15 
   2 -10   3    0.34    0.22 
   3 -10   3    0.51    0.24 
   4 -10   3    1.77    0.35 
   5 -10   3    0.80    0.30 
   9   9  -3    0.17    0.20 
   8   9  -3   -0.04    0.17 
   7   9  -3    0.93    0.22 
   6   9  -3    0.00    0.13 
   5   9  -3    0.24    0.14 
   4   9  -3    0.69    0.17 
   3   9  -3    2.71    0.27 
   2   9  -3    7.33    0.41 
  -2  -9   3    7.75    0.45 
   1   9  -3   -0.07    0.08 
  -1  -9   3    0.24    0.16 
   0   9  -3    0.28    0.13 
   0  -9   3    0.16    0.15 
  -1   9  -3    0.70    0.15 
   1  -9   3    0.57    0.19 
  -2   9  -3    1.62    0.19 
   2  -9   3    1.74    0.28 
   3  -9   3    1.93    0.31 
   4  -9   3   -0.16    0.15 
   5  -9   3    1.92    0.33 
   6  -9   3    1.97    0.36 
   9   8  -3    1.41    0.26 
   8   8  -3    0.43    0.18 
   7   8  -3   -0.19    0.12 
   6   8  -3    1.71    0.23 
   5   8  -3    2.14    0.24 
   4   8  -3    0.21    0.12 
   3   8  -3   -0.07    0.09 
  -3  -8   3    0.18    0.08 
   2   8  -3    2.06    0.22 
  -2  -8   3    2.05    0.21 
   1   8  -3    5.08    0.31 
  -1  -8   3    5.25    0.36 
   0   8  -3    1.77    0.20 
   0  -8   3    2.07    0.26 
  -1   8  -3    0.48    0.12 
   1  -8   3    0.11    0.13 
  -2   8  -3    0.07    0.09 
   2  -8   3    0.26    0.16 
   3  -8   3    0.12    0.14 
   4  -8   3    3.07    0.36 
   5  -8   3    0.05    0.17 
   6  -8   3    0.13    0.20 
   7  -8   3    0.81    0.30 
  10   7  -3    2.95    0.38 
   9   7  -3    0.83    0.22 
   9   7  -3    0.44    0.17 
   8   7  -3    1.71    0.23 
   8   7  -3    1.65    0.25 
   7   7  -3    2.12    0.24 
   7   7  -3    2.16    0.26 
   6   7  -3    0.41    0.14 
   6   7  -3    0.36    0.13 
   5   7  -3    0.19    0.09 
   5   7  -3    0.09    0.09 
   4   7  -3    3.78    0.25 
   4   7  -3    4.05    0.28 
   3   7  -3    0.58    0.15 
  -3  -7   3    0.53    0.11 
   2   7  -3    0.20    0.11 
  -2  -7   3    0.18    0.08 
   1   7  -3   10.10    0.44 
  -1  -7   3    9.59    0.47 
   0   7  -3    1.36    0.16 
   0  -7   3    1.56    0.20 
  -1   7  -3    3.60    0.23 
   1  -7   3    4.49    0.32 
  -2   7  -3    0.04    0.07 
   2  -7   3   -0.09    0.11 
  -3   7  -3   20.25    0.71 
   3  -7   3   20.25    0.91 
   4  -7   3    0.34    0.17 
   5  -7   3    0.25    0.16 
   6  -7   3    1.13    0.27 
   7  -7   3   -0.09    0.20 
   8  -7   3    0.33    0.27 
  10   6  -3    5.60    0.49 
   9   6  -3    1.99    0.25 
   9   6  -3    2.35    0.31 
   8   6  -3    0.73    0.17 
   8   6  -3    0.99    0.21 
   7   6  -3    3.91    0.30 
   7   6  -3    4.03    0.28 
   6   6  -3    9.23    0.47 
   6   6  -3    8.81    0.43 
   5   6  -3    0.91    0.15 
   5   6  -3    0.80    0.15 
   4   6  -3    2.33    0.20 
   4   6  -3    2.10    0.20 
  -4  -6   3    2.18    0.15 
   3   6  -3    7.99    0.38 
   3   6  -3    7.44    0.38 
  -3  -6   3    8.54    0.37 
   2   6  -3    0.37    0.10 
   2   6  -3    0.31    0.09 
   1   6  -3    5.70    0.29 
   1   6  -3    5.38    0.25 
  -1  -6   3    5.78    0.31 
   0   6  -3    0.08    0.07 
   0   6  -3    0.08    0.06 
   0  -6   3    0.07    0.07 
  -1   6  -3   15.10    0.57 
   1  -6   3   16.64    0.69 
  -2   6  -3    0.63    0.10 
   2  -6   3    0.80    0.17 
  -3   6  -3    1.69    0.15 
   3  -6   3    1.57    0.24 
   4  -6   3    2.02    0.27 
   5  -6   3    0.09    0.12 
   6  -6   3    1.07    0.25 
   7  -6   3    1.87    0.32 
   8  -6   3   -0.08    0.20 
   9  -6   3    0.22    0.30 
  11   5  -3    0.72    0.27 
  10   5  -3    0.35    0.19 
   9   5  -3    3.67    0.38 
   8   5  -3    0.68    0.19 
   8   5  -3    0.86    0.18 
   7   5  -3    1.07    0.18 
   7   5  -3    1.14    0.20 
   6   5  -3    1.78    0.19 
   6   5  -3    1.74    0.22 
   5   5  -3    1.34    0.16 
   5   5  -3    1.05    0.17 
   4   5  -3    2.16    0.19 
   4   5  -3    2.24    0.21 
  -4  -5   3    2.56    0.15 
   3   5  -3    7.06    0.34 
   3   5  -3    6.82    0.33 
  -3  -5   3    7.11    0.31 
   2   5  -3    2.69    0.18 
   2   5  -3    3.10    0.19 
  -2  -5   3    3.17    0.18 
   1   5  -3   20.90    0.73 
   1   5  -3   20.77    0.72 
  -1  -5   3   20.54    0.78 
   0   5  -3   28.34    0.93 
   0   5  -3   27.19    0.94 
   0  -5   3   29.28    1.04 
  -1   5  -3    0.03    0.06 
   1  -5   3    0.12    0.07 
  -2   5  -3    1.64    0.13 
   2  -5   3    1.20    0.17 
  -3   5  -3   12.43    0.44 
   3  -5   3   12.04    0.59 
   4  -5   3    0.35    0.15 
   5  -5   3    2.83    0.22 
   5  -5   3    3.15    0.33 
   6  -5   3    3.54    0.31 
   6  -5   3    3.23    0.36 
   7  -5   3    1.54    0.29 
   7  -5   3    1.50    0.25 
   8  -5   3    0.99    0.24 
   8  -5   3    0.79    0.26 
   9  -5   3   -0.26    0.21 
  11   4  -3    0.61    0.26 
  10   4  -3    0.47    0.21 
   9   4  -3    3.69    0.38 
   8   4  -3    2.18    0.22 
   8   4  -3    2.41    0.28 
   7   4  -3    0.07    0.12 
   7   4  -3    0.01    0.09 
   6   4  -3    0.37    0.12 
   6   4  -3    0.79    0.17 
   5   4  -3    2.79    0.20 
   5   4  -3    3.29    0.25 
   4   4  -3    3.38    0.24 
   4   4  -3    3.43    0.21 
  -4  -4   3    3.43    0.16 
   3   4  -3    2.52    0.17 
   3   4  -3    2.26    0.18 
  -3  -4   3    2.68    0.14 
   2   4  -3    5.18    0.26 
   2   4  -3    5.42    0.26 
  -2  -4   3    5.33    0.24 
   1   4  -3   40.10    1.33 
   1   4  -3   40.22    1.27 
   0   4  -3    0.51    0.08 
   0   4  -3    0.49    0.07 
   0  -4   3    0.41    0.09 
  -1   4  -3   -0.02    0.04 
   1  -4   3    0.02    0.05 
  -2   4  -3    2.69    0.15 
   2  -4   3    2.58    0.20 
  -3   4  -3    0.67    0.08 
   3  -4   3    0.49    0.11 
  -4   4  -3   14.45    0.47 
   4  -4   3   14.03    0.59 
   4  -4   3   14.26    0.66 
   5  -4   3    5.79    0.34 
   5  -4   3    6.18    0.40 
   6  -4   3    1.36    0.25 
   6  -4   3    1.36    0.21 
   7  -4   3    8.50    0.49 
   7  -4   3    7.42    0.50 
   8  -4   3    0.33    0.17 
   8  -4   3    0.53    0.22 
   9  -4   3    0.45    0.21 
   9  -4   3    0.19    0.20 
  10  -4   3    0.28    0.23 
  10  -4   3    0.00    0.25 
  11   3  -3    0.72    0.26 
  10   3  -3    0.62    0.21 
   9   3  -3    2.18    0.30 
   8   3  -3    0.00    0.11 
   8   3  -3    0.11    0.11 
   7   3  -3    8.49    0.38 
   7   3  -3    8.64    0.49 
   6   3  -3   14.27    0.65 
   6   3  -3   14.54    0.56 
   5   3  -3    2.27    0.23 
   5   3  -3    2.12    0.17 
   4   3  -3    2.63    0.22 
   4   3  -3    2.87    0.17 
   3   3  -3   39.17    1.34 
   2   3  -3    8.27    0.35 
  -2  -3   3    8.57    0.32 
   1   3  -3   44.30    1.44 
  -1  -3   3   43.06    1.44 
   0   3  -3    0.03    0.04 
   0  -3   3    0.04    0.04 
  -1   3  -3    0.20    0.05 
   1  -3   3    0.02    0.05 
  -2   3  -3    0.52    0.07 
   2  -3   3    0.43    0.09 
  -3   3  -3    2.53    0.12 
   3  -3   3    2.26    0.17 
   3  -3   3    2.36    0.21 
  -4   3  -3    7.25    0.25 
   4  -3   3    7.44    0.36 
   4  -3   3    7.69    0.41 
   5  -3   3   13.18    0.63 
   5  -3   3   13.18    0.58 
   6  -3   3    5.80    0.40 
   6  -3   3    6.15    0.38 
   7  -3   3    9.81    0.57 
   7  -3   3   10.65    0.55 
   8  -3   3    0.24    0.15 
   8  -3   3    0.21    0.17 
   9  -3   3    1.36    0.27 
   9  -3   3    1.14    0.27 
  10  -3   3    0.70    0.24 
  10  -3   3    1.08    0.29 
  11   2  -3    0.09    0.19 
  10   2  -3    0.03    0.17 
   9   2  -3    3.02    0.35 
   8   2  -3    1.30    0.23 
   7   2  -3    5.18    0.27 
   7   2  -3    5.42    0.37 
   6   2  -3    6.39    0.39 
   5   2  -3    4.78    0.31 
   4   2  -3    5.17    0.30 
   3   2  -3   50.62    1.70 
   2   2  -3   28.22    0.97 
   1   2  -3   54.80    1.79 
  -1  -2   3   55.03    1.77 
   0  -2   3   14.82    0.54 
   1  -2   3    4.57    0.23 
   2  -2   3   11.45    0.48 
  -3   2  -3    0.11    0.03 
   3  -2   3    0.12    0.05 
   3  -2   3   -0.04    0.05 
  -4   2  -3    8.35    0.27 
   4  -2   3    8.44    0.40 
   4  -2   3    8.93    0.43 
   5  -2   3    3.89    0.28 
   5  -2   3    3.78    0.25 
   6  -2   3    0.36    0.13 
   6  -2   3    0.55    0.14 
   7  -2   3    0.60    0.17 
   7  -2   3    0.61    0.17 
   8  -2   3    0.23    0.15 
   8  -2   3    0.33    0.15 
   9  -2   3    0.35    0.18 
   9  -2   3    0.04    0.14 
  10  -2   3    2.16    0.33 
  10  -2   3    1.80    0.32 
 -11   2  -3    1.58    0.32 
  11  -2   3    1.20    0.32 
  11   1  -3    0.05    0.20 
  10   1  -3   -0.02    0.17 
   9   1  -3    0.18    0.15 
   8   1  -3   25.55    1.07 
   7   1  -3    3.21    0.31 
   6   1  -3    0.16    0.12 
  -6  -1   3    0.18    0.06 
   5   1  -3   29.23    1.10 
  -5  -1   3   29.85    0.98 
   4   1  -3    0.08    0.09 
   3   1  -3    0.03    0.06 
   2   1  -3    0.09    0.06 
   1   1  -3 1000.00   31.02 
  -1  -1   3  986.71   31.20 
   1  -1   3   19.60    0.70 
   2  -1   3    4.48    0.23 
   3  -1   3    4.89    0.27 
   3  -1   3    5.49    0.27 
   4  -1   3    9.12    0.43 
   4  -1   3    8.26    0.40 
   5  -1   3    2.83    0.21 
   5  -1   3    3.18    0.24 
   6  -1   3    5.17    0.32 
   6  -1   3    4.25    0.31 
   7  -1   3    3.22    0.31 
   7  -1   3    3.36    0.31 
   8  -1   3    1.63    0.26 
   8  -1   3    1.92    0.26 
   9  -1   3    0.94    0.23 
   9  -1   3    0.82    0.21 
 -10   1  -3    0.92    0.23 
  10  -1   3    0.93    0.24 
 -11   1  -3    0.21    0.21 
  11  -1   3    0.46    0.24 
  11   0  -3    0.90    0.26 
  10   0  -3    2.91    0.36 
   9   0  -3    4.01    0.39 
   8   0  -3    1.01    0.20 
   7   0  -3    5.24    0.37 
   6   0  -3    1.06    0.19 
   6   0  -3    1.39    0.13 
   5   0  -3    0.22    0.05 
   5   0  -3    0.22    0.10 
   4   0  -3   18.19    0.73 
   4   0  -3   18.74    0.64 
   3   0  -3    0.18    0.03 
   3   0  -3    0.16    0.08 
   2   0  -3   92.77    2.99 
   1   0  -3   78.36    2.54 
   1   0  -3   79.77    2.51 
   0   0  -3    3.03    0.14 
   1   0   3    0.03    0.03 
   2   0   3   26.50    0.93 
   3   0   3   31.79    1.12 
   3   0   3   33.15    1.14 
   4   0   3    0.94    0.13 
   4   0   3    0.91    0.12 
   5   0   3   -0.02    0.05 
   5   0   3    0.04    0.07 
   6   0   3    9.15    0.48 
   6   0   3   10.52    0.50 
   7   0   3    2.97    0.29 
   7   0   3    3.06    0.29 
   8   0   3    0.57    0.16 
  -9   0  -3    0.61    0.17 
   9   0   3    0.59    0.19 
 -10   0  -3   -0.01    0.15 
  10   0   3    0.02    0.16 
 -11   0  -3   -0.20    0.17 
  11   0   3   -0.19    0.17 
  11  -1  -3    0.96    0.27 
  10  -1  -3    1.96    0.30 
   9  -1  -3    0.01    0.15 
   8  -1  -3    4.70    0.36 
   7  -1  -3   10.03    0.54 
   7  -1  -3   10.32    0.47 
   6  -1  -3   20.04    0.83 
   6  -1  -3   19.97    0.76 
   5  -1  -3    1.43    0.13 
   5  -1  -3    1.04    0.16 
   4  -1  -3    0.10    0.08 
   4  -1  -3    0.18    0.06 
   3  -1  -3    8.18    0.32 
   3  -1  -3    7.87    0.36 
   2  -1  -3    0.85    0.07 
   2  -1  -3    0.50    0.08 
   1  -1  -3   12.51    0.47 
   1  -1  -3   12.82    0.45 
   0  -1  -3    0.01    0.03 
  -1  -1  -3   12.92    0.47 
  -2  -1  -3    2.92    0.16 
  -3  -1  -3    6.52    0.29 
   3   1   3    6.12    0.29 
  -4  -1  -3    0.47    0.09 
   4   1   3    0.54    0.10 
  -5  -1  -3    3.44    0.22 
   5   1   3    2.86    0.21 
  -6  -1  -3    9.29    0.44 
   6   1   3    8.98    0.45 
  -7  -1  -3    2.30    0.23 
   7   1   3    2.41    0.25 
  -8  -1  -3    4.70    0.34 
   8   1   3    4.26    0.33 
  -9  -1  -3    0.13    0.14 
   9   1   3    0.01    0.12 
 -10  -1  -3    0.37    0.16 
  10   1   3    0.55    0.20 
 -11  -1  -3    1.68    0.30 
  11   1   3    1.85    0.32 
  11  -2  -3    0.19    0.23 
  10  -2  -3    0.48    0.21 
   9  -2  -3    3.97    0.37 
   8  -2  -3    4.85    0.37 
   7  -2  -3    0.62    0.13 
   7  -2  -3    0.45    0.17 
   6  -2  -3    6.75    0.39 
   6  -2  -3    6.13    0.33 
   5  -2  -3    7.62    0.37 
   5  -2  -3    7.99    0.41 
   4  -2  -3   10.10    0.43 
   4  -2  -3   11.02    0.48 
   3  -2  -3   50.43    1.67 
   3  -2  -3   48.56    1.64 
   2  -2  -3    8.51    0.34 
   2  -2  -3    8.22    0.35 
   1  -2  -3    0.70    0.08 
   1  -2  -3    0.78    0.08 
   0  -2  -3   16.92    0.60 
  -1  -2  -3    4.93    0.23 
  -2  -2  -3    5.61    0.26 
  -3  -2  -3    1.42    0.13 
   3   2   3    1.81    0.14 
  -4  -2  -3    4.80    0.26 
   4   2   3    5.03    0.27 
  -5  -2  -3    0.20    0.07 
   5   2   3    0.20    0.08 
  -6  -2  -3    3.60    0.24 
   6   2   3    3.32    0.25 
  -7  -2  -3    3.85    0.28 
   7   2   3    4.29    0.30 
  -8  -2  -3    0.00    0.10 
   8   2   3   -0.01    0.10 
  -9  -2  -3    0.42    0.16 
   9   2   3    0.62    0.17 
 -10  -2  -3   -0.03    0.13 
  10   2   3   -0.13    0.13 
  11   2   3    1.10    0.26 
  10  -3  -3    0.29    0.19 
   9  -3  -3    1.80    0.29 
   8  -3  -3    4.06    0.34 
   8  -3  -3    4.52    0.36 
   7  -3  -3    5.21    0.34 
   7  -3  -3    6.01    0.38 
   6  -3  -3    0.98    0.19 
   6  -3  -3    0.86    0.15 
   5  -3  -3    1.41    0.18 
   5  -3  -3    1.47    0.17 
   4  -3  -3   25.65    0.94 
   4  -3  -3   25.10    0.93 
   3  -3  -3    1.37    0.13 
   3  -3  -3    0.99    0.13 
   2  -3  -3   40.25    1.31 
   2  -3  -3   38.22    1.33 
   1  -3  -3    7.14    0.31 
   1  -3  -3    6.80    0.28 
   0  -3  -3   36.69    1.24 
  -1  -3  -3    0.70    0.09 
  -2  -3  -3    0.10    0.05 
  -3  -3  -3    7.87    0.34 
   3   3   3    7.34    0.29 
   3   3   3    7.76    0.34 
  -4  -3  -3    4.90    0.26 
   4   3   3    4.93    0.27 
  -5  -3  -3    1.62    0.17 
   5   3   3    2.06    0.13 
   5   3   3    2.13    0.20 
  -6  -3  -3    0.28    0.09 
   6   3   3    0.31    0.10 
   6   3   3    0.42    0.07 
  -7  -3  -3    0.18    0.09 
   7   3   3    0.11    0.10 
  -8  -3  -3    5.13    0.34 
   8   3   3    4.86    0.35 
  -9  -3  -3    3.35    0.30 
   9   3   3    3.36    0.35 
 -10  -3  -3    0.00    0.15 
  10   3   3    0.06    0.14 
  11   3   3    0.68    0.25 
  10  -4  -3    0.41    0.21 
   9  -4  -3   -0.11    0.12 
   8  -4  -3    0.91    0.21 
   8  -4  -3    0.82    0.19 
   7  -4  -3    1.17    0.21 
   7  -4  -3    0.70    0.17 
   6  -4  -3    5.24    0.36 
   6  -4  -3    6.26    0.37 
   5  -4  -3    0.25    0.11 
   5  -4  -3    0.46    0.11 
   4  -4  -3    6.23    0.33 
   4  -4  -3    5.79    0.32 
   3  -4  -3    1.86    0.18 
   3  -4  -3    2.14    0.18 
   2  -4  -3   41.84    1.42 
   2  -4  -3   43.65    1.47 
   1  -4  -3   27.47    0.87 
   1  -4  -3   20.39    0.79 
   0  -4  -3    9.92    0.37 
   0  -4  -3   10.19    0.43 
  -1  -4  -3    0.73    0.10 
  -2  -4  -3   36.42    1.26 
   2   4   3   36.85    1.14 
  -3  -4  -3    7.87    0.36 
   3   4   3    7.87    0.34 
   3   4   3    7.68    0.31 
  -4  -4  -3   20.97    0.79 
   4   4   3   20.81    0.78 
   4   4   3   20.63    0.69 
  -5  -4  -3    0.17    0.07 
   5   4   3    0.12    0.06 
   5   4   3    0.15    0.07 
  -6  -4  -3   12.79    0.56 
   6   4   3   12.67    0.58 
   6   4   3   12.98    0.47 
  -7  -4  -3   30.33    1.13 
   7   4   3   29.37    0.96 
   7   4   3   30.09    1.16 
  -8  -4  -3    5.48    0.36 
   8   4   3    5.84    0.39 
  -9  -4  -3    2.47    0.28 
   9   4   3    2.27    0.30 
 -10  -4  -3    2.45    0.29 
  10   4   3    2.47    0.33 
  11   4   3    0.09    0.18 
  10  -5  -3    0.11    0.19 
   9  -5  -3    0.98    0.22 
   8  -5  -3    0.14    0.14 
   8  -5  -3   -0.12    0.14 
   7  -5  -3    0.15    0.14 
   7  -5  -3    0.03    0.12 
   6  -5  -3    1.27    0.19 
   6  -5  -3    1.24    0.21 
   5  -5  -3   21.10    0.83 
   5  -5  -3   20.91    0.87 
   4  -5  -3   -0.03    0.06 
   4  -5  -3    0.11    0.07 
   3  -5  -3    3.65    0.22 
   2  -5  -3   37.83    1.27 
   2  -5  -3   37.43    1.34 
   1  -5  -3   89.65    2.84 
   1  -5  -3   87.84    2.93 
   0  -5  -3    9.44    0.43 
   0  -5  -3    9.48    0.35 
  -1  -5  -3    4.35    0.25 
   1   5   3    4.91    0.23 
  -2  -5  -3    0.30    0.08 
   2   5   3    0.25    0.07 
  -3  -5  -3   47.54    1.61 
   3   5   3   47.24    1.46 
   3   5   3   45.80    1.56 
  -4  -5  -3    0.83    0.13 
   4   5   3    1.23    0.14 
   4   5   3    0.95    0.12 
  -5  -5  -3    0.29    0.09 
   5   5   3    0.21    0.08 
   5   5   3    0.32    0.09 
  -6  -5  -3    0.35    0.11 
   6   5   3    0.12    0.09 
   6   5   3    0.28    0.08 
  -7  -5  -3    1.95    0.22 
   7   5   3    2.46    0.25 
  -8  -5  -3    8.75    0.48 
   8   5   3    9.43    0.52 
  -9  -5  -3    0.12    0.14 
   9   5   3    0.17    0.13 
  10   5   3    0.39    0.19 
  11   5   3    0.60    0.25 
   9  -6  -3   -0.18    0.22 
   9  -6  -3    0.01    0.19 
   8  -6  -3    4.13    0.41 
   8  -6  -3    3.82    0.35 
   7  -6  -3    1.34    0.25 
   7  -6  -3    1.46    0.23 
   6  -6  -3    3.52    0.35 
   6  -6  -3    4.33    0.31 
   5  -6  -3    4.98    0.30 
   5  -6  -3    5.07    0.36 
   4  -6  -3   24.35    0.99 
   3  -6  -3    0.33    0.08 
   3  -6  -3    0.28    0.10 
   2  -6  -3    9.78    0.47 
   2  -6  -3    9.38    0.39 
   1  -6  -3    6.02    0.26 
   1  -6  -3    6.15    0.34 
   0  -6  -3   37.27    1.37 
   0  -6  -3   40.11    1.26 
   0   6   3   38.08    1.23 
  -1  -6  -3   11.54    0.51 
   1   6   3   11.43    0.45 
  -2  -6  -3   12.77    0.56 
   2   6   3   14.02    0.51 
  -3  -6  -3    0.14    0.07 
   3   6   3    0.08    0.06 
  -4  -6  -3    0.87    0.14 
   4   6   3    0.87    0.12 
   4   6   3    0.84    0.12 
  -5  -6  -3   11.39    0.52 
   5   6   3   11.19    0.46 
   5   6   3   11.30    0.50 
  -6  -6  -3    7.37    0.39 
   6   6   3    6.83    0.33 
   6   6   3    6.50    0.37 
  -7  -6  -3    0.57    0.17 
   7   6   3    0.40    0.10 
   7   6   3    0.60    0.15 
  -8  -6  -3    1.55    0.23 
   8   6   3    0.67    0.14 
   8   6   3    1.15    0.21 
  -9  -6  -3    0.86    0.21 
   9   6   3    1.07    0.22 
  10   6   3    0.20    0.16 
  11   6   3   -0.06    0.18 
   9  -7  -3    0.10    0.27 
   8  -7  -3    0.67    0.24 
   7  -7  -3    0.70    0.23 
   6  -7  -3    5.51    0.42 
   5  -7  -3   10.28    0.57 
   4  -7  -3    1.16    0.14 
   4  -7  -3    1.01    0.20 
   3  -7  -3    8.79    0.48 
   3  -7  -3    8.57    0.38 
   2  -7  -3    0.72    0.09 
   2  -7  -3    0.79    0.16 
   1  -7  -3    0.60    0.14 
   1  -7  -3    0.72    0.08 
   0  -7  -3    3.87    0.26 
   0   7   3    3.83    0.23 
  -1  -7  -3    3.55    0.25 
   1   7   3    3.72    0.22 
  -2  -7  -3    0.13    0.07 
   2   7   3   -0.04    0.05 
  -3  -7  -3    1.23    0.17 
   3   7   3    1.13    0.14 
  -4  -7  -3    0.75    0.14 
   4   7   3    0.88    0.12 
   4   7   3    0.79    0.13 
  -5  -7  -3    0.21    0.09 
   5   7   3    0.12    0.10 
   5   7   3    0.12    0.08 
  -6  -7  -3    1.78    0.22 
   6   7   3    1.61    0.20 
   6   7   3    1.66    0.19 
  -7  -7  -3    1.15    0.21 
   7   7   3    1.43    0.20 
   7   7   3    1.11    0.17 
  -8  -7  -3    5.23    0.38 
   8   7   3    5.21    0.37 
   8   7   3    5.14    0.31 
   9   7   3    0.97    0.21 
  10   7   3    1.44    0.27 
  11   7   3    0.25    0.22 
   8  -8  -3    0.26    0.25 
   7  -8  -3   -0.08    0.16 
   6  -8  -3    5.91    0.46 
   5  -8  -3    0.70    0.20 
   4  -8  -3    0.25    0.14 
   3  -8  -3    0.32    0.14 
   2  -8  -3   16.47    0.75 
   1  -8  -3    4.92    0.34 
   0  -8  -3    0.02    0.10 
   0   8   3    0.06    0.08 
  -1  -8  -3    0.92    0.17 
   1   8   3    1.14    0.16 
  -2  -8  -3    0.55    0.13 
   2   8   3    0.65    0.13 
  -3  -8  -3    1.34    0.19 
   3   8   3    1.61    0.18 
  -4  -8  -3    0.18    0.13 
   4   8   3    0.15    0.11 
  -5  -8  -3    2.86    0.27 
   5   8   3    2.20    0.20 
   5   8   3    2.01    0.22 
  -6  -8  -3    9.80    0.51 
   6   8   3    8.85    0.46 
   6   8   3    9.63    0.45 
  -7  -8  -3    0.40    0.17 
   7   8   3    0.52    0.14 
   7   8   3    0.20    0.11 
  -8  -8  -3   -0.07    0.15 
   8   8   3    0.20    0.14 
   8   8   3    0.02    0.12 
   9   8   3    0.90    0.20 
  10   8   3    0.17    0.18 
  11   8   3    0.52    0.26 
   6  -9  -3    0.29    0.20 
   5  -9  -3    2.94    0.36 
   4  -9  -3    0.19    0.15 
   3  -9  -3    0.05    0.13 
   2  -9  -3   -0.01    0.11 
   1  -9  -3    0.35    0.15 
   0  -9  -3    0.02    0.11 
   0   9   3    0.15    0.10 
  -1  -9  -3    1.88    0.25 
   1   9   3    2.60    0.23 
  -2  -9  -3    1.38    0.21 
   2   9   3    1.39    0.19 
  -3  -9  -3    0.22    0.14 
   3   9   3    0.26    0.13 
  -4  -9  -3    4.40    0.34 
   4   9   3    4.62    0.30 
  -5  -9  -3    7.37    0.44 
   5   9   3    7.31    0.39 
  -6  -9  -3    2.44    0.29 
   6   9   3    2.53    0.25 
  -7  -9  -3    2.16    0.28 
   7   9   3    2.28    0.25 
   8   9   3    0.28    0.13 
   7 -10  -3    0.65    0.30 
   6 -10  -3    0.78    0.29 
   5 -10  -3    0.12    0.18 
   4 -10  -3    0.12    0.16 
   3 -10  -3    0.29    0.16 
   2 -10  -3    0.14    0.13 
   1 -10  -3    0.11    0.13 
   0 -10  -3    3.44    0.34 
   0  10   3    3.34    0.27 
  -1 -10  -3    1.07    0.22 
   1  10   3    1.18    0.19 
  -2 -10  -3    0.08    0.14 
   2  10   3    0.08    0.10 
  -3 -10  -3   26.93    1.09 
   3  10   3   26.62    0.99 
  -4 -10  -3   11.24    0.58 
   4  10   3   10.57    0.52 
  -5 -10  -3    0.71    0.19 
   5  10   3    0.98    0.18 
  -6 -10  -3    0.49    0.19 
   6  10   3    0.60    0.17 
  -7 -10  -3    6.38    0.43 
   7  10   3    5.20    0.36 
   8  10   3    0.66    0.19 
   9  10   3    0.08    0.17 
   6 -11  -3   -0.15    0.27 
   4 -11  -3    0.10    0.20 
   3 -11  -3   -0.14    0.14 
   2 -11  -3    2.37    0.33 
   1 -11  -3    0.31    0.17 
   0 -11  -3    0.09    0.16 
   0  11   3    0.00    0.11 
  -1 -11  -3    2.47    0.31 
   1  11   3    2.13    0.25 
  -2 -11  -3   -0.12    0.13 
   2  11   3   -0.01    0.11 
  -3 -11  -3    0.87    0.21 
   3  11   3    0.55    0.17 
  -4 -11  -3    3.52    0.34 
   4  11   3    3.11    0.30 
  -5 -11  -3    0.62    0.19 
   5  11   3    0.95    0.19 
  -6 -11  -3    0.27    0.18 
   6  11   3   -0.14    0.11 
   7  11   3    1.03    0.22 
   8  11   3    0.29    0.18 
   9  11   3    0.35    0.20 
   4 -12  -3    0.60    0.28 
   3 -12  -3    0.10    0.22 
   2 -12  -3   -0.03    0.16 
   1 -12  -3    1.71    0.31 
   0 -12  -3    0.98    0.24 
   0  12   3    1.53    0.22 
  -1 -12  -3    4.58    0.43 
   1  12   3    4.60    0.36 
  -2 -12  -3    1.68    0.29 
   2  12   3    1.61    0.24 
  -3 -12  -3    1.07    0.25 
   3  12   3    1.07    0.22 
  -4 -12  -3    2.62    0.34 
   4  12   3    3.10    0.32 
  -5 -12  -3    2.32    0.32 
   5  12   3    2.27    0.29 
  -6 -12  -3    0.22    0.22 
   6  12   3    0.44    0.17 
   7  12   3    0.31    0.18 
   8  12   3   -0.05    0.18 
   3 -13  -3    1.55    0.36 
   2 -13  -3    0.25    0.24 
   1 -13  -3    0.04    0.20 
   0 -13  -3    0.29    0.21 
  -1 -13  -3    3.90    0.43 
   1  13   3    4.69    0.38 
  -2 -13  -3   -0.04    0.17 
   2  13   3   -0.10    0.13 
  -3 -13  -3    1.15    0.28 
   3  13   3    1.08    0.23 
  -4 -13  -3    0.09    0.20 
   4  13   3    0.03    0.17 
  -5 -13  -3    0.15    0.21 
   5  13   3    0.20    0.17 
   6  13   3    0.46    0.21 
   7  13   3    0.06    0.19 
   1 -14  -3    1.82    0.37 
   0 -14  -3    0.05    0.25 
  -1 -14  -3    0.23    0.24 
   1  14   3    0.51    0.22 
  -2 -14  -3    0.14    0.24 
   2  14   3    0.27    0.21 
  -3 -14  -3    0.97    0.30 
   3  14   3    0.62    0.23 
  -4 -14  -3    0.42    0.27 
   4  14   3   -0.11    0.18 
  -5 -14  -3    0.20    0.30 
   5  14   3    0.26    0.20 
   4  12  -4    0.30    0.21 
   3  12  -4   -0.02    0.19 
   2  12  -4    0.45    0.21 
   1  12  -4   -0.03    0.17 
   0  12  -4   -0.05    0.17 
   0 -12   4    0.14    0.30 
   1 -12   4    0.91    0.33 
   6  11  -4    1.06    0.26 
   5  11  -4   -0.04    0.16 
   4  11  -4    1.49    0.27 
   3  11  -4    0.08    0.16 
   2  11  -4    0.37    0.18 
   1  11  -4    0.22    0.15 
   0  11  -4    0.71    0.19 
   0 -11   4    0.79    0.27 
  -1  11  -4    0.12    0.14 
   1 -11   4    0.32    0.24 
   2 -11   4    0.78    0.28 
   3 -11   4    0.47    0.27 
   8  10  -4    0.15    0.20 
   7  10  -4   -0.12    0.16 
   6  10  -4    3.62    0.37 
   5  10  -4    0.29    0.16 
   4  10  -4    0.86    0.22 
   3  10  -4    5.07    0.37 
   2  10  -4   -0.01    0.13 
   1  10  -4    0.98    0.19 
  -1 -10   4    1.17    0.25 
   0  10  -4    2.82    0.28 
   0 -10   4    2.77    0.35 
  -1  10  -4    2.02    0.24 
   1 -10   4    1.95    0.32 
   2 -10   4    0.35    0.22 
   3 -10   4    3.77    0.43 
   4 -10   4    0.01    0.22 
   8   9  -4    0.47    0.21 
   7   9  -4    0.22    0.16 
   6   9  -4    0.20    0.13 
   5   9  -4    2.01    0.26 
   4   9  -4    0.96    0.19 
   3   9  -4   -0.07    0.10 
   2   9  -4    2.91    0.27 
  -2  -9   4    3.07    0.31 
   1   9  -4    0.59    0.16 
  -1  -9   4    0.71    0.21 
   0   9  -4    0.37    0.13 
   0  -9   4    0.73    0.21 
  -1   9  -4    0.71    0.15 
   1  -9   4    1.04    0.23 
  -2   9  -4    2.32    0.23 
   2  -9   4    2.43    0.33 
   3  -9   4   -0.06    0.16 
   4  -9   4    3.72    0.43 
   5  -9   4    0.87    0.27 
   6  -9   4    0.38    0.28 
   9   8  -4    0.10    0.19 
   8   8  -4    2.38    0.29 
   7   8  -4    3.53    0.33 
   6   8  -4   -0.07    0.11 
   5   8  -4    0.02    0.11 
   4   8  -4    0.01    0.10 
   3   8  -4    0.53    0.14 
   2   8  -4    5.91    0.35 
  -2  -8   4    5.00    0.32 
   1   8  -4    8.27    0.41 
  -1  -8   4    7.98    0.46 
   0   8  -4    0.02    0.09 
   0  -8   4   -0.12    0.12 
  -1   8  -4    0.11    0.10 
   1  -8   4    0.06    0.14 
  -2   8  -4    6.74    0.35 
   2  -8   4    7.48    0.48 
   3  -8   4    2.98    0.35 
   4  -8   4    0.37    0.19 
   5  -8   4    1.93    0.33 
   6  -8   4    0.89    0.28 
   7  -8   4    0.16    0.26 
  10   7  -4    2.71    0.39 
   9   7  -4   -0.11    0.14 
   9   7  -4    0.05    0.17 
   8   7  -4    1.10    0.23 
   8   7  -4    0.79    0.20 
   7   7  -4    1.29    0.22 
   7   7  -4    0.75    0.18 
   6   7  -4    2.10    0.24 
   6   7  -4    2.03    0.24 
   5   7  -4    0.09    0.09 
   5   7  -4    0.25    0.11 
   4   7  -4    0.40    0.13 
   3   7  -4   11.68    0.52 
   1   7  -4    0.10    0.10 
  -1  -7   4   -0.04    0.07 
   0   7  -4    2.44    0.22 
   0  -7   4    2.26    0.25 
  -1   7  -4    6.57    0.33 
   1  -7   4    6.87    0.42 
  -2   7  -4    0.23    0.10 
   2  -7   4    0.10    0.14 
  -3   7  -4    2.43    0.19 
   3  -7   4    2.51    0.31 
   4  -7   4    0.74    0.20 
   5  -7   4    1.27    0.26 
   6  -7   4    0.37    0.20 
   7  -7   4   -0.10    0.22 
   8  -7   4    0.09    0.27 
  10   6  -4    2.13    0.35 
   9   6  -4    2.68    0.35 
   9   6  -4    2.17    0.27 
   8   6  -4    1.92    0.27 
   8   6  -4    2.41    0.26 
   7   6  -4    0.35    0.16 
   7   6  -4    0.21    0.12 
   6   6  -4    3.06    0.26 
   6   6  -4    2.71    0.27 
   5   6  -4    0.61    0.16 
   5   6  -4    0.66    0.14 
   4   6  -4    0.08    0.10 
   4   6  -4   -0.02    0.11 
   3   6  -4    1.03    0.15 
   3   6  -4    0.82    0.15 
  -3  -6   4    1.01    0.12 
   2   6  -4    0.99    0.15 
   2   6  -4    1.16    0.14 
  -2  -6   4    1.31    0.15 
   1   6  -4   15.80    0.63 
   1   6  -4   16.80    0.62 
  -1  -6   4   16.73    0.67 
   0   6  -4    3.52    0.19 
   0   6  -4    3.31    0.21 
   0  -6   4    3.05    0.24 
  -1   6  -4   -0.10    0.05 
   1  -6   4    0.07    0.07 
  -2   6  -4    0.45    0.10 
   2  -6   4    0.56    0.16 
  -3   6  -4    3.10    0.19 
   3  -6   4    3.14    0.31 
   4  -6   4    0.70    0.20 
   5  -6   4    0.12    0.15 
   6  -6   4   -0.14    0.14 
   7  -6   4   -0.01    0.19 
   8  -6   4   -0.19    0.20 
  10   5  -4    0.85    0.25 
   9   5  -4    1.15    0.22 
   9   5  -4    1.37    0.27 
   8   5  -4    2.41    0.31 
   8   5  -4    2.83    0.26 
   7   5  -4    0.15    0.11 
   7   5  -4    0.16    0.14 
   6   5  -4    0.02    0.09 
   6   5  -4    0.11    0.12 
   5   5  -4    0.61    0.14 
   5   5  -4    0.68    0.16 
   4   5  -4    0.72    0.15 
   4   5  -4    0.60    0.13 
   3   5  -4    0.22    0.10 
   3   5  -4    0.12    0.08 
  -3  -5   4    0.14    0.06 
   2   5  -4   -0.02    0.07 
   2   5  -4    0.03    0.07 
  -2  -5   4    0.03    0.05 
   1   5  -4    5.04    0.24 
   1   5  -4    5.42    0.27 
  -1  -5   4    3.50    0.24 
   0   5  -4    7.37    0.32 
   0   5  -4    7.44    0.34 
   0  -5   4    7.69    0.38 
  -1   5  -4    2.18    0.16 
   1  -5   4    2.08    0.21 
  -2   5  -4    1.26    0.13 
   2  -5   4    1.37    0.18 
  -3   5  -4    6.22    0.28 
   3  -5   4    6.76    0.41 
   4  -5   4    2.52    0.29 
   5  -5   4    0.36    0.17 
   6  -5   4    0.00    0.15 
   7  -5   4    0.16    0.18 
   7  -5   4    0.34    0.17 
   8  -5   4    0.25    0.23 
   8  -5   4    0.71    0.26 
   9  -5   4    0.01    0.24 
  11   4  -4    1.82    0.37 
  10   4  -4    0.75    0.25 
   9   4  -4    0.00    0.16 
   8   4  -4    1.11    0.19 
   8   4  -4    1.39    0.24 
   7   4  -4   11.50    0.60 
   7   4  -4   12.24    0.52 
   6   4  -4    2.37    0.26 
   6   4  -4    2.64    0.22 
   5   4  -4    2.80    0.23 
   5   4  -4    3.19    0.27 
   4   4  -4    3.96    0.24 
   4   4  -4    4.53    0.28 
   3   4  -4    8.68    0.41 
   3   4  -4    8.63    0.38 
  -3  -4   4    9.53    0.35 
   2   4  -4    2.79    0.18 
   2   4  -4    3.25    0.20 
  -2  -4   4    2.73    0.16 
   1   4  -4   64.72    1.94 
   1   4  -4   65.09    2.07 
  -1  -4   4   59.71    2.08 
   0   4  -4   -0.02    0.05 
   0   4  -4    0.04    0.05 
   0  -4   4    0.00    0.04 
  -1   4  -4   10.60    0.41 
   1  -4   4   10.79    0.48 
  -2   4  -4    7.70    0.31 
   2  -4   4    7.14    0.38 
  -3   4  -4    0.59    0.08 
   3  -4   4    0.49    0.11 
  -4   4  -4    0.81    0.08 
   4  -4   4    0.76    0.17 
   5  -4   4    3.49    0.34 
   6  -4   4   24.49    0.98 
   6  -4   4   23.29    1.04 
   7  -4   4    0.32    0.17 
   7  -4   4    0.05    0.14 
   8  -4   4    0.75    0.21 
   8  -4   4    0.14    0.17 
   9  -4   4    0.56    0.21 
   9  -4   4   -0.08    0.19 
  10  -4   4    0.39    0.30 
  10  -4   4    0.85    0.31 
  11   3  -4    0.91    0.29 
  10   3  -4    0.49    0.21 
   9   3  -4    0.08    0.16 
   8   3  -4    0.88    0.21 
   8   3  -4    0.84    0.16 
   7   3  -4    0.28    0.16 
   7   3  -4    0.12    0.10 
   6   3  -4    8.41    0.46 
   6   3  -4    7.11    0.36 
   5   3  -4   10.91    0.53 
   4   3  -4    5.60    0.32 
   3   3  -4    2.95    0.21 
   2   3  -4   17.71    0.67 
  -2  -3   4   18.03    0.62 
   1   3  -4   19.64    0.70 
  -1  -3   4   19.11    0.69 
   0  -3   4    3.22    0.19 
   1  -3   4    1.46    0.15 
  -2   3  -4   15.61    0.53 
   2  -3   4   15.82    0.65 
  -3   3  -4   13.95    0.47 
   3  -3   4   13.70    0.61 
  -4   3  -4    5.75    0.21 
   4  -3   4    4.18    0.32 
   5  -3   4    3.31    0.31 
   5  -3   4    3.08    0.24 
   6  -3   4    1.14    0.19 
   6  -3   4    1.34    0.23 
   7  -3   4    7.39    0.50 
   7  -3   4    8.65    0.49 
   8  -3   4    2.34    0.30 
   8  -3   4    1.41    0.26 
   9  -3   4    0.96    0.27 
   9  -3   4    0.63    0.21 
  10  -3   4    0.78    0.29 
  10  -3   4    0.81    0.27 
  11   2  -4    0.41    0.25 
  10   2  -4    1.17    0.28 
   9   2  -4    2.83    0.34 
   8   2  -4    2.07    0.28 
   8   2  -4    1.96    0.20 
   7   2  -4    4.74    0.36 
   6   2  -4    7.50    0.44 
   5   2  -4    2.40    0.25 
   4   2  -4    0.32    0.11 
   3   2  -4    1.51    0.16 
   2   2  -4    9.59    0.41 
   1   2  -4  183.03    5.81 
  -1  -2   4  183.96    5.81 
   0  -2   4    0.99    0.10 
   1  -2   4    1.35    0.13 
   2  -2   4   21.46    0.81 
   3  -2   4    0.02    0.05 
  -4   2  -4    9.69    0.32 
   4  -2   4    9.58    0.44 
   4  -2   4    9.14    0.46 
   5  -2   4    0.10    0.07 
   5  -2   4    0.02    0.09 
   6  -2   4    0.72    0.16 
   6  -2   4    0.51    0.16 
   7  -2   4   -0.02    0.12 
   7  -2   4    0.19    0.14 
   8  -2   4    2.06    0.29 
   8  -2   4    1.52    0.27 
   9  -2   4   -0.25    0.13 
   9  -2   4    0.25    0.18 
  10  -2   4    0.29    0.23 
  10  -2   4    0.37    0.21 
  11   1  -4    0.47    0.25 
  10   1  -4    0.58    0.23 
   9   1  -4    0.95    0.24 
   8   1  -4   -0.11    0.11 
   7   1  -4    7.50    0.46 
   6   1  -4    2.24    0.26 
   5   1  -4    2.85    0.26 
   4   1  -4   10.55    0.48 
   3   1  -4  127.13    4.09 
   2   1  -4   10.73    0.44 
   1   1  -4   16.59    0.62 
   1   1  -4   17.39    0.58 
   0  -1   4    0.09    0.03 
   1  -1   4    1.18    0.11 
   2  -1   4   11.69    0.49 
   3  -1   4   24.43    0.92 
   4  -1   4   22.13    0.85 
   4  -1   4   20.67    0.82 
   5  -1   4    0.52    0.11 
   5  -1   4    0.33    0.11 
   6  -1   4    6.08    0.39 
   6  -1   4    6.14    0.38 
   7  -1   4    2.97    0.31 
   7  -1   4    3.47    0.33 
   8  -1   4    0.11    0.13 
   8  -1   4    0.06    0.13 
   9  -1   4   -0.10    0.14 
   9  -1   4   -0.11    0.13 
 -10   1  -4    0.52    0.20 
  10  -1   4    0.68    0.23 
 -11   1  -4    0.40    0.23 
  11  -1   4    0.60    0.26 
  11   0  -4    0.17    0.22 
  10   0  -4    1.29    0.27 
   9   0  -4    0.17    0.15 
   8   0  -4    3.75    0.36 
   7   0  -4    3.01    0.30 
   6   0  -4    2.66    0.28 
   5   0  -4   19.81    0.80 
   5   0  -4   18.64    0.66 
   4   0  -4    0.86    0.07 
   4   0  -4    0.91    0.15 
   3   0  -4   23.19    0.85 
   2   0  -4   13.49    0.53 
   2   0  -4   13.52    0.46 
   1   0  -4    0.07    0.05 
   1   0  -4    0.00    0.03 
   0   0  -4    4.89    0.21 
  -1   0  -4   38.02    1.27 
   2   0   4   10.10    0.43 
   3   0   4    2.99    0.20 
   4   0   4    7.71    0.39 
   4   0   4    7.74    0.38 
   5   0   4   12.64    0.58 
   5   0   4   12.53    0.56 
   6   0   4   -0.04    0.08 
   6   0   4    0.00    0.09 
   7   0   4    0.26    0.14 
   7   0   4    0.28    0.13 
  -8   0  -4    1.78    0.24 
   8   0   4    1.70    0.25 
  -9   0  -4    0.05    0.12 
   9   0   4    0.09    0.15 
 -10   0  -4   -0.13    0.14 
  10   0   4   -0.02    0.14 
 -11   0  -4    0.86    0.26 
  11   0   4    0.51    0.26 
  11  -1  -4    0.15    0.22 
  10  -1  -4    0.30    0.19 
   9  -1  -4    8.95    0.55 
   8  -1  -4    8.04    0.50 
   7  -1  -4    0.16    0.14 
   6  -1  -4    6.60    0.32 
   6  -1  -4    6.71    0.41 
   5  -1  -4    0.55    0.09 
   5  -1  -4    0.28    0.12 
   4  -1  -4    0.06    0.04 
   4  -1  -4    0.06    0.07 
   3  -1  -4    0.46    0.06 
   3  -1  -4    0.38    0.09 
   2  -1  -4    3.53    0.16 
   2  -1  -4    3.31    0.20 
   1  -1  -4   52.21    1.73 
   1  -1  -4   52.83    1.70 
   0  -1  -4   84.00    2.69 
  -1  -1  -4    0.16    0.05 
  -2  -1  -4    0.02    0.04 
  -3  -1  -4    0.59    0.10 
  -4  -1  -4   23.08    0.86 
   4   1   4   23.22    0.87 
  -5  -1  -4    9.36    0.43 
   5   1   4    9.02    0.44 
  -6  -1  -4    2.84    0.23 
   6   1   4    2.88    0.27 
  -7  -1  -4    1.86    0.22 
   7   1   4    1.82    0.24 
  -8  -1  -4    3.07    0.29 
   8   1   4    3.36    0.33 
  -9  -1  -4    2.05    0.27 
   9   1   4    2.19    0.30 
 -10  -1  -4    0.10    0.15 
  10   1   4    0.19    0.17 
 -11  -1  -4    0.12    0.19 
  11   1   4   -0.02    0.19 
  11  -2  -4    1.74    0.33 
  10  -2  -4    0.21    0.19 
   9  -2  -4    0.56    0.20 
   8  -2  -4    3.33    0.34 
   7  -2  -4   18.94    0.77 
   7  -2  -4   19.90    0.86 
   6  -2  -4    1.26    0.15 
   6  -2  -4    1.02    0.20 
   5  -2  -4    6.38    0.37 
   5  -2  -4    6.37    0.32 
   4  -2  -4    2.83    0.17 
   4  -2  -4    2.88    0.22 
   3  -2  -4    0.27    0.09 
   3  -2  -4    0.12    0.05 
   2  -2  -4    7.83    0.35 
   2  -2  -4    7.77    0.32 
   1  -2  -4    0.05    0.04 
   1  -2  -4    0.14    0.05 
   0  -2  -4   14.09    0.52 
  -1  -2  -4    2.51    0.15 
  -2  -2  -4    0.48    0.09 
  -3  -2  -4    8.19    0.37 
  -4  -2  -4    2.19    0.17 
   4   2   4    2.23    0.17 
  -5  -2  -4    5.17    0.30 
   5   2   4    5.54    0.32 
  -6  -2  -4    4.04    0.27 
   6   2   4    3.59    0.27 
  -7  -2  -4   18.81    0.79 
   7   2   4   18.47    0.81 
  -8  -2  -4   12.75    0.62 
   8   2   4   12.74    0.64 
  -9  -2  -4    0.18    0.13 
   9   2   4    0.13    0.14 
 -10  -2  -4    0.96    0.22 
  10   2   4    0.88    0.24 
 -11  -2  -4   -0.09    0.17 
  11   2   4    0.16    0.21 
  10  -3  -4    1.83    0.32 
   9  -3  -4    1.16    0.24 
   8  -3  -4    0.76    0.20 
   7  -3  -4    4.00    0.35 
   7  -3  -4    4.39    0.29 
   6  -3  -4   17.11    0.76 
   6  -3  -4   17.39    0.71 
   5  -3  -4    1.50    0.16 
   5  -3  -4    1.44    0.19 
   4  -3  -4    3.31    0.21 
   4  -3  -4    2.84    0.23 
   3  -3  -4    6.94    0.33 
   3  -3  -4    6.63    0.32 
   2  -3  -4   34.84    1.19 
   2  -3  -4   34.40    1.19 
   1  -3  -4    0.20    0.06 
   1  -3  -4    0.25    0.06 
   0  -3  -4    0.18    0.06 
  -1  -3  -4    1.63    0.14 
  -2  -3  -4   24.17    0.87 
  -3  -3  -4   36.51    1.27 
  -4  -3  -4    0.18    0.07 
   4   3   4    0.13    0.07 
  -5  -3  -4    8.04    0.39 
   5   3   4    7.45    0.39 
  -6  -3  -4    1.05    0.15 
   6   3   4    1.00    0.17 
  -7  -3  -4   20.31    0.84 
   7   3   4   20.58    0.87 
  -8  -3  -4   -0.03    0.11 
   8   3   4    0.10    0.10 
  -9  -3  -4    0.08    0.13 
   9   3   4    0.12    0.12 
 -10  -3  -4    0.14    0.15 
  10   3   4    0.24    0.17 
 -11  -3  -4    1.94    0.32 
  11   3   4    2.42    0.37 
  10  -4  -4   -0.09    0.17 
   9  -4  -4    0.56    0.20 
   8  -4  -4    0.51    0.19 
   7  -4  -4    0.09    0.12 
   7  -4  -4    0.03    0.12 
   6  -4  -4    0.73    0.18 
   6  -4  -4    1.09    0.17 
   5  -4  -4    2.81    0.25 
   5  -4  -4    2.42    0.22 
   4  -4  -4    1.29    0.15 
   4  -4  -4    1.34    0.18 
   3  -4  -4    5.34    0.29 
   3  -4  -4    5.16    0.29 
   2  -4  -4   16.84    0.67 
   2  -4  -4   17.58    0.64 
   1  -4  -4    2.07    0.17 
   1  -4  -4    2.16    0.14 
   0  -4  -4   51.17    1.66 
   0  -4  -4   49.99    1.71 
  -1  -4  -4   32.82    1.15 
  -2  -4  -4    4.45    0.24 
  -3  -4  -4    5.26    0.28 
  -4  -4  -4    0.69    0.12 
   4   4   4    0.50    0.11 
  -5  -4  -4    0.18    0.07 
   5   4   4    0.18    0.07 
  -6  -4  -4    0.64    0.13 
   6   4   4    0.27    0.11 
  -7  -4  -4    9.41    0.48 
   7   4   4    8.58    0.48 
  -8  -4  -4    2.74    0.27 
   8   4   4    2.79    0.30 
  -9  -4  -4    0.02    0.14 
   9   4   4    0.09    0.13 
 -10  -4  -4    0.95    0.22 
  10   4   4    0.73    0.22 
  11   4   4    0.90    0.27 
  10  -5  -4    0.53    0.23 
   9  -5  -4    1.61    0.29 
   8  -5  -4    1.26    0.24 
   8  -5  -4    1.05    0.23 
   7  -5  -4    3.49    0.33 
   7  -5  -4    3.44    0.32 
   6  -5  -4    2.18    0.25 
   6  -5  -4    2.13    0.25 
   5  -5  -4    8.72    0.48 
   5  -5  -4   10.93    0.50 
   4  -5  -4    0.60    0.12 
   4  -5  -4    0.64    0.13 
   3  -5  -4    0.09    0.08 
   3  -5  -4    0.05    0.06 
   2  -5  -4    3.68    0.21 
   1  -5  -4    9.80    0.41 
   1  -5  -4   11.71    0.48 
   0  -5  -4    0.06    0.06 
   0  -5  -4    0.04    0.03 
  -1  -5  -4    3.54    0.23 
  -2  -5  -4    0.40    0.09 
  -3  -5  -4    0.12    0.06 
   3   5   4    0.02    0.05 
  -4  -5  -4    0.47    0.10 
   4   5   4    0.41    0.09 
   4   5   4    0.46    0.10 
  -5  -5  -4    5.10    0.31 
   5   5   4    5.16    0.26 
   5   5   4    5.36    0.31 
  -6  -5  -4    3.67    0.26 
   6   5   4    4.06    0.22 
   6   5   4    3.54    0.27 
  -7  -5  -4    4.53    0.32 
   7   5   4    4.05    0.23 
   7   5   4    4.49    0.32 
  -8  -5  -4   -0.08    0.11 
   8   5   4   -0.15    0.09 
  -9  -5  -4    2.21    0.27 
   9   5   4    2.05    0.29 
 -10  -5  -4    0.19    0.17 
  10   5   4    0.64    0.21 
  11   5   4    0.14    0.21 
   9  -6  -4   -0.05    0.18 
   8  -6  -4    1.53    0.25 
   8  -6  -4    1.66    0.29 
   7  -6  -4    3.23    0.31 
   7  -6  -4    2.78    0.32 
   6  -6  -4    1.40    0.21 
   6  -6  -4    1.77    0.25 
   5  -6  -4    4.71    0.30 
   5  -6  -4    4.73    0.34 
   4  -6  -4    1.18    0.19 
   4  -6  -4    1.35    0.17 
   3  -6  -4    1.02    0.16 
   2  -6  -4    0.13    0.07 
   2  -6  -4    0.02    0.07 
   1  -6  -4    0.87    0.10 
   1  -6  -4    1.01    0.15 
   0  -6  -4   10.69    0.49 
   0  -6  -4   10.49    0.40 
  -1  -6  -4   18.58    0.74 
  -2  -6  -4   11.63    0.53 
   2   6   4   12.44    0.48 
  -3  -6  -4    8.14    0.41 
   3   6   4    8.37    0.36 
  -4  -6  -4    0.48    0.12 
   4   6   4    0.80    0.12 
  -5  -6  -4    0.14    0.08 
   5   6   4    0.10    0.08 
   5   6   4    0.02    0.07 
  -6  -6  -4    1.28    0.21 
   6   6   4    1.46    0.20 
   6   6   4    1.67    0.17 
  -7  -6  -4    9.50    0.50 
   7   6   4    8.97    0.40 
   7   6   4    8.83    0.49 
  -8  -6  -4    0.71    0.19 
   8   6   4    0.59    0.17 
  -9  -6  -4    0.77    0.20 
   9   6   4    0.88    0.21 
 -10  -6  -4    0.06    0.20 
  10   6   4    0.32    0.18 
  11   6   4    0.96    0.28 
   8  -7  -4    0.25    0.22 
   7  -7  -4    0.02    0.15 
   6  -7  -4    0.50    0.17 
   6  -7  -4    0.05    0.13 
   5  -7  -4   -0.12    0.11 
   5  -7  -4    0.08    0.08 
   4  -7  -4   12.62    0.60 
   4  -7  -4   11.16    0.51 
   3  -7  -4    2.91    0.28 
   3  -7  -4    3.43    0.22 
   2  -7  -4    5.39    0.35 
   2  -7  -4    4.96    0.27 
   1  -7  -4    3.10    0.25 
   1  -7  -4    3.47    0.19 
   0  -7  -4    9.24    0.35 
   0  -7  -4    8.69    0.45 
  -1  -7  -4    8.14    0.42 
  -1  -7  -4    7.90    0.31 
  -2  -7  -4    0.10    0.07 
   2   7   4    0.18    0.07 
  -3  -7  -4    2.05    0.21 
   3   7   4    2.45    0.20 
  -4  -7  -4    0.02    0.07 
   4   7   4   -0.04    0.07 
  -5  -7  -4    0.29    0.14 
   5   7   4    0.52    0.13 
   5   7   4    0.27    0.10 
  -6  -7  -4    0.18    0.13 
   6   7   4    0.15    0.09 
   6   7   4    0.21    0.11 
  -7  -7  -4    0.03    0.13 
   7   7   4   -0.08    0.09 
   7   7   4    0.10    0.11 
  -8  -7  -4    0.48    0.18 
   8   7   4    0.83    0.19 
   8   7   4    0.53    0.15 
  -9  -7  -4    0.02    0.15 
   9   7   4   -0.07    0.12 
  10   7   4    0.20    0.17 
  11   7   4    1.11    0.30 
   8  -8  -4    0.41    0.26 
   7  -8  -4    0.23    0.19 
   6  -8  -4    0.54    0.20 
   5  -8  -4    1.25    0.24 
   4  -8  -4    0.15    0.12 
   3  -8  -4    0.25    0.13 
   2  -8  -4    3.33    0.31 
   1  -8  -4    8.25    0.46 
   0  -8  -4    7.09    0.41 
  -1  -8  -4    1.63    0.22 
   1   8   4    1.65    0.18 
  -2  -8  -4    7.99    0.44 
   2   8   4    7.26    0.37 
  -3  -8  -4    5.65    0.37 
   3   8   4    5.83    0.32 
  -4  -8  -4    1.12    0.19 
   4   8   4    0.93    0.16 
  -5  -8  -4    5.81    0.38 
   5   8   4    5.68    0.32 
  -6  -8  -4    0.95    0.20 
   6   8   4    0.87    0.16 
   6   8   4    0.76    0.16 
  -7  -8  -4    9.74    0.52 
   7   8   4    8.86    0.49 
   7   8   4    9.02    0.44 
  -8  -8  -4   -0.07    0.13 
   8   8   4    0.13    0.13 
   8   8   4    0.03    0.11 
  -9  -8  -4    0.22    0.20 
   9   8   4    0.25    0.16 
  10   8   4    0.32    0.21 
  11   8   4    1.11    0.31 
   7  -9  -4    0.51    0.24 
   6  -9  -4    3.36    0.39 
   5  -9  -4    0.05    0.15 
   4  -9  -4    0.84    0.21 
   3  -9  -4    0.02    0.12 
   2  -9  -4    0.97    0.20 
   1  -9  -4    2.16    0.27 
   0  -9  -4    2.81    0.29 
  -1  -9  -4    0.56    0.16 
   1   9   4    0.59    0.14 
  -2  -9  -4    0.62    0.17 
   2   9   4    0.58    0.14 
  -3  -9  -4   13.30    0.65 
   3   9   4   13.37    0.58 
  -4  -9  -4    0.56    0.17 
   4   9   4    0.17    0.11 
  -5  -9  -4    4.48    0.36 
   5   9   4    4.89    0.31 
  -6  -9  -4    3.45    0.33 
   6   9   4    2.82    0.27 
  -7  -9  -4    3.69    0.34 
   7   9   4    3.59    0.30 
  -8  -9  -4    1.30    0.24 
   8   9   4    1.80    0.23 
   8   9   4    1.26    0.23 
   9   9   4    0.20    0.18 
  10   9   4   -0.03    0.21 
   7 -10  -4    2.11    0.40 
   6 -10  -4    1.08    0.30 
   5 -10  -4   -0.15    0.16 
   4 -10  -4    1.34    0.27 
   3 -10  -4    0.10    0.16 
   2 -10  -4    2.37    0.31 
   1 -10  -4    0.05    0.12 
   0 -10  -4    0.27    0.15 
  -1 -10  -4    2.21    0.28 
   1  10   4    1.91    0.22 
  -2 -10  -4    0.07    0.13 
   2  10   4    0.25    0.12 
  -3 -10  -4    9.81    0.54 
   3  10   4    9.44    0.48 
  -4 -10  -4    0.65    0.18 
   4  10   4    0.44    0.14 
  -5 -10  -4   -0.02    0.13 
   5  10   4    0.19    0.12 
  -6 -10  -4    0.91    0.21 
   6  10   4    1.25    0.20 
  -7 -10  -4    0.75    0.22 
   7  10   4    1.22    0.21 
  -8 -10  -4    0.19    0.20 
   8  10   4    0.34    0.16 
   6 -11  -4   -0.11    0.25 
   5 -11  -4    1.73    0.36 
   4 -11  -4    0.12    0.18 
   3 -11  -4    0.14    0.17 
   2 -11  -4    0.84    0.23 
   1 -11  -4   -0.09    0.14 
   0 -11  -4    1.45    0.26 
  -1 -11  -4    2.19    0.29 
   1  11   4    1.74    0.23 
  -2 -11  -4    0.20    0.17 
   2  11   4    0.26    0.13 
  -3 -11  -4    2.97    0.32 
   3  11   4    2.71    0.28 
  -4 -11  -4    0.44    0.18 
   4  11   4    0.67    0.17 
  -5 -11  -4    0.37    0.18 
   5  11   4    0.34    0.14 
  -6 -11  -4    1.08    0.24 
   6  11   4    1.17    0.21 
  -7 -11  -4    0.16    0.19 
   7  11   4    0.29    0.16 
   8  11   4    2.07    0.29 
   9  11   4    0.01    0.18 
   4 -12  -4    0.52    0.25 
   3 -12  -4   -0.28    0.17 
   2 -12  -4    0.52    0.21 
   1 -12  -4    0.10    0.17 
   0 -12  -4   -0.07    0.15 
  -1 -12  -4    0.77    0.23 
  -2 -12  -4    2.22    0.31 
   2  12   4    1.13    0.22 
  -3 -12  -4   -0.11    0.16 
   3  12   4    0.04    0.14 
  -4 -12  -4    0.26    0.17 
   4  12   4    0.30    0.15 
  -5 -12  -4    0.68    0.24 
   5  12   4    0.73    0.19 
  -6 -12  -4    0.64    0.22 
   6  12   4    0.48    0.17 
  -7 -12  -4    0.42    0.25 
   7  12   4    0.36    0.18 
   8  12   4    0.08    0.18 
   3 -13  -4    0.15    0.25 
   2 -13  -4    0.17    0.19 
   1 -13  -4    0.86    0.27 
   0 -13  -4    0.79    0.24 
  -1 -13  -4    0.91    0.25 
  -2 -13  -4    0.90    0.26 
   2  13   4    0.99    0.23 
  -3 -13  -4    0.88    0.26 
   3  13   4    0.76    0.22 
  -4 -13  -4    0.49    0.23 
   4  13   4    0.67    0.20 
  -5 -13  -4    0.11    0.20 
   5  13   4    0.24    0.17 
  -6 -13  -4    1.54    0.30 
   6  13   4    1.69    0.28 
   7  13   4    1.02    0.26 
   1 -14  -4    0.14    0.25 
   0 -14  -4    0.71    0.28 
  -1 -14  -4    0.80    0.27 
  -2 -14  -4    0.14    0.22 
  -3 -14  -4   -0.01    0.22 
   3  14   4    0.00    0.20 
  -4 -14  -4    0.43    0.27 
   4  14   4    0.41    0.21 
  -5 -14  -4    0.04    0.26 
   5  14   4    0.20    0.20 
   2  12  -5    0.09    0.20 
   5  11  -5   -0.02    0.20 
   4  11  -5    0.06    0.19 
   3  11  -5    0.16    0.19 
   2  11  -5    2.28    0.30 
   1  11  -5    1.07    0.24 
   0  11  -5    0.04    0.15 
  -1  11  -5    0.34    0.20 
   1 -11   5   -0.12    0.22 
   2 -11   5   -0.19    0.24 
   7  10  -5    0.09    0.19 
   6  10  -5    0.17    0.18 
   5  10  -5    1.43    0.25 
   4  10  -5    1.00    0.23 
   3  10  -5    0.32    0.15 
   2  10  -5    0.22    0.15 
   1  10  -5    0.44    0.16 
   0  10  -5    0.62    0.17 
   0 -10   5    0.26    0.21 
  -1  10  -5    0.09    0.13 
   1 -10   5    0.18    0.22 
   2 -10   5    0.08    0.21 
   3 -10   5    0.37    0.24 
   4 -10   5    0.47    0.29 
   8   9  -5    0.16    0.20 
   7   9  -5    0.10    0.15 
   6   9  -5    2.43    0.30 
   5   9  -5    0.02    0.12 
   4   9  -5    0.76    0.20 
   3   9  -5    1.72    0.24 
   2   9  -5   -0.10    0.11 
   1   9  -5    0.73    0.17 
  -1  -9   5    0.74    0.22 
   0   9  -5    0.69    0.16 
   0  -9   5    0.94    0.23 
  -1   9  -5    0.08    0.11 
   1  -9   5    0.63    0.22 
  -2   9  -5    0.99    0.18 
   2  -9   5    1.07    0.25 
   3  -9   5    4.14    0.43 
   4  -9   5    2.70    0.39 
   5  -9   5    1.26    0.33 
   9   8  -5    0.07    0.17 
   8   8  -5    0.31    0.18 
   7   8  -5    2.93    0.32 
   6   8  -5   -0.08    0.11 
   5   8  -5    0.65    0.17 
   4   8  -5    0.25    0.14 
   3   8  -5    0.27    0.13 
   2   8  -5    3.51    0.30 
   1   8  -5    0.92    0.18 
  -1  -8   5    0.75    0.20 
   0   8  -5    0.48    0.14 
   0  -8   5    0.77    0.20 
  -1   8  -5    0.09    0.09 
   1  -8   5    0.04    0.16 
  -2   8  -5    6.45    0.35 
   2  -8   5    6.83    0.47 
   3  -8   5    0.17    0.17 
   4  -8   5    0.18    0.20 
   5  -8   5    0.20    0.21 
   6  -8   5    0.41    0.24 
   9   7  -5    0.28    0.18 
   9   7  -5    0.23    0.23 
   8   7  -5    2.47    0.29 
   8   7  -5    2.59    0.33 
   7   7  -5    0.12    0.15 
   7   7  -5    0.62    0.18 
   6   7  -5    2.94    0.30 
   6   7  -5    2.57    0.27 
   5   7  -5    0.24    0.12 
   4   7  -5    0.05    0.09 
   3   7  -5    0.14    0.11 
   2   7  -5    1.37    0.19 
  -2  -7   5    1.49    0.18 
   1   7  -5    8.92    0.44 
  -1  -7   5    9.41    0.47 
   0   7  -5    0.27    0.12 
   0  -7   5    0.25    0.14 
  -1   7  -5   -0.02    0.08 
   1  -7   5   -0.02    0.13 
  -2   7  -5    5.76    0.31 
   2  -7   5    6.06    0.42 
   3  -7   5    1.74    0.27 
   4  -7   5    1.30    0.26 
   5  -7   5    0.50    0.21 
   6  -7   5    0.11    0.20 
   7  -7   5   -0.28    0.18 
  10   6  -5    0.73    0.28 
   9   6  -5    2.37    0.29 
   9   6  -5    2.46    0.34 
   8   6  -5    0.83    0.19 
   8   6  -5    1.73    0.27 
   7   6  -5    0.43    0.15 
   7   6  -5    0.48    0.17 
   6   6  -5    0.00    0.10 
   6   6  -5    0.17    0.15 
   5   6  -5    0.09    0.10 
   5   6  -5    0.01    0.12 
   4   6  -5    0.12    0.10 
   4   6  -5    0.09    0.11 
   3   6  -5    5.65    0.33 
   3   6  -5    5.00    0.31 
   2   6  -5    2.71    0.21 
   2   6  -5    2.13    0.21 
  -2  -6   5    2.73    0.20 
   1   6  -5    0.06    0.08 
   1   6  -5    0.17    0.09 
  -1  -6   5    0.02    0.07 
   0   6  -5    4.43    0.25 
   0   6  -5    4.91    0.28 
   0  -6   5    4.16    0.29 
  -1   6  -5    6.62    0.34 
   1  -6   5    8.16    0.44 
  -2   6  -5    3.31    0.21 
   2  -6   5    2.88    0.30 
  -3   6  -5    5.05    0.25 
   3  -6   5    4.05    0.37 
   4  -6   5    3.26    0.35 
   5  -6   5   -0.01    0.16 
   6  -6   5   -0.05    0.17 
   7  -6   5    0.40    0.23 
   8  -6   5   -0.18    0.22 
  10   5  -5    1.42    0.33 
   9   5  -5    0.12    0.16 
   9   5  -5    0.29    0.19 
   8   5  -5    1.44    0.22 
   8   5  -5    1.83    0.28 
   7   5  -5    0.07    0.11 
   7   5  -5    0.10    0.14 
   6   5  -5    0.05    0.13 
   6   5  -5   -0.10    0.09 
   5   5  -5    0.64    0.18 
   5   5  -5    0.53    0.14 
   4   5  -5    2.28    0.22 
   4   5  -5    2.69    0.24 
   3   5  -5    7.48    0.38 
   3   5  -5    8.02    0.39 
   2   5  -5    3.58    0.23 
   2   5  -5    3.31    0.23 
  -2  -5   5    3.23    0.20 
   1   5  -5    3.85    0.23 
   1   5  -5    3.44    0.23 
   0   5  -5    0.06    0.07 
   0   5  -5    0.01    0.06 
   0  -5   5    0.05    0.06 
  -1   5  -5    0.79    0.12 
   1  -5   5    0.64    0.13 
  -2   5  -5    0.12    0.07 
   2  -5   5    0.13    0.11 
  -3   5  -5    0.27    0.09 
   3  -5   5    0.32    0.15 
   4  -5   5    5.19    0.39 
   5  -5   5    5.91    0.43 
   6  -5   5    0.80    0.21 
   7  -5   5    0.16    0.18 
   8  -5   5    0.55    0.25 
   9  -5   5   -0.19    0.25 
  10   4  -5    1.03    0.31 
   9   4  -5    1.14    0.21 
   9   4  -5    1.22    0.27 
   8   4  -5    1.62    0.28 
   8   4  -5    1.27    0.20 
   7   4  -5    1.55    0.20 
   7   4  -5    1.72    0.26 
   6   4  -5    2.97    0.30 
   6   4  -5    2.72    0.24 
   5   4  -5    3.88    0.32 
   5   4  -5    3.42    0.24 
   4   4  -5    0.11    0.12 
   3   4  -5    3.43    0.24 
  -3  -4   5    3.27    0.16 
   2   4  -5    2.79    0.20 
  -2  -4   5    2.63    0.16 
   1   4  -5    4.29    0.24 
  -1  -4   5    4.17    0.23 
   0   4  -5    4.92    0.26 
   0   4  -5    5.79    0.28 
   0  -4   5    5.66    0.30 
  -1   4  -5    0.06    0.06 
   1  -4   5    0.05    0.07 
  -2   4  -5    0.03    0.05 
   2  -4   5    0.10    0.07 
  -3   4  -5    4.29    0.21 
   3  -4   5    4.64    0.33 
   4  -4   5    3.29    0.32 
   5  -4   5    2.38    0.30 
   6  -4   5   -0.06    0.13 
   7  -4   5    0.07    0.14 
   8  -4   5    0.94    0.26 
   9  -4   5    0.01    0.21 
   9  -4   5   -0.13    0.22 
  11   3  -5   -0.05    0.24 
  10   3  -5   -0.03    0.19 
   9   3  -5    3.89    0.41 
   8   3  -5    2.73    0.32 
   8   3  -5    2.33    0.24 
   7   3  -5    2.97    0.25 
   7   3  -5    3.05    0.32 
   6   3  -5    0.83    0.20 
   5   3  -5   -0.08    0.11 
   4   3  -5   -0.01    0.10 
   3   3  -5   -0.02    0.08 
   2   3  -5   80.49    2.70 
  -2  -3   5   84.59    2.65 
   1   3  -5    8.91    0.40 
  -1  -3   5    9.45    0.38 
   0   3  -5    2.72    0.18 
   0  -3   5    2.85    0.18 
   1  -3   5    0.34    0.09 
   2  -3   5    3.51    0.24 
  -3   3  -5   10.00    0.37 
   3  -3   5   10.13    0.49 
  -4   3  -5    0.80    0.08 
   4  -3   5    0.81    0.17 
   5  -3   5    1.68    0.25 
   6  -3   5    6.59    0.45 
   7  -3   5   -0.05    0.12 
   7  -3   5   -0.01    0.14 
   8  -3   5    0.29    0.17 
   8  -3   5    0.52    0.20 
   9  -3   5    3.51    0.41 
   9  -3   5    3.30    0.42 
  10  -3   5    0.79    0.31 
  10  -3   5    0.72    0.29 
  11   2  -5    1.65    0.35 
  10   2  -5    0.03    0.19 
   9   2  -5    0.94    0.24 
   8   2  -5    1.86    0.29 
   8   2  -5    1.17    0.18 
   7   2  -5    0.59    0.19 
   6   2  -5    8.26    0.48 
   5   2  -5    4.02    0.31 
   4   2  -5    2.19    0.22 
   3   2  -5    0.65    0.13 
   2   2  -5  285.56    9.08 
   2   2  -5  292.12    9.13 
   1   2  -5   11.16    0.46 
  -1  -2   5   11.37    0.43 
   0  -2   5    3.37    0.19 
   1  -2   5    0.46    0.09 
   2  -2   5    0.70    0.12 
   3  -2   5    0.11    0.07 
  -4   2  -5    4.87    0.20 
   4  -2   5    4.45    0.30 
   5  -2   5   10.46    0.55 
   6  -2   5    3.93    0.30 
   6  -2   5    3.15    0.33 
   7  -2   5    1.07    0.22 
   7  -2   5    0.82    0.20 
   8  -2   5   -0.15    0.13 
   8  -2   5    0.31    0.18 
   9  -2   5    0.76    0.23 
   9  -2   5    0.57    0.22 
  10  -2   5    1.62    0.33 
  11   1  -5    0.18    0.23 
  10   1  -5    1.71    0.33 
   9   1  -5    0.59    0.21 
   8   1  -5    0.00    0.14 
   7   1  -5    0.21    0.15 
   6   1  -5   -0.06    0.13 
   5   1  -5    1.17    0.20 
   4   1  -5    2.21    0.21 
   3   1  -5    4.71    0.28 
   2   1  -5    0.57    0.11 
   1   1  -5   35.22    1.14 
   1   1  -5   33.84    1.19 
   0  -1   5    0.40    0.06 
   1  -1   5    0.89    0.11 
   2  -1   5    3.22    0.21 
   3  -1   5    4.45    0.28 
   4  -1   5    0.14    0.07 
   5  -1   5    1.12    0.17 
   5  -1   5    1.33    0.20 
   6  -1   5    0.22    0.12 
   6  -1   5    0.08    0.11 
   7  -1   5   19.63    0.86 
   7  -1   5   18.50    0.87 
   8  -1   5    3.15    0.34 
   8  -1   5    2.42    0.32 
  -9   1  -5    1.51    0.27 
   9  -1   5    1.78    0.30 
 -10   1  -5    0.08    0.17 
  10  -1   5   -0.08    0.17 
 -11   1  -5    0.58    0.27 
  11  -1   5    1.08    0.33 
  11   0  -5    0.10    0.22 
  10   0  -5    2.02    0.33 
   9   0  -5    1.41    0.26 
   8   0  -5    0.68    0.20 
   7   0  -5   -0.15    0.12 
   6   0  -5    0.77    0.19 
   5   0  -5    3.21    0.28 
   4   0  -5    8.71    0.43 
   3   0  -5    0.08    0.08 
   2   0  -5   10.73    0.45 
   2   0  -5   10.63    0.38 
   1   0  -5    4.94    0.21 
   1   0  -5    4.62    0.25 
   0   0  -5   19.27    0.68 
  -1   0  -5    5.61    0.26 
  -2   0  -5   11.53    0.47 
   3   0   5   15.74    0.65 
   4   0   5   12.39    0.56 
   5   0   5    4.93    0.32 
   5   0   5    4.21    0.29 
   6   0   5    6.75    0.41 
  -7   0  -5    0.27    0.13 
   7   0   5   -0.01    0.11 
  -8   0  -5    1.29    0.22 
   8   0   5    1.42    0.25 
  -9   0  -5    0.14    0.14 
   9   0   5    0.57    0.20 
 -10   0  -5    0.11    0.18 
  10   0   5    0.09    0.19 
 -11   0  -5   -0.06    0.20 
  11   0   5   -0.03    0.21 
  11  -1  -5    0.04    0.22 
  10  -1  -5    0.38    0.21 
   9  -1  -5    0.18    0.16 
   8  -1  -5    6.79    0.46 
   7  -1  -5    7.45    0.47 
   6  -1  -5    1.54    0.24 
   5  -1  -5   -0.05    0.11 
   5  -1  -5    0.13    0.05 
   4  -1  -5    3.47    0.25 
   4  -1  -5    3.62    0.18 
   3  -1  -5    0.86    0.13 
   3  -1  -5    0.98    0.08 
   2  -1  -5    0.05    0.03 
   2  -1  -5    0.02    0.05 
   1  -1  -5    1.31    0.10 
   1  -1  -5    1.19    0.13 
   0  -1  -5   15.83    0.57 
  -1  -1  -5   35.13    1.19 
  -2  -1  -5   31.68    1.11 
  -3  -1  -5    0.98    0.13 
  -4  -1  -5    0.46    0.10 
  -5  -1  -5   11.62    0.52 
   5   1   5   11.53    0.54 
  -6  -1  -5    9.00    0.47 
   6   1   5    9.39    0.49 
  -7  -1  -5    1.17    0.20 
   7   1   5    0.85    0.19 
  -8  -1  -5   -0.07    0.10 
   8   1   5    0.03    0.11 
  -9  -1  -5    0.65    0.18 
   9   1   5    0.32    0.17 
 -10  -1  -5    0.73    0.21 
  10   1   5    1.06    0.25 
 -11  -1  -5    0.81    0.26 
  11   1   5    1.37    0.32 
  10  -2  -5    1.89    0.32 
   9  -2  -5    0.86    0.23 
   8  -2  -5    0.81    0.20 
   7  -2  -5    0.66    0.18 
   6  -2  -5    3.76    0.24 
   6  -2  -5    3.67    0.33 
   5  -2  -5    1.93    0.24 
   5  -2  -5    2.06    0.16 
   4  -2  -5    5.37    0.32 
   4  -2  -5    5.44    0.26 
   3  -2  -5   28.77    1.00 
   3  -2  -5   29.05    1.04 
   2  -2  -5    0.88    0.09 
   2  -2  -5    0.91    0.12 
   1  -2  -5    3.45    0.20 
   1  -2  -5    3.41    0.18 
   0  -2  -5   37.77    1.28 
  -1  -2  -5    1.12    0.11 
  -2  -2  -5    7.08    0.33 
  -3  -2  -5    3.79    0.23 
  -4  -2  -5    1.27    0.15 
  -5  -2  -5    6.51    0.35 
   5   2   5    6.34    0.36 
  -6  -2  -5    1.53    0.20 
   6   2   5    1.37    0.20 
  -7  -2  -5   10.82    0.54 
   7   2   5   10.39    0.56 
  -8  -2  -5    9.36    0.52 
   8   2   5    9.25    0.54 
  -9  -2  -5   -0.03    0.13 
   9   2   5   -0.04    0.13 
 -10  -2  -5    0.19    0.16 
  10   2   5    0.24    0.18 
 -11  -2  -5   -0.03    0.17 
  11   2   5    0.45    0.24 
  10  -3  -5    0.76    0.25 
   9  -3  -5    1.70    0.28 
   8  -3  -5    1.09    0.22 
   7  -3  -5    4.20    0.37 
   6  -3  -5    6.92    0.37 
   6  -3  -5    7.33    0.45 
   5  -3  -5    0.05    0.14 
   5  -3  -5    0.34    0.09 
   4  -3  -5    5.23    0.32 
   4  -3  -5    5.33    0.28 
   3  -3  -5    0.52    0.10 
   3  -3  -5    0.55    0.10 
   2  -3  -5   22.41    0.83 
   2  -3  -5   23.73    0.85 
   1  -3  -5    1.65    0.14 
   1  -3  -5    1.29    0.13 
   0  -3  -5   37.46    1.28 
  -1  -3  -5   18.16    0.68 
  -2  -3  -5   75.26    2.48 
  -3  -3  -5   52.52    1.79 
  -4  -3  -5    4.44    0.27 
  -5  -3  -5    3.02    0.23 
   5   3   5    3.40    0.25 
  -6  -3  -5   13.69    0.61 
   6   3   5   12.99    0.61 
  -7  -3  -5   19.43    0.82 
   7   3   5   19.68    0.86 
  -8  -3  -5    0.86    0.19 
   8   3   5    1.21    0.21 
  -9  -3  -5    1.56    0.24 
   9   3   5    1.93    0.29 
 -10  -3  -5    0.25    0.17 
  10   3   5   -0.05    0.16 
 -11  -3  -5    0.93    0.26 
  11   3   5    1.32    0.32 
  10  -4  -5    0.81    0.26 
   9  -4  -5    1.13    0.26 
   8  -4  -5    2.19    0.30 
   7  -4  -5    0.20    0.15 
   7  -4  -5    0.63    0.17 
   6  -4  -5   14.89    0.66 
   6  -4  -5   15.48    0.71 
   5  -4  -5    1.44    0.22 
   5  -4  -5    1.35    0.17 
   4  -4  -5    2.27    0.20 
   4  -4  -5    2.25    0.22 
   3  -4  -5    0.99    0.14 
   3  -4  -5    1.22    0.15 
   2  -4  -5   21.26    0.81 
   2  -4  -5   22.38    0.81 
   1  -4  -5   13.47    0.52 
   1  -4  -5   13.39    0.55 
   0  -4  -5    8.33    0.38 
   0  -4  -5    8.47    0.36 
  -1  -4  -5    0.09    0.07 
  -2  -4  -5    1.25    0.15 
  -3  -4  -5   13.30    0.56 
  -4  -4  -5    6.82    0.36 
  -5  -4  -5    6.67    0.37 
   5   4   5    7.35    0.39 
  -6  -4  -5    0.39    0.14 
   6   4   5    0.09    0.09 
  -7  -4  -5    3.01    0.28 
   7   4   5    3.13    0.31 
  -8  -4  -5   -0.01    0.12 
   8   4   5    0.13    0.11 
  -9  -4  -5    0.09    0.14 
   9   4   5   -0.11    0.12 
 -10  -4  -5    2.52    0.31 
  10   4   5    2.38    0.35 
 -11  -4  -5    0.09    0.21 
  11   4   5    0.47    0.24 
   9  -5  -5    1.00    0.25 
   8  -5  -5    0.93    0.22 
   7  -5  -5   12.53    0.65 
   7  -5  -5   13.72    0.66 
   6  -5  -5    0.06    0.13 
   6  -5  -5    0.03    0.10 
   5  -5  -5    0.42    0.12 
   5  -5  -5    0.28    0.14 
   4  -5  -5    0.00    0.06 
   4  -5  -5   -0.04    0.09 
   3  -5  -5    3.20    0.23 
   3  -5  -5    2.80    0.22 
   2  -5  -5   17.60    0.66 
   2  -5  -5   16.80    0.70 
   1  -5  -5    2.13    0.15 
   1  -5  -5    1.87    0.18 
   0  -5  -5    8.10    0.34 
   0  -5  -5    8.11    0.39 
  -1  -5  -5    3.22    0.22 
  -2  -5  -5   11.08    0.49 
  -3  -5  -5    7.21    0.37 
  -4  -5  -5   13.06    0.58 
  -5  -5  -5    2.68    0.24 
   5   5   5    2.81    0.24 
  -6  -5  -5    8.05    0.44 
   6   5   5    8.24    0.44 
  -7  -5  -5    7.99    0.46 
   7   5   5    8.22    0.47 
  -8  -5  -5    6.31    0.41 
   8   5   5    6.36    0.43 
  -9  -5  -5    0.29    0.16 
   9   5   5    0.20    0.16 
 -10  -5  -5    1.06    0.24 
  10   5   5    1.53    0.29 
 -11  -5  -5    2.12    0.34 
  11   5   5    1.81    0.35 
   9  -6  -5    0.73    0.23 
   8  -6  -5    0.25    0.18 
   7  -6  -5    0.32    0.17 
   7  -6  -5    0.03    0.13 
   6  -6  -5    1.00    0.19 
   6  -6  -5    0.43    0.16 
   5  -6  -5    0.07    0.10 
   5  -6  -5   -0.03    0.12 
   4  -6  -5    0.19    0.11 
   4  -6  -5    0.12    0.10 
   3  -6  -5    0.36    0.11 
   3  -6  -5    0.33    0.11 
   2  -6  -5    0.74    0.14 
   1  -6  -5    5.33    0.30 
   1  -6  -5    4.28    0.24 
   0  -6  -5    5.62    0.33 
   0  -6  -5    5.82    0.27 
  -1  -6  -5    1.99    0.20 
  -2  -6  -5   -0.04    0.05 
  -3  -6  -5    0.83    0.14 
  -4  -6  -5    0.05    0.07 
  -5  -6  -5    2.15    0.24 
  -6  -6  -5    6.95    0.42 
   6   6   5    7.56    0.42 
  -7  -6  -5    0.02    0.13 
   7   6   5    0.21    0.12 
  -8  -6  -5    3.92    0.35 
   8   6   5    3.90    0.36 
  -9  -6  -5    0.31    0.17 
   9   6   5    0.52    0.19 
 -10  -6  -5    0.14    0.18 
  10   6   5    0.57    0.22 
  11   6   5    1.81    0.37 
   8  -7  -5    1.75    0.33 
   7  -7  -5    2.16    0.31 
   7  -7  -5    2.78    0.32 
   6  -7  -5    0.26    0.15 
   6  -7  -5   -0.03    0.12 
   5  -7  -5    0.16    0.13 
   5  -7  -5    0.03    0.11 
   4  -7  -5    0.56    0.16 
   4  -7  -5    0.34    0.11 
   3  -7  -5    4.44    0.28 
   3  -7  -5    4.67    0.33 
   2  -7  -5    0.90    0.18 
   2  -7  -5    0.99    0.14 
   1  -7  -5    0.63    0.14 
   1  -7  -5    1.06    0.12 
   0  -7  -5    8.21    0.35 
   0  -7  -5    8.55    0.44 
  -1  -7  -5   33.66    1.14 
  -1  -7  -5   33.10    1.25 
  -2  -7  -5    0.04    0.07 
  -3  -7  -5    0.12    0.08 
  -4  -7  -5    0.57    0.15 
  -5  -7  -5    1.99    0.24 
   5   7   5    2.27    0.21 
  -6  -7  -5    0.13    0.13 
   6   7   5    0.25    0.11 
   6   7   5    0.04    0.09 
  -7  -7  -5    0.00    0.14 
   7   7   5   -0.08    0.10 
  -8  -7  -5    2.31    0.30 
   8   7   5    2.34    0.29 
  -9  -7  -5    1.11    0.24 
   9   7   5    1.11    0.24 
 -10  -7  -5    0.71    0.24 
  10   7   5    0.37    0.21 
  11   7   5    0.14    0.24 
   8  -8  -5    0.28    0.26 
   7  -8  -5    1.01    0.26 
   6  -8  -5    0.21    0.16 
   5  -8  -5    0.13    0.14 
   4  -8  -5   -0.02    0.11 
   3  -8  -5    0.01    0.10 
   2  -8  -5    2.14    0.26 
   1  -8  -5   19.84    0.86 
   0  -8  -5    3.09    0.28 
   0  -8  -5    3.01    0.18 
  -1  -8  -5    6.23    0.40 
  -1  -8  -5    6.93    0.29 
  -2  -8  -5    1.78    0.23 
  -3  -8  -5   18.87    0.82 
  -4  -8  -5    5.68    0.38 
   4   8   5    5.76    0.32 
  -5  -8  -5    2.12    0.26 
   5   8   5    2.13    0.22 
  -6  -8  -5   25.93    1.06 
   6   8   5   25.71    0.94 
  -7  -8  -5    0.21    0.17 
   7   8   5    0.58    0.15 
   7   8   5    0.45    0.15 
  -8  -8  -5    0.52    0.18 
   8   8   5    0.46    0.17 
   8   8   5    0.43    0.14 
  -9  -8  -5    0.15    0.17 
   9   8   5    0.23    0.16 
  10   8   5    0.10    0.19 
  11   8   5    0.45    0.28 
   7  -9  -5    0.22    0.22 
   6  -9  -5    0.32    0.19 
   5  -9  -5    2.92    0.35 
   4  -9  -5    0.26    0.15 
   3  -9  -5    0.53    0.17 
   2  -9  -5    3.05    0.32 
   1  -9  -5    3.13    0.31 
   0  -9  -5   -0.08    0.10 
  -1  -9  -5    1.75    0.25 
  -2  -9  -5   11.45    0.59 
  -3  -9  -5   23.43    0.99 
   3   9   5   24.01    0.89 
  -4  -9  -5    0.20    0.15 
   4   9   5    0.24    0.11 
  -5  -9  -5    3.40    0.33 
   5   9   5    3.02    0.26 
  -6  -9  -5    0.35    0.16 
   6   9   5    0.31    0.13 
  -7  -9  -5    3.54    0.35 
   7   9   5    3.39    0.29 
  -8  -9  -5    0.22    0.18 
   8   9   5    0.51    0.16 
   8   9   5    0.54    0.17 
  -9  -9  -5    0.22    0.20 
   9   9   5    0.01    0.17 
  10   9   5    1.86    0.35 
   6 -10  -5    2.21    0.36 
   5 -10  -5    0.49    0.21 
   4 -10  -5    0.69    0.21 
   3 -10  -5    2.85    0.34 
   2 -10  -5    3.41    0.36 
   1 -10  -5    2.82    0.32 
   0 -10  -5    1.08    0.22 
  -1 -10  -5    1.79    0.26 
  -2 -10  -5   -0.06    0.12 
  -3 -10  -5    0.56    0.18 
   3  10   5    0.56    0.14 
  -4 -10  -5    6.04    0.43 
   4  10   5    5.96    0.36 
  -5 -10  -5   -0.09    0.13 
   5  10   5    0.08    0.11 
  -6 -10  -5    0.09    0.17 
   6  10   5    0.17    0.12 
  -7 -10  -5    0.13    0.19 
   7  10   5    0.19    0.13 
  -8 -10  -5    1.21    0.26 
   8  10   5    1.85    0.25 
   6 -11  -5    1.08    0.33 
   5 -11  -5    0.57    0.26 
   4 -11  -5    0.27    0.20 
   3 -11  -5    1.20    0.27 
   2 -11  -5   -0.10    0.13 
   1 -11  -5   -0.04    0.14 
   0 -11  -5    0.43    0.17 
  -1 -11  -5    0.10    0.14 
  -2 -11  -5    0.29    0.15 
  -3 -11  -5    0.41    0.17 
   3  11   5    0.10    0.10 
  -4 -11  -5    0.39    0.19 
   4  11   5    0.40    0.13 
  -5 -11  -5    0.67    0.21 
   5  11   5    0.41    0.15 
  -6 -11  -5   -0.04    0.16 
   6  11   5   -0.06    0.12 
  -7 -11  -5    1.76    0.30 
   7  11   5    1.12    0.22 
  -8 -11  -5    1.03    0.28 
   8  11   5    0.57    0.20 
   4 -12  -5    1.14    0.31 
   3 -12  -5    0.06    0.20 
   2 -12  -5    1.38    0.28 
   1 -12  -5    0.50    0.20 
   0 -12  -5    0.80    0.22 
  -1 -12  -5    0.15    0.16 
  -2 -12  -5    0.45    0.21 
  -3 -12  -5    0.44    0.19 
   3  12   5    0.27    0.15 
  -4 -12  -5   -0.03    0.17 
   4  12   5    0.19    0.13 
  -5 -12  -5    0.27    0.19 
   5  12   5    0.04    0.12 
  -6 -12  -5    0.43    0.22 
   6  12   5    0.37    0.17 
  -7 -12  -5    1.19    0.29 
   7  12   5    1.32    0.25 
   8  12   5    0.12    0.18 
   3 -13  -5    1.25    0.34 
   2 -13  -5    0.11    0.24 
   1 -13  -5    0.32    0.21 
   0 -13  -5    0.63    0.23 
  -1 -13  -5    2.22    0.34 
  -2 -13  -5    0.59    0.23 
  -3 -13  -5    0.49    0.23 
  -4 -13  -5    0.37    0.22 
   4  13   5    0.62    0.18 
  -5 -13  -5    0.43    0.22 
   5  13   5    0.52    0.18 
  -6 -13  -5    0.60    0.26 
   6  13   5    0.39    0.18 
  -7 -13  -5    0.56    0.28 
   7  13   5    0.95    0.23 
   1 -14  -5    0.18    0.25 
   0 -14  -5   -0.09    0.21 
  -1 -14  -5    0.04    0.22 
  -2 -14  -5    1.07    0.29 
  -3 -14  -5    0.70    0.28 
  -4 -14  -5    0.17    0.24 
  -5 -14  -5    0.46    0.27 
   5  14   5    0.62    0.21 
   4  11  -6    0.70    0.25 
   3  11  -6    0.47    0.23 
   2  11  -6    0.12    0.19 
   1  11  -6    0.57    0.22 
   0  11  -6    0.51    0.21 
   6  10  -6   -0.06    0.17 
   5  10  -6   -0.06    0.17 
   4  10  -6    0.44    0.20 
   3  10  -6    3.29    0.34 
   2  10  -6    0.14    0.15 
   1  10  -6   -0.05    0.14 
   0  10  -6   -0.08    0.13 
  -1  10  -6    1.07    0.22 
   1 -10   6    1.06    0.29 
   2 -10   6    0.85    0.29 
   3 -10   6    0.54    0.29 
   7   9  -6    0.16    0.16 
   6   9  -6    0.19    0.17 
   5   9  -6    0.37    0.16 
   4   9  -6   -0.02    0.15 
   3   9  -6    0.18    0.14 
   2   9  -6    1.99    0.26 
   1   9  -6    0.25    0.15 
   0   9  -6   -0.03    0.11 
   0  -9   6   -0.07    0.16 
  -1   9  -6    1.85    0.24 
   1  -9   6    2.20    0.31 
   2  -9   6   -0.09    0.19 
   3  -9   6    0.01    0.21 
   5  -9   6    0.88    0.35 
   8   8  -6    0.23    0.18 
   7   8  -6    0.63    0.21 
   6   8  -6    0.11    0.14 
   5   8  -6    2.62    0.28 
   4   8  -6    0.22    0.14 
   3   8  -6    0.37    0.15 
   2   8  -6    1.15    0.21 
   1   8  -6    0.43    0.14 
   0   8  -6    1.00    0.18 
   0  -8   6    0.63    0.20 
  -1   8  -6    0.46    0.13 
   1  -8   6    0.71    0.21 
  -2   8  -6    0.29    0.13 
   2  -8   6   -0.03    0.17 
   3  -8   6    0.17    0.19 
   4  -8   6    3.42    0.42 
   5  -8   6    1.47    0.32 
   6  -8   6   -0.36    0.22 
   9   7  -6   -0.37    0.15 
   8   7  -6    0.22    0.17 
   7   7  -6    2.61    0.30 
   6   7  -6    0.65    0.17 
   5   7  -6    0.43    0.14 
   4   7  -6    2.30    0.25 
   3   7  -6   -0.03    0.09 
   2   7  -6    1.34    0.19 
   1   7  -6   -0.05    0.09 
  -1  -7   6    0.08    0.08 
   0   7  -6    0.96    0.16 
   0  -7   6    0.91    0.19 
  -1   7  -6    0.33    0.12 
   1  -7   6    0.36    0.16 
  -2   7  -6    2.35    0.22 
   2  -7   6    2.96    0.33 
   3  -7   6    0.36    0.19 
   4  -7   6    1.20    0.25 
   5  -7   6    0.33    0.20 
   6  -7   6    1.06    0.28 
   7  -7   6   -0.14    0.25 
   9   6  -6    0.56    0.25 
   9   6  -6    0.54    0.20 
   8   6  -6    0.27    0.20 
   8   6  -6    0.07    0.14 
   7   6  -6   -0.10    0.11 
   7   6  -6    0.03    0.15 
   6   6  -6   -0.15    0.09 
   6   6  -6    0.28    0.16 
   5   6  -6    0.77    0.19 
   5   6  -6    0.31    0.12 
   4   6  -6    0.37    0.12 
   4   6  -6    0.57    0.16 
   3   6  -6    0.45    0.13 
   3   6  -6    0.15    0.10 
   2   6  -6    7.32    0.39 
   2   6  -6    7.31    0.37 
   1   6  -6    1.70    0.17 
   1   6  -6    1.40    0.18 
   0   6  -6    5.87    0.33 
   0  -6   6    6.07    0.36 
  -1   6  -6    2.28    0.20 
   1  -6   6    2.00    0.25 
  -2   6  -6   21.49    0.76 
   2  -6   6   20.11    0.91 
   3  -6   6    0.00    0.14 
   4  -6   6    0.55    0.20 
   5  -6   6    1.73    0.30 
   6  -6   6    0.27    0.19 
   7  -6   6    0.17    0.22 
   8  -6   6    0.04    0.25 
  10   5  -6   -0.05    0.21 
   9   5  -6    1.78    0.26 
   9   5  -6    1.80    0.31 
   8   5  -6    2.63    0.34 
   8   5  -6    1.81    0.25 
   7   5  -6    0.35    0.15 
   7   5  -6    0.56    0.20 
   6   5  -6    1.77    0.22 
   6   5  -6    2.17    0.28 
   5   5  -6    0.24    0.15 
   5   5  -6    0.21    0.11 
   4   5  -6    3.21    0.26 
   4   5  -6    3.55    0.30 
   3   5  -6    0.96    0.16 
   3   5  -6    0.41    0.13 
   2   5  -6   -0.03    0.08 
   2   5  -6    0.06    0.09 
  -2  -5   6    0.03    0.07 
   1   5  -6    0.09    0.09 
   1   5  -6    0.20    0.09 
  -1  -5   6    0.30    0.09 
   0   5  -6    6.16    0.31 
   0   5  -6    6.48    0.33 
   0  -5   6    5.69    0.33 
  -1   5  -6   -0.05    0.07 
   1  -5   6    0.12    0.08 
  -2   5  -6   -0.07    0.06 
   2  -5   6   -0.03    0.11 
  -3   5  -6    2.64    0.18 
   3  -5   6    3.21    0.32 
   4  -5   6    3.48    0.36 
   5  -5   6    2.40    0.31 
   6  -5   6    3.30    0.38 
   7  -5   6    0.11    0.17 
   8  -5   6   -0.17    0.21 
  10   4  -6    0.21    0.24 
   9   4  -6    1.18    0.28 
   9   4  -6    1.16    0.22 
   8   4  -6    1.44    0.22 
   8   4  -6    1.28    0.27 
   7   4  -6    3.48    0.35 
   7   4  -6    3.10    0.27 
   6   4  -6    0.11    0.14 
   6   4  -6    0.15    0.10 
   5   4  -6    0.61    0.18 
   4   4  -6    1.74    0.22 
   3   4  -6    1.55    0.19 
   2   4  -6    1.83    0.19 
  -2  -4   6    1.63    0.13 
   1   4  -6    3.68    0.24 
  -1  -4   6    3.41    0.21 
   0   4  -6    2.43    0.18 
   0  -4   6    2.33    0.20 
  -1   4  -6    0.35    0.09 
   1  -4   6    0.34    0.10 
  -2   4  -6    0.06    0.07 
   2  -4   6    0.06    0.08 
  -3   4  -6    0.05    0.06 
   3  -4   6    0.06    0.11 
   4  -4   6    1.04    0.20 
   5  -4   6    1.37    0.24 
   6  -4   6   13.99    0.74 
   7  -4   6    0.33    0.20 
   8  -4   6    0.48    0.25 
   9  -4   6    0.13    0.25 
  10   3  -6    2.52    0.41 
   9   3  -6    0.31    0.20 
   8   3  -6    0.70    0.16 
   8   3  -6    0.43    0.19 
   7   3  -6    0.14    0.15 
   6   3  -6    5.01    0.38 
   5   3  -6    0.99    0.20 
   4   3  -6    5.85    0.35 
   3   3  -6    3.30    0.25 
   2   3  -6    2.21    0.20 
  -2  -3   6    2.67    0.15 
   1   3  -6    3.02    0.21 
  -1  -3   6    2.89    0.18 
   0   3  -6    3.48    0.22 
   0  -3   6    3.60    0.22 
   1  -3   6    6.81    0.35 
   2  -3   6    0.66    0.13 
  -3   3  -6    5.49    0.25 
   3  -3   6    5.70    0.36 
   4  -3   6    0.04    0.11 
   5  -3   6    0.16    0.15 
   6  -3   6    0.32    0.17 
   7  -3   6    0.65    0.20 
   8  -3   6    0.33    0.21 
   9  -3   6    1.39    0.31 
  10   2  -6    0.29    0.23 
   9   2  -6    2.25    0.35 
   8   2  -6    4.49    0.42 
   7   2  -6    2.17    0.30 
   6   2  -6    1.96    0.28 
   5   2  -6    1.14    0.20 
   4   2  -6    6.04    0.36 
   3   2  -6   -0.06    0.08 
   2   2  -6   72.45    2.43 
   2   2  -6   73.71    2.34 
   1   2  -6   11.77    0.50 
   1  -2   6    0.08    0.05 
   2  -2   6    1.57    0.18 
   3  -2   6    2.74    0.24 
   4  -2   6    1.18    0.20 
   5  -2   6    1.93    0.27 
   6  -2   6    0.00    0.13 
   7  -2   6    0.75    0.20 
   8  -2   6    3.38    0.39 
   9  -2   6    3.09    0.40 
   9  -2   6    4.01    0.44 
 -10   2  -6    0.98    0.27 
  10  -2   6    1.09    0.31 
  10   1  -6    2.28    0.39 
   9   1  -6    0.24    0.20 
   8   1  -6    0.43    0.20 
   7   1  -6    0.23    0.16 
   6   1  -6    2.29    0.29 
   5   1  -6    2.46    0.26 
   4   1  -6    1.43    0.19 
   3   1  -6    4.99    0.30 
   2   1  -6    4.23    0.18 
   2   1  -6    4.49    0.26 
   1   1  -6    1.13    0.09 
   1   1  -6    1.05    0.14 
   0   1  -6    4.05    0.21 
   1  -1   6    0.78    0.11 
   2  -1   6    3.61    0.24 
   3  -1   6    0.28    0.09 
   4  -1   6    0.39    0.11 
   5  -1   6    4.19    0.33 
   6  -1   6   12.60    0.65 
   7  -1   6    1.39    0.24 
   7  -1   6    1.11    0.22 
  -8   1  -6    2.29    0.31 
   8  -1   6    2.90    0.34 
  -9   1  -6    1.71    0.29 
   9  -1   6    2.19    0.34 
 -10   1  -6    0.08    0.18 
  10  -1   6    0.11    0.22 
  10   0  -6    0.45    0.21 
   9   0  -6    0.56    0.22 
   8   0  -6    1.41    0.27 
   7   0  -6    2.68    0.32 
   6   0  -6    1.37    0.25 
   5   0  -6    1.76    0.23 
   4   0  -6    7.07    0.39 
   3   0  -6    1.55    0.18 
   2   0  -6   52.94    1.73 
   2   0  -6   53.98    1.82 
   1   0  -6    0.06    0.07 
   1   0  -6   -0.04    0.03 
   0   0  -6    0.51    0.08 
  -1   0  -6    2.99    0.19 
  -2   0  -6    1.67    0.16 
  -3   0  -6   24.38    0.91 
  -4   0  -6    0.21    0.09 
  -5   0  -6    5.02    0.32 
  -6   0  -6    1.38    0.21 
  -7   0  -6   23.47    0.98 
   7   0   6   23.43    1.01 
  -8   0  -6    0.28    0.14 
   8   0   6    0.42    0.17 
  -9   0  -6    1.62    0.28 
   9   0   6    1.67    0.29 
 -10   0  -6    0.75    0.24 
  10   0   6    1.01    0.28 
 -11   0  -6    2.31    0.38 
  11   0   6    2.65    0.44 
  10  -1  -6    0.90    0.26 
   9  -1  -6    0.59    0.21 
   8  -1  -6    1.78    0.29 
   7  -1  -6    1.05    0.22 
   6  -1  -6    0.08    0.15 
   5  -1  -6    0.61    0.16 
   4  -1  -6    0.12    0.09 
   4  -1  -6    0.16    0.05 
   3  -1  -6    9.02    0.44 
   3  -1  -6    9.70    0.36 
   2  -1  -6    1.22    0.15 
   2  -1  -6    1.17    0.10 
   1  -1  -6    9.82    0.43 
   1  -1  -6    9.45    0.38 
   0  -1  -6    0.22    0.07 
  -1  -1  -6   25.93    0.92 
  -2  -1  -6    1.88    0.17 
  -3  -1  -6    2.35    0.19 
  -4  -1  -6    4.86    0.29 
  -5  -1  -6    3.44    0.26 
  -6  -1  -6   18.04    0.76 
   6   1   6   17.06    0.78 
  -7  -1  -6    0.12    0.12 
   7   1   6    0.28    0.15 
  -8  -1  -6    0.20    0.13 
   8   1   6    0.22    0.14 
  -9  -1  -6   -0.08    0.12 
   9   1   6    0.28    0.18 
 -10  -1  -6    0.64    0.21 
  10   1   6    0.61    0.23 
 -11  -1  -6    0.80    0.27 
  11   1   6    0.46    0.27 
  10  -2  -6    0.10    0.18 
   9  -2  -6    0.74    0.23 
   8  -2  -6    2.10    0.31 
   7  -2  -6    2.36    0.30 
   6  -2  -6    2.44    0.30 
   5  -2  -6    2.56    0.17 
   5  -2  -6    2.22    0.26 
   4  -2  -6   12.56    0.49 
   4  -2  -6   12.40    0.56 
   3  -2  -6    0.06    0.05 
   3  -2  -6    0.25    0.09 
   2  -2  -6    2.55    0.16 
   2  -2  -6    2.36    0.18 
   1  -2  -6    0.91    0.10 
   1  -2  -6    1.36    0.14 
   0  -2  -6    2.38    0.16 
  -1  -2  -6    2.22    0.16 
  -2  -2  -6   10.55    0.46 
  -3  -2  -6    0.10    0.07 
  -4  -2  -6    8.69    0.43 
  -5  -2  -6    6.29    0.37 
  -6  -2  -6    0.51    0.16 
   6   2   6    0.32    0.14 
  -7  -2  -6    0.12    0.11 
   7   2   6    0.06    0.12 
  -8  -2  -6    0.04    0.11 
   8   2   6   -0.03    0.13 
  -9  -2  -6    0.04    0.14 
   9   2   6    0.35    0.18 
 -10  -2  -6    0.07    0.16 
  10   2   6    0.33    0.19 
 -11  -2  -6    0.39    0.23 
  11   2   6    0.43    0.25 
  10  -3  -6    0.60    0.25 
   9  -3  -6    0.13    0.16 
   8  -3  -6   -0.04    0.15 
   7  -3  -6    1.81    0.27 
   6  -3  -6    3.02    0.32 
   5  -3  -6    1.50    0.15 
   5  -3  -6    1.00    0.20 
   4  -3  -6    1.16    0.13 
   4  -3  -6    1.20    0.18 
   3  -3  -6    0.75    0.13 
   3  -3  -6    0.74    0.11 
   2  -3  -6    1.08    0.14 
   2  -3  -6    1.41    0.13 
   1  -3  -6   59.72    1.99 
   1  -3  -6   60.15    2.00 
   0  -3  -6    8.04    0.37 
  -1  -3  -6   40.66    1.40 
  -2  -3  -6   12.02    0.51 
  -3  -3  -6   -0.04    0.06 
  -4  -3  -6    0.40    0.10 
  -5  -3  -6   21.76    0.87 
  -6  -3  -6   24.85    0.98 
   6   3   6   24.56    1.00 
  -7  -3  -6    1.72    0.23 
   7   3   6    1.67    0.25 
  -8  -3  -6    0.83    0.19 
   8   3   6    0.80    0.20 
  -9  -3  -6    1.59    0.26 
   9   3   6    2.65    0.35 
 -10  -3  -6    0.35    0.18 
  10   3   6    0.68    0.23 
 -11  -3  -6   -0.14    0.19 
  11   3   6   -0.15    0.21 
  10  -4  -6    0.67    0.28 
   9  -4  -6    0.08    0.18 
   8  -4  -6    2.56    0.33 
   7  -4  -6    1.20    0.23 
   6  -4  -6   18.36    0.77 
   6  -4  -6   19.18    0.85 
   5  -4  -6    1.02    0.15 
   5  -4  -6    0.97    0.20 
   4  -4  -6    1.47    0.16 
   4  -4  -6    1.57    0.20 
   3  -4  -6    0.75    0.12 
   3  -4  -6    0.67    0.13 
   2  -4  -6   26.61    1.00 
   2  -4  -6   28.29    1.01 
   1  -4  -6   10.33    0.45 
   1  -4  -6   10.21    0.44 
   0  -4  -6    5.55    0.28 
   0  -4  -6    5.61    0.29 
  -1  -4  -6    0.86    0.13 
  -2  -4  -6   17.98    0.72 
  -3  -4  -6    1.71    0.18 
  -4  -4  -6    0.33    0.09 
  -5  -4  -6    0.04    0.10 
  -6  -4  -6    0.17    0.13 
   6   4   6    0.06    0.10 
  -7  -4  -6    4.88    0.35 
   7   4   6    5.38    0.38 
  -8  -4  -6    1.54    0.24 
   8   4   6    1.26    0.24 
  -9  -4  -6    0.94    0.22 
   9   4   6    0.89    0.22 
 -10  -4  -6    0.50    0.20 
  10   4   6    0.26    0.20 
 -11  -4  -6    0.08    0.20 
  11   4   6    0.56    0.26 
   9  -5  -6    1.61    0.30 
   8  -5  -6    1.55    0.27 
   7  -5  -6    0.94    0.22 
   6  -5  -6    2.50    0.29 
   6  -5  -6    2.65    0.27 
   5  -5  -6    4.33    0.29 
   5  -5  -6    3.93    0.34 
   4  -5  -6    0.12    0.09 
   4  -5  -6    0.11    0.10 
   3  -5  -6    0.40    0.11 
   3  -5  -6    0.42    0.11 
   2  -5  -6    1.18    0.14 
   2  -5  -6    0.95    0.14 
   1  -5  -6   11.49    0.52 
   1  -5  -6   12.26    0.50 
   0  -5  -6    3.98    0.22 
   0  -5  -6    4.06    0.26 
  -1  -5  -6   -0.04    0.06 
  -2  -5  -6    0.18    0.09 
  -3  -5  -6    1.31    0.17 
  -4  -5  -6    8.67    0.44 
  -5  -5  -6    7.64    0.43 
  -6  -5  -6   17.06    0.75 
  -7  -5  -6    0.26    0.14 
   7   5   6    0.24    0.14 
  -8  -5  -6    4.10    0.35 
   8   5   6    4.12    0.39 
  -9  -5  -6    0.15    0.16 
   9   5   6    0.07    0.14 
 -10  -5  -6   -0.06    0.16 
  10   5   6   -0.14    0.17 
 -11  -5  -6    0.60    0.24 
  11   5   6    0.40    0.26 
   9  -6  -6    0.61    0.24 
   8  -6  -6    0.71    0.22 
   7  -6  -6    0.36    0.17 
   7  -6  -6    0.37    0.18 
   6  -6  -6    4.08    0.36 
   6  -6  -6    4.29    0.34 
   5  -6  -6    7.93    0.46 
   5  -6  -6    7.53    0.45 
   4  -6  -6    1.41    0.20 
   4  -6  -6    1.49    0.20 
   3  -6  -6    1.69    0.20 
   3  -6  -6    1.76    0.19 
   2  -6  -6    0.08    0.07 
   2  -6  -6    0.04    0.07 
   1  -6  -6    0.35    0.09 
   1  -6  -6    0.20    0.09 
   0  -6  -6    0.06    0.05 
   0  -6  -6   -0.01    0.07 
  -1  -6  -6   11.03    0.51 
  -2  -6  -6    4.05    0.27 
  -3  -6  -6    0.02    0.06 
  -4  -6  -6    0.32    0.13 
  -5  -6  -6    3.75    0.32 
  -6  -6  -6   -0.03    0.12 
  -7  -6  -6    8.48    0.50 
   7   6   6    9.72    0.52 
  -8  -6  -6    0.12    0.15 
   8   6   6   -0.09    0.11 
  -9  -6  -6    3.40    0.34 
   9   6   6    2.94    0.36 
 -10  -6  -6    2.06    0.31 
  10   6   6    1.72    0.32 
 -11  -6  -6    0.19    0.24 
  11   6   6    0.25    0.26 
   7  -7  -6    0.76    0.22 
   7  -7  -6    0.93    0.22 
   6  -7  -6   -0.02    0.13 
   6  -7  -6   -0.04    0.12 
   5  -7  -6    0.22    0.14 
   5  -7  -6    0.41    0.15 
   4  -7  -6    1.88    0.25 
   4  -7  -6    2.13    0.23 
   3  -7  -6    2.57    0.23 
   3  -7  -6    2.58    0.27 
   2  -7  -6   20.53    0.86 
   1  -7  -6    6.17    0.37 
   1  -7  -6    6.31    0.31 
   0  -7  -6    6.37    0.39 
   0  -7  -6    7.37    0.33 
  -1  -7  -6    1.11    0.18 
  -2  -7  -6   17.31    0.75 
  -3  -7  -6    0.22    0.12 
  -4  -7  -6    0.32    0.14 
  -5  -7  -6   12.55    0.62 
  -6  -7  -6    5.26    0.38 
  -7  -7  -6    0.06    0.15 
  -8  -7  -6    2.60    0.31 
   8   7   6    2.19    0.29 
  -9  -7  -6    0.26    0.19 
   9   7   6   -0.16    0.14 
 -10  -7  -6    0.09    0.20 
  10   7   6   -0.10    0.18 
  11   7   6    1.38    0.36 
   7  -8  -6   -0.22    0.16 
   6  -8  -6    0.03    0.15 
   5  -8  -6   -0.01    0.13 
   4  -8  -6    0.58    0.16 
   3  -8  -6    1.60    0.24 
   2  -8  -6    1.59    0.17 
   2  -8  -6    1.82    0.24 
   1  -8  -6    0.04    0.07 
   1  -8  -6   -0.06    0.09 
   0  -8  -6    7.60    0.34 
   0  -8  -6    7.45    0.44 
  -1  -8  -6    2.31    0.26 
  -1  -8  -6    2.46    0.17 
  -2  -8  -6    0.45    0.15 
  -3  -8  -6    0.08    0.13 
  -4  -8  -6    7.89    0.46 
  -5  -8  -6    2.68    0.29 
  -6  -8  -6    0.23    0.16 
  -7  -8  -6    0.04    0.15 
  -8  -8  -6    2.13    0.30 
  -9  -8  -6    0.75    0.23 
   9   8   6    0.76    0.22 
 -10  -8  -6   -0.11    0.20 
  10   8   6    0.21    0.21 
   7  -9  -6    0.21    0.22 
   6  -9  -6    0.08    0.17 
   5  -9  -6    2.18    0.32 
   4  -9  -6   -0.06    0.13 
   3  -9  -6    0.95    0.20 
   2  -9  -6    1.71    0.26 
   1  -9  -6    0.69    0.18 
   0  -9  -6    0.10    0.11 
  -1  -9  -6    0.99    0.20 
  -2  -9  -6   24.86    1.04 
  -3  -9  -6    2.75    0.30 
  -4  -9  -6    1.85    0.27 
  -5  -9  -6    6.78    0.45 
  -6  -9  -6    4.41    0.39 
  -7  -9  -6    0.91    0.22 
  -8  -9  -6   -0.02    0.17 
  -9  -9  -6    0.96    0.26 
 -10  -9  -6    0.04    0.28 
  10   9   6    0.11    0.24 
   6 -10  -6    3.38    0.42 
   5 -10  -6    0.41    0.20 
   4 -10  -6    0.09    0.15 
   3 -10  -6    0.93    0.23 
   2 -10  -6    2.22    0.30 
   1 -10  -6    4.28    0.38 
   0 -10  -6    2.56    0.31 
  -1 -10  -6    1.03    0.21 
  -2 -10  -6    3.77    0.35 
  -3 -10  -6    4.22    0.38 
  -4 -10  -6    1.01    0.21 
  -5 -10  -6    1.06    0.25 
  -6 -10  -6    5.30    0.42 
  -7 -10  -6    0.33    0.20 
  -8 -10  -6   -0.04    0.18 
  -9 -10  -6    0.29    0.23 
   5 -11  -6    1.56    0.33 
   4 -11  -6    0.01    0.18 
   3 -11  -6    0.26    0.19 
   2 -11  -6    1.18    0.25 
   1 -11  -6    1.86    0.30 
   0 -11  -6    4.29    0.41 
  -1 -11  -6    0.24    0.15 
  -2 -11  -6   -0.04    0.13 
  -3 -11  -6    0.08    0.14 
  -4 -11  -6    3.79    0.38 
  -5 -11  -6   -0.02    0.16 
  -6 -11  -6    0.34    0.19 
  -7 -11  -6    0.60    0.24 
  -8 -11  -6    0.62    0.26 
  -9 -11  -6    0.26    0.29 
   4 -12  -6    0.90    0.30 
   3 -12  -6    0.81    0.27 
   2 -12  -6    0.15    0.19 
   1 -12  -6   -0.05    0.17 
   0 -12  -6    1.24    0.27 
  -1 -12  -6    2.00    0.31 
  -2 -12  -6    0.50    0.18 
  -3 -12  -6    0.57    0.21 
  -4 -12  -6    1.04    0.26 
  -5 -12  -6    1.25    0.28 
  -6 -12  -6    0.93    0.27 
  -7 -12  -6    1.17    0.29 
  -8 -12  -6    1.66    0.36 
   3 -13  -6   -0.04    0.23 
   2 -13  -6    0.30    0.24 
   1 -13  -6    0.52    0.24 
   0 -13  -6    0.67    0.25 
  -1 -13  -6    0.69    0.23 
  -2 -13  -6    2.77    0.38 
  -3 -13  -6    0.06    0.17 
  -4 -13  -6    0.44    0.22 
  -5 -13  -6   -0.13    0.19 
  -6 -13  -6    0.04    0.24 
  -7 -13  -6    0.57    0.27 
   1 -14  -6   -0.02    0.23 
   0 -14  -6    0.92    0.30 
  -1 -14  -6   -0.01    0.22 
  -2 -14  -6    0.76    0.28 
  -3 -14  -6    0.03    0.23 
  -4 -14  -6    0.48    0.27 
  -5 -14  -6    0.19    0.25 
   5  10  -7    1.43    0.30 
   4  10  -7    0.36    0.23 
   3  10  -7    0.29    0.20 
   2  10  -7   -0.02    0.16 
   1  10  -7    0.98    0.23 
   0  10  -7    0.20    0.17 
   2 -10   7    0.22    0.29 
   6   9  -7    0.13    0.17 
   5   9  -7    0.17    0.17 
   4   9  -7    0.03    0.15 
   3   9  -7    1.01    0.23 
   2   9  -7    0.92    0.22 
   1   9  -7    0.01    0.13 
   0   9  -7   -0.06    0.12 
  -1   9  -7    1.44    0.23 
   1  -9   7    1.20    0.29 
   2  -9   7    0.50    0.24 
   3  -9   7    0.32    0.26 
   4  -9   7    0.97    0.33 
   7   8  -7    1.04    0.24 
   6   8  -7   -0.05    0.13 
   5   8  -7    0.28    0.15 
   4   8  -7    1.32    0.24 
   3   8  -7    1.95    0.26 
   2   8  -7    0.33    0.14 
   1   8  -7    0.36    0.16 
   0   8  -7    1.55    0.22 
  -1   8  -7    0.41    0.14 
   1  -8   7    0.40    0.20 
   2  -8   7    1.37    0.28 
   3  -8   7    0.14    0.21 
   4  -8   7    0.67    0.26 
   5  -8   7    1.16    0.31 
   8   7  -7   -0.18    0.15 
   7   7  -7    0.04    0.14 
   6   7  -7    0.28    0.15 
   5   7  -7   -0.16    0.10 
   4   7  -7    0.86    0.19 
   3   7  -7    0.06    0.11 
   2   7  -7    3.57    0.30 
   1   7  -7    1.20    0.19 
   0   7  -7    1.35    0.19 
   0  -7   7    1.37    0.24 
  -1   7  -7    0.46    0.14 
   1  -7   7    0.45    0.18 
  -2   7  -7    0.31    0.13 
   2  -7   7    0.08    0.16 
   3  -7   7    1.85    0.30 
   4  -7   7    1.05    0.27 
   5  -7   7    0.11    0.20 
   6  -7   7    0.17    0.25 
   9   6  -7    0.62    0.27 
   9   6  -7    0.23    0.19 
   8   6  -7    0.06    0.15 
   8   6  -7   -0.02    0.20 
   7   6  -7    0.58    0.18 
   7   6  -7    0.76    0.23 
   6   6  -7    0.19    0.12 
   6   6  -7    0.08    0.16 
   5   6  -7    0.37    0.18 
   5   6  -7    0.52    0.16 
   4   6  -7    0.26    0.12 
   4   6  -7    0.40    0.16 
   3   6  -7    1.96    0.23 
   3   6  -7    2.00    0.23 
   2   6  -7    0.25    0.12 
   2   6  -7    0.23    0.11 
   1   6  -7    2.65    0.25 
   0   6  -7    0.25    0.11 
   0  -6   7   -0.10    0.12 
  -1   6  -7    4.50    0.28 
   1  -6   7    3.85    0.35 
  -2   6  -7    1.34    0.17 
   2  -6   7    0.88    0.22 
   3  -6   7    8.59    0.54 
   4  -6   7    3.82    0.40 
   5  -6   7    0.04    0.18 
   6  -6   7    0.08    0.19 
   7  -6   7    0.88    0.29 
   9   5  -7   -0.15    0.14 
   9   5  -7    0.27    0.24 
   8   5  -7    3.19    0.40 
   8   5  -7    3.44    0.33 
   7   5  -7    0.83    0.22 
   7   5  -7    0.53    0.17 
   6   5  -7    0.15    0.12 
   6   5  -7    0.09    0.16 
   5   5  -7    1.66    0.22 
   5   5  -7    1.68    0.25 
   4   5  -7    0.54    0.13 
   4   5  -7    0.32    0.16 
   3   5  -7    6.56    0.38 
   3   5  -7    6.37    0.36 
   2   5  -7   24.73    0.96 
   2   5  -7   25.14    0.92 
   1   5  -7    5.60    0.32 
   1   5  -7    4.95    0.31 
  -1  -5   7    5.97    0.32 
   0   5  -7    0.29    0.11 
   0   5  -7    0.06    0.09 
   0  -5   7    0.27    0.09 
  -1   5  -7    0.35    0.10 
   1  -5   7    0.65    0.17 
  -2   5  -7   11.43    0.49 
   2  -5   7   12.40    0.61 
  -3   5  -7    0.56    0.11 
   3  -5   7    0.86    0.21 
   4  -5   7    2.78    0.33 
   6  -5   7    0.62    0.23 
   7  -5   7    0.72    0.26 
   8  -5   7    0.22    0.27 
   9   4  -7    0.15    0.16 
   9   4  -7    0.05    0.21 
   8   4  -7    0.10    0.19 
   8   4  -7    0.01    0.13 
   7   4  -7    2.65    0.34 
   7   4  -7    2.40    0.26 
   6   4  -7   -0.07    0.15 
   5   4  -7    0.15    0.14 
   4   4  -7    0.19    0.13 
   3   4  -7   13.26    0.60 
   2   4  -7   24.78    0.95 
   1   4  -7    9.22    0.45 
  -1  -4   7    9.45    0.42 
   0   4  -7   17.48    0.71 
   0  -4   7   18.07    0.72 
   1  -4   7   15.31    0.67 
  -2   4  -7    0.36    0.09 
   2  -4   7    0.12    0.13 
  -3   4  -7    2.72    0.18 
   3  -4   7    2.93    0.31 
   4  -4   7    1.52    0.25 
   5  -4   7    0.39    0.19 
   6  -4   7    1.93    0.30 
   7  -4   7    0.09    0.18 
   8  -4   7    0.12    0.22 
   9  -4   7    0.24    0.28 
  10   3  -7    0.71    0.30 
   9   3  -7    2.11    0.28 
   9   3  -7    2.37    0.37 
   8   3  -7    1.43    0.28 
   8   3  -7    1.07    0.19 
   7   3  -7    2.01    0.31 
   6   3  -7    0.04    0.14 
   5   3  -7    1.07    0.21 
   4   3  -7    1.13    0.19 
   3   3  -7    4.93    0.32 
   2   3  -7   16.24    0.67 
   1   3  -7    1.43    0.17 
  -1  -3   7    1.24    0.13 
   0   3  -7   12.45    0.50 
   0  -3   7    9.16    0.46 
   1  -3   7    8.93    0.44 
   2  -3   7    0.24    0.09 
   3  -3   7    1.78    0.23 
   4  -3   7    4.08    0.36 
   5  -3   7   -0.11    0.12 
   6  -3   7    1.00    0.24 
   7  -3   7    0.10    0.18 
   8  -3   7   -0.09    0.18 
   9  -3   7    0.20    0.26 
  10   2  -7    0.08    0.24 
   9   2  -7    0.04    0.20 
   8   2  -7   -0.05    0.17 
   7   2  -7    0.76    0.22 
   6   2  -7    4.91    0.40 
   5   2  -7    2.09    0.26 
   4   2  -7    3.79    0.30 
   3   2  -7    7.82    0.42 
   2   2  -7   19.78    0.68 
   2   2  -7   19.46    0.78 
   1   2  -7    0.85    0.14 
   1   2  -7    1.05    0.11 
   0   2  -7    0.93    0.14 
   1  -2   7    2.43    0.19 
   2  -2   7    0.23    0.09 
   3  -2   7    5.53    0.36 
   4  -2   7    0.80    0.18 
   5  -2   7    3.68    0.35 
   6  -2   7    7.68    0.50 
   7  -2   7    0.09    0.16 
   8  -2   7   -0.10    0.15 
  -9   2  -7    0.01    0.18 
 -10   2  -7    1.78    0.35 
  10   1  -7    0.88    0.28 
   9   1  -7    1.48    0.32 
   8   1  -7    0.35    0.20 
   7   1  -7    1.11    0.25 
   6   1  -7    1.77    0.26 
   5   1  -7    0.57    0.18 
   4   1  -7    0.07    0.11 
   3   1  -7    3.45    0.26 
   2   1  -7    4.06    0.19 
   2   1  -7    3.63    0.25 
   1   1  -7    7.76    0.39 
   1   1  -7    8.05    0.33 
   0   1  -7    2.54    0.20 
   0   1  -7    2.93    0.19 
  -1   1  -7    0.64    0.11 
  -2   1  -7    7.06    0.36 
   3  -1   7    3.82    0.27 
   4  -1   7    2.73    0.28 
   5  -1   7   -0.03    0.11 
   6  -1   7    1.02    0.21 
  -7   1  -7    2.16    0.29 
  -8   1  -7    0.15    0.14 
  -9   1  -7   -0.01    0.14 
 -10   1  -7    2.69    0.40 
  10   0  -7    0.10    0.21 
   9   0  -7    5.51    0.50 
   8   0  -7    1.67    0.31 
   7   0  -7    1.32    0.26 
   6   0  -7    0.33    0.16 
   5   0  -7    0.07    0.13 
   4   0  -7    1.38    0.19 
   3   0  -7    1.53    0.19 
   2   0  -7    1.96    0.13 
   2   0  -7    1.83    0.19 
   1   0  -7   15.05    0.61 
   1   0  -7   14.27    0.54 
   0   0  -7   24.45    0.87 
  -1   0  -7    1.77    0.16 
  -2   0  -7    1.76    0.17 
  -3   0  -7    4.38    0.28 
  -4   0  -7   24.44    0.96 
  -5   0  -7    0.21    0.11 
  -6   0  -7    3.68    0.32 
  -7   0  -7    2.62    0.29 
  -8   0  -7    8.41    0.52 
  -9   0  -7    0.53    0.21 
 -10   0  -7    0.47    0.21 
  10  -1  -7   -0.03    0.19 
   9  -1  -7   -0.05    0.16 
   8  -1  -7    7.37    0.51 
   7  -1  -7   -0.04    0.15 
   6  -1  -7    0.07    0.14 
   5  -1  -7    0.44    0.17 
   4  -1  -7    0.04    0.11 
   3  -1  -7    1.57    0.11 
   3  -1  -7    1.30    0.18 
   2  -1  -7    3.79    0.25 
   2  -1  -7    3.36    0.18 
   1  -1  -7    1.40    0.13 
   1  -1  -7    1.77    0.18 
   0  -1  -7    0.01    0.05 
  -1  -1  -7   10.83    0.46 
  -2  -1  -7    2.50    0.20 
  -3  -1  -7    1.55    0.18 
  -4  -1  -7    6.39    0.36 
  -5  -1  -7    8.62    0.46 
  -6  -1  -7    3.90    0.31 
  -7  -1  -7   10.52    0.56 
  -8  -1  -7    3.32    0.34 
  -9  -1  -7    0.53    0.19 
   9   1   7    0.34    0.20 
 -10  -1  -7    0.95    0.26 
  10   1   7    0.53    0.25 
  10  -2  -7    0.34    0.21 
   9  -2  -7    0.18    0.18 
   8  -2  -7    0.49    0.19 
   7  -2  -7   13.71    0.72 
   6  -2  -7    0.28    0.16 
   5  -2  -7    1.47    0.23 
   4  -2  -7    0.01    0.11 
   4  -2  -7    0.00    0.05 
   3  -2  -7   13.79    0.53 
   3  -2  -7   13.77    0.60 
   2  -2  -7    0.68    0.09 
   2  -2  -7    0.52    0.11 
   1  -2  -7   11.67    0.51 
   1  -2  -7   11.83    0.47 
   0  -2  -7    8.43    0.37 
  -1  -2  -7   18.56    0.71 
  -2  -2  -7   95.04    3.13 
  -3  -2  -7    0.63    0.12 
  -4  -2  -7    0.27    0.10 
  -5  -2  -7    0.29    0.12 
  -6  -2  -7   69.27    2.41 
  -7  -2  -7   -0.09    0.11 
  -8  -2  -7    1.58    0.25 
   8   2   7    1.21    0.25 
  -9  -2  -7    0.21    0.16 
   9   2   7    0.44    0.19 
 -10  -2  -7    1.83    0.31 
  10   2   7    1.36    0.29 
 -11  -2  -7    0.50    0.24 
  11   2   7    0.17    0.26 
  10  -3  -7    0.84    0.28 
   9  -3  -7    0.12    0.18 
   8  -3  -7    0.09    0.18 
   7  -3  -7    7.44    0.50 
   6  -3  -7    1.74    0.27 
   5  -3  -7    0.30    0.17 
   4  -3  -7    0.74    0.12 
   4  -3  -7    0.86    0.18 
   3  -3  -7    4.33    0.24 
   3  -3  -7    4.03    0.27 
   2  -3  -7    0.47    0.11 
   2  -3  -7    0.34    0.09 
   1  -3  -7    1.65    0.15 
   1  -3  -7    1.91    0.18 
   0  -3  -7   51.49    1.73 
   0  -3  -7   49.48    1.71 
  -1  -3  -7   31.48    1.13 
  -2  -3  -7   -0.05    0.05 
  -3  -3  -7   18.70    0.75 
  -4  -3  -7   11.81    0.55 
  -5  -3  -7    1.09    0.19 
  -6  -3  -7   22.23    0.92 
  -7  -3  -7    4.76    0.35 
  -8  -3  -7    0.26    0.14 
   8   3   7    0.18    0.15 
  -9  -3  -7    0.18    0.16 
   9   3   7    0.15    0.16 
 -10  -3  -7    1.08    0.25 
  10   3   7    0.79    0.26 
 -11  -3  -7   -0.13    0.21 
  11   3   7    0.04    0.23 
   9  -4  -7    0.48    0.23 
   8  -4  -7    3.14    0.37 
   7  -4  -7    2.52    0.32 
   6  -4  -7    0.11    0.16 
   5  -4  -7    2.22    0.26 
   5  -4  -7    2.10    0.20 
   4  -4  -7    3.66    0.24 
   4  -4  -7    3.77    0.30 
   3  -4  -7    0.63    0.12 
   3  -4  -7    0.59    0.13 
   2  -4  -7    0.14    0.08 
   2  -4  -7    0.08    0.07 
   1  -4  -7    2.57    0.20 
   1  -4  -7    2.79    0.20 
   0  -4  -7    2.51    0.19 
   0  -4  -7    2.82    0.20 
  -1  -4  -7    0.04    0.07 
  -2  -4  -7   16.09    0.67 
  -3  -4  -7    1.66    0.19 
  -4  -4  -7   51.42    1.81 
  -5  -4  -7   11.18    0.55 
  -6  -4  -7    0.07    0.14 
  -7  -4  -7    0.84    0.18 
  -8  -4  -7    0.24    0.14 
   8   4   7    0.51    0.19 
  -9  -4  -7    0.30    0.17 
   9   4   7    0.51    0.20 
 -10  -4  -7    0.11    0.19 
  10   4   7   -0.02    0.19 
 -11  -4  -7    0.64    0.26 
  11   4   7    0.41    0.27 
   9  -5  -7    0.05    0.19 
   8  -5  -7    0.58    0.22 
   7  -5  -7    0.46    0.18 
   6  -5  -7    3.68    0.36 
   5  -5  -7    0.71    0.19 
   5  -5  -7    0.40    0.11 
   4  -5  -7    0.30    0.14 
   4  -5  -7    0.23    0.09 
   3  -5  -7    1.61    0.18 
   3  -5  -7    2.06    0.20 
   2  -5  -7    2.80    0.23 
   2  -5  -7    2.62    0.22 
   1  -5  -7   15.19    0.62 
   1  -5  -7   15.62    0.65 
   0  -5  -7    1.90    0.17 
   0  -5  -7    1.87    0.19 
  -1  -5  -7    6.38    0.35 
  -2  -5  -7   10.21    0.49 
  -3  -5  -7    3.16    0.25 
  -4  -5  -7    1.93    0.23 
  -5  -5  -7    0.96    0.19 
  -6  -5  -7    6.43    0.41 
  -7  -5  -7    1.66    0.24 
  -8  -5  -7    0.27    0.16 
  -9  -5  -7    0.73    0.21 
   9   5   7    0.64    0.21 
 -10  -5  -7    1.35    0.28 
  10   5   7    1.34    0.30 
 -11  -5  -7    1.39    0.32 
  11   5   7    0.48    0.29 
   9  -6  -7    1.37    0.30 
   8  -6  -7    0.99    0.25 
   7  -6  -7    0.33    0.17 
   6  -6  -7    0.03    0.13 
   6  -6  -7    0.43    0.18 
   5  -6  -7    0.35    0.18 
   5  -6  -7    0.31    0.13 
   4  -6  -7    1.55    0.22 
   4  -6  -7    1.73    0.22 
   3  -6  -7    0.12    0.10 
   3  -6  -7    0.14    0.09 
   2  -6  -7   14.46    0.60 
   2  -6  -7   13.86    0.62 
   1  -6  -7    8.43    0.43 
   1  -6  -7    8.25    0.40 
   0  -6  -7   16.96    0.71 
   0  -6  -7   16.61    0.66 
  -1  -6  -7    1.10    0.17 
  -2  -6  -7    2.36    0.23 
  -3  -6  -7    2.95    0.27 
  -4  -6  -7    1.00    0.19 
  -5  -6  -7    0.49    0.16 
  -6  -6  -7    0.23    0.15 
  -7  -6  -7    2.03    0.27 
  -8  -6  -7    0.37    0.17 
  -9  -6  -7    0.17    0.17 
   9   6   7    0.01    0.16 
 -10  -6  -7    1.51    0.29 
  10   6   7    1.34    0.31 
 -11  -6  -7    0.14    0.23 
  11   6   7    0.01    0.24 
   8  -7  -7    2.43    0.37 
   7  -7  -7    0.01    0.17 
   6  -7  -7    0.27    0.16 
   6  -7  -7    0.15    0.15 
   5  -7  -7    0.04    0.15 
   5  -7  -7    0.07    0.12 
   4  -7  -7    0.35    0.15 
   4  -7  -7    0.20    0.13 
   3  -7  -7   11.83    0.53 
   3  -7  -7   10.73    0.56 
   2  -7  -7    0.12    0.08 
   2  -7  -7    0.01    0.10 
   1  -7  -7    5.26    0.30 
   1  -7  -7    5.97    0.37 
   0  -7  -7   14.71    0.60 
   0  -7  -7   15.39    0.68 
  -1  -7  -7   12.46    0.60 
  -1  -7  -7   12.14    0.51 
  -2  -7  -7   15.94    0.71 
  -3  -7  -7    0.35    0.14 
  -4  -7  -7    9.73    0.53 
  -5  -7  -7    4.26    0.34 
  -6  -7  -7    4.56    0.36 
  -7  -7  -7    0.28    0.15 
  -8  -7  -7    0.42    0.19 
  -9  -7  -7    0.12    0.18 
 -10  -7  -7    2.81    0.37 
  10   7   7    2.87    0.41 
   6  -8  -7    0.97    0.23 
   5  -8  -7   -0.01    0.12 
   4  -8  -7    0.72    0.18 
   3  -8  -7    1.17    0.17 
   3  -8  -7    1.98    0.26 
   2  -8  -7    1.96    0.18 
   1  -8  -7    3.37    0.23 
   1  -8  -7    3.75    0.30 
   0  -8  -7    0.60    0.11 
   0  -8  -7    0.75    0.18 
  -1  -8  -7    1.06    0.13 
  -1  -8  -7    1.19    0.21 
  -2  -8  -7   24.07    1.01 
  -3  -8  -7    0.53    0.16 
  -4  -8  -7   -0.05    0.11 
  -5  -8  -7    1.48    0.25 
  -6  -8  -7    8.15    0.50 
  -7  -8  -7    3.53    0.36 
  -8  -8  -7    0.00    0.16 
  -9  -8  -7    0.76    0.25 
 -10  -8  -7    0.18    0.22 
   7  -9  -7    0.06    0.23 
   6  -9  -7    0.54    0.22 
   5  -9  -7    1.74    0.29 
   4  -9  -7    0.33    0.16 
   3  -9  -7    3.70    0.36 
   2  -9  -7    0.07    0.13 
   1  -9  -7    0.54    0.17 
   0  -9  -7    5.83    0.41 
  -1  -9  -7    1.19    0.23 
  -2  -9  -7    7.16    0.46 
  -3  -9  -7    3.41    0.34 
  -4  -9  -7   -0.11    0.12 
  -5  -9  -7    0.45    0.17 
  -6  -9  -7    2.79    0.33 
  -7  -9  -7    2.25    0.31 
  -8  -9  -7   -0.02    0.17 
  -9  -9  -7    0.45    0.24 
 -10  -9  -7    1.51    0.34 
   6 -10  -7    0.41    0.24 
   5 -10  -7    0.26    0.20 
   4 -10  -7    0.31    0.17 
   3 -10  -7    0.26    0.15 
   2 -10  -7   -0.18    0.11 
   1 -10  -7    1.04    0.22 
   0 -10  -7    2.82    0.32 
  -1 -10  -7    0.24    0.14 
  -2 -10  -7    1.76    0.27 
  -3 -10  -7    0.10    0.15 
  -4 -10  -7    0.75    0.21 
  -5 -10  -7    2.55    0.33 
  -6 -10  -7    0.15    0.18 
  -7 -10  -7    0.53    0.21 
  -8 -10  -7    0.85    0.25 
  -9 -10  -7    0.44    0.25 
   5 -11  -7    0.09    0.22 
   4 -11  -7    0.66    0.24 
   3 -11  -7    1.88    0.31 
   2 -11  -7    0.74    0.22 
   1 -11  -7    0.16    0.16 
   0 -11  -7    1.82    0.30 
  -1 -11  -7   -0.03    0.13 
  -2 -11  -7    1.02    0.22 
  -3 -11  -7   -0.16    0.13 
  -4 -11  -7    2.34    0.33 
  -5 -11  -7    2.51    0.35 
  -6 -11  -7    0.47    0.23 
  -7 -11  -7   -0.10    0.18 
  -8 -11  -7    0.00    0.21 
  -9 -11  -7    0.81    0.31 
   4 -12  -7    0.69    0.27 
   3 -12  -7    0.32    0.22 
   2 -12  -7    2.41    0.36 
   1 -12  -7    0.24    0.19 
   0 -12  -7    0.24    0.18 
  -1 -12  -7    0.12    0.16 
  -2 -12  -7    0.40    0.18 
  -3 -12  -7    3.63    0.40 
  -4 -12  -7    0.03    0.17 
  -5 -12  -7    1.44    0.29 
  -6 -12  -7    2.02    0.34 
  -7 -12  -7    0.38    0.24 
  -8 -12  -7    0.07    0.26 
   3 -13  -7    0.01    0.26 
   2 -13  -7    1.61    0.35 
   1 -13  -7    0.18    0.22 
   0 -13  -7    0.34    0.24 
  -1 -13  -7    0.29    0.19 
  -2 -13  -7    0.40    0.22 
  -3 -13  -7   -0.05    0.17 
  -4 -13  -7    0.73    0.25 
  -5 -13  -7    0.64    0.26 
  -6 -13  -7    0.32    0.24 
  -7 -13  -7    0.60    0.31 
   0 -14  -7    1.04    0.31 
  -1 -14  -7    0.10    0.23 
  -2 -14  -7   -0.24    0.19 
  -3 -14  -7    0.10    0.23 
  -4 -14  -7    0.13    0.22 
  -5 -14  -7    1.94    0.39 
   3  10  -8    0.45    0.23 
   2  10  -8   -0.06    0.18 
   1  10  -8    0.00    0.17 
   0  10  -8    0.41    0.21 
   5   9  -8   -0.04    0.18 
   4   9  -8    0.13    0.19 
   3   9  -8    0.88    0.25 
   2   9  -8    0.41    0.20 
   1   9  -8    0.33    0.18 
   0   9  -8    0.14    0.16 
  -1   9  -8    0.79    0.22 
   2  -9   8    0.15    0.29 
   3  -9   8   -0.02    0.27 
   6   8  -8    0.97    0.23 
   5   8  -8    1.05    0.23 
   4   8  -8   -0.12    0.14 
   3   8  -8   -0.02    0.13 
   2   8  -8    1.83    0.26 
   1   8  -8    0.70    0.19 
   0   8  -8    0.08    0.13 
  -1   8  -8    0.42    0.16 
   2  -8   8   -0.27    0.19 
   3  -8   8    0.05    0.22 
   4  -8   8   -0.28    0.23 
   7   7  -8    0.22    0.17 
   6   7  -8    0.39    0.18 
   5   7  -8    0.17    0.14 
   4   7  -8    1.60    0.25 
   3   7  -8    0.75    0.19 
   2   7  -8   -0.02    0.11 
   1   7  -8   -0.03    0.11 
   0   7  -8    1.25    0.19 
  -1   7  -8    3.11    0.27 
   1  -7   8    2.76    0.33 
  -2   7  -8    0.78    0.17 
   2  -7   8    0.57    0.22 
   3  -7   8   -0.11    0.19 
   4  -7   8    0.03    0.21 
   5  -7   8    0.08    0.22 
   6  -7   8    0.96    0.33 
   8   6  -8    0.43    0.26 
   8   6  -8    0.27    0.20 
   7   6  -8    0.07    0.14 
   7   6  -8    0.24    0.22 
   6   6  -8    0.05    0.20 
   6   6  -8    0.17    0.14 
   5   6  -8    0.39    0.19 
   5   6  -8    0.71    0.18 
   4   6  -8    2.92    0.29 
   4   6  -8    3.01    0.31 
   3   6  -8    1.64    0.22 
   2   6  -8    0.92    0.19 
   1   6  -8    0.41    0.13 
   0   6  -8   -0.04    0.09 
   0  -6   8    0.10    0.16 
  -1   6  -8    0.55    0.14 
   1  -6   8    0.66    0.20 
  -2   6  -8   -0.05    0.10 
   2  -6   8    0.22    0.16 
   3  -6   8    1.67    0.29 
   4  -6   8    0.23    0.19 
   5  -6   8    6.77    0.54 
   6  -6   8    0.08    0.22 
   7  -6   8    0.79    0.34 
   9   5  -8    0.73    0.29 
   9   5  -8    0.53    0.22 
   8   5  -8    0.83    0.27 
   8   5  -8    0.16    0.16 
   7   5  -8    0.54    0.22 
   7   5  -8    0.76    0.19 
   6   5  -8    0.99    0.24 
   6   5  -8    1.07    0.19 
   5   5  -8    0.08    0.10 
   5   5  -8    0.01    0.15 
   4   5  -8    0.58    0.18 
   4   5  -8    0.63    0.15 
   3   5  -8    0.18    0.13 
   3   5  -8    0.08    0.09 
   2   5  -8    0.50    0.13 
   2   5  -8    0.63    0.15 
   1   5  -8   -0.02    0.09 
   1   5  -8    0.17    0.11 
   0   5  -8    0.21    0.12 
   0   5  -8    0.24    0.10 
   0  -5   8    0.44    0.11 
  -1   5  -8    7.23    0.40 
  -1   5  -8    7.08    0.37 
   1  -5   8    7.43    0.45 
  -2   5  -8    0.94    0.15 
   2  -5   8    0.86    0.21 
   3  -5   8    9.67    0.57 
   4  -5   8    3.06    0.36 
   5  -5   8    1.86    0.31 
   6  -5   8    0.93    0.27 
   7  -5   8    1.07    0.30 
   9   4  -8    0.58    0.21 
   9   4  -8    0.69    0.29 
   8   4  -8    1.92    0.35 
   8   4  -8    1.30    0.23 
   7   4  -8    0.59    0.17 
   7   4  -8    0.27    0.22 
   6   4  -8    0.03    0.17 
   5   4  -8    0.49    0.19 
   4   4  -8    0.10    0.12 
   3   4  -8    2.59    0.26 
   2   4  -8    0.63    0.16 
   1   4  -8    0.57    0.15 
   0   4  -8    3.17    0.24 
   0  -4   8    2.32    0.22 
   1  -4   8    6.41    0.39 
   2  -4   8    8.08    0.47 
  -3   4  -8    4.12    0.25 
   3  -4   8    4.58    0.36 
   4  -4   8    2.05    0.29 
   5  -4   8    3.82    0.41 
   6  -4   8    0.06    0.18 
   7  -4   8    0.12    0.20 
   8  -4   8    1.31    0.34 
   9   3  -8    0.12    0.19 
   9   3  -8    0.31    0.26 
   8   3  -8    0.27    0.22 
   7   3  -8    3.57    0.41 
   6   3  -8   -0.28    0.13 
   5   3  -8    1.31    0.23 
   4   3  -8   -0.17    0.11 
   2   3  -8    1.04    0.18 
   1   3  -8    9.68    0.41 
   1   3  -8    8.79    0.46 
   0   3  -8    1.28    0.17 
   1  -3   8    5.12    0.32 
   2  -3   8    0.09    0.12 
   3  -3   8    4.20    0.36 
   4  -3   8    3.39    0.34 
   5  -3   8    6.66    0.47 
   6  -3   8    0.54    0.20 
   7  -3   8    0.31    0.19 
   8  -3   8   -0.09    0.17 
  -9   3  -8    0.60    0.27 
   9   2  -8    1.15    0.34 
   8   2  -8    0.14    0.20 
   7   2  -8    0.38    0.21 
   6   2  -8    1.13    0.24 
   5   2  -8    1.70    0.25 
   4   2  -8    1.74    0.23 
   3   2  -8    0.63    0.16 
   2   2  -8    1.28    0.19 
   1   2  -8   32.47    1.13 
   1   2  -8   32.64    1.20 
   0   2  -8    0.07    0.08 
   0   2  -8    0.03    0.08 
  -1   2  -8    9.31    0.44 
   2  -2   8    0.81    0.15 
   3  -2   8    0.05    0.11 
   4  -2   8    2.83    0.31 
   5  -2   8    0.72    0.19 
   6  -2   8    7.79    0.52 
  -8   2  -8    0.06    0.16 
  -9   2  -8    0.19    0.19 
   9   1  -8    0.13    0.24 
   8   1  -8    0.30    0.22 
   7   1  -8    2.18    0.33 
   6   1  -8    1.72    0.27 
   5   1  -8    0.09    0.13 
   4   1  -8    1.44    0.22 
   3   1  -8   25.43    1.00 
   2   1  -8    0.03    0.10 
   1   1  -8   14.88    0.63 
   1   1  -8   14.29    0.56 
   0   1  -8    7.17    0.34 
   0   1  -8    6.61    0.37 
  -1   1  -8    1.95    0.18 
  -2   1  -8    3.01    0.23 
  -3   1  -8    2.88    0.25 
  -4   1  -8    4.13    0.30 
  -5   1  -8    3.79    0.33 
  -6   1  -8    2.45    0.28 
  -7   1  -8    1.42    0.25 
  -8   1  -8    0.06    0.14 
  -9   1  -8    0.70    0.23 
 -10   1  -8   -0.05    0.21 
  10   0  -8    0.13    0.26 
   9   0  -8    0.08    0.23 
   8   0  -8    0.46    0.23 
   7   0  -8    4.07    0.42 
   6   0  -8    0.71    0.19 
   5   0  -8    0.23    0.15 
   4   0  -8    0.17    0.13 
   3   0  -8   13.02    0.60 
   2   0  -8    2.99    0.24 
   2   0  -8    3.31    0.18 
   1   0  -8    0.71    0.10 
   1   0  -8    0.69    0.14 
   0   0  -8    1.02    0.15 
   0   0  -8    0.70    0.11 
  -1   0  -8   10.88    0.48 
  -2   0  -8    0.16    0.08 
  -3   0  -8    0.40    0.12 
  -4   0  -8    0.14    0.10 
  -5   0  -8    5.06    0.35 
  -6   0  -8    3.96    0.35 
  -7   0  -8    2.05    0.28 
  -8   0  -8    0.30    0.16 
  -9   0  -8    2.55    0.34 
 -10   0  -8    2.23    0.37 
   9  -1  -8    0.37    0.22 
   8  -1  -8    0.05    0.17 
   7  -1  -8    0.63    0.22 
   6  -1  -8    4.45    0.38 
   5  -1  -8    4.46    0.35 
   4  -1  -8    3.22    0.29 
   3  -1  -8    1.58    0.20 
   2  -1  -8   10.10    0.51 
   2  -1  -8   11.78    0.44 
   1  -1  -8    6.79    0.32 
   1  -1  -8    6.99    0.37 
   0  -1  -8    0.72    0.11 
   0  -1  -8    0.72    0.13 
  -1  -1  -8    0.36    0.10 
  -2  -1  -8    0.42    0.11 
  -3  -1  -8    0.46    0.12 
  -4  -1  -8    7.24    0.41 
  -5  -1  -8    0.01    0.10 
  -6  -1  -8    7.96    0.47 
  -7  -1  -8    9.00    0.53 
  -8  -1  -8    0.13    0.15 
  -9  -1  -8    0.95    0.23 
 -10  -1  -8    0.03    0.21 
   9  -2  -8    1.58    0.32 
   8  -2  -8    1.68    0.30 
   7  -2  -8    0.02    0.17 
   6  -2  -8    3.34    0.34 
   5  -2  -8    8.73    0.50 
   4  -2  -8    5.94    0.37 
   3  -2  -8    5.28    0.34 
   3  -2  -8    4.97    0.25 
   2  -2  -8    0.74    0.14 
   2  -2  -8    1.11    0.13 
   1  -2  -8   18.26    0.68 
   1  -2  -8   17.18    0.72 
   0  -2  -8   22.21    0.87 
   0  -2  -8   22.79    0.84 
  -1  -2  -8   12.15    0.52 
  -2  -2  -8    3.27    0.23 
  -3  -2  -8    0.68    0.14 
  -4  -2  -8   11.32    0.54 
  -5  -2  -8   12.22    0.60 
  -6  -2  -8    2.67    0.29 
  -7  -2  -8    4.11    0.37 
  -8  -2  -8    9.19    0.55 
  -9  -2  -8    0.03    0.16 
 -10  -2  -8    0.81    0.25 
   9  -3  -8   -0.03    0.18 
   8  -3  -8    0.03    0.18 
   7  -3  -8    7.71    0.52 
   6  -3  -8    0.40    0.16 
   5  -3  -8    8.62    0.50 
   4  -3  -8    4.33    0.34 
   3  -3  -8   29.71    1.12 
   3  -3  -8   28.67    1.04 
   2  -3  -8    1.78    0.20 
   2  -3  -8    1.91    0.17 
   1  -3  -8    0.59    0.12 
   1  -3  -8    0.72    0.12 
   0  -3  -8   -0.02    0.05 
   0  -3  -8   -0.01    0.06 
  -1  -3  -8    0.50    0.11 
  -2  -3  -8    3.50    0.25 
  -3  -3  -8    3.04    0.24 
  -4  -3  -8    2.14    0.24 
  -5  -3  -8    9.06    0.49 
  -6  -3  -8    3.99    0.34 
  -7  -3  -8    1.09    0.22 
  -8  -3  -8   -0.04    0.12 
  -9  -3  -8    2.17    0.31 
 -10  -3  -8    0.55    0.23 
   9  -4  -8    0.10    0.19 
   8  -4  -8    1.41    0.29 
   7  -4  -8   -0.07    0.16 
   6  -4  -8    3.80    0.37 
   5  -4  -8    0.84    0.20 
   4  -4  -8    0.41    0.10 
   4  -4  -8    0.36    0.15 
   3  -4  -8    8.60    0.47 
   3  -4  -8    9.38    0.43 
   2  -4  -8   17.03    0.69 
   2  -4  -8   16.99    0.71 
   1  -4  -8    1.00    0.14 
   1  -4  -8    1.06    0.15 
   0  -4  -8    1.10    0.15 
   0  -4  -8    1.26    0.15 
  -1  -4  -8    1.39    0.17 
  -2  -4  -8    3.84    0.26 
  -3  -4  -8    7.79    0.42 
  -4  -4  -8    6.86    0.40 
  -5  -4  -8    5.78    0.38 
  -6  -4  -8   30.01    1.20 
  -7  -4  -8    1.50    0.24 
  -8  -4  -8    0.04    0.14 
  -9  -4  -8    0.45    0.20 
 -10  -4  -8    1.33    0.29 
   9  -5  -8   -0.15    0.21 
   8  -5  -8    0.89    0.25 
   7  -5  -8    5.56    0.44 
   6  -5  -8    0.04    0.15 
   5  -5  -8    3.23    0.25 
   5  -5  -8    3.35    0.32 
   4  -5  -8    0.04    0.12 
   4  -5  -8    0.23    0.09 
   3  -5  -8    0.92    0.17 
   3  -5  -8    1.18    0.16 
   2  -5  -8    0.56    0.13 
   2  -5  -8    0.66    0.14 
   1  -5  -8   14.03    0.60 
   1  -5  -8   13.90    0.60 
   0  -5  -8    7.58    0.40 
   0  -5  -8    7.61    0.39 
  -1  -5  -8    0.89    0.15 
  -2  -5  -8   -0.13    0.06 
  -3  -5  -8    3.65    0.30 
  -4  -5  -8    2.05    0.25 
  -5  -5  -8    0.52    0.17 
  -6  -5  -8    1.20    0.22 
  -7  -5  -8    1.94    0.27 
  -8  -5  -8    0.25    0.16 
  -9  -5  -8    0.20    0.18 
 -10  -5  -8    1.14    0.28 
   8  -6  -8    2.04    0.34 
   7  -6  -8    1.31    0.27 
   6  -6  -8    0.95    0.23 
   5  -6  -8    0.07    0.12 
   5  -6  -8    0.13    0.15 
   4  -6  -8    4.15    0.33 
   4  -6  -8    3.69    0.31 
   3  -6  -8    5.23    0.34 
   3  -6  -8    5.19    0.34 
   2  -6  -8    3.91    0.29 
   2  -6  -8    4.19    0.28 
   1  -6  -8    6.72    0.36 
   1  -6  -8    6.45    0.38 
   0  -6  -8   25.99    1.05 
   0  -6  -8   28.51    1.02 
  -1  -6  -8    2.71    0.25 
  -2  -6  -8    2.94    0.27 
  -3  -6  -8    6.48    0.40 
  -4  -6  -8   17.49    0.79 
  -5  -6  -8    3.29    0.32 
  -6  -6  -8    0.56    0.18 
  -7  -6  -8   -0.10    0.13 
  -8  -6  -8    1.00    0.23 
  -9  -6  -8    0.11    0.18 
 -10  -6  -8    0.19    0.20 
   8  -7  -8    0.22    0.24 
   7  -7  -8    0.51    0.21 
   6  -7  -8    0.55    0.20 
   5  -7  -8    0.38    0.16 
   5  -7  -8    0.58    0.20 
   4  -7  -8    1.54    0.23 
   4  -7  -8    1.35    0.22 
   3  -7  -8    1.84    0.22 
   3  -7  -8    1.95    0.24 
   2  -7  -8   17.71    0.74 
   2  -7  -8   18.13    0.78 
   1  -7  -8   12.41    0.55 
   1  -7  -8   13.01    0.61 
   0  -7  -8    0.66    0.13 
   0  -7  -8    1.32    0.20 
  -1  -7  -8   16.92    0.69 
  -1  -7  -8   17.52    0.77 
  -2  -7  -8    2.48    0.26 
  -3  -7  -8    0.09    0.12 
  -4  -7  -8    5.02    0.37 
  -5  -7  -8    7.18    0.46 
  -6  -7  -8    0.12    0.14 
  -7  -7  -8    2.66    0.33 
  -8  -7  -8    1.00    0.23 
  -9  -7  -8    0.19    0.19 
 -10  -7  -8    1.27    0.29 
   6  -8  -8    0.09    0.16 
   5  -8  -8    0.91    0.22 
   4  -8  -8    1.79    0.25 
   4  -8  -8    2.07    0.27 
   3  -8  -8    1.23    0.23 
   3  -8  -8    1.61    0.22 
   2  -8  -8    4.28    0.34 
   2  -8  -8    3.98    0.27 
   1  -8  -8    0.03    0.07 
   1  -8  -8   -0.03    0.10 
   0  -8  -8   10.58    0.49 
   0  -8  -8   11.40    0.58 
  -1  -8  -8    9.24    0.44 
  -1  -8  -8    9.65    0.53 
  -2  -8  -8   48.45    1.79 
  -3  -8  -8    0.21    0.14 
  -4  -8  -8    0.37    0.16 
  -5  -8  -8    2.10    0.29 
  -6  -8  -8    1.45    0.26 
  -7  -8  -8   -0.04    0.15 
  -8  -8  -8    0.38    0.20 
  -9  -8  -8    0.00    0.19 
 -10  -8  -8    0.25    0.25 
   6  -9  -8   -0.02    0.18 
   5  -9  -8   -0.09    0.14 
   4  -9  -8    3.55    0.36 
   3  -9  -8   -0.05    0.12 
   2  -9  -8    0.03    0.12 
   1  -9  -8    9.21    0.53 
   0  -9  -8    7.30    0.46 
  -1  -9  -8   -0.03    0.12 
  -2  -9  -8    0.16    0.14 
  -3  -9  -8    4.71    0.40 
  -4  -9  -8    0.21    0.15 
  -5  -9  -8    0.75    0.20 
  -6  -9  -8    0.09    0.15 
  -7  -9  -8    0.76    0.23 
  -8  -9  -8    0.44    0.23 
  -9  -9  -8    0.40    0.23 
 -10  -9  -8    0.93    0.31 
   6 -10  -8    1.92    0.36 
   5 -10  -8   -0.03    0.17 
   4 -10  -8    0.50    0.20 
   3 -10  -8    0.93    0.23 
   2 -10  -8    3.20    0.36 
   1 -10  -8    1.20    0.24 
   0 -10  -8    3.12    0.33 
  -1 -10  -8    0.16    0.14 
  -2 -10  -8    0.01    0.13 
  -3 -10  -8    1.81    0.29 
  -4 -10  -8    0.90    0.23 
  -5 -10  -8   -0.01    0.15 
  -6 -10  -8    1.18    0.26 
  -7 -10  -8    1.11    0.26 
  -8 -10  -8    0.01    0.19 
  -9 -10  -8    0.09    0.24 
   5 -11  -8    2.30    0.39 
   4 -11  -8    0.58    0.24 
   3 -11  -8    0.83    0.24 
   2 -11  -8    2.71    0.36 
   1 -11  -8    2.99    0.36 
   0 -11  -8   -0.12    0.12 
  -1 -11  -8    1.35    0.27 
  -2 -11  -8    0.87    0.23 
  -3 -11  -8    0.02    0.15 
  -4 -11  -8    0.05    0.16 
  -5 -11  -8    0.15    0.19 
  -6 -11  -8    2.97    0.39 
  -7 -11  -8    0.71    0.25 
  -8 -11  -8    0.77    0.28 
   4 -12  -8    1.17    0.32 
   3 -12  -8    0.99    0.29 
   2 -12  -8    0.06    0.19 
   1 -12  -8    0.71    0.24 
   0 -12  -8    2.86    0.38 
  -1 -12  -8    0.65    0.23 
  -2 -12  -8    0.24    0.18 
  -3 -12  -8    0.59    0.22 
  -4 -12  -8    0.72    0.24 
  -5 -12  -8    0.51    0.22 
  -6 -12  -8    0.12    0.20 
  -7 -12  -8    0.07    0.24 
   2 -13  -8    0.12    0.24 
   1 -13  -8    0.04    0.21 
   0 -13  -8    0.27    0.23 
  -1 -13  -8    0.81    0.25 
  -2 -13  -8   -0.04    0.18 
  -3 -13  -8   -0.03    0.19 
  -4 -13  -8    1.03    0.29 
  -5 -13  -8    0.05    0.22 
  -6 -13  -8    1.93    0.38 
   0 -14  -8   -0.02    0.23 
  -1 -14  -8    0.06    0.23 
  -2 -14  -8    3.23    0.45 
  -3 -14  -8    0.18    0.25 
  -4 -14  -8    0.22    0.26 
   3   9  -9   -0.17    0.19 
   2   9  -9    0.15    0.19 
   1   9  -9    1.36    0.27 
   0   9  -9    0.42    0.20 
   5   8  -9    0.07    0.17 
   4   8  -9    0.48    0.21 
   3   8  -9    1.25    0.26 
   2   8  -9    0.28    0.17 
   1   8  -9   -0.02    0.14 
   0   8  -9    0.64    0.19 
  -1   8  -9    0.98    0.22 
   3  -8   9   -0.15    0.24 
   6   7  -9    0.43    0.17 
   5   7  -9   -0.04    0.13 
   4   7  -9    1.22    0.24 
   3   7  -9    3.79    0.35 
   2   7  -9    2.83    0.30 
   1   7  -9    1.15    0.21 
   0   7  -9    1.01    0.20 
  -1   7  -9    4.92    0.34 
   2  -7   9    1.15    0.29 
   3  -7   9    0.18    0.23 
   4  -7   9    0.80    0.29 
   5  -7   9    0.24    0.28 
   7   6  -9    0.03    0.16 
   6   6  -9    0.27    0.17 
   5   6  -9    0.47    0.17 
   4   6  -9    0.43    0.15 
   3   6  -9    6.53    0.41 
   2   6  -9    1.16    0.20 
   1   6  -9    3.74    0.31 
   0   6  -9   -0.07    0.10 
  -1   6  -9    0.98    0.18 
   1  -6   9    1.21    0.26 
  -2   6  -9    2.13    0.23 
   2  -6   9    2.05    0.30 
   3  -6   9    1.64    0.30 
   4  -6   9    2.76    0.38 
   5  -6   9   -0.03    0.24 
   6  -6   9   -0.19    0.26 
   8   5  -9    1.74    0.30 
   8   5  -9    1.53    0.35 
   7   5  -9   -0.17    0.20 
   7   5  -9    0.05    0.14 
   6   5  -9    0.17    0.20 
   6   5  -9    0.28    0.14 
   5   5  -9    0.18    0.19 
   5   5  -9    0.60    0.16 
   4   5  -9    2.21    0.28 
   3   5  -9    2.87    0.29 
   2   5  -9    8.32    0.46 
   1   5  -9    0.14    0.12 
   0   5  -9    5.48    0.35 
   0   5  -9    4.33    0.30 
  -1   5  -9    0.18    0.12 
  -1   5  -9    0.07    0.10 
   1  -5   9    0.25    0.16 
  -2   5  -9    1.66    0.20 
   2  -5   9    1.43    0.25 
   3  -5   9    0.12    0.17 
   4  -5   9    1.15    0.27 
   5  -5   9    4.39    0.46 
   6  -5   9    0.76    0.26 
   7  -5   9   -0.24    0.24 
   8   4  -9    0.14    0.17 
   8   4  -9   -0.16    0.23 
   7   4  -9    2.08    0.35 
   7   4  -9    0.92    0.21 
   6   4  -9   -0.08    0.17 
   5   4  -9   -0.01    0.16 
   4   4  -9    1.35    0.24 
   3   4  -9    5.15    0.36 
   2   4  -9    0.82    0.16 
   1   4  -9    0.71    0.17 
   0   4  -9    3.11    0.28 
  -1   4  -9    0.05    0.10 
   1  -4   9   -0.02    0.12 
   2  -4   9    6.25    0.42 
   3  -4   9    3.62    0.36 
   4  -4   9    1.47    0.28 
   5  -4   9    1.82    0.31 
   6  -4   9    0.88    0.27 
   7  -4   9    0.01    0.21 
   9   3  -9    1.55    0.27 
   9   3  -9    1.56    0.35 
   8   3  -9    2.08    0.37 
   7   3  -9   -0.06    0.21 
   6   3  -9    0.76    0.25 
   5   3  -9    2.00    0.28 
   4   3  -9    2.19    0.26 
   3   3  -9    2.58    0.28 
   2   3  -9    4.40    0.31 
   1   3  -9    0.43    0.15 
   0   3  -9   14.78    0.65 
   0   3  -9   14.40    0.60 
   2  -3   9    7.72    0.46 
   3  -3   9    1.35    0.24 
   4  -3   9    2.86    0.34 
   5  -3   9    0.11    0.17 
   6  -3   9    3.31    0.40 
   7  -3   9    0.27    0.22 
  -8   3  -9   -0.02    0.20 
   9   2  -9   -0.15    0.25 
   8   2  -9   -0.14    0.21 
   7   2  -9    2.27    0.37 
   6   2  -9    0.63    0.21 
   5   2  -9    0.36    0.17 
   4   2  -9   -0.01    0.12 
   3   2  -9    1.33    0.22 
   2   2  -9    1.29    0.20 
   1   2  -9    5.26    0.34 
   0   2  -9    1.91    0.22 
   0   2  -9    2.24    0.19 
  -1   2  -9   12.96    0.57 
  -2   2  -9    0.49    0.13 
  -3   2  -9   12.09    0.59 
  -4   2  -9    3.96    0.34 
  -5   2  -9    6.09    0.42 
  -6   2  -9    0.33    0.17 
  -7   2  -9    1.42    0.27 
  -8   2  -9    0.05    0.19 
  -9   2  -9    0.55    0.26 
   9   1  -9    0.81    0.31 
   8   1  -9    0.48    0.26 
   7   1  -9    0.16    0.19 
   6   1  -9    1.57    0.28 
   5   1  -9    3.50    0.33 
   4   1  -9    0.02    0.12 
   3   1  -9    3.29    0.30 
   2   1  -9   17.01    0.74 
   1   1  -9   10.28    0.44 
   1   1  -9   11.33    0.53 
   0   1  -9    4.70    0.31 
   0   1  -9    4.91    0.28 
  -1   1  -9    1.25    0.16 
  -2   1  -9   19.49    0.79 
  -3   1  -9    2.73    0.26 
  -4   1  -9   17.22    0.76 
  -5   1  -9    0.07    0.11 
  -6   1  -9    6.84    0.46 
  -7   1  -9    0.29    0.18 
  -8   1  -9    0.22    0.19 
  -9   1  -9    0.62    0.24 
   9   0  -9    2.72    0.42 
   8   0  -9    1.18    0.32 
   7   0  -9    0.50    0.23 
   6   0  -9    0.08    0.16 
   5   0  -9    0.07    0.12 
   4   0  -9    0.79    0.18 
   3   0  -9    5.26    0.36 
   2   0  -9   13.70    0.63 
   1   0  -9   12.82    0.52 
   1   0  -9   13.76    0.61 
   0   0  -9    2.54    0.20 
   0   0  -9    2.46    0.24 
  -1   0  -9    4.26    0.27 
  -2   0  -9   -0.06    0.07 
  -3   0  -9   10.79    0.53 
  -4   0  -9    2.65    0.27 
  -5   0  -9   22.24    0.94 
  -6   0  -9    2.78    0.31 
  -7   0  -9    1.02    0.23 
  -8   0  -9    0.70    0.21 
  -9   0  -9    0.66    0.24 
   9  -1  -9    0.12    0.22 
   8  -1  -9    7.21    0.55 
   7  -1  -9    0.01    0.20 
   6  -1  -9    0.20    0.15 
   5  -1  -9    0.20    0.14 
   4  -1  -9   10.54    0.55 
   3  -1  -9    4.86    0.34 
   2  -1  -9    1.70    0.14 
   2  -1  -9    1.42    0.20 
   1  -1  -9    6.81    0.34 
   1  -1  -9    7.25    0.40 
   0  -1  -9    4.48    0.30 
   0  -1  -9    4.76    0.27 
  -1  -1  -9    9.88    0.46 
  -2  -1  -9    6.00    0.34 
  -3  -1  -9    1.81    0.22 
  -4  -1  -9    2.73    0.27 
  -5  -1  -9    8.55    0.50 
  -6  -1  -9    3.83    0.35 
  -7  -1  -9    0.20    0.15 
  -8  -1  -9    0.50    0.18 
  -9  -1  -9    0.80    0.25 
 -10  -1  -9    0.11    0.23 
   9  -2  -9    0.29    0.23 
   8  -2  -9   -0.04    0.17 
   7  -2  -9    4.34    0.43 
   6  -2  -9    0.12    0.16 
   5  -2  -9   -0.12    0.11 
   4  -2  -9    0.25    0.14 
   3  -2  -9    5.26    0.36 
   2  -2  -9   11.42    0.48 
   2  -2  -9   11.56    0.56 
   1  -2  -9    5.78    0.36 
   1  -2  -9    6.00    0.31 
   0  -2  -9    3.37    0.23 
   0  -2  -9    2.96    0.26 
  -1  -2  -9   15.88    0.65 
  -2  -2  -9    3.22    0.24 
  -3  -2  -9    0.20    0.12 
  -4  -2  -9    8.21    0.45 
  -5  -2  -9   20.31    0.87 
  -6  -2  -9    0.77    0.19 
  -7  -2  -9    1.57    0.26 
  -8  -2  -9    1.76    0.28 
  -9  -2  -9    0.64    0.22 
 -10  -2  -9   -0.15    0.18 
   9  -3  -9    1.08    0.29 
   8  -3  -9    0.63    0.25 
   7  -3  -9    1.68    0.31 
   6  -3  -9    3.10    0.34 
   5  -3  -9    1.62    0.25 
   4  -3  -9    1.23    0.21 
   3  -3  -9    3.04    0.21 
   3  -3  -9    2.89    0.28 
   2  -3  -9    5.20    0.29 
   2  -3  -9    5.07    0.34 
   1  -3  -9    4.13    0.26 
   1  -3  -9    4.38    0.30 
   0  -3  -9    0.02    0.08 
   0  -3  -9   -0.08    0.06 
  -2  -3  -9    2.48    0.23 
  -3  -3  -9    3.59    0.28 
  -4  -3  -9    1.23    0.20 
  -5  -3  -9    0.00    0.12 
  -6  -3  -9    1.74    0.25 
  -7  -3  -9    5.55    0.41 
  -8  -3  -9    0.29    0.15 
  -9  -3  -9    0.74    0.23 
 -10  -3  -9    0.00    0.19 
   9  -4  -9    1.61    0.35 
   8  -4  -9   -0.20    0.18 
   7  -4  -9    2.87    0.37 
   6  -4  -9    2.38    0.31 
   5  -4  -9    4.91    0.38 
   4  -4  -9    0.17    0.13 
   3  -4  -9    0.32    0.13 
   3  -4  -9    0.45    0.11 
   2  -4  -9    0.54    0.15 
   2  -4  -9    0.57    0.12 
   1  -4  -9    3.83    0.29 
   1  -4  -9    3.85    0.26 
   0  -4  -9    3.33    0.25 
   0  -4  -9    2.84    0.23 
  -1  -4  -9    1.71    0.19 
  -2  -4  -9    0.40    0.12 
  -3  -4  -9    4.01    0.30 
  -4  -4  -9    8.26    0.47 
  -5  -4  -9   33.78    1.31 
  -6  -4  -9    0.05    0.13 
  -7  -4  -9    6.93    0.46 
  -8  -4  -9    0.79    0.21 
  -9  -4  -9    0.44    0.21 
 -10  -4  -9    0.32    0.23 
   8  -5  -9    0.83    0.27 
   7  -5  -9    2.48    0.34 
   6  -5  -9    3.85    0.38 
   5  -5  -9    0.14    0.15 
   4  -5  -9    8.67    0.49 
   4  -5  -9    8.27    0.43 
   3  -5  -9    0.09    0.08 
   3  -5  -9    0.05    0.12 
   2  -5  -9    1.93    0.20 
   2  -5  -9    1.99    0.23 
   1  -5  -9    3.61    0.26 
   1  -5  -9    4.07    0.29 
   0  -5  -9    3.11    0.24 
   0  -5  -9    3.64    0.27 
  -1  -5  -9    3.02    0.26 
  -2  -5  -9    0.81    0.16 
  -3  -5  -9    0.45    0.16 
  -4  -5  -9    0.03    0.11 
  -5  -5  -9    1.82    0.26 
  -6  -5  -9    1.54    0.24 
  -7  -5  -9    0.54    0.18 
  -8  -5  -9    1.76    0.28 
  -9  -5  -9    5.25    0.46 
 -10  -5  -9    1.59    0.33 
   8  -6  -9    0.21    0.22 
   7  -6  -9    0.48    0.22 
   6  -6  -9    0.75    0.23 
   5  -6  -9    1.22    0.24 
   4  -6  -9    0.05    0.11 
   4  -6  -9    0.15    0.14 
   3  -6  -9   18.17    0.78 
   3  -6  -9   17.93    0.78 
   2  -6  -9    5.02    0.34 
   2  -6  -9    5.15    0.34 
   1  -6  -9    3.87    0.28 
   1  -6  -9    3.56    0.29 
   0  -6  -9    7.19    0.41 
   0  -6  -9    6.67    0.38 
  -1  -6  -9    7.82    0.43 
  -2  -6  -9   -0.03    0.11 
  -3  -6  -9   13.48    0.65 
  -4  -6  -9    4.69    0.38 
  -5  -6  -9   28.35    1.16 
  -6  -6  -9    0.97    0.21 
  -7  -6  -9    0.33    0.17 
  -8  -6  -9   -0.04    0.16 
  -9  -6  -9    0.36    0.20 
 -10  -6  -9    1.16    0.30 
   7  -7  -9    0.01    0.19 
   6  -7  -9    1.80    0.30 
   5  -7  -9    1.02    0.22 
   4  -7  -9    0.30    0.16 
   4  -7  -9    0.18    0.14 
   3  -7  -9    4.34    0.32 
   3  -7  -9    4.79    0.35 
   2  -7  -9   -0.02    0.10 
   2  -7  -9    0.11    0.11 
   1  -7  -9    3.04    0.26 
   1  -7  -9    2.84    0.28 
   0  -7  -9    0.81    0.18 
   0  -7  -9    0.84    0.16 
  -1  -7  -9   17.19    0.72 
  -1  -7  -9   16.97    0.77 
  -2  -7  -9    0.13    0.13 
  -3  -7  -9   22.91    0.98 
  -4  -7  -9    0.49    0.18 
  -5  -7  -9    0.01    0.11 
  -6  -7  -9   -0.15    0.13 
  -7  -7  -9    1.86    0.30 
  -8  -7  -9   -0.19    0.14 
  -9  -7  -9    0.07    0.20 
 -10  -7  -9    0.02    0.23 
   5  -8  -9    0.20    0.16 
   5  -8  -9    0.35    0.21 
   4  -8  -9    0.57    0.17 
   4  -8  -9    0.60    0.19 
   3  -8  -9    0.89    0.20 
   3  -8  -9    1.04    0.20 
   2  -8  -9   -0.06    0.11 
   2  -8  -9   -0.08    0.11 
   1  -8  -9    0.07    0.11 
   1  -8  -9    0.11    0.13 
   0  -8  -9    1.05    0.22 
   0  -8  -9    1.65    0.20 
  -1  -8  -9   22.89    0.93 
  -1  -8  -9   19.53    0.83 
  -2  -8  -9    0.56    0.18 
  -3  -8  -9    4.66    0.36 
  -4  -8  -9    7.69    0.49 
  -5  -8  -9    1.63    0.28 
  -6  -8  -9    0.17    0.16 
  -7  -8  -9    0.26    0.17 
  -8  -8  -9    0.55    0.21 
  -9  -8  -9   -0.15    0.19 
 -10  -8  -9   -0.12    0.23 
   5  -9  -9    0.06    0.16 
   4  -9  -9    1.05    0.23 
   3  -9  -9    0.89    0.21 
   2  -9  -9    2.14    0.29 
   1  -9  -9    0.67    0.18 
   0  -9  -9    0.96    0.22 
  -1  -9  -9    0.18    0.09 
  -1  -9  -9    0.14    0.14 
  -2  -9  -9   -0.11    0.11 
  -3  -9  -9    0.06    0.15 
  -4  -9  -9    0.14    0.14 
  -5  -9  -9    3.09    0.35 
  -6  -9  -9    0.68    0.23 
  -7  -9  -9    0.18    0.19 
  -8  -9  -9    0.05    0.20 
  -9  -9  -9    0.09    0.22 
   5 -10  -9    0.45    0.22 
   4 -10  -9    0.08    0.16 
   3 -10  -9    0.43    0.18 
   2 -10  -9    0.70    0.21 
   1 -10  -9    3.90    0.37 
   0 -10  -9    0.07    0.14 
  -1 -10  -9    0.03    0.14 
  -2 -10  -9   -0.06    0.13 
  -3 -10  -9    0.21    0.16 
  -4 -10  -9    0.24    0.18 
  -5 -10  -9    0.03    0.15 
  -6 -10  -9    0.26    0.19 
  -7 -10  -9    0.25    0.20 
  -8 -10  -9    0.17    0.21 
  -9 -10  -9    0.27    0.25 
   4 -11  -9    1.20    0.30 
   3 -11  -9    0.32    0.20 
   2 -11  -9    0.08    0.16 
   1 -11  -9    1.22    0.27 
   0 -11  -9    1.37    0.26 
  -1 -11  -9    0.07    0.15 
  -2 -11  -9    0.05    0.16 
  -3 -11  -9    0.44    0.19 
  -4 -11  -9    0.26    0.19 
  -5 -11  -9    3.19    0.41 
  -6 -11  -9   -0.04    0.19 
  -7 -11  -9    1.38    0.31 
  -8 -11  -9    0.85    0.29 
   3 -12  -9    0.84    0.28 
   2 -12  -9    0.24    0.21 
   1 -12  -9    0.39    0.22 
   0 -12  -9    0.11    0.18 
  -1 -12  -9    0.18    0.18 
  -2 -12  -9   -0.11    0.16 
  -3 -12  -9   -0.19    0.13 
  -4 -12  -9    0.33    0.20 
  -5 -12  -9    0.69    0.26 
  -6 -12  -9    1.73    0.35 
  -7 -12  -9    1.22    0.33 
   2 -13  -9   -0.04    0.24 
   1 -13  -9    0.32    0.25 
   0 -13  -9    0.56    0.27 
  -1 -13  -9    0.40    0.25 
  -2 -13  -9    0.04    0.18 
  -3 -13  -9    0.43    0.23 
  -4 -13  -9    1.74    0.35 
  -5 -13  -9    0.41    0.26 
  -6 -13  -9    0.31    0.28 
  -1 -14  -9    1.01    0.33 
  -2 -14  -9    0.46    0.28 
  -3 -14  -9   -0.15    0.21 
   3   8 -10    0.44    0.22 
   2   8 -10    0.33    0.19 
   1   8 -10    2.07    0.30 
   0   8 -10    0.29    0.18 
   5   7 -10    0.77    0.22 
   4   7 -10    1.16    0.24 
   3   7 -10    1.19    0.24 
   2   7 -10    0.29    0.16 
   1   7 -10    2.51    0.29 
   0   7 -10    0.79    0.20 
  -1   7 -10    0.23    0.15 
   3  -7  10    1.49    0.37 
   6   6 -10    0.10    0.16 
   5   6 -10    0.00    0.14 
   4   6 -10    0.17    0.17 
   3   6 -10    6.10    0.41 
   2   6 -10    1.16    0.22 
   1   6 -10    0.34    0.14 
   0   6 -10    0.17    0.13 
  -1   6 -10    1.86    0.24 
   2  -6  10   -0.04    0.22 
   3  -6  10    0.69    0.26 
   4  -6  10    2.07    0.36 
   5  -6  10    1.18    0.34 
   7   5 -10    0.35    0.27 
   7   5 -10    0.32    0.19 
   6   5 -10    0.86    0.29 
   6   5 -10    0.84    0.20 
   5   5 -10    0.72    0.19 
   5   5 -10    0.62    0.25 
   4   5 -10    3.57    0.35 
   3   5 -10    0.25    0.16 
   2   5 -10    2.54    0.29 
   1   5 -10    0.27    0.15 
   0   5 -10    0.20    0.14 
   0   5 -10    0.29    0.14 
  -1   5 -10    0.29    0.13 
  -2   5 -10    2.61    0.25 
   2  -5  10    2.68    0.33 
   3  -5  10   -0.13    0.17 
   4  -5  10    1.69    0.33 
   5  -5  10    0.10    0.21 
   6  -5  10    0.25    0.26 
   8   4 -10    1.69    0.29 
   7   4 -10   -0.04    0.24 
   6   4 -10    0.02    0.20 
   5   4 -10    1.22    0.27 
   4   4 -10    4.51    0.39 
   3   4 -10    2.19    0.28 
   2   4 -10    1.89    0.25 
   1   4 -10    4.09    0.34 
   0   4 -10    0.22    0.14 
  -1   4 -10    0.10    0.12 
   2  -4  10    0.02    0.15 
   3  -4  10    3.71    0.38 
   4  -4  10    0.50    0.22 
   5  -4  10   -0.13    0.19 
   6  -4  10   -0.01    0.22 
  -7   4 -10    0.97    0.31 
   8   3 -10    0.22    0.28 
   7   3 -10    3.20    0.42 
   6   3 -10   -0.20    0.17 
   5   3 -10    3.28    0.35 
   4   3 -10    3.03    0.32 
   3   3 -10    4.22    0.34 
   2   3 -10    0.96    0.20 
   1   3 -10    3.53    0.32 
   0   3 -10    0.76    0.17 
  -1   3 -10    1.53    0.20 
  -1   3 -10    1.77    0.24 
  -2   3 -10    0.06    0.10 
  -3   3 -10    0.31    0.13 
  -4   3 -10    1.04    0.23 
  -5   3 -10    6.46    0.46 
  -6   3 -10    1.23    0.26 
  -7   3 -10    0.30    0.22 
   8   2 -10   -0.12    0.25 
   7   2 -10    0.29    0.23 
   6   2 -10    0.72    0.23 
   5   2 -10    1.18    0.24 
   4   2 -10   -0.20    0.11 
   3   2 -10    4.31    0.34 
   2   2 -10    1.00    0.19 
   1   2 -10    0.59    0.16 
   0   2 -10    1.57    0.17 
   0   2 -10    1.19    0.20 
  -1   2 -10    3.15    0.25 
  -2   2 -10    1.44    0.20 
  -3   2 -10    0.39    0.15 
  -4   2 -10    0.07    0.12 
  -5   2 -10    2.96    0.33 
  -6   2 -10    2.69    0.33 
  -7   2 -10   -0.21    0.15 
  -8   2 -10    0.19    0.24 
   8   1 -10    0.97    0.32 
   7   1 -10   -0.09    0.21 
   6   1 -10    0.15    0.20 
   5   1 -10    1.77    0.27 
   4   1 -10    3.05    0.31 
   3   1 -10    2.93    0.30 
   2   1 -10    0.35    0.13 
   1   1 -10    3.80    0.32 
   0   1 -10   13.66    0.57 
   0   1 -10   13.74    0.64 
  -1   1 -10    0.58    0.13 
  -2   1 -10    3.43    0.27 
  -3   1 -10    1.95    0.24 
  -4   1 -10    3.85    0.33 
  -5   1 -10    2.61    0.30 
  -6   1 -10    2.38    0.31 
  -7   1 -10    0.69    0.22 
  -8   1 -10    1.25    0.30 
   8   0 -10    0.01    0.27 
   7   0 -10    2.89    0.39 
   6   0 -10    0.05    0.17 
   5   0 -10    1.99    0.28 
   4   0 -10    0.87    0.19 
   3   0 -10    2.93    0.30 
   2   0 -10    3.52    0.31 
   1   0 -10    2.02    0.25 
   0   0 -10    9.69    0.45 
   0   0 -10    9.68    0.50 
  -1   0 -10   -0.08    0.07 
  -2   0 -10    0.21    0.11 
  -3   0 -10   14.42    0.67 
  -4   0 -10    0.78    0.19 
  -5   0 -10    5.36    0.39 
  -6   0 -10    6.90    0.47 
  -7   0 -10    0.59    0.21 
  -8   0 -10    0.05    0.19 
  -9   0 -10   -0.17    0.19 
   8  -1 -10    1.81    0.35 
   7  -1 -10   -0.06    0.19 
   6  -1 -10    6.92    0.49 
   5  -1 -10    0.01    0.14 
   4  -1 -10    1.42    0.22 
   3  -1 -10    0.53    0.16 
   2  -1 -10   37.43    1.41 
   1  -1 -10    0.72    0.17 
   1  -1 -10    0.91    0.13 
   0  -1 -10    0.34    0.10 
   0  -1 -10    0.18    0.11 
  -1  -1 -10   18.44    0.75 
  -2  -1 -10    1.38    0.19 
  -3  -1 -10   -0.12    0.08 
  -4  -1 -10   -0.01    0.11 
  -5  -1 -10    6.17    0.42 
  -6  -1 -10   -0.01    0.12 
  -7  -1 -10    2.24    0.32 
  -8  -1 -10    0.58    0.23 
  -9  -1 -10    1.35    0.30 
   8  -2 -10    2.88    0.41 
   7  -2 -10    0.52    0.22 
   6  -2 -10    1.23    0.25 
   5  -2 -10    2.55    0.30 
   4  -2 -10    9.45    0.53 
   3  -2 -10    4.69    0.35 
   2  -2 -10    6.77    0.42 
   1  -2 -10   13.40    0.57 
   1  -2 -10   13.38    0.63 
   0  -2 -10    2.35    0.21 
   0  -2 -10    2.38    0.25 
  -1  -2 -10    0.47    0.12 
  -2  -2 -10    8.43    0.45 
  -3  -2 -10    4.12    0.31 
  -4  -2 -10    2.08    0.26 
  -5  -2 -10    7.34    0.45 
  -6  -2 -10    0.02    0.12 
  -7  -2 -10    0.25    0.17 
  -8  -2 -10    1.46    0.27 
  -9  -2 -10    1.09    0.27 
   8  -3 -10    1.36    0.31 
   7  -3 -10    0.62    0.23 
   6  -3 -10    0.57    0.20 
   5  -3 -10    0.43    0.17 
   4  -3 -10   19.87    0.88 
   3  -3 -10    1.00    0.20 
   2  -3 -10    6.46    0.40 
   2  -3 -10    6.29    0.34 
   1  -3 -10    0.65    0.16 
   1  -3 -10    0.99    0.14 
   0  -3 -10   -0.06    0.10 
   0  -3 -10    0.03    0.08 
  -1  -3 -10    0.66    0.14 
  -2  -3 -10    0.01    0.10 
  -3  -3 -10    4.66    0.33 
  -4  -3 -10    7.15    0.44 
  -5  -3 -10    3.28    0.33 
  -6  -3 -10    0.29    0.16 
  -7  -3 -10    0.90    0.22 
  -8  -3 -10    0.06    0.15 
  -9  -3 -10    0.43    0.22 
 -10  -3 -10    0.11    0.24 
   8  -4 -10   -0.12    0.20 
   7  -4 -10    2.59    0.37 
   6  -4 -10    3.09    0.36 
   5  -4 -10    0.15    0.15 
   4  -4 -10    0.11    0.12 
   3  -4 -10    7.12    0.44 
   2  -4 -10    4.30    0.28 
   2  -4 -10    3.76    0.32 
   1  -4 -10    3.33    0.25 
   1  -4 -10    3.26    0.30 
   0  -4 -10    3.69    0.29 
   0  -4 -10    3.95    0.27 
  -1  -4 -10    3.87    0.29 
  -2  -4 -10    0.12    0.11 
  -3  -4 -10    0.30    0.13 
  -4  -4 -10    2.52    0.28 
  -5  -4 -10    1.66    0.25 
  -6  -4 -10    3.91    0.37 
  -7  -4 -10    0.08    0.14 
  -8  -4 -10    0.09    0.15 
  -9  -4 -10    0.98    0.28 
 -10  -4 -10    2.78    0.41 
   8  -5 -10    0.59    0.27 
   7  -5 -10   -0.03    0.20 
   6  -5 -10    2.73    0.34 
   5  -5 -10    2.59    0.31 
   4  -5 -10    0.00    0.13 
   3  -5 -10    4.48    0.29 
   3  -5 -10    4.09    0.35 
   2  -5 -10   21.46    0.90 
   2  -5 -10   21.67    0.87 
   1  -5 -10    6.24    0.38 
   1  -5 -10    5.41    0.35 
   0  -5 -10    4.73    0.32 
   0  -5 -10    4.34    0.31 
  -1  -5 -10    0.58    0.15 
  -2  -5 -10    1.55    0.22 
  -3  -5 -10    0.81    0.18 
  -4  -5 -10    1.86    0.25 
  -5  -5 -10    2.19    0.28 
  -6  -5 -10    1.75    0.27 
  -7  -5 -10    0.59    0.20 
  -8  -5 -10    0.20    0.17 
  -9  -5 -10    0.05    0.20 
 -10  -5 -10    0.10    0.24 
   7  -6 -10    0.42    0.24 
   6  -6 -10   -0.06    0.17 
   5  -6 -10    0.83    0.23 
   4  -6 -10    4.77    0.37 
   3  -6 -10    1.16    0.20 
   3  -6 -10    0.72    0.18 
   2  -6 -10    0.03    0.11 
   2  -6 -10    0.02    0.11 
   1  -6 -10   21.95    0.91 
   1  -6 -10   21.61    0.90 
   0  -6 -10   11.60    0.57 
   0  -6 -10   11.53    0.56 
  -1  -6 -10   27.96    1.08 
  -1  -6 -10   26.78    1.08 
  -2  -6 -10    2.57    0.28 
  -3  -6 -10    1.80    0.25 
  -4  -6 -10   10.62    0.59 
  -5  -6 -10    0.54    0.18 
  -6  -6 -10    0.07    0.14 
  -7  -6 -10    0.11    0.14 
  -8  -6 -10    0.04    0.16 
  -9  -6 -10    1.57    0.31 
 -10  -6 -10    0.15    0.24 
   7  -7 -10    0.37    0.24 
   6  -7 -10    0.90    0.26 
   5  -7 -10    0.11    0.17 
   4  -7 -10    0.06    0.14 
   4  -7 -10   -0.07    0.12 
   3  -7 -10    1.76    0.25 
   3  -7 -10    1.68    0.23 
   2  -7 -10    0.17    0.12 
   2  -7 -10    0.25    0.13 
   1  -7 -10    5.04    0.34 
   1  -7 -10    4.96    0.36 
   0  -7 -10    0.00    0.11 
   0  -7 -10    0.01    0.10 
  -1  -7 -10   18.42    0.77 
  -1  -7 -10   17.83    0.81 
  -2  -7 -10    5.74    0.40 
  -3  -7 -10    2.15    0.28 
  -4  -7 -10    1.12    0.23 
  -5  -7 -10    5.50    0.42 
  -6  -7 -10    0.33    0.18 
  -7  -7 -10    0.60    0.21 
  -8  -7 -10    1.11    0.26 
  -9  -7 -10    0.15    0.21 
   5  -8 -10    0.93    0.25 
   4  -8 -10    0.89    0.22 
   4  -8 -10    0.91    0.22 
   3  -8 -10    0.62    0.18 
   3  -8 -10    0.79    0.19 
   2  -8 -10    2.88    0.29 
   2  -8 -10    3.32    0.32 
   1  -8 -10    2.90    0.27 
   1  -8 -10    2.74    0.30 
   0  -8 -10    0.07    0.10 
   0  -8 -10    0.15    0.13 
  -1  -8 -10    2.22    0.24 
  -1  -8 -10    2.61    0.30 
  -2  -8 -10   16.00    0.77 
  -3  -8 -10   -0.10    0.11 
  -4  -8 -10    2.28    0.31 
  -5  -8 -10    0.77    0.22 
  -6  -8 -10    1.54    0.28 
  -7  -8 -10    0.12    0.17 
  -8  -8 -10    0.05    0.20 
  -9  -8 -10    0.22    0.23 
   4  -9 -10    0.01    0.14 
   3  -9 -10    0.56    0.19 
   2  -9 -10    1.56    0.26 
   1  -9 -10    1.22    0.24 
   0  -9 -10    0.24    0.15 
   0  -9 -10    0.05    0.12 
  -1  -9 -10    5.80    0.43 
  -1  -9 -10    5.81    0.37 
  -2  -9 -10    1.90    0.30 
  -2  -9 -10    2.05    0.24 
  -3  -9 -10    3.20    0.36 
  -4  -9 -10    1.76    0.28 
  -5  -9 -10   -0.07    0.14 
  -6  -9 -10    0.24    0.18 
  -7  -9 -10    0.43    0.22 
  -8  -9 -10    0.46    0.24 
  -9  -9 -10   -0.05    0.22 
   4 -10 -10    1.78    0.30 
   3 -10 -10    1.87    0.31 
   2 -10 -10    0.25    0.16 
   1 -10 -10    0.24    0.16 
   0 -10 -10    2.90    0.34 
  -1 -10 -10    4.74    0.43 
  -2 -10 -10    0.31    0.18 
  -3 -10 -10    3.89    0.42 
  -4 -10 -10    2.16    0.34 
  -5 -10 -10   -0.18    0.14 
  -6 -10 -10    0.28    0.19 
  -7 -10 -10   -0.01    0.19 
  -8 -10 -10    0.16    0.23 
   4 -11 -10    0.44    0.25 
   3 -11 -10    0.29    0.21 
   2 -11 -10    1.34    0.28 
   1 -11 -10    3.29    0.38 
   0 -11 -10    0.98    0.23 
  -1 -11 -10    1.00    0.24 
  -2 -11 -10    0.04    0.17 
  -3 -11 -10    0.12    0.18 
  -4 -11 -10    0.38    0.22 
  -5 -11 -10    2.41    0.37 
  -6 -11 -10    0.38    0.23 
  -7 -11 -10    1.15    0.31 
  -8 -11 -10   -0.10    0.23 
   3 -12 -10    0.51    0.26 
   2 -12 -10    0.48    0.25 
   1 -12 -10    2.17    0.36 
   0 -12 -10    0.35    0.23 
  -1 -12 -10    1.57    0.31 
  -2 -12 -10    0.06    0.18 
  -3 -12 -10    0.09    0.20 
  -4 -12 -10    0.69    0.25 
  -5 -12 -10    1.47    0.33 
  -6 -12 -10    0.26    0.25 
  -7 -12 -10    0.63    0.31 
   1 -13 -10    1.12    0.33 
   0 -13 -10    0.22    0.25 
  -1 -13 -10    0.68    0.28 
  -2 -13 -10    0.17    0.24 
  -3 -13 -10    0.10    0.22 
  -4 -13 -10    0.59    0.28 
  -5 -13 -10    0.25    0.27 
   3   7 -11    2.30    0.33 
   2   7 -11    0.72    0.22 
   1   7 -11    0.15    0.17 
   0   7 -11   -0.09    0.16 
   5   6 -11    0.36    0.20 
   4   6 -11    0.17    0.18 
   3   6 -11    1.49    0.27 
   2   6 -11    2.20    0.29 
   1   6 -11    1.52    0.25 
   0   6 -11    0.19    0.14 
  -1   6 -11   -0.03    0.15 
   4  -6  11    1.37    0.36 
   6   5 -11    0.06    0.17 
   6   5 -11   -0.44    0.23 
   5   5 -11    0.51    0.19 
   5   5 -11    0.66    0.26 
   4   5 -11    0.54    0.22 
   3   5 -11    0.04    0.16 
   2   5 -11    1.03    0.23 
   0   5 -11    0.35    0.15 
  -1   5 -11    0.87    0.18 
   3  -5  11    3.76    0.42 
   4  -5  11    1.02    0.30 
   7   4 -11    0.16    0.29 
   6   4 -11    0.62    0.27 
   5   4 -11    0.02    0.20 
   4   4 -11    8.33    0.52 
   3   4 -11    3.93    0.37 
   2   4 -11    1.21    0.23 
   1   4 -11    0.11    0.13 
   0   4 -11    1.72    0.26 
  -1   4 -11    0.29    0.15 
  -2   4 -11    0.53    0.17 
  -2   4 -11    0.50    0.17 
  -3   4 -11    0.01    0.14 
  -4   4 -11    3.58    0.37 
  -5   4 -11    0.39    0.21 
  -6   4 -11    0.15    0.23 
   7   3 -11    1.22    0.34 
   6   3 -11    1.26    0.31 
   5   3 -11    0.07    0.19 
   4   3 -11    0.06    0.16 
   3   3 -11    1.99    0.28 
   2   3 -11    2.96    0.31 
   1   3 -11    0.23    0.15 
   0   3 -11   -0.01    0.13 
  -1   3 -11    1.42    0.23 
  -2   3 -11    0.87    0.19 
  -3   3 -11    0.01    0.12 
  -4   3 -11    2.90    0.33 
  -5   3 -11    4.06    0.40 
  -6   3 -11    0.74    0.26 
  -7   3 -11    0.04    0.24 
   7   2 -11    0.77    0.30 
   6   2 -11    0.16    0.22 
   5   2 -11    0.69    0.22 
   4   2 -11    5.42    0.41 
   3   2 -11    0.06    0.13 
   2   2 -11    1.38    0.22 
   1   2 -11    3.48    0.33 
   0   2 -11    0.02    0.11 
  -1   2 -11    1.19    0.22 
  -1   2 -11    1.42    0.20 
  -2   2 -11    1.42    0.22 
  -3   2 -11    5.97    0.40 
  -4   2 -11    0.02    0.12 
  -5   2 -11    6.20    0.45 
  -6   2 -11    1.05    0.25 
  -7   2 -11    0.84    0.26 
   8   1 -11    0.50    0.32 
   7   1 -11    1.16    0.33 
   6   1 -11   -0.22    0.18 
   5   1 -11    2.99    0.35 
   4   1 -11    0.81    0.21 
   3   1 -11    1.89    0.27 
   2   1 -11   -0.06    0.10 
   1   1 -11    0.01    0.10 
   0   1 -11    1.74    0.24 
  -1   1 -11    0.02    0.10 
  -1   1 -11    0.06    0.11 
  -2   1 -11    1.52    0.22 
  -3   1 -11    0.12    0.13 
  -4   1 -11    7.39    0.46 
  -5   1 -11    0.63    0.20 
  -6   1 -11    2.89    0.35 
  -7   1 -11    0.32    0.20 
  -8   1 -11    1.17    0.31 
   8   0 -11    0.21    0.30 
   7   0 -11    0.73    0.30 
   6   0 -11    0.79    0.26 
   5   0 -11   -0.01    0.16 
   4   0 -11    2.80    0.32 
   3   0 -11    2.25    0.28 
   2   0 -11    0.16    0.12 
   1   0 -11    2.44    0.28 
   0   0 -11    0.11    0.09 
   0   0 -11    0.05    0.11 
  -1   0 -11    3.86    0.28 
  -2   0 -11    0.16    0.11 
  -3   0 -11    0.14    0.13 
  -4   0 -11    0.20    0.14 
  -5   0 -11    1.47    0.27 
  -6   0 -11   -0.01    0.16 
  -7   0 -11    0.75    0.26 
  -8   0 -11    0.14    0.23 
   8  -1 -11    0.51    0.28 
   7  -1 -11   -0.19    0.21 
   6  -1 -11    1.32    0.30 
   5  -1 -11    1.33    0.27 
   4  -1 -11    0.56    0.17 
   3  -1 -11    0.52    0.17 
   2  -1 -11    0.01    0.10 
   1  -1 -11   12.56    0.63 
   0  -1 -11   11.37    0.59 
   0  -1 -11   11.51    0.52 
  -1  -1 -11    0.25    0.12 
  -2  -1 -11    0.80    0.17 
  -3  -1 -11    9.31    0.51 
  -4  -1 -11    6.76    0.43 
  -5  -1 -11    3.18    0.33 
  -6  -1 -11    2.32    0.31 
  -7  -1 -11    0.52    0.22 
  -8  -1 -11    0.60    0.26 
  -9  -1 -11   -0.01    0.22 
   8  -2 -11    2.57    0.42 
   7  -2 -11    0.20    0.21 
   6  -2 -11   -0.06    0.16 
   5  -2 -11    0.06    0.16 
   4  -2 -11    1.20    0.24 
   3  -2 -11    4.57    0.36 
   2  -2 -11    0.49    0.16 
   1  -2 -11    0.99    0.15 
   1  -2 -11    0.85    0.19 
   0  -2 -11    0.00    0.11 
   0  -2 -11    0.07    0.08 
  -1  -2 -11    5.55    0.34 
  -2  -2 -11    1.42    0.20 
  -3  -2 -11   10.85    0.56 
  -4  -2 -11    2.18    0.27 
  -5  -2 -11    0.16    0.15 
  -6  -2 -11   -0.01    0.14 
  -7  -2 -11    0.23    0.18 
  -8  -2 -11    0.51    0.24 
  -9  -2 -11    0.15    0.21 
   8  -3 -11   -0.07    0.22 
   7  -3 -11    3.53    0.42 
   6  -3 -11    0.29    0.19 
   5  -3 -11    0.20    0.16 
   4  -3 -11    0.37    0.16 
   3  -3 -11    5.32    0.39 
   2  -3 -11    3.51    0.33 
   1  -3 -11    0.09    0.12 
   1  -3 -11    0.01    0.08 
   0  -3 -11    0.38    0.14 
   0  -3 -11    0.30    0.11 
  -1  -3 -11    3.33    0.28 
  -2  -3 -11    4.49    0.32 
  -3  -3 -11    1.43    0.22 
  -4  -3 -11    0.38    0.16 
  -5  -3 -11    6.81    0.45 
  -6  -3 -11    5.06    0.41 
  -7  -3 -11    0.09    0.17 
  -8  -3 -11    1.43    0.30 
  -9  -3 -11    0.05    0.21 
   7  -4 -11    0.12    0.20 
   6  -4 -11    0.31    0.20 
   5  -4 -11    4.58    0.41 
   4  -4 -11   -0.04    0.12 
   3  -4 -11    2.57    0.30 
   2  -4 -11    0.64    0.17 
   1  -4 -11    8.66    0.44 
   1  -4 -11    8.97    0.50 
   0  -4 -11    0.66    0.16 
   0  -4 -11    0.61    0.16 
  -1  -4 -11    0.37    0.13 
  -2  -4 -11    0.49    0.16 
  -3  -4 -11    0.10    0.12 
  -4  -4 -11    0.02    0.12 
  -5  -4 -11    2.09    0.28 
  -6  -4 -11    0.27    0.17 
  -7  -4 -11    1.03    0.25 
  -8  -4 -11    0.23    0.19 
  -9  -4 -11    2.20    0.37 
   7  -5 -11    0.59    0.27 
   6  -5 -11    0.56    0.23 
   5  -5 -11    3.77    0.38 
   3  -5 -11   -0.03    0.12 
   2  -5 -11    3.16    0.27 
   2  -5 -11    2.18    0.27 
   1  -5 -11    1.30    0.22 
   1  -5 -11    1.34    0.21 
   0  -5 -11    5.77    0.38 
   0  -5 -11    5.75    0.36 
  -1  -5 -11    0.06    0.11 
  -1  -5 -11   -0.05    0.10 
  -2  -5 -11    0.24    0.14 
  -3  -5 -11    3.27    0.32 
  -4  -5 -11    1.24    0.23 
  -5  -5 -11    0.12    0.13 
  -6  -5 -11    0.04    0.15 
  -7  -5 -11    0.12    0.18 
  -8  -5 -11    0.01    0.17 
  -9  -5 -11    1.63    0.33 
   7  -6 -11    2.83    0.41 
   6  -6 -11    0.29    0.21 
   5  -6 -11    0.01    0.15 
   4  -6 -11    0.23    0.16 
   3  -6 -11    5.36    0.39 
   2  -6 -11    1.57    0.23 
   2  -6 -11    1.77    0.24 
   1  -6 -11    1.27    0.21 
   1  -6 -11    1.14    0.20 
   0  -6 -11    0.08    0.12 
   0  -6 -11    0.05    0.10 
  -1  -6 -11    0.17    0.13 
  -1  -6 -11    0.00    0.11 
  -2  -6 -11    1.00    0.21 
  -3  -6 -11    1.62    0.24 
  -4  -6 -11    0.10    0.14 
  -5  -6 -11    1.41    0.25 
  -6  -6 -11    4.00    0.40 
  -7  -6 -11    0.57    0.21 
  -8  -6 -11    0.96    0.26 
  -9  -6 -11    0.76    0.28 
   6  -7 -11    2.21    0.35 
   5  -7 -11    0.06    0.17 
   4  -7 -11   -0.05    0.14 
   3  -7 -11    1.88    0.26 
   3  -7 -11    2.01    0.26 
   2  -7 -11    0.08    0.12 
   2  -7 -11    0.10    0.13 
   1  -7 -11    0.40    0.15 
   1  -7 -11    0.45    0.16 
   0  -7 -11    5.15    0.38 
   0  -7 -11    5.57    0.37 
  -1  -7 -11    3.31    0.32 
  -1  -7 -11    2.37    0.26 
  -2  -7 -11    0.04    0.12 
  -3  -7 -11    3.90    0.37 
  -4  -7 -11    2.48    0.32 
  -5  -7 -11    0.23    0.16 
  -6  -7 -11    0.26    0.18 
  -7  -7 -11    1.03    0.25 
  -8  -7 -11    0.09    0.20 
  -9  -7 -11    0.61    0.27 
   6  -8 -11    0.08    0.26 
   5  -8 -11    2.58    0.35 
   4  -8 -11    0.11    0.17 
   3  -8 -11    0.05    0.13 
   3  -8 -11    0.11    0.14 
   2  -8 -11    2.38    0.28 
   2  -8 -11    2.18    0.27 
   1  -8 -11    4.07    0.32 
   1  -8 -11    3.22    0.33 
   0  -8 -11    1.29    0.24 
   0  -8 -11    1.01    0.19 
  -1  -8 -11   -0.02    0.11 
  -1  -8 -11    0.03    0.13 
  -2  -8 -11    3.09    0.33 
  -3  -8 -11    0.49    0.19 
  -4  -8 -11    6.57    0.47 
  -5  -8 -11    0.05    0.16 
  -6  -8 -11   -0.08    0.16 
  -7  -8 -11    0.38    0.20 
  -8  -8 -11    0.88    0.29 
  -9  -8 -11    0.47    0.28 
   3  -9 -11    0.14    0.16 
   2  -9 -11    0.28    0.17 
   1  -9 -11    0.31    0.17 
   1  -9 -11    0.23    0.15 
   0  -9 -11    2.08    0.29 
   0  -9 -11    1.84    0.24 
  -1  -9 -11    0.14    0.13 
  -1  -9 -11    0.37    0.16 
  -2  -9 -11    3.42    0.38 
  -2  -9 -11    3.05    0.29 
  -3  -9 -11    0.39    0.19 
  -4  -9 -11    0.68    0.22 
  -5  -9 -11    1.17    0.27 
  -6  -9 -11    0.45    0.21 
  -7  -9 -11    0.28    0.21 
  -8  -9 -11   -0.05    0.21 
   4 -10 -11    0.43    0.23 
   3 -10 -11    1.69    0.30 
   2 -10 -11    0.42    0.20 
   1 -10 -11    0.19    0.16 
   0 -10 -11    0.63    0.21 
  -1 -10 -11    0.79    0.22 
  -2 -10 -11    1.95    0.31 
  -3 -10 -11   -0.04    0.17 
  -4 -10 -11    2.11    0.34 
  -5 -10 -11    2.44    0.36 
  -6 -10 -11    3.13    0.41 
  -7 -10 -11    0.10    0.21 
  -8 -10 -11    0.15    0.24 
   3 -11 -11    0.05    0.20 
   2 -11 -11   -0.09    0.18 
   1 -11 -11    0.27    0.20 
   0 -11 -11    1.84    0.32 
  -1 -11 -11    0.16    0.18 
  -2 -11 -11    0.62    0.25 
  -3 -11 -11    0.06    0.20 
  -4 -11 -11    0.16    0.23 
  -5 -11 -11    1.45    0.32 
  -6 -11 -11   -0.06    0.20 
  -7 -11 -11    2.34    0.41 
   2 -12 -11    1.02    0.31 
   1 -12 -11    1.04    0.30 
   0 -12 -11    1.27    0.30 
  -1 -12 -11    1.42    0.33 
  -2 -12 -11    0.22    0.21 
  -3 -12 -11   -0.24    0.20 
  -4 -12 -11    0.06    0.20 
  -5 -12 -11    0.56    0.27 
  -6 -12 -11    0.27    0.29 
   0 -13 -11   -0.07    0.24 
  -1 -13 -11    0.99    0.31 
  -2 -13 -11    0.14    0.27 
  -3 -13 -11    0.25    0.26 
  -4 -13 -11    0.18    0.25 
   3   6 -12    1.09    0.25 
   2   6 -12    0.59    0.22 
   1   6 -12    0.67    0.21 
   0   6 -12    1.63    0.27 
  -1   6 -12    0.19    0.18 
   0   5 -12    0.21    0.15 
  -1   5 -12    0.90    0.20 
   5   4 -12    0.57    0.27 
   4   4 -12    0.49    0.22 
   3   4 -12    1.75    0.30 
   2   4 -12    2.73    0.33 
   1   4 -12    1.19    0.23 
   0   4 -12    0.05    0.13 
  -1   4 -12    0.22    0.16 
  -2   4 -12    0.24    0.17 
  -3   4 -12    1.20    0.26 
  -4   4 -12   -0.03    0.19 
  -5   4 -12    0.20    0.23 
   6   3 -12   -0.09    0.24 
   5   3 -12    0.88    0.27 
   4   3 -12    2.31    0.34 
   3   3 -12   -0.07    0.15 
   2   3 -12   -0.08    0.14 
   1   3 -12    0.02    0.14 
   0   3 -12    0.83    0.21 
  -1   3 -12    0.25    0.16 
  -2   3 -12    0.89    0.21 
  -3   3 -12    2.89    0.32 
  -4   3 -12    2.18    0.31 
  -5   3 -12   -0.02    0.19 
  -6   3 -12   -0.17    0.20 
   6   2 -12    2.14    0.38 
   5   2 -12    0.31    0.21 
   4   2 -12    5.90    0.45 
   3   2 -12    2.55    0.32 
   2   2 -12    0.54    0.18 
   1   2 -12    0.18    0.15 
   0   2 -12   -0.10    0.13 
  -1   2 -12    3.68    0.35 
  -2   2 -12    0.41    0.16 
  -3   2 -12    1.21    0.23 
  -4   2 -12    0.50    0.18 
  -5   2 -12    2.34    0.33 
  -6   2 -12    0.11    0.20 
   7   1 -12    0.92    0.34 
   6   1 -12    0.48    0.27 
   5   1 -12    0.03    0.20 
   4   1 -12    0.58    0.21 
   3   1 -12    5.54    0.43 
   2   1 -12    2.00    0.28 
   1   1 -12    0.30    0.16 
   0   1 -12    2.85    0.31 
  -1   1 -12    0.06    0.13 
  -2   1 -12    1.84    0.24 
  -3   1 -12    0.13    0.14 
  -4   1 -12    2.98    0.35 
  -5   1 -12    3.24    0.37 
  -6   1 -12    1.71    0.31 
  -7   1 -12    0.03    0.22 
   7   0 -12    0.45    0.31 
   6   0 -12    0.95    0.28 
   5   0 -12    2.31    0.34 
   4   0 -12    0.38    0.19 
   3   0 -12    0.35    0.16 
   2   0 -12    5.29    0.40 
   1   0 -12    1.22    0.23 
   0   0 -12    1.51    0.24 
  -1   0 -12    2.00    0.23 
  -1   0 -12    1.66    0.25 
  -2   0 -12   -0.03    0.11 
  -3   0 -12    0.11    0.13 
  -4   0 -12    4.11    0.37 
  -5   0 -12   -0.09    0.14 
  -6   0 -12    0.01    0.16 
  -7   0 -12    0.00    0.20 
   7  -1 -12    0.18    0.26 
   6  -1 -12    0.02    0.21 
   5  -1 -12    0.64    0.24 
   4  -1 -12    1.78    0.27 
   3  -1 -12    0.89    0.20 
   2  -1 -12    3.10    0.33 
   1  -1 -12    0.18    0.13 
   0  -1 -12    2.59    0.29 
  -1  -1 -12    0.61    0.16 
  -1  -1 -12    0.82    0.19 
  -2  -1 -12    0.33    0.15 
  -3  -1 -12    1.46    0.23 
  -4  -1 -12    7.83    0.49 
  -5  -1 -12    0.50    0.20 
  -6  -1 -12    0.02    0.16 
  -7  -1 -12    0.23    0.21 
  -8  -1 -12    0.28    0.25 
   7  -2 -12    1.17    0.31 
   6  -2 -12    0.88    0.27 
   5  -2 -12   -0.06    0.15 
   4  -2 -12    2.42    0.31 
   3  -2 -12    0.09    0.14 
   2  -2 -12   -0.02    0.12 
   1  -2 -12    1.59    0.25 
   0  -2 -12    0.05    0.10 
   0  -2 -12    0.05    0.11 
  -1  -2 -12    0.12    0.11 
  -1  -2 -12    0.20    0.12 
  -2  -2 -12    1.63    0.22 
  -3  -2 -12    0.42    0.16 
  -4  -2 -12    1.21    0.24 
  -5  -2 -12    0.35    0.17 
  -6  -2 -12    0.10    0.17 
  -7  -2 -12    0.31    0.21 
  -8  -2 -12    0.76    0.27 
   7  -3 -12    0.32    0.23 
   6  -3 -12    2.85    0.39 
   5  -3 -12    0.12    0.18 
   4  -3 -12   -0.16    0.11 
   3  -3 -12    0.78    0.20 
   2  -3 -12    0.93    0.21 
   1  -3 -12    1.17    0.23 
   0  -3 -12    3.97    0.35 
   0  -3 -12    4.25    0.31 
  -1  -3 -12    0.56    0.16 
  -1  -3 -12    0.43    0.16 
  -2  -3 -12    1.95    0.24 
  -3  -3 -12    0.76    0.19 
  -4  -3 -12    9.89    0.56 
  -5  -3 -12    0.30    0.17 
  -6  -3 -12    0.13    0.17 
  -7  -3 -12   -0.12    0.17 
  -8  -3 -12    0.06    0.22 
   7  -4 -12    0.78    0.28 
   6  -4 -12    0.06    0.19 
   5  -4 -12    0.32    0.18 
   4  -4 -12    1.28    0.25 
   3  -4 -12    1.16    0.23 
   2  -4 -12    0.18    0.14 
   1  -4 -12    2.55    0.30 
   1  -4 -12    2.49    0.25 
   0  -4 -12   -0.02    0.11 
   0  -4 -12   -0.01    0.10 
  -1  -4 -12    4.87    0.36 
  -1  -4 -12    4.80    0.34 
  -2  -4 -12    2.80    0.29 
  -3  -4 -12    0.78    0.19 
  -4  -4 -12    4.97    0.39 
  -5  -4 -12    1.21    0.24 
  -6  -4 -12    0.55    0.21 
  -7  -4 -12    0.86    0.26 
  -8  -4 -12    1.97    0.35 
   7  -5 -12   -0.34    0.20 
   6  -5 -12    0.67    0.26 
   5  -5 -12    3.15    0.38 
   4  -5 -12    3.02    0.34 
   3  -5 -12    5.55    0.42 
   2  -5 -12    7.01    0.46 
   1  -5 -12    1.40    0.24 
   1  -5 -12    1.64    0.23 
   0  -5 -12   10.13    0.53 
   0  -5 -12   10.64    0.57 
  -1  -5 -12    2.13    0.27 
  -1  -5 -12    2.08    0.26 
  -2  -5 -12    4.20    0.35 
  -3  -5 -12    0.85    0.21 
  -4  -5 -12    5.69    0.42 
  -5  -5 -12   -0.07    0.13 
  -6  -5 -12    1.80    0.30 
  -7  -5 -12    0.06    0.19 
  -8  -5 -12    1.29    0.31 
   6  -6 -12    0.10    0.21 
   5  -6 -12    0.58    0.22 
   4  -6 -12    1.26    0.24 
   3  -6 -12    0.10    0.13 
   2  -6 -12    0.67    0.18 
   1  -6 -12    0.47    0.16 
   1  -6 -12    0.90    0.20 
   0  -6 -12    1.82    0.25 
   0  -6 -12    1.92    0.26 
  -1  -6 -12    4.93    0.36 
  -1  -6 -12    4.60    0.36 
  -2  -6 -12   -0.01    0.11 
  -3  -6 -12    0.31    0.16 
  -4  -6 -12    1.44    0.26 
  -5  -6 -12    0.27    0.18 
  -6  -6 -12    0.34    0.20 
  -7  -6 -12    0.13    0.19 
  -8  -6 -12    0.13    0.20 
   6  -7 -12    0.18    0.23 
   5  -7 -12    0.93    0.27 
   4  -7 -12    1.08    0.25 
   3  -7 -12    0.29    0.16 
   2  -7 -12   -0.02    0.11 
   2  -7 -12    0.13    0.14 
   1  -7 -12    1.04    0.21 
   1  -7 -12    1.71    0.25 
   0  -7 -12    7.46    0.46 
   0  -7 -12    7.26    0.47 
  -1  -7 -12    0.21    0.14 
  -1  -7 -12    0.35    0.16 
  -2  -7 -12    1.28    0.24 
  -3  -7 -12    0.33    0.16 
  -4  -7 -12    2.30    0.32 
  -5  -7 -12    0.08    0.16 
  -6  -7 -12    0.15    0.19 
  -7  -7 -12    0.20    0.23 
  -8  -7 -12    0.03    0.20 
   5  -8 -12    0.06    0.21 
   4  -8 -12    0.10    0.18 
   3  -8 -12    2.80    0.32 
   2  -8 -12    0.25    0.15 
   2  -8 -12    0.07    0.13 
   1  -8 -12    0.70    0.21 
   1  -8 -12    0.59    0.18 
   0  -8 -12    0.20    0.12 
   0  -8 -12    0.32    0.16 
  -1  -8 -12    0.11    0.12 
  -1  -8 -12    0.09    0.15 
  -2  -8 -12    0.18    0.13 
  -2  -8 -12   -0.05    0.13 
  -3  -8 -12   -0.04    0.14 
  -4  -8 -12    0.05    0.15 
  -5  -8 -12    0.35    0.20 
  -6  -8 -12    0.13    0.19 
  -7  -8 -12    0.18    0.20 
  -8  -8 -12    0.64    0.28 
   2  -9 -12    1.22    0.24 
   2  -9 -12    1.54    0.27 
   1  -9 -12    0.15    0.16 
   1  -9 -12    0.13    0.14 
   0  -9 -12    0.72    0.22 
   0  -9 -12    0.45    0.16 
  -1  -9 -12   -0.13    0.13 
  -1  -9 -12    0.29    0.13 
  -2  -9 -12    0.84    0.19 
  -2  -9 -12    0.84    0.23 
  -3  -9 -12    0.82    0.25 
  -4  -9 -12    0.19    0.20 
  -5  -9 -12    0.28    0.21 
  -6  -9 -12   -0.11    0.20 
  -7  -9 -12    0.21    0.22 
  -8  -9 -12    0.09    0.24 
   3 -10 -12    0.22    0.21 
   2 -10 -12    0.01    0.17 
   1 -10 -12    1.47    0.28 
   0 -10 -12   -0.04    0.15 
  -1 -10 -12    1.34    0.28 
  -2 -10 -12    0.09    0.17 
  -3 -10 -12    1.78    0.34 
  -4 -10 -12    2.29    0.37 
  -5 -10 -12    0.24    0.23 
  -6 -10 -12    0.28    0.23 
  -7 -10 -12    2.07    0.39 
   2 -11 -12    0.37    0.25 
   1 -11 -12    0.94    0.27 
   0 -11 -12    0.10    0.19 
  -1 -11 -12    0.32    0.21 
  -2 -11 -12    0.12    0.21 
  -3 -11 -12    0.33    0.23 
  -4 -11 -12    0.09    0.23 
  -5 -11 -12    1.93    0.39 
  -6 -11 -12   -0.02    0.23 
   1 -12 -12    0.06    0.23 
   0 -12 -12    0.41    0.24 
  -1 -12 -12    0.65    0.27 
  -2 -12 -12    0.05    0.24 
  -3 -12 -12    1.55    0.36 
  -4 -12 -12    0.12    0.27 
  -5 -12 -12    1.12    0.34 
   1   5 -13    1.04    0.25 
   0   5 -13   -0.04    0.15 
  -1   5 -13    0.08    0.18 
   4   4 -13    0.13    0.25 
   3   4 -13    1.87    0.33 
   2   4 -13    0.30    0.20 
   1   4 -13    1.76    0.30 
   0   4 -13   -0.15    0.16 
  -1   4 -13    0.45    0.23 
   5   3 -13    0.25    0.26 
   4   3 -13    0.19    0.22 
   3   3 -13    1.15    0.28 
   2   3 -13    1.20    0.26 
   1   3 -13   -0.02    0.14 
   0   3 -13    0.53    0.20 
  -1   3 -13    0.21    0.17 
  -2   3 -13    0.33    0.19 
  -4   3 -13   -0.12    0.19 
   5   2 -13    1.07    0.32 
   4   2 -13    0.26    0.21 
   3   2 -13    0.95    0.26 
   2   2 -13    1.15    0.25 
   1   2 -13    0.74    0.22 
   0   2 -13    0.13    0.16 
  -1   2 -13    0.04    0.13 
  -2   2 -13    0.54    0.19 
  -3   2 -13    1.57    0.27 
  -4   2 -13    1.44    0.30 
  -5   2 -13    0.42    0.23 
   6   1 -13    0.27    0.28 
   5   1 -13    0.23    0.23 
   4   1 -13    0.95    0.26 
   3   1 -13    0.11    0.17 
   2   1 -13    0.24    0.17 
   1   1 -13    0.39    0.19 
   0   1 -13    0.43    0.19 
  -1   1 -13    0.30    0.16 
  -3   1 -13    0.24    0.17 
  -4   1 -13    0.44    0.21 
  -5   1 -13    1.39    0.29 
  -6   1 -13    0.26    0.23 
   6   0 -13    0.74    0.31 
   5   0 -13    1.35    0.30 
   4   0 -13    0.59    0.22 
   3   0 -13    2.11    0.31 
   2   0 -13    1.21    0.25 
   1   0 -13    1.02    0.23 
   0   0 -13    3.39    0.36 
  -1   0 -13    0.33    0.17 
  -2   0 -13    0.19    0.15 
  -3   0 -13    0.20    0.16 
  -4   0 -13    1.61    0.27 
  -5   0 -13    0.10    0.17 
  -6   0 -13    0.38    0.23 
   6  -1 -13    0.49    0.27 
   5  -1 -13    1.68    0.34 
   4  -1 -13    0.93    0.26 
   3  -1 -13    1.05    0.24 
   2  -1 -13    1.23    0.25 
   1  -1 -13    0.64    0.18 
   0  -1 -13    0.65    0.19 
  -1  -1 -13    2.39    0.30 
  -2  -1 -13    2.34    0.27 
  -3  -1 -13    0.03    0.13 
  -4  -1 -13    1.78    0.29 
  -5  -1 -13    0.19    0.19 
  -6  -1 -13    0.06    0.19 
  -7  -1 -13   -0.02    0.23 
   6  -2 -13    0.12    0.22 
   5  -2 -13    0.94    0.27 
   4  -2 -13    0.77    0.23 
   3  -2 -13    0.28    0.17 
   2  -2 -13    0.62    0.20 
   1  -2 -13    1.25    0.24 
   0  -2 -13    0.25    0.14 
  -1  -2 -13    0.25    0.14 
  -1  -2 -13    0.40    0.16 
  -2  -2 -13    0.14    0.13 
  -3  -2 -13    1.82    0.27 
  -4  -2 -13    7.70    0.50 
  -5  -2 -13    0.33    0.18 
  -6  -2 -13    0.08    0.18 
  -7  -2 -13   -0.06    0.23 
   6  -3 -13   -0.26    0.18 
   5  -3 -13    0.42    0.22 
   4  -3 -13   -0.02    0.14 
   3  -3 -13    0.15    0.15 
   2  -3 -13    0.26    0.16 
   1  -3 -13    1.43    0.25 
   0  -3 -13    0.06    0.13 
  -1  -3 -13    0.15    0.13 
  -1  -3 -13    0.26    0.14 
  -2  -3 -13    2.66    0.29 
  -3  -3 -13    0.93    0.21 
  -4  -3 -13    0.47    0.19 
  -5  -3 -13    0.95    0.24 
  -6  -3 -13   -0.03    0.17 
  -7  -3 -13    0.14    0.22 
   6  -4 -13    0.94    0.28 
   5  -4 -13   -0.07    0.17 
   4  -4 -13    0.61    0.20 
   3  -4 -13    1.88    0.29 
   2  -4 -13    1.45    0.26 
   1  -4 -13   -0.12    0.10 
   0  -4 -13    1.29    0.21 
   0  -4 -13    1.29    0.25 
  -1  -4 -13   -0.08    0.12 
  -1  -4 -13    0.00    0.11 
  -2  -4 -13    0.44    0.17 
  -3  -4 -13   -0.22    0.11 
  -4  -4 -13    0.00    0.14 
  -5  -4 -13    0.20    0.17 
  -6  -4 -13    0.01    0.16 
  -7  -4 -13    0.67    0.26 
  -8  -4 -13   -0.05    0.25 
   6  -5 -13   -0.02    0.21 
   5  -5 -13   -0.06    0.17 
   4  -5 -13    1.47    0.27 
   3  -5 -13    0.84    0.22 
   2  -5 -13    1.28    0.24 
   1  -5 -13    4.23    0.39 
   0  -5 -13    0.53    0.17 
   0  -5 -13    0.83    0.19 
  -1  -5 -13    0.30    0.15 
  -1  -5 -13    0.02    0.14 
  -2  -5 -13    2.52    0.30 
  -3  -5 -13    0.51    0.19 
  -4  -5 -13    0.24    0.17 
  -5  -5 -13    2.57    0.35 
  -6  -5 -13   -0.13    0.18 
  -7  -5 -13    0.38    0.23 
  -8  -5 -13    0.96    0.31 
   5  -6 -13    0.02    0.19 
   4  -6 -13    0.73    0.22 
   3  -6 -13    0.21    0.16 
   2  -6 -13    2.86    0.33 
   1  -6 -13    1.70    0.26 
   1  -6 -13    1.90    0.27 
   0  -6 -13   10.14    0.56 
   0  -6 -13    9.52    0.56 
  -1  -6 -13    0.94    0.21 
  -1  -6 -13    0.80    0.21 
  -2  -6 -13    0.15    0.15 
  -3  -6 -13    0.69    0.22 
  -4  -6 -13    0.20    0.16 
  -5  -6 -13    3.33    0.39 
  -7  -6 -13    1.03    0.31 
  -8  -6 -13   -0.02    0.23 
   5  -7 -13   -0.11    0.20 
   4  -7 -13    0.00    0.18 
   3  -7 -13    0.52    0.19 
   2  -7 -13    2.33    0.30 
   1  -7 -13   -0.03    0.12 
   1  -7 -13    0.06    0.15 
   0  -7 -13    0.01    0.12 
   0  -7 -13    0.09    0.15 
  -1  -7 -13    1.68    0.27 
  -1  -7 -13    1.39    0.25 
  -2  -7 -13    0.41    0.16 
  -2  -7 -13    0.32    0.17 
  -3  -7 -13    0.24    0.17 
  -4  -7 -13    0.05    0.16 
  -5  -7 -13    0.80    0.25 
  -6  -7 -13    0.59    0.26 
  -7  -7 -13    0.10    0.24 
   4  -8 -13    0.00    0.19 
   3  -8 -13    0.31    0.18 
   2  -8 -13    0.36    0.19 
   1  -8 -13    0.05    0.14 
   1  -8 -13    0.58    0.20 
   0  -8 -13    0.43    0.18 
   0  -8 -13    0.62    0.20 
  -1  -8 -13    0.69    0.21 
  -1  -8 -13    0.78    0.21 
  -2  -8 -13    0.07    0.15 
  -2  -8 -13   -0.01    0.13 
  -3  -8 -13    0.44    0.19 
  -4  -8 -13    0.21    0.18 
  -5  -8 -13    0.29    0.22 
  -6  -8 -13    0.33    0.23 
  -7  -8 -13   -0.12    0.22 
   2  -9 -13    0.29    0.19 
   2  -9 -13    0.06    0.17 
   1  -9 -13    0.09    0.14 
   1  -9 -13   -0.11    0.14 
   0  -9 -13    0.90    0.25 
   0  -9 -13    0.53    0.18 
  -1  -9 -13    0.09    0.14 
  -1  -9 -13    0.16    0.17 
  -2  -9 -13    0.14    0.18 
  -2  -9 -13    0.05    0.13 
  -3  -9 -13    0.00    0.17 
  -4  -9 -13    2.05    0.34 
  -5  -9 -13    0.04    0.20 
  -6  -9 -13    0.08    0.23 
  -7  -9 -13   -0.08    0.24 
   2 -10 -13    0.04    0.21 
   1 -10 -13    0.07    0.17 
   0 -10 -13    0.87    0.25 
  -1 -10 -13    0.17    0.18 
  -2 -10 -13    0.16    0.19 
  -3 -10 -13    0.06    0.21 
  -4 -10 -13   -0.13    0.19 
  -5 -10 -13    0.08    0.23 
  -6 -10 -13    2.99    0.44 
   1 -11 -13    0.10    0.21 
   0 -11 -13    0.66    0.28 
  -1 -11 -13    2.63    0.40 
  -2 -11 -13    0.12    0.23 
  -3 -11 -13   -0.02    0.23 
  -4 -11 -13    1.45    0.37 
  -5 -11 -13    0.31    0.29 
  -1 -12 -13   -0.03    0.23 
  -2 -12 -13    0.61    0.31 
  -3 -12 -13   -0.12    0.25 
   3   3 -14    0.12    0.24 
   2   3 -14    0.41    0.25 
   1   3 -14    0.03    0.19 
   0   3 -14    0.99    0.27 
  -1   3 -14    0.19    0.22 
  -2   3 -14    0.65    0.25 
   4   2 -14    1.32    0.33 
   3   2 -14    0.46    0.25 
   2   2 -14   -0.07    0.18 
   1   2 -14    1.53    0.30 
   0   2 -14    0.74    0.25 
  -1   2 -14    0.68    0.23 
  -2   2 -14    0.95    0.24 
   4   1 -14    0.70    0.27 
   3   1 -14    2.62    0.38 
   2   1 -14    0.02    0.17 
   1   1 -14   -0.02    0.16 
   0   1 -14    0.02    0.16 
  -1   1 -14    0.14    0.17 
  -2   1 -14    0.21    0.18 
  -4   1 -14   -0.20    0.18 
  -5   1 -14   -0.03    0.21 
   5   0 -14    0.56    0.28 
   4   0 -14   -0.12    0.19 
   3   0 -14    0.04    0.19 
   2   0 -14    1.04    0.26 
   1   0 -14    1.09    0.26 
   0   0 -14    0.58    0.22 
  -1   0 -14   -0.14    0.14 
  -2   0 -14    1.11    0.24 
  -3   0 -14    1.57    0.28 
  -4   0 -14    0.37    0.21 
  -5   0 -14    0.32    0.24 
   5  -1 -14    1.20    0.34 
   4  -1 -14    0.54    0.22 
   3  -1 -14    0.06    0.17 
   2  -1 -14    0.35    0.19 
   1  -1 -14   -0.02    0.15 
   0  -1 -14    1.61    0.29 
  -1  -1 -14   -0.10    0.13 
  -2  -1 -14    1.11    0.23 
  -3  -1 -14    1.76    0.28 
  -4  -1 -14    0.37    0.20 
  -5  -1 -14    0.38    0.22 
  -6  -1 -14   -0.12    0.22 
   5  -2 -14   -0.05    0.22 
   4  -2 -14   -0.11    0.16 
   3  -2 -14    0.28    0.19 
   2  -2 -14    0.44    0.18 
   1  -2 -14    0.90    0.23 
   0  -2 -14    1.76    0.29 
  -1  -2 -14    0.19    0.16 
  -2  -2 -14    0.97    0.21 
  -2  -2 -14    1.29    0.25 
  -3  -2 -14    5.44    0.41 
  -4  -2 -14    0.84    0.24 
  -5  -2 -14    1.25    0.28 
  -6  -2 -14    0.39    0.25 
   5  -3 -14    0.13    0.22 
   4  -3 -14    0.24    0.18 
   3  -3 -14    0.21    0.17 
   2  -3 -14    1.42    0.27 
   1  -3 -14    0.54    0.20 
   0  -3 -14    1.19    0.25 
  -1  -3 -14    0.87    0.21 
  -2  -3 -14    0.17    0.14 
  -3  -3 -14    0.60    0.20 
  -4  -3 -14    2.66    0.34 
  -5  -3 -14    0.07    0.17 
  -6  -3 -14    0.27    0.23 
   5  -4 -14    3.34    0.42 
   4  -4 -14    0.22    0.19 
   3  -4 -14    0.24    0.18 
   2  -4 -14   -0.11    0.12 
   1  -4 -14    0.91    0.23 
   0  -4 -14    0.34    0.17 
  -1  -4 -14    3.04    0.36 
  -1  -4 -14    3.01    0.31 
  -2  -4 -14    0.75    0.21 
  -2  -4 -14    0.47    0.18 
  -3  -4 -14    2.33    0.31 
  -4  -4 -14    0.10    0.16 
  -5  -4 -14    0.33    0.19 
  -6  -4 -14    0.21    0.22 
  -7  -4 -14    0.23    0.25 
   5  -5 -14   -0.08    0.20 
   4  -5 -14    0.42    0.21 
   3  -5 -14    0.72    0.23 
   2  -5 -14    0.16    0.16 
   1  -5 -14    0.14    0.15 
   0  -5 -14   -0.06    0.12 
  -1  -5 -14    0.46    0.18 
  -1  -5 -14    0.65    0.19 
  -2  -5 -14    0.05    0.14 
  -2  -5 -14    0.18    0.15 
  -3  -5 -14    0.08    0.16 
  -4  -5 -14    0.02    0.16 
  -5  -5 -14    0.06    0.19 
  -6  -5 -14    1.91    0.36 
  -7  -5 -14    0.80    0.31 
   4  -6 -14    0.08    0.17 
   3  -6 -14    0.12    0.17 
   2  -6 -14    0.34    0.17 
   1  -6 -14    3.43    0.36 
   0  -6 -14    0.07    0.16 
   0  -6 -14    0.11    0.15 
  -1  -6 -14    0.03    0.15 
  -1  -6 -14    0.21    0.15 
  -2  -6 -14    1.91    0.29 
  -2  -6 -14    1.81    0.29 
  -3  -6 -14    0.87    0.24 
  -4  -6 -14   -0.10    0.15 
  -5  -6 -14   -0.24    0.18 
  -6  -6 -14   -0.11    0.21 
  -7  -6 -14    0.41    0.29 
   4  -7 -14    0.87    0.28 
   3  -7 -14    0.14    0.18 
   2  -7 -14    0.55    0.20 
   1  -7 -14    0.32    0.18 
   0  -7 -14    0.14    0.16 
   0  -7 -14    0.01    0.13 
  -1  -7 -14   -0.14    0.13 
  -1  -7 -14   -0.16    0.14 
  -2  -7 -14    0.02    0.15 
  -2  -7 -14    0.01    0.13 
  -3  -7 -14    0.22    0.18 
  -4  -7 -14    1.23    0.28 
  -5  -7 -14    0.42    0.24 
  -6  -7 -14    0.21    0.24 
   3  -8 -14    0.78    0.25 
   2  -8 -14    0.14    0.17 
   1  -8 -14   -0.08    0.13 
   0  -8 -14    0.44    0.18 
   0  -8 -14    0.46    0.21 
  -1  -8 -14    0.02    0.12 
  -1  -8 -14    0.05    0.18 
  -2  -8 -14    0.38    0.20 
  -2  -8 -14    0.46    0.18 
  -3  -8 -14    0.45    0.22 
  -4  -8 -14    0.15    0.21 
  -5  -8 -14    1.31    0.33 
  -6  -8 -14   -0.10    0.24 
   2  -9 -14    2.56    0.35 
   1  -9 -14   -0.04    0.19 
   1  -9 -14   -0.06    0.15 
   0  -9 -14    0.05    0.16 
   0  -9 -14    0.07    0.19 
  -1  -9 -14    0.16    0.15 
  -1  -9 -14    0.38    0.21 
  -2  -9 -14    0.04    0.18 
  -2  -9 -14    0.04    0.15 
  -3  -9 -14    2.20    0.36 
  -3  -9 -14    2.72    0.34 
  -4  -9 -14    0.81    0.29 
  -5  -9 -14    0.92    0.31 
  -6  -9 -14    1.00    0.34 
   1 -10 -14    0.95    0.28 
   0 -10 -14    0.15    0.21 
  -1 -10 -14   -0.06    0.20 
  -2 -10 -14    0.25    0.23 
  -3 -10 -14    0.00    0.22 
  -4 -10 -14    0.86    0.32 
  -5 -10 -14    0.06    0.26 
  -1 -11 -14    0.38    0.26 
  -2 -11 -14    0.57    0.30 
  -3 -11 -14    0.12    0.26 
   0   2 -15    0.07    0.21 
   2   1 -15    0.68    0.27 
   1   1 -15    0.58    0.24 
   0   1 -15    0.41    0.23 
  -1   1 -15    0.00    0.20 
  -2   1 -15    0.01    0.19 
  -3   1 -15    0.47    0.24 
   3   0 -15    2.00    0.37 
   2   0 -15   -0.11    0.19 
   1   0 -15    0.16    0.21 
   0   0 -15   -0.10    0.18 
  -1   0 -15    0.82    0.25 
  -2   0 -15    0.05    0.19 
   3  -1 -15   -0.12    0.20 
   2  -1 -15   -0.13    0.17 
   1  -1 -15    0.51    0.22 
   0  -1 -15   -0.02    0.16 
  -1  -1 -15    0.23    0.20 
  -2  -1 -15    0.70    0.25 
  -4  -1 -15    0.35    0.22 
   4  -2 -15    0.07    0.20 
   3  -2 -15    0.06    0.19 
   2  -2 -15    0.01    0.17 
   1  -2 -15    1.74    0.31 
   0  -2 -15    0.25    0.18 
  -1  -2 -15    0.20    0.18 
  -2  -2 -15    0.02    0.17 
  -3  -2 -15    6.34    0.48 
  -4  -2 -15    1.26    0.28 
  -5  -2 -15    0.31    0.25 
   4  -3 -15    0.49    0.24 
   3  -3 -15   -0.16    0.16 
   2  -3 -15    0.06    0.17 
   1  -3 -15    0.33    0.18 
   0  -3 -15    1.88    0.30 
  -1  -3 -15    0.02    0.15 
  -2  -3 -15   -0.07    0.15 
  -3  -3 -15    0.05    0.18 
  -4  -3 -15    0.67    0.23 
  -5  -3 -15    0.25    0.22 
   4  -4 -15    0.02    0.22 
   3  -4 -15    3.40    0.42 
   2  -4 -15    1.35    0.28 
   1  -4 -15    2.09    0.32 
   0  -4 -15    1.35    0.26 
  -1  -4 -15    1.75    0.30 
  -2  -4 -15    0.49    0.21 
  -2  -4 -15    0.99    0.24 
  -3  -4 -15    0.47    0.21 
  -4  -4 -15   -0.07    0.18 
  -5  -4 -15    1.17    0.30 
   3  -5 -15    0.34    0.21 
   2  -5 -15    0.20    0.18 
   1  -5 -15    2.70    0.36 
   0  -5 -15    1.28    0.27 
  -1  -5 -15    0.51    0.20 
  -2  -5 -15    0.15    0.17 
  -2  -5 -15    0.33    0.19 
  -3  -5 -15    0.96    0.26 
  -4  -5 -15    0.98    0.28 
  -5  -5 -15    0.36    0.23 
   3  -6 -15    0.46    0.21 
   2  -6 -15    0.25    0.19 
   1  -6 -15    1.01    0.26 
   0  -6 -15    1.94    0.30 
  -1  -6 -15    0.59    0.22 
  -1  -6 -15    0.13    0.19 
  -2  -6 -15    0.01    0.16 
  -2  -6 -15    0.23    0.18 
  -3  -6 -15    0.98    0.27 
  -4  -6 -15    0.34    0.22 
  -5  -6 -15   -0.04    0.21 
   2  -7 -15   -0.24    0.16 
   1  -7 -15    1.73    0.30 
   0  -7 -15    0.10    0.17 
  -1  -7 -15    0.86    0.26 
  -1  -7 -15    0.60    0.19 
  -2  -7 -15   -0.13    0.16 
  -2  -7 -15    0.05    0.15 
  -3  -7 -15   -0.13    0.18 
  -4  -7 -15    0.23    0.23 
  -5  -7 -15    0.33    0.26 
   2  -8 -15   -0.14    0.18 
   1  -8 -15    2.33    0.33 
   0  -8 -15    0.05    0.17 
  -1  -8 -15    0.44    0.23 
  -1  -8 -15    0.56    0.20 
  -2  -8 -15    0.76    0.26 
  -2  -8 -15    0.83    0.25 
  -3  -8 -15   -0.16    0.15 
  -3  -8 -15    0.02    0.20 
  -4  -8 -15    0.23    0.24 
  -5  -8 -15    0.05    0.25 
   1  -9 -15    0.08    0.19 
   0  -9 -15    0.67    0.25 
   0  -9 -15    1.16    0.31 
  -1  -9 -15    0.12    0.22 
  -1  -9 -15    0.04    0.17 
  -2  -9 -15   -0.09    0.21 
  -2  -9 -15   -0.16    0.14 
  -3  -9 -15    1.69    0.30 
  -3  -9 -15    1.84    0.36 
  -4  -9 -15    0.77    0.31 
   1  -1 -16   -0.19    0.18 
   0  -1 -16   -0.21    0.18 
  -1  -1 -16    0.57    0.26 
  -2  -1 -16    0.03    0.22 
   1  -2 -16    0.81    0.26 
   0  -2 -16   -0.15    0.18 
  -1  -2 -16    0.35    0.22 
  -2  -2 -16    0.35    0.24 
  -3  -2 -16    1.02    0.30 
   2  -3 -16    0.17    0.21 
   1  -3 -16    0.19    0.20 
   0  -3 -16    0.16    0.20 
  -1  -3 -16   -0.13    0.18 
  -2  -3 -16    0.86    0.27 
  -3  -3 -16    0.71    0.26 
   2  -4 -16    0.13    0.20 
   1  -4 -16   -0.09    0.17 
   0  -4 -16    0.14    0.18 
  -1  -4 -16   -0.09    0.13 
  -2  -4 -16   -0.01    0.19 
  -3  -4 -16    1.66    0.34 
  -3  -4 -16    0.96    0.29 
   2  -5 -16    0.85    0.28 
   1  -5 -16    0.29    0.21 
   0  -5 -16    0.04    0.17 
  -1  -5 -16    0.79    0.23 
  -2  -5 -16   -0.02    0.19 
  -3  -5 -16    0.10    0.21 
  -3  -5 -16    0.15    0.19 
  -4  -5 -16    0.57    0.27 
   1  -6 -16    0.19    0.19 
   0  -6 -16    0.13    0.18 
  -1  -6 -16    0.91    0.25 
  -2  -6 -16    0.37    0.22 
  -2  -6 -16    0.97    0.29 
  -3  -6 -16   -0.14    0.22 
  -3  -6 -16   -0.21    0.17 
   0  -7 -16    0.21    0.20 
  -1  -7 -16   -0.01    0.15 
  -2  -7 -16    0.27    0.22 
  -2  -7 -16    0.43    0.24 
  -3  -7 -16    0.26    0.24 
  -3  -7 -16    0.14    0.20 
   0   0   0    0.00    0.00 
;
_shelx_hkl_checksum              55135
loop_
_space_group_symop_operation_xyz
'x, y, z'
'-x, -y, -z'
loop_
_atom_site_label
_atom_site_type_symbol
_atom_site_fract_x
_atom_site_fract_y
_atom_site_fract_z
_atom_site_U_iso_or_equiv
_atom_site_adp_type
_atom_site_occupancy
_atom_site_site_symmetry_order
_atom_site_calc_flag
_atom_site_refinement_flags_posn
_atom_site_refinement_flags_adp
S1 S 0.37847(6) 0.15512(5) 0.70291(5) 0.03614(19) Uani 1 1 d . .
N1 N 0.05952(19) 0.29904(16) 0.62213(15) 0.0345(4) Uani 1 1 d . .
N2 N 0.29260(19) 0.30420(16) 0.70144(15) 0.0358(4) Uani 1 1 d . .
O1 O 0.34956(17) 0.13598(15) 0.59911(13) 0.0450(4) Uani 1 1 d . .
O2 O 0.52893(16) 0.14459(15) 0.73609(14) 0.0468(4) Uani 1 1 d . .
C1 C 0.3372(2) 0.3832(2) 0.76239(18) 0.0361(5) Uani 1 1 d . .
C2 C 0.4789(3) 0.3816(2) 0.8001(2) 0.0482(6) Uani 1 1 d . .
H2 H 0.5616 0.3193 0.7922 0.058 Uiso 1 1 calc R U
C3 C 0.4922(3) 0.4754(3) 0.8496(2) 0.0571(7) Uani 1 1 d . .
H3 H 0.5854 0.4750 0.8774 0.068 Uiso 1 1 calc R U
C4 C 0.3716(3) 0.5706(3) 0.8593(2) 0.0540(7) Uani 1 1 d . .
H4 H 0.3851 0.6337 0.8920 0.065 Uiso 1 1 calc R U
C5 C 0.2319(3) 0.5726(2) 0.8211(2) 0.0453(6) Uani 1 1 d . .
H5 H 0.1507 0.6366 0.8279 0.054 Uiso 1 1 calc R U
C6 C 0.2132(2) 0.4780(2) 0.77225(18) 0.0347(5) Uani 1 1 d . .
C7 C 0.0865(2) 0.45650(19) 0.71935(17) 0.0322(5) Uani 1 1 d . .
C8 C 0.1376(2) 0.35140(19) 0.67656(17) 0.0315(5) Uani 1 1 d . .
C9 C -0.0851(2) 0.3587(2) 0.60204(17) 0.0332(5) Uani 1 1 d . .
C10 C -0.1465(2) 0.4661(2) 0.63857(18) 0.0359(5) Uani 1 1 d . .
H10 H -0.2464 0.5050 0.6219 0.043 Uiso 1 1 calc R U
C11 C -0.0641(2) 0.51711(19) 0.69892(17) 0.0329(5) Uani 1 1 d . .
C12 C -0.1406(2) 0.6248(2) 0.74402(19) 0.0349(5) Uani 1 1 d . .
C13 C -0.2155(3) 0.7383(2) 0.6723(2) 0.0471(6) Uani 1 1 d . .
H13 H -0.2112 0.7495 0.5950 0.057 Uiso 1 1 calc R U
C14 C -0.2961(3) 0.8345(2) 0.7143(2) 0.0571(7) Uani 1 1 d . .
H14 H -0.3439 0.9113 0.6654 0.069 Uiso 1 1 calc R U
C15 C -0.3059(3) 0.8171(3) 0.8289(3) 0.0575(7) Uani 1 1 d . .
H15 H -0.3618 0.8817 0.8574 0.069 Uiso 1 1 calc R U
C16 C -0.2338(3) 0.7053(3) 0.9007(2) 0.0512(6) Uani 1 1 d . .
H16 H -0.2410 0.6937 0.9780 0.061 Uiso 1 1 calc R U
C17 C -0.1502(3) 0.6092(2) 0.85910(19) 0.0413(5) Uani 1 1 d . .
H17 H -0.1002 0.5337 0.9084 0.050 Uiso 1 1 calc R U
C18 C -0.1760(2) 0.2996(2) 0.54335(18) 0.0345(5) Uani 1 1 d . .
C19 C -0.3136(3) 0.3638(2) 0.4958(2) 0.0427(6) Uani 1 1 d . .
H19 H -0.3509 0.4475 0.4997 0.051 Uiso 1 1 calc R U
C20 C -0.3961(3) 0.3059(3) 0.4430(2) 0.0496(6) Uani 1 1 d . .
H20 H -0.4879 0.3511 0.4110 0.060 Uiso 1 1 calc R U
C21 C -0.3445(3) 0.1827(3) 0.4369(2) 0.0529(7) Uani 1 1 d . .
H21 H -0.4008 0.1437 0.4013 0.063 Uiso 1 1 calc R U
C22 C -0.2094(3) 0.1172(3) 0.4837(2) 0.0605(7) Uani 1 1 d . .
H22 H -0.1739 0.0329 0.4806 0.073 Uiso 1 1 calc R U
C23 C -0.1259(3) 0.1754(3) 0.5351(2) 0.0557(7) Uani 1 1 d . .
H23 H -0.0332 0.1302 0.5653 0.067 Uiso 1 1 calc R U
C24 C 0.2866(2) 0.05207(19) 0.81112(18) 0.0341(5) Uani 1 1 d . .
C25 C 0.1814(3) -0.0118(2) 0.7864(2) 0.0448(6) Uani 1 1 d . .
H25 H 0.1551 0.0025 0.7122 0.054 Uiso 1 1 calc R U
C26 C 0.1159(3) -0.0970(2) 0.8731(2) 0.0508(6) Uani 1 1 d . .
H26 H 0.0444 -0.1396 0.8565 0.061 Uiso 1 1 calc R U
C27 C 0.1535(3) -0.1209(2) 0.9839(2) 0.0461(6) Uani 1 1 d . .
C28 C 0.2571(3) -0.0541(2) 1.0067(2) 0.0504(6) Uani 1 1 d . .
H28 H 0.2821 -0.0677 1.0811 0.060 Uiso 1 1 calc R U
C29 C 0.3239(3) 0.0317(2) 0.92232(19) 0.0439(6) Uani 1 1 d . .
H29 H 0.3934 0.0758 0.9393 0.053 Uiso 1 1 calc R U
C30 C 0.0849(3) -0.2179(3) 1.0770(3) 0.0699(9) Uani 1 1 d . .
H30A H 0.0528 -0.1816 1.1382 0.105 Uiso 1 1 calc R U
H30B H 0.1589 -0.2951 1.1030 0.105 Uiso 1 1 calc R U
H30C H -0.0006 -0.2390 1.0492 0.105 Uiso 1 1 calc R U
loop_
_atom_site_aniso_label
_atom_site_aniso_U_11
_atom_site_aniso_U_22
_atom_site_aniso_U_33
_atom_site_aniso_U_23
_atom_site_aniso_U_13
_atom_site_aniso_U_12
S1 0.0310(3) 0.0389(3) 0.0346(3) -0.0086(2) -0.0001(2) 0.0001(2)
N1 0.0303(10) 0.0377(10) 0.0348(10) -0.0100(8) -0.0028(8) -0.0040(8)
N2 0.0306(10) 0.0360(10) 0.0391(10) -0.0084(8) -0.0055(8) -0.0034(8)
O1 0.0473(10) 0.0512(10) 0.0349(9) -0.0157(7) 0.0021(7) -0.0011(7)
O2 0.0297(8) 0.0503(9) 0.0538(10) -0.0083(8) -0.0021(7) -0.0012(7)
C1 0.0348(12) 0.0377(12) 0.0349(12) -0.0051(10) -0.0043(10) -0.0106(9)
C2 0.0362(13) 0.0533(15) 0.0547(16) -0.0119(12) -0.0082(11) -0.0098(11)
C3 0.0460(15) 0.0683(18) 0.0619(18) -0.0169(14) -0.0164(13) -0.0191(13)
C4 0.0571(16) 0.0588(16) 0.0563(17) -0.0246(13) -0.0076(13) -0.0197(13)
C5 0.0455(14) 0.0449(14) 0.0501(15) -0.0181(12) -0.0034(12) -0.0109(11)
C6 0.0354(12) 0.0353(12) 0.0319(12) -0.0046(9) -0.0035(10) -0.0093(9)
C7 0.0346(11) 0.0317(11) 0.0288(11) -0.0047(9) -0.0031(9) -0.0073(9)
C8 0.0295(11) 0.0319(11) 0.0301(11) -0.0048(9) -0.0022(9) -0.0041(9)
C9 0.0336(11) 0.0347(11) 0.0291(11) -0.0066(9) -0.0023(9) -0.0041(9)
C10 0.0309(11) 0.0376(12) 0.0374(12) -0.0112(10) -0.0055(10) 0.0005(9)
C11 0.0350(11) 0.0307(11) 0.0303(11) -0.0061(9) -0.0011(9) -0.0036(9)
C12 0.0320(11) 0.0343(12) 0.0391(12) -0.0121(10) -0.0026(10) -0.0042(9)
C13 0.0544(15) 0.0425(14) 0.0404(14) -0.0104(11) -0.0069(12) 0.0012(11)
C14 0.0612(17) 0.0408(14) 0.0639(18) -0.0162(13) -0.0123(14) 0.0104(12)
C15 0.0557(16) 0.0527(16) 0.0719(19) -0.0373(15) -0.0041(15) 0.0035(13)
C16 0.0562(16) 0.0590(16) 0.0452(15) -0.0272(13) 0.0006(12) -0.0076(13)
C17 0.0438(13) 0.0409(13) 0.0388(13) -0.0117(10) -0.0053(11) -0.0049(10)
C18 0.0316(11) 0.0405(12) 0.0317(12) -0.0113(10) -0.0006(9) -0.0060(9)
C19 0.0429(13) 0.0429(13) 0.0433(14) -0.0135(11) -0.0058(11) -0.0061(10)
C20 0.0362(13) 0.0655(17) 0.0493(15) -0.0179(13) -0.0081(11) -0.0087(12)
C21 0.0497(15) 0.0680(18) 0.0535(16) -0.0306(14) -0.0040(13) -0.0183(13)
C22 0.0594(17) 0.0615(17) 0.073(2) -0.0405(15) -0.0117(15) -0.0018(14)
C23 0.0487(15) 0.0586(16) 0.0675(18) -0.0355(14) -0.0168(13) 0.0060(12)
C24 0.0335(11) 0.0316(11) 0.0362(12) -0.0111(9) -0.0047(10) 0.0008(9)
C25 0.0530(15) 0.0435(13) 0.0414(14) -0.0152(11) -0.0055(12) -0.0099(11)
C26 0.0565(16) 0.0412(14) 0.0593(17) -0.0160(12) 0.0000(13) -0.0176(12)
C27 0.0475(14) 0.0350(12) 0.0485(15) -0.0051(11) 0.0057(12) -0.0034(10)
C28 0.0530(15) 0.0583(16) 0.0325(13) -0.0032(11) -0.0055(11) -0.0063(12)
C29 0.0441(13) 0.0498(14) 0.0384(13) -0.0104(11) -0.0064(11) -0.0108(11)
C30 0.072(2) 0.0519(16) 0.070(2) 0.0024(14) 0.0152(16) -0.0120(14)
loop_
_atom_type_symbol
_atom_type_description
_atom_type_scat_dispersion_real
_atom_type_scat_dispersion_imag
_atom_type_scat_source
C C 0.0033 0.0016 'International Tables Vol C Tables 4.2.6.8 and 6.1.1.4'
H H 0.0000 0.0000 'International Tables Vol C Tables 4.2.6.8 and 6.1.1.4'
N N 0.0061 0.0033 'International Tables Vol C Tables 4.2.6.8 and 6.1.1.4'
O O 0.0106 0.0060 'International Tables Vol C Tables 4.2.6.8 and 6.1.1.4'
S S 0.1246 0.1234 'International Tables Vol C Tables 4.2.6.8 and 6.1.1.4'
loop_
_geom_angle_atom_site_label_1
_geom_angle_atom_site_label_2
_geom_angle_atom_site_label_3
_geom_angle
O1 S1 O2 120.90(10)
O1 S1 N2 107.57(9)
O2 S1 N2 105.53(9)
O1 S1 C24 108.63(10)
O2 S1 C24 108.22(10)
N2 S1 C24 104.85(9)
C8 N1 C9 115.22(18)
C8 N2 C1 106.92(17)
C8 N2 S1 123.12(14)
C1 N2 S1 126.05(15)
C2 C1 C6 121.5(2)
C2 C1 N2 129.5(2)
C6 C1 N2 108.72(18)
C3 C2 C1 117.4(2)
C3 C2 H2 121.3
C1 C2 H2 121.3
C2 C3 C4 122.0(2)
C2 C3 H3 119.0
C4 C3 H3 119.0
C5 C4 C3 120.5(2)
C5 C4 H4 119.8
C3 C4 H4 119.8
C4 C5 C6 119.3(2)
C4 C5 H5 120.4
C6 C5 H5 120.4
C5 C6 C1 119.3(2)
C5 C6 C7 133.1(2)
C1 C6 C7 107.46(19)
C8 C7 C11 116.51(19)
C8 C7 C6 107.60(19)
C11 C7 C6 135.8(2)
N1 C8 C7 127.82(19)
N1 C8 N2 122.90(19)
C7 C8 N2 109.28(18)
N1 C9 C10 121.68(19)
N1 C9 C18 116.14(18)
C10 C9 C18 122.13(19)
C11 C10 C9 122.3(2)
C11 C10 H10 118.9
C9 C10 H10 118.9
C10 C11 C7 116.45(19)
C10 C11 C12 119.42(19)
C7 C11 C12 124.00(19)
C13 C12 C17 118.8(2)
C13 C12 C11 120.2(2)
C17 C12 C11 120.74(19)
C14 C13 C12 120.6(2)
C14 C13 H13 119.7
C12 C13 H13 119.7
C13 C14 C15 120.0(2)
C13 C14 H14 120.0
C15 C14 H14 120.0
C16 C15 C14 120.1(2)
C16 C15 H15 120.0
C14 C15 H15 120.0
C15 C16 C17 120.3(2)
C15 C16 H16 119.8
C17 C16 H16 119.8
C16 C17 C12 120.2(2)
C16 C17 H17 119.9
C12 C17 H17 119.9
C23 C18 C19 117.1(2)
C23 C18 C9 120.5(2)
C19 C18 C9 122.5(2)
C20 C19 C18 121.1(2)
C20 C19 H19 119.4
C18 C19 H19 119.4
C21 C20 C19 120.5(2)
C21 C20 H20 119.7
C19 C20 H20 119.7
C20 C21 C22 119.4(2)
C20 C21 H21 120.3
C22 C21 H21 120.3
C21 C22 C23 120.2(3)
C21 C22 H22 119.9
C23 C22 H22 119.9
C22 C23 C18 121.7(2)
C22 C23 H23 119.1
C18 C23 H23 119.1
C25 C24 C29 120.2(2)
C25 C24 S1 120.36(18)
C29 C24 S1 119.41(17)
C26 C25 C24 119.1(2)
C26 C25 H25 120.5
C24 C25 H25 120.5
C25 C26 C27 121.7(2)
C25 C26 H26 119.1
C27 C26 H26 119.1
C26 C27 C28 118.1(2)
C26 C27 C30 120.9(2)
C28 C27 C30 121.0(2)
C29 C28 C27 121.6(2)
C29 C28 H28 119.2
C27 C28 H28 119.2
C28 C29 C24 119.3(2)
C28 C29 H29 120.4
C24 C29 H29 120.4
C27 C30 H30A 109.5
C27 C30 H30B 109.5
H30A C30 H30B 109.5
C27 C30 H30C 109.5
H30A C30 H30C 109.5
H30B C30 H30C 109.5
loop_
_geom_bond_atom_site_label_1
_geom_bond_atom_site_label_2
_geom_bond_distance
S1 O1 1.4172(16)
S1 O2 1.4203(16)
S1 N2 1.6658(18)
S1 C24 1.747(2)
N1 C8 1.318(3)
N1 C9 1.348(3)
N2 C8 1.418(3)
N2 C1 1.433(3)
C1 C2 1.388(3)
C1 C6 1.399(3)
C2 C3 1.372(4)
C2 H2 0.9300
C3 C4 1.381(4)
C3 H3 0.9300
C4 C5 1.372(3)
C4 H4 0.9300
C5 C6 1.388(3)
C5 H5 0.9300
C6 C7 1.448(3)
C7 C8 1.395(3)
C7 C11 1.399(3)
C9 C10 1.389(3)
C9 C18 1.481(3)
C10 C11 1.385(3)
C10 H10 0.9300
C11 C12 1.485(3)
C12 C13 1.384(3)
C12 C17 1.387(3)
C13 C14 1.374(3)
C13 H13 0.9300
C14 C15 1.379(4)
C14 H14 0.9300
C15 C16 1.365(4)
C15 H15 0.9300
C16 C17 1.379(3)
C16 H16 0.9300
C17 H17 0.9300
C18 C23 1.382(3)
C18 C19 1.384(3)
C19 C20 1.373(3)
C19 H19 0.9300
C20 C21 1.365(4)
C20 H20 0.9300
C21 C22 1.365(4)
C21 H21 0.9300
C22 C23 1.370(3)
C22 H22 0.9300
C23 H23 0.9300
C24 C25 1.381(3)
C24 C29 1.390(3)
C25 C26 1.377(3)
C25 H25 0.9300
C26 C27 1.381(3)
C26 H26 0.9300
C27 C28 1.381(3)
C27 C30 1.504(3)
C28 C29 1.372(3)
C28 H28 0.9300
C29 H29 0.9300
C30 H30A 0.9600
C30 H30B 0.9600
C30 H30C 0.9600
loop_
_geom_hbond_atom_site_label_D
_geom_hbond_atom_site_label_H
_geom_hbond_atom_site_label_A
_geom_hbond_distance_DH
_geom_hbond_distance_HA
_geom_hbond_distance_DA
_geom_hbond_angle_DHA
C2 H2 O2 0.93 2.30 2.882(3) 120.5
C2 H2 O2 0.93 2.30 2.882(3) 120.5
C2 H2 O2 0.93 2.30 2.882(3) 120.5
C2 H2 O2 0.93 2.30 2.882(3) 120.5
C2 H2 O2 0.93 2.30 2.882(3) 120.5
C2 H2 O2 0.93 2.30 2.882(3) 120.5
C2 H2 O2 0.93 2.30 2.882(3) 120.5
loop_
_geom_torsion_atom_site_label_1
_geom_torsion_atom_site_label_2
_geom_torsion_atom_site_label_3
_geom_torsion_atom_site_label_4
_geom_torsion
O1 S1 N2 C8 52.23(18)
O2 S1 N2 C8 -177.45(16)
C24 S1 N2 C8 -63.28(18)
O1 S1 N2 C1 -152.98(17)
O2 S1 N2 C1 -22.7(2)
C24 S1 N2 C1 91.51(18)
C8 N2 C1 C2 -175.8(2)
S1 N2 C1 C2 26.0(3)
C8 N2 C1 C6 -1.2(2)
S1 N2 C1 C6 -159.35(15)
C6 C1 C2 C3 1.2(3)
N2 C1 C2 C3 175.2(2)
C1 C2 C3 C4 -1.8(4)
C2 C3 C4 C5 1.3(4)
C3 C4 C5 C6 -0.2(4)
C4 C5 C6 C1 -0.4(3)
C4 C5 C6 C7 -176.3(2)
C2 C1 C6 C5 -0.1(3)
N2 C1 C6 C5 -175.27(19)
C2 C1 C6 C7 176.7(2)
N2 C1 C6 C7 1.6(2)
C5 C6 C7 C8 174.9(2)
C1 C6 C7 C8 -1.3(2)
C5 C6 C7 C11 -2.0(4)
C1 C6 C7 C11 -178.3(2)
C9 N1 C8 C7 3.0(3)
C9 N1 C8 N2 -177.78(18)
C11 C7 C8 N1 -2.5(3)
C6 C7 C8 N1 179.90(19)
C11 C7 C8 N2 178.19(17)
C6 C7 C8 N2 0.6(2)
C1 N2 C8 N1 -178.98(18)
S1 N2 C8 N1 -20.1(3)
C1 N2 C8 C7 0.4(2)
S1 N2 C8 C7 159.29(15)
C8 N1 C9 C10 -1.2(3)
C8 N1 C9 C18 -178.60(18)
N1 C9 C10 C11 -0.9(3)
C18 C9 C10 C11 176.34(19)
C9 C10 C11 C7 1.4(3)
C9 C10 C11 C12 -174.66(19)
C8 C7 C11 C10 0.1(3)
C6 C7 C11 C10 176.8(2)
C8 C7 C11 C12 176.00(19)
C6 C7 C11 C12 -7.3(4)
C10 C11 C12 C13 -56.1(3)
C7 C11 C12 C13 128.1(2)
C10 C11 C12 C17 117.9(2)
C7 C11 C12 C17 -57.9(3)
C17 C12 C13 C14 0.9(4)
C11 C12 C13 C14 175.1(2)
C12 C13 C14 C15 -1.6(4)
C13 C14 C15 C16 1.0(4)
C14 C15 C16 C17 0.2(4)
C15 C16 C17 C12 -0.9(4)
C13 C12 C17 C16 0.3(3)
C11 C12 C17 C16 -173.8(2)
N1 C9 C18 C23 14.9(3)
C10 C9 C18 C23 -162.5(2)
N1 C9 C18 C19 -165.8(2)
C10 C9 C18 C19 16.8(3)
C23 C18 C19 C20 0.0(3)
C9 C18 C19 C20 -179.3(2)
C18 C19 C20 C21 0.5(4)
C19 C20 C21 C22 -0.2(4)
C20 C21 C22 C23 -0.7(4)
C21 C22 C23 C18 1.3(4)
C19 C18 C23 C22 -0.9(4)
C9 C18 C23 C22 178.4(2)
O1 S1 C24 C25 -12.0(2)
O2 S1 C24 C25 -144.95(19)
N2 S1 C24 C25 102.79(19)
O1 S1 C24 C29 166.00(17)
O2 S1 C24 C29 33.0(2)
N2 S1 C24 C29 -79.23(19)
C29 C24 C25 C26 -0.9(3)
S1 C24 C25 C26 177.04(17)
C24 C25 C26 C27 -0.5(4)
C25 C26 C27 C28 1.6(4)
C25 C26 C27 C30 -177.8(2)
C26 C27 C28 C29 -1.4(4)
C30 C27 C28 C29 178.0(2)
C27 C28 C29 C24 0.0(4)
C25 C24 C29 C28 1.2(3)
S1 C24 C29 C28 -176.83(18)
