#------------------------------------------------------------------------------
#$Date: 2016-11-06 05:46:43 +0200 (Sun, 06 Nov 2016) $
#$Revision: 187994 $
#$URL: file:///home/coder/svn-repositories/cod/cif/1/54/42/1544273.cif $
#------------------------------------------------------------------------------
#
# This file is available in the Crystallography Open Database (COD),
# http://www.crystallography.net/
#
# All data on this site have been placed in the public domain by the
# contributors.
#
data_1544273
loop_
_publ_author_name
'Rusanova, Julia A.'
'Dyakonenko, Viktoriya V.'
'Semenaka, Valentina V.'
_publ_section_title
;
 Diaquatetrakis(dimethyl sulfoxide-\k<i>O</i>)cobalt(II)
 bis[diamminetetrakis(thiocyanato-\k<i>N</i>)chromate(III)] dimethyl
 sulfoxide hexasolvate dihydrate
;
_journal_coeditor_code           SJ4061
_journal_issue                   10
_journal_name_full               IUCrData
_journal_page_first              x161571
_journal_paper_doi               10.1107/S2414314616015716
_journal_volume                  1
_journal_year                    2016
_chemical_formula_iupac
'[Co (C2 H6 O1 S1)4 (H2 O1)2] [Cr (N C S)4 (N H3)2], 6C2 H6 O S, 2H2 O'
_chemical_formula_moiety
'C8 H28 Co O6 S4 2+, 2(C4 H6 Cr N6 S4 -), 6(C2 H6 O S), 2(H2 O)'
_chemical_formula_sum            'C28 H80 Co Cr2 N12 O14 S18'
_chemical_formula_weight         1549.05
_chemical_name_systematic
;
Diaquatetrakis(dimethyl sulfoxide-\k<i>O</i>)cobalt(II)
bis[diamminetetrakis(thiocyanato-\k<i>N</i>)chromate(III)]
dimethyl sulfoxide hexasolvate dihydrate
;
_space_group_crystal_system      triclinic
_space_group_IT_number           2
_space_group_name_Hall           '-P 1'
_space_group_name_H-M_alt        'P -1'
_symmetry_space_group_name_Hall  '-P 1'
_symmetry_space_group_name_H-M   'P -1'
_atom_sites_solution_hydrogens   mixed
_audit_creation_method
;
Olex2 1.2
(compiled 2016.02.19 svn.r3266 for OlexSys, GUI svn.r5155)
;
_cell_angle_alpha                85.95(2)
_cell_angle_beta                 87.98(2)
_cell_angle_gamma                70.17(2)
_cell_formula_units_Z            1
_cell_length_a                   11.752(3)
_cell_length_b                   12.212(4)
_cell_length_c                   13.257(3)
_cell_measurement_reflns_used    2015
_cell_measurement_temperature    294
_cell_measurement_theta_max      25.00
_cell_measurement_theta_min      3.50
_cell_volume                     1785.2(9)
_computing_cell_refinement
;
P3 (Siemens, 1991)
;
_computing_data_collection
;
P3 (Siemens, 1991)
;
_computing_data_reduction
;
XDISK in SHELXTL-Plus (Sheldrick, 1992)
;
_computing_molecular_graphics
;
OLEX2 (Dolomanov <i>et al.</i>,  2009)
;
_computing_publication_material
;
OLEX2 (Dolomanov <i>et al.</i>,  2009) and publCIF (Westrip,
2010)
;
_computing_structure_refinement
;
SHELXL2014 (Sheldrick, 2015)
;
_computing_structure_solution
;
SHELXS97 (Sheldrick, 2008)
;
_diffrn_ambient_temperature      294
_diffrn_detector_area_resol_mean 16.1827
_diffrn_measured_fraction_theta_full 0.966
_diffrn_measured_fraction_theta_max 0.966
_diffrn_measurement_device_type  'Siemens P3/PC'
_diffrn_measurement_method       '\q-2\q scans'
_diffrn_radiation_monochromator  graphite
_diffrn_radiation_type           MoK\a
_diffrn_radiation_wavelength     0.71073
_diffrn_reflns_av_R_equivalents  0.0558
_diffrn_reflns_limit_h_max       14
_diffrn_reflns_limit_h_min       -8
_diffrn_reflns_limit_k_max       14
_diffrn_reflns_limit_k_min       -14
_diffrn_reflns_limit_l_max       15
_diffrn_reflns_limit_l_min       -15
_diffrn_reflns_number            6478
_diffrn_reflns_theta_full        25.086
_diffrn_reflns_theta_max         25.086
_diffrn_reflns_theta_min         1.776
_exptl_absorpt_coefficient_mu    1.110
_exptl_absorpt_correction_T_max  0.842
_exptl_absorpt_correction_T_min  0.604
_exptl_absorpt_correction_type   analytical
_exptl_absorpt_process_details
;
[analytical correction (Katayama 1986) in <i>WinGX</i> (Farrugia,
2012)]
;
_exptl_crystal_colour            colourless
_exptl_crystal_density_diffrn    1.441
_exptl_crystal_density_method    'not measured'
_exptl_crystal_description       block
_exptl_crystal_F_000             807
_exptl_crystal_size_max          0.6
_exptl_crystal_size_mid          0.4
_exptl_crystal_size_min          0.2
_refine_diff_density_max         1.231
_refine_diff_density_min         -1.025
_refine_ls_extinction_method     none
_refine_ls_goodness_of_fit_ref   1.040
_refine_ls_hydrogen_treatment    constr
_refine_ls_matrix_type           full
_refine_ls_number_parameters     352
_refine_ls_number_reflns         6138
_refine_ls_number_restraints     0
_refine_ls_restrained_S_all      1.040
_refine_ls_R_factor_all          0.1556
_refine_ls_R_factor_gt           0.0693
_refine_ls_shift/su_max          0.000
_refine_ls_shift/su_mean         0.000
_refine_ls_structure_factor_coef Fsqd
_refine_ls_weighting_details
'w=1/[\s^2^(Fo^2^)+(0.1000P)^2^] where P=(Fo^2^+2Fc^2^)/3'
_refine_ls_weighting_scheme      calc
_refine_ls_wR_factor_gt          0.1616
_refine_ls_wR_factor_ref         0.1954
_reflns_number_gt                3459
_reflns_number_total             6138
_reflns_threshold_expression     'I > 2\s(I)'
_iucr_refine_instructions_details
;
    koko73.res created by SHELXL-2014/7
TITL KOKO73 in P-1
CELL 0.71073 11.7525 12.2125 13.2568 85.951 87.976 70.171
ZERR 1 0.0031 0.0038 0.0033 0.023 0.021 0.021
LATT 1
SFAC C H N O S Cr Co
UNIT 28 80 12 14 18 2 1
EQIV $1 -X,-Y,-Z
EQIV $2 +X,1+Y,+Z
EQIV $3 -1-X,-Y,-Z
EQIV $4 -1-X,1-Y,-Z
EQIV $5 -1-X,-Y,1-Z
L.S. 4
PLAN  20
TEMP 20.85
HTAB N6 O4
HTAB N6 O6
HTAB C3 S6_$1
HTAB O1W O6_$2
HTAB O1W S6_$2
HTAB N5 S6_$3
HTAB N5 O5_$4
HTAB N6 O4_$5
conf
BOND
list4
MORE -1
BOND $H
fmap 2
acta
OMIT 0 55
OMIT 2 6 9
OMIT -12 -9 5
OMIT 0 0 1
OMIT -1 1 14
OMIT 8 7 0
OMIT -2 -7 7
OMIT -2 -2 1
OMIT 8 7 2
OMIT 9 8 6
OMIT 8 6 2
OMIT -2 -2 3
OMIT 8 7 5
OMIT 9 8 2
OMIT -11 -5 1
OMIT 8 12 1
OMIT 9 7 0
OMIT 2 4 0
OMIT 10 6 2
OMIT 9 7 1
OMIT 10 8 0
OMIT 11 6 0
OMIT -9 -5 3
OMIT 12 4 7
OMIT 8 5 1
OMIT 11 5 4
OMIT 8 6 3
OMIT -10 -7 1
OMIT 9 7 2
OMIT 10 7 3
OMIT -8 -10 5
OMIT 8 6 1
OMIT 8 9 1
OMIT -9 4 0
OMIT -10 5 3
OMIT 2 -3 3
OMIT 2 -4 11
OMIT 9 6 1
OMIT -11 -7 7
OMIT -8 -5 1
OMIT -9 5 5
OMIT -10 -10 1
OMIT 8 8 7
OMIT 9 10 1
OMIT 1 -3 4
OMIT 8 11 0
OMIT -3 -2 11
OMIT 10 11 1
OMIT 8 10 7
OMIT 10 -2 6
OMIT 10 10 0
OMIT -2 -1 3
OMIT -8 -10 6
OMIT -9 -6 3
OMIT 8 8 3
OMIT -9 -5 2
OMIT -9 -10 1
OMIT -10 -9 6
OMIT 10 6 1
OMIT 10 -1 3
OMIT 2 -1 6
OMIT 9 11 2
OMIT 10 -3 5
OMIT -8 -7 3
OMIT 10 6 0
OMIT 8 9 3
OMIT -8 -9 4
OMIT 9 12 0
OMIT 8 12 5
OMIT 8 8 8
OMIT 9 7 4
OMIT 9 9 0
OMIT 8 11 4
OMIT -9 -9 3
OMIT 9 11 4
OMIT -2 -4 1
OMIT 8 5 3
OMIT 2 -2 2
OMIT -10 4 5
OMIT -9 4 3
OMIT 10 7 7
OMIT 9 -4 2
OMIT 2 -3 2
OMIT 10 10 4
OMIT 8 10 4
OMIT 9 -3 1
OMIT -9 3 2
OMIT -10 4 0
OMIT -8 -9 6
OMIT 10 8 1
OMIT 10 7 2
OMIT -10 -7 3
OMIT -8 -6 3
OMIT -8 -5 3
OMIT 8 -3 7
OMIT -2 -9 11
OMIT -9 -11 1
OMIT -11 4 0
OMIT 2 0 13
OMIT 10 11 5
OMIT -11 -6 4
OMIT 10 5 1
OMIT 9 10 7
OMIT 9 7 5
OMIT 10 6 6
OMIT 9 12 4
OMIT 10 7 0
OMIT -10 5 5
OMIT 8 7 1
OMIT -9 -11 2
OMIT -10 -8 4
OMIT -8 -9 1
OMIT -8 -9 3
OMIT 10 6 7
OMIT -9 3 1
OMIT -9 -6 5
OMIT 10 -3 1
OMIT -9 3 6
OMIT 8 4 0
OMIT 8 9 5
OMIT -9 -8 7
OMIT 10 9 9
OMIT 10 10 5
OMIT 9 -1 3
OMIT -7 -1 7
OMIT -2 -5 2
OMIT 9 5 5
OMIT 10 8 5
OMIT 8 5 5
OMIT 9 -6 3
OMIT 2 -2 3
OMIT -2 -5 8
OMIT -2 9 0
OMIT -9 -7 4
OMIT 10 5 0
OMIT 10 11 4
OMIT -8 -13 3
OMIT 2 -5 7
OMIT 9 10 3
OMIT 2 -5 11
OMIT -9 -8 5
OMIT -8 -11 1
OMIT 9 13 4
OMIT -9 -12 4
OMIT -10 -7 2
OMIT 8 13 2
OMIT -8 -5 4
OMIT 10 9 6
OMIT 9 8 0
OMIT -9 -8 9
OMIT -10 1 1
OMIT 10 12 4
OMIT 9 11 8
OMIT 8 12 6
OMIT 10 12 3
OMIT 2 -2 14
OMIT 0 0 3
OMIT 2 2 1
OMIT 10 8 6
OMIT -9 -8 6
OMIT 8 4 6
OMIT -8 -11 5
OMIT 10 10 3
OMIT -10 -7 5
OMIT -11 4 2
OMIT 9 8 5
OMIT 9 6 8
OMIT 10 9 5
OMIT -9 3 0
OMIT -8 -13 1
OMIT 11 4 2
OMIT 9 -1 2
OMIT 8 7 7
OMIT -8 -7 6
OMIT -8 -5 2
OMIT 10 7 1
OMIT 9 11 3
OMIT -2 -1 6
OMIT 8 10 10
OMIT -9 -7 1
OMIT 8 5 2
OMIT 9 -3 3
OMIT 3 3 0
OMIT -11 3 1
OMIT 9 10 0
OMIT -1 -3 4
OMIT -11 -4 4
OMIT -9 -12 1
OMIT 13 4 1
OMIT 8 8 5
OMIT 9 9 7
OMIT 8 4 1
OMIT 2 -1 12
OMIT 8 -3 1
OMIT -7 -1 9
OMIT 2 -2 1
OMIT 9 -6 2
OMIT 9 5 1
OMIT 10 9 7
OMIT 9 -4 1
OMIT -9 -8 1
REM <olex2.extras>
REM <HklSrc "%.\\KOKO73.HKL">
REM </olex2.extras>
WGHT    0.100000
FVAR       1.01021
CO1   7    0.000000    0.500000    0.000000    10.50000    0.02288    0.01620 =
         0.02258   -0.00310    0.00270   -0.00100
CR1   6   -0.623342    0.139621    0.248198    11.00000    0.03208    0.02449 =
         0.02397   -0.00280    0.00123   -0.00684
S1    5   -0.076536    0.285599    0.074748    11.00000    0.02948    0.02184 =
         0.03776    0.00059    0.00015   -0.00662
S2    5    0.126827    0.591601    0.175532    11.00000    0.03980    0.02516 =
         0.02632   -0.00544    0.00051   -0.00885
S3    5   -0.387863    0.381691    0.291444    11.00000    0.06254    0.04745 =
         0.07874    0.00099   -0.02045   -0.02942
S4    5   -0.958114    0.331202    0.455892    11.00000    0.06495    0.07014 =
         0.05294   -0.02926    0.03340   -0.01778
S5    5   -0.841165   -0.125326    0.235693    11.00000    0.05310    0.04307 =
         0.06446   -0.00220    0.00029   -0.02534
S6    5   -0.265783   -0.037568    0.057979    11.00000    0.03929    0.05780 =
         0.05653   -0.02091    0.01952   -0.01251
S7    5   -0.195323    0.010615    0.470895    11.00000    0.04563    0.04704 =
         0.06212    0.00491    0.00130   -0.01151
S8    5   -0.415313   -0.274272    0.445680    11.00000    0.09641    0.04660 =
         0.04408   -0.00823   -0.01348   -0.02103
S9    5   -0.498268    0.641951    0.071846    11.00000    0.03210    0.04319 =
         0.04202    0.00721    0.00494   -0.00750
N1    3   -0.532672    0.249306    0.265739    11.00000    0.01846    0.03604 =
         0.02512    0.00127    0.00163    0.00365
N2    3   -0.756614    0.228974    0.339208    11.00000    0.05004    0.03813 =
         0.03001   -0.00589    0.00431   -0.01691
N3    3   -0.712124    0.027219    0.234231    11.00000    0.02288    0.03137 =
         0.03170   -0.00585    0.00369   -0.00213
N4    3   -0.488823    0.053424    0.156690    11.00000    0.03827    0.02990 =
         0.03614   -0.00052    0.00422   -0.00164
N5    3   -0.712228    0.239617    0.124070    11.00000    0.03585    0.03256 =
         0.02813    0.00016   -0.00020   -0.00676
AFIX 137
H5A   2   -0.717831    0.193128    0.077127    11.00000   -1.50000
H5B   2   -0.671108    0.284783    0.098968    11.00000   -1.50000
H5C   2   -0.786062    0.284045    0.142607    11.00000   -1.50000
AFIX   0
N6    3   -0.532557    0.034530    0.367319    11.00000    0.03721    0.03266 =
         0.03346    0.00478   -0.00278   -0.00479
AFIX 137
H6A   2   -0.585468    0.025816    0.414173    11.00000   -1.50000
H6B   2   -0.483975    0.066919    0.393745    11.00000   -1.50000
H6C   2   -0.488723   -0.034875    0.345873    11.00000   -1.50000
AFIX   0
O1W   4   -0.199680    0.721618    0.205954    11.00000    0.07282    0.05628 =
         0.05691   -0.01966   -0.00221    0.00036
AFIX   3
H1WA  2   -0.231790    0.766428    0.155094    11.00000   -1.50000
H1WB  2   -0.253190    0.724519    0.251504    11.00000   -1.50000
AFIX   0
O1    4    0.094604    0.493713    0.132727    11.00000    0.04215    0.02330 =
         0.02755   -0.00244   -0.00466   -0.01075
O2    4    0.027130    0.322947    0.031001    11.00000    0.01983    0.02493 =
         0.03027    0.00538   -0.00154   -0.00059
O3    4   -0.160563    0.544586    0.084178    11.00000    0.02662    0.02864 =
         0.03001   -0.00997    0.00520   -0.00598
AFIX   3
H3A   2   -0.163493    0.574596    0.141388    11.00000   -1.50000
H3B   2   -0.231033    0.581396    0.059648    11.00000   -1.50000
AFIX   0
O4    4   -0.329819    0.059257    0.489568    11.00000    0.05458    0.04160 =
         0.04431   -0.00161    0.01573   -0.01112
O5    4   -0.387618    0.598976    0.004294    11.00000    0.02372    0.04274 =
         0.03629   -0.00773    0.00096   -0.00259
O6    4   -0.376125   -0.222118    0.349812    11.00000    0.06543    0.06253 =
         0.06066   -0.00622    0.01614   -0.00464
C1    1    0.061520    0.608030    0.297712    11.00000    0.07753    0.06826 =
         0.03436   -0.01903    0.01150   -0.01578
AFIX 137
H1A   2   -0.024592    0.644303    0.292539    11.00000   -1.50000
H1B   2    0.093758    0.655921    0.334113    11.00000   -1.50000
H1C   2    0.079821    0.532815    0.333032    11.00000   -1.50000
AFIX   0
C2    1    0.278539    0.527817    0.211555    11.00000    0.04986    0.04772 =
         0.05901   -0.02530    0.00737   -0.02016
AFIX 137
H2A   2    0.328775    0.507046    0.152403    11.00000   -1.50000
H2B   2    0.287647    0.459120    0.254955    11.00000   -1.50000
H2C   2    0.302193    0.582390    0.247013    11.00000   -1.50000
AFIX   0
C3    1   -0.034583    0.136412    0.048027    11.00000    0.04359    0.02427 =
         0.08131   -0.00564    0.00065   -0.01289
AFIX 137
H3C   2   -0.036019    0.130379   -0.023694    11.00000   -1.50000
H3D   2   -0.090535    0.103228    0.080846    11.00000   -1.50000
H3E   2    0.045470    0.095027    0.072495    11.00000   -1.50000
AFIX   0
C4    1   -0.056124    0.270193    0.207046    11.00000    0.07177    0.06647 =
         0.03493    0.00653    0.01471   -0.01470
AFIX 137
H4A   2   -0.062235    0.344143    0.231502    11.00000   -1.50000
H4B   2    0.022285    0.214551    0.222470    11.00000   -1.50000
H4C   2   -0.117332    0.243512    0.239052    11.00000   -1.50000
AFIX   0
C5    1   -0.467998    0.303848    0.277603    11.00000    0.02468    0.02343 =
         0.04063   -0.00202   -0.01559   -0.00478
C6    1   -0.840934    0.272063    0.387043    11.00000    0.04670    0.04075 =
         0.02737   -0.01027    0.01557   -0.01369
C7    1   -0.766068   -0.036170    0.235381    11.00000    0.03703    0.02731 =
         0.02397    0.00160   -0.00366   -0.01252
C8    1   -0.394858    0.014355    0.115851    11.00000    0.04585    0.03219 =
         0.02904   -0.00498    0.00368   -0.01142
C9    1   -0.500990    0.777149    0.114325    11.00000    0.05730    0.06321 =
         0.06252   -0.03729    0.00431   -0.01935
AFIX 137
H9A   2   -0.434678    0.764315    0.159142    11.00000   -1.50000
H9B   2   -0.575858    0.812842    0.149534    11.00000   -1.50000
H9C   2   -0.493908    0.827552    0.057317    11.00000   -1.50000
AFIX   0
C10   1   -0.621117    0.695578   -0.012079    11.00000    0.03538    0.03517 =
         0.09128    0.00001   -0.02693   -0.00200
AFIX 137
H10A  2   -0.626899    0.632809   -0.048939    11.00000   -1.50000
H10B  2   -0.608570    0.754442   -0.058591    11.00000   -1.50000
H10C  2   -0.694646    0.728628    0.025681    11.00000   -1.50000
AFIX   0
C11   1   -0.179958   -0.029079    0.345724    11.00000    0.07319    0.21806 =
         0.09845   -0.09741    0.02657   -0.06505
AFIX 137
H11A  2   -0.211384   -0.091334    0.339801    11.00000   -1.50000
H11B  2   -0.095988   -0.054556    0.326369    11.00000   -1.50000
H11C  2   -0.224060    0.036848    0.302243    11.00000   -1.50000
AFIX   0
C12   1   -0.147146    0.132579    0.453640    11.00000    0.06162    0.06844 =
         0.07497    0.01891   -0.01633   -0.02940
AFIX 137
H12A  2   -0.144723    0.163164    0.517973    11.00000   -1.50000
H12B  2   -0.202605    0.191463    0.410339    11.00000   -1.50000
H12C  2   -0.067870    0.109543    0.423208    11.00000   -1.50000
AFIX   0
C13   1   -0.309001   -0.416315    0.467476    11.00000    0.12054    0.04588 =
         0.15187    0.00883   -0.07127   -0.02467
AFIX 137
H13A  2   -0.235607   -0.411066    0.492777    11.00000   -1.50000
H13B  2   -0.292148   -0.454872    0.405244    11.00000   -1.50000
H13C  2   -0.341633   -0.459984    0.516217    11.00000   -1.50000
AFIX   0
C14   1   -0.538637   -0.312779    0.414573    11.00000    0.08513    0.05875 =
         0.07450   -0.01188    0.00263   -0.04060
AFIX 137
H14A  2   -0.602861   -0.244372    0.390427    11.00000   -1.50000
H14B  2   -0.565938   -0.347729    0.473404    11.00000   -1.50000
H14C  2   -0.515195   -0.367493    0.362716    11.00000   -1.50000
AFIX   0
HKLF 4
REM  KOKO73 in P-1
REM R1 =  0.0693 for    3459 Fo > 4sig(Fo)  and  0.1556 for all    6138 data
REM    352 parameters refined using      0 restraints
END
WGHT      0.1000      0.0000
REM Highest difference peak  1.231,  deepest hole -1.025,  1-sigma level  0.130
Q1    1  -0.2593  0.0643  0.3831  11.00000  0.05    1.23
Q2    1  -0.7945  0.1467  0.2483  11.00000  0.05    0.77
Q3    1  -0.1718  0.5068  0.0010  11.00000  0.05    0.70
Q4    1  -0.3535  0.1469  0.2515  11.00000  0.05    0.66
Q5    1  -0.4545  0.1399  0.2497  11.00000  0.05    0.62
Q6    1   0.1001  0.2888  0.0723  11.00000  0.05    0.59
Q7    1  -0.0835 -0.0046  0.5315  11.00000  0.05    0.58
Q8    1  -0.3827 -0.3326  0.3689  11.00000  0.05    0.57
Q9    1  -0.2741  0.5019 -0.0028  11.00000  0.05    0.55
Q10   1  -0.2419 -0.1146  0.0930  11.00000  0.05    0.53
Q11   1  -0.7476  0.2205  0.2445  11.00000  0.05    0.51
Q12   1  -0.5587  0.3874  0.2931  11.00000  0.05    0.50
Q13   1  -0.6766 -0.1193  0.2379  11.00000  0.05    0.50
Q14   1   0.1201  0.4402  0.0335  11.00000  0.05    0.49
Q15   1  -0.3574  0.5278 -0.0090  11.00000  0.05    0.48
Q16   1  -0.0444  0.5993  0.1699  11.00000  0.05    0.47
Q17   1   0.0406  0.5586  0.0854  11.00000  0.05    0.47
Q18   1  -0.6644  0.1630  0.3065  11.00000  0.05    0.47
Q19   1  -0.8994  0.2801  0.5451  11.00000  0.05    0.46
Q20   1  -0.2380 -0.0994  0.3411  11.00000  0.05    0.46
  REM The information below was added by Olex2.
  REM
  REM R1 = 0.0693 for 3459 Fo > 4sig(Fo) and 0.1556 for all 6679 data
  REM n/a parameters refined using n/a restraints
  REM Highest difference peak 1.23, deepest hole -1.03
  REM Mean Shift 0, Max Shift 0.000.
  REM +++ Tabular Listing of Refinement Information +++
  REM R1_all = 0.1556
  REM R1_gt = 0.0693
  REM wR_ref = 0.1954
  REM GOOF = 1.040
  REM Shift_max = 0.000
  REM Shift_mean = 0
  REM Reflections_all = 6679
  REM Reflections_gt = 3459
  REM Parameters = n/a
  REM Hole = -1.03
  REM Peak = 1.23
  REM Flack = n/a
;
_cod_data_source_file            sj4061sup1.cif
_cod_data_source_block           I
_cod_depositor_comments          'Adding full bibliography for 1544273.cif.'
_cod_original_cell_volume        1785.3(9)
_cod_database_code               1544273
_cod_database_fobs_code          1544273
_shelx_space_group_comment
;
The symmetry employed for this shelxl refinement is uniquely defined
by the following loop, which should always be used as a source of
symmetry information in preference to the above space-group names.
They are only intended as comments.
;
loop_
_space_group_symop_operation_xyz
'x, y, z'
'-x, -y, -z'
loop_
_atom_site_type_symbol
_atom_site_label
_atom_site_fract_x
_atom_site_fract_y
_atom_site_fract_z
_atom_site_U_iso_or_equiv
_atom_site_adp_type
_atom_site_calc_flag
_atom_site_occupancy
Co Co1 0.0000 0.5000 0.0000 0.0220(3) Uani d 1
Cr Cr1 -0.62334(11) 0.13962(9) 0.24820(8) 0.0275(3) Uani d 1
S S1 -0.07654(17) 0.28560(14) 0.07475(14) 0.0304(4) Uani d 1
S S2 0.12683(18) 0.59160(14) 0.17553(13) 0.0308(4) Uani d 1
S S3 -0.3879(2) 0.3817(2) 0.2914(2) 0.0599(7) Uani d 1
S S4 -0.9581(2) 0.3312(2) 0.45589(19) 0.0635(7) Uani d 1
S S5 -0.8412(2) -0.12533(19) 0.23569(18) 0.0513(6) Uani d 1
S S6 -0.2658(2) -0.0376(2) 0.05798(18) 0.0518(6) Uani d 1
S S7 -0.1953(2) 0.01062(19) 0.47090(19) 0.0531(6) Uani d 1
S S8 -0.4153(3) -0.2743(2) 0.44568(18) 0.0626(7) Uani d 1
S S9 -0.49827(18) 0.64195(18) 0.07185(15) 0.0411(5) Uani d 1
N N1 -0.5327(5) 0.2493(5) 0.2657(4) 0.0300(14) Uani d 1
N N2 -0.7566(6) 0.2290(5) 0.3392(5) 0.0388(16) Uani d 1
N N3 -0.7121(5) 0.0272(5) 0.2342(4) 0.0304(14) Uani d 1
N N4 -0.4888(6) 0.0534(5) 0.1567(5) 0.0375(16) Uani d 1
N N5 -0.7122(6) 0.2396(5) 0.1241(4) 0.0335(14) Uani d 1
H H5A -0.7178 0.1931 0.0771 0.050 Uiso calc 1
H H5B -0.6711 0.2848 0.0990 0.050 Uiso calc 1
H H5C -0.7861 0.2840 0.1426 0.050 Uiso calc 1
N N6 -0.5326(6) 0.0345(5) 0.3673(4) 0.0365(15) Uani d 1
H H6A -0.5855 0.0258 0.4142 0.055 Uiso calc 1
H H6B -0.4840 0.0669 0.3937 0.055 Uiso calc 1
H H6C -0.4887 -0.0349 0.3459 0.055 Uiso calc 1
O O1W -0.1997(6) 0.7216(5) 0.2060(5) 0.067(2) Uani d 1
H H1WA -0.2318 0.7664 0.1551 0.100 Uiso d 1
H H1WB -0.2532 0.7245 0.2515 0.100 Uiso d 1
O O1 0.0946(5) 0.4937(4) 0.1327(3) 0.0309(11) Uani d 1
O O2 0.0271(4) 0.3229(4) 0.0310(3) 0.0271(11) Uani d 1
O O3 -0.1606(4) 0.5446(4) 0.0842(3) 0.0290(11) Uani d 1
H H3A -0.1635 0.5746 0.1414 0.044 Uiso d 1
H H3B -0.2310 0.5814 0.0596 0.044 Uiso d 1
O O4 -0.3298(5) 0.0593(5) 0.4896(4) 0.0486(15) Uani d 1
O O5 -0.3876(4) 0.5990(4) 0.0043(4) 0.0362(12) Uani d 1
O O6 -0.3761(6) -0.2221(6) 0.3498(5) 0.068(2) Uani d 1
C C1 0.0615(9) 0.6080(8) 0.2977(6) 0.062(3) Uani d 1
H H1A -0.0246 0.6443 0.2925 0.093 Uiso calc 1
H H1B 0.0938 0.6559 0.3341 0.093 Uiso calc 1
H H1C 0.0798 0.5328 0.3330 0.093 Uiso calc 1
C C2 0.2785(8) 0.5278(7) 0.2116(7) 0.050(2) Uani d 1
H H2A 0.3288 0.5070 0.1524 0.076 Uiso calc 1
H H2B 0.2876 0.4591 0.2550 0.076 Uiso calc 1
H H2C 0.3022 0.5824 0.2470 0.076 Uiso calc 1
C C3 -0.0346(8) 0.1364(6) 0.0480(7) 0.049(2) Uani d 1
H H3C -0.0360 0.1304 -0.0237 0.074 Uiso calc 1
H H3D -0.0905 0.1032 0.0808 0.074 Uiso calc 1
H H3E 0.0455 0.0950 0.0725 0.074 Uiso calc 1
C C4 -0.0561(9) 0.2702(8) 0.2070(6) 0.061(3) Uani d 1
H H4A -0.0622 0.3441 0.2315 0.091 Uiso calc 1
H H4B 0.0223 0.2146 0.2225 0.091 Uiso calc 1
H H4C -0.1173 0.2435 0.2391 0.091 Uiso calc 1
C C5 -0.4680(6) 0.3038(6) 0.2776(5) 0.0301(16) Uani d 1
C C6 -0.8409(8) 0.2721(7) 0.3870(6) 0.0385(19) Uani d 1
C C7 -0.7661(7) -0.0362(6) 0.2354(5) 0.0291(16) Uani d 1
C C8 -0.3949(8) 0.0144(6) 0.1159(5) 0.0361(18) Uani d 1
C C9 -0.5010(9) 0.7771(8) 0.1143(7) 0.060(3) Uani d 1
H H9A -0.4347 0.7643 0.1591 0.090 Uiso calc 1
H H9B -0.5759 0.8128 0.1495 0.090 Uiso calc 1
H H9C -0.4939 0.8276 0.0573 0.090 Uiso calc 1
C C10 -0.6211(8) 0.6956(7) -0.0121(8) 0.056(3) Uani d 1
H H10A -0.6269 0.6328 -0.0489 0.084 Uiso calc 1
H H10B -0.6086 0.7544 -0.0586 0.084 Uiso calc 1
H H10C -0.6946 0.7286 0.0257 0.084 Uiso calc 1
C C11 -0.1800(11) -0.0291(14) 0.3457(10) 0.122(6) Uani d 1
H H11A -0.2114 -0.0913 0.3398 0.183 Uiso calc 1
H H11B -0.0960 -0.0546 0.3264 0.183 Uiso calc 1
H H11C -0.2241 0.0368 0.3022 0.183 Uiso calc 1
C C12 -0.1471(9) 0.1326(8) 0.4536(8) 0.067(3) Uani d 1
H H12A -0.1447 0.1632 0.5180 0.101 Uiso calc 1
H H12B -0.2026 0.1915 0.4103 0.101 Uiso calc 1
H H12C -0.0679 0.1095 0.4232 0.101 Uiso calc 1
C C13 -0.3090(12) -0.4163(9) 0.4675(11) 0.106(5) Uani d 1
H H13A -0.2356 -0.4111 0.4928 0.159 Uiso calc 1
H H13B -0.2921 -0.4549 0.4052 0.159 Uiso calc 1
H H13C -0.3416 -0.4600 0.5162 0.159 Uiso calc 1
C C14 -0.5386(10) -0.3128(8) 0.4146(8) 0.068(3) Uani d 1
H H14A -0.6029 -0.2444 0.3904 0.102 Uiso calc 1
H H14B -0.5659 -0.3477 0.4734 0.102 Uiso calc 1
H H14C -0.5152 -0.3675 0.3627 0.102 Uiso calc 1
loop_
_atom_site_aniso_label
_atom_site_aniso_U_11
_atom_site_aniso_U_22
_atom_site_aniso_U_33
_atom_site_aniso_U_12
_atom_site_aniso_U_13
_atom_site_aniso_U_23
Co1 0.0229(7) 0.0162(6) 0.0226(7) -0.0010(5) 0.0027(5) -0.0031(5)
Cr1 0.0321(7) 0.0245(6) 0.0240(6) -0.0068(5) 0.0012(5) -0.0028(4)
S1 0.0295(10) 0.0218(8) 0.0378(10) -0.0066(8) 0.0001(8) 0.0006(7)
S2 0.0398(11) 0.0252(9) 0.0263(9) -0.0088(8) 0.0005(8) -0.0054(7)
S3 0.0625(16) 0.0475(13) 0.0787(17) -0.0294(12) -0.0204(13) 0.0010(12)
S4 0.0650(17) 0.0701(16) 0.0529(14) -0.0178(14) 0.0334(13) -0.0293(12)
S5 0.0531(14) 0.0431(12) 0.0645(15) -0.0253(11) 0.0003(12) -0.0022(10)
S6 0.0393(13) 0.0578(13) 0.0565(14) -0.0125(11) 0.0195(11) -0.0209(11)
S7 0.0456(14) 0.0470(12) 0.0621(15) -0.0115(11) 0.0013(11) 0.0049(11)
S8 0.096(2) 0.0466(13) 0.0441(13) -0.0210(14) -0.0135(13) -0.0082(10)
S9 0.0321(11) 0.0432(11) 0.0420(11) -0.0075(9) 0.0049(9) 0.0072(9)
N1 0.018(3) 0.036(3) 0.025(3) 0.004(3) 0.002(2) 0.001(3)
N2 0.050(4) 0.038(3) 0.030(3) -0.017(3) 0.004(3) -0.006(3)
N3 0.023(3) 0.031(3) 0.032(3) -0.002(3) 0.004(3) -0.006(3)
N4 0.038(4) 0.030(3) 0.036(4) -0.002(3) 0.004(3) -0.001(3)
N5 0.036(4) 0.033(3) 0.028(3) -0.007(3) 0.000(3) 0.000(2)
N6 0.037(4) 0.033(3) 0.033(3) -0.005(3) -0.003(3) 0.005(3)
O1W 0.073(5) 0.056(4) 0.057(4) 0.000(4) -0.002(4) -0.020(3)
O1 0.042(3) 0.023(2) 0.028(3) -0.011(2) -0.005(2) -0.0024(19)
O2 0.020(2) 0.025(2) 0.030(3) -0.001(2) -0.002(2) 0.0054(19)
O3 0.027(3) 0.029(2) 0.030(3) -0.006(2) 0.005(2) -0.010(2)
O4 0.055(4) 0.042(3) 0.044(3) -0.011(3) 0.016(3) -0.002(3)
O5 0.024(3) 0.043(3) 0.036(3) -0.003(2) 0.001(2) -0.008(2)
O6 0.065(5) 0.063(4) 0.061(4) -0.005(4) 0.016(4) -0.006(3)
C1 0.078(7) 0.068(6) 0.034(5) -0.016(6) 0.011(5) -0.019(4)
C2 0.050(5) 0.048(5) 0.059(6) -0.020(4) 0.007(4) -0.025(4)
C3 0.044(5) 0.024(4) 0.081(6) -0.013(4) 0.001(5) -0.006(4)
C4 0.072(7) 0.066(6) 0.035(5) -0.015(5) 0.015(5) 0.007(4)
C5 0.025(4) 0.023(3) 0.041(4) -0.005(3) -0.016(3) -0.002(3)
C6 0.047(5) 0.041(4) 0.027(4) -0.014(4) 0.016(4) -0.010(3)
C7 0.037(4) 0.027(4) 0.024(4) -0.013(4) -0.004(3) 0.002(3)
C8 0.046(5) 0.032(4) 0.029(4) -0.011(4) 0.004(4) -0.005(3)
C9 0.057(6) 0.063(6) 0.063(6) -0.019(5) 0.004(5) -0.037(5)
C10 0.035(5) 0.035(4) 0.091(7) -0.002(4) -0.027(5) 0.000(5)
C11 0.073(8) 0.218(17) 0.098(10) -0.065(10) 0.027(7) -0.097(11)
C12 0.062(7) 0.068(6) 0.075(7) -0.029(6) -0.016(5) 0.019(5)
C13 0.121(11) 0.046(6) 0.152(13) -0.025(7) -0.071(10) 0.009(7)
C14 0.085(8) 0.059(6) 0.074(7) -0.041(6) 0.003(6) -0.012(5)
loop_
_atom_type_symbol
_atom_type_description
_atom_type_scat_dispersion_real
_atom_type_scat_dispersion_imag
_atom_type_scat_source
C C 0.0033 0.0016 'International Tables Vol C Tables 4.2.6.8 and 6.1.1.4'
H H 0.0000 0.0000 'International Tables Vol C Tables 4.2.6.8 and 6.1.1.4'
N N 0.0061 0.0033 'International Tables Vol C Tables 4.2.6.8 and 6.1.1.4'
O O 0.0106 0.0060 'International Tables Vol C Tables 4.2.6.8 and 6.1.1.4'
S S 0.1246 0.1234 'International Tables Vol C Tables 4.2.6.8 and 6.1.1.4'
Cr Cr 0.3209 0.6236 'International Tables Vol C Tables 4.2.6.8 and 6.1.1.4'
Co Co 0.3494 0.9721 'International Tables Vol C Tables 4.2.6.8 and 6.1.1.4'
loop_
_geom_angle_atom_site_label_1
_geom_angle_atom_site_label_2
_geom_angle_atom_site_label_3
_geom_angle_site_symmetry_1
_geom_angle_site_symmetry_3
_geom_angle
O1 Co1 O1 2_565 . 180.0
O2 Co1 O1 . . 87.58(18)
O2 Co1 O1 2_565 2_565 87.58(17)
O2 Co1 O1 2_565 . 92.42(17)
O2 Co1 O1 . 2_565 92.42(18)
O2 Co1 O2 2_565 . 180.0
O3 Co1 O1 2_565 2_565 89.13(19)
O3 Co1 O1 2_565 . 90.87(19)
O3 Co1 O1 . 2_565 90.87(19)
O3 Co1 O1 . . 89.13(19)
O3 Co1 O2 2_565 . 89.38(17)
O3 Co1 O2 . . 90.62(17)
O3 Co1 O2 2_565 2_565 90.62(17)
O3 Co1 O2 . 2_565 89.38(17)
O3 Co1 O3 . 2_565 180.0
N1 Cr1 N3 . . 178.4(2)
N1 Cr1 N5 . . 91.4(2)
N1 Cr1 N6 . . 90.0(2)
N2 Cr1 N1 . . 91.1(2)
N2 Cr1 N3 . . 88.7(2)
N2 Cr1 N4 . . 178.7(3)
N2 Cr1 N5 . . 90.4(2)
N2 Cr1 N6 . . 91.7(2)
N3 Cr1 N5 . . 90.2(2)
N3 Cr1 N6 . . 88.4(3)
N4 Cr1 N1 . . 87.6(2)
N4 Cr1 N3 . . 92.5(2)
N4 Cr1 N5 . . 89.2(2)
N4 Cr1 N6 . . 88.8(2)
N6 Cr1 N5 . . 177.5(2)
O2 S1 C3 . . 104.2(3)
O2 S1 C4 . . 105.4(4)
C4 S1 C3 . . 99.8(4)
O1 S2 C1 . . 105.9(4)
O1 S2 C2 . . 105.0(3)
C2 S2 C1 . . 97.8(5)
O4 S7 C11 . . 104.8(5)
O4 S7 C12 . . 105.7(4)
C11 S7 C12 . . 98.3(6)
O6 S8 C13 . . 107.0(6)
O6 S8 C14 . . 106.6(5)
C14 S8 C13 . . 98.5(6)
O5 S9 C9 . . 106.8(4)
O5 S9 C10 . . 104.8(4)
C10 S9 C9 . . 98.2(4)
C5 N1 Cr1 . . 172.9(5)
C6 N2 Cr1 . . 171.4(7)
C7 N3 Cr1 . . 173.8(6)
C8 N4 Cr1 . . 164.3(7)
Cr1 N5 H5A . . 109.5
Cr1 N5 H5B . . 109.5
Cr1 N5 H5C . . 109.5
H5A N5 H5B . . 109.5
H5A N5 H5C . . 109.5
H5B N5 H5C . . 109.5
Cr1 N6 H6A . . 109.5
Cr1 N6 H6B . . 109.5
Cr1 N6 H6C . . 109.5
H6A N6 H6B . . 109.5
H6A N6 H6C . . 109.5
H6B N6 H6C . . 109.5
H1WA O1W H1WB . . 109.7
S2 O1 Co1 . . 127.9(3)
S1 O2 Co1 . . 119.5(2)
Co1 O3 H3A . . 119.3
Co1 O3 H3B . . 124.5
H3A O3 H3B . . 103.1
S2 C1 H1A . . 109.5
S2 C1 H1B . . 109.5
S2 C1 H1C . . 109.5
H1A C1 H1B . . 109.5
H1A C1 H1C . . 109.5
H1B C1 H1C . . 109.5
S2 C2 H2A . . 109.5
S2 C2 H2B . . 109.5
S2 C2 H2C . . 109.5
H2A C2 H2B . . 109.5
H2A C2 H2C . . 109.5
H2B C2 H2C . . 109.5
S1 C3 H3C . . 109.5
S1 C3 H3D . . 109.5
S1 C3 H3E . . 109.5
H3C C3 H3D . . 109.5
H3C C3 H3E . . 109.5
H3D C3 H3E . . 109.5
S1 C4 H4A . . 109.5
S1 C4 H4B . . 109.5
S1 C4 H4C . . 109.5
H4A C4 H4B . . 109.5
H4A C4 H4C . . 109.5
H4B C4 H4C . . 109.5
N1 C5 S3 . . 177.1(6)
N2 C6 S4 . . 179.0(8)
N3 C7 S5 . . 179.4(7)
N4 C8 S6 . . 179.0(7)
S9 C9 H9A . . 109.5
S9 C9 H9B . . 109.5
S9 C9 H9C . . 109.5
H9A C9 H9B . . 109.5
H9A C9 H9C . . 109.5
H9B C9 H9C . . 109.5
S9 C10 H10A . . 109.5
S9 C10 H10B . . 109.5
S9 C10 H10C . . 109.5
H10A C10 H10B . . 109.5
H10A C10 H10C . . 109.5
H10B C10 H10C . . 109.5
S7 C11 H11A . . 109.5
S7 C11 H11B . . 109.5
S7 C11 H11C . . 109.5
H11A C11 H11B . . 109.5
H11A C11 H11C . . 109.5
H11B C11 H11C . . 109.5
S7 C12 H12A . . 109.5
S7 C12 H12B . . 109.5
S7 C12 H12C . . 109.5
H12A C12 H12B . . 109.5
H12A C12 H12C . . 109.5
H12B C12 H12C . . 109.5
S8 C13 H13A . . 109.5
S8 C13 H13B . . 109.5
S8 C13 H13C . . 109.5
H13A C13 H13B . . 109.5
H13A C13 H13C . . 109.5
H13B C13 H13C . . 109.5
S8 C14 H14A . . 109.5
S8 C14 H14B . . 109.5
S8 C14 H14C . . 109.5
H14A C14 H14B . . 109.5
H14A C14 H14C . . 109.5
H14B C14 H14C . . 109.5
loop_
_geom_bond_atom_site_label_1
_geom_bond_atom_site_label_2
_geom_bond_site_symmetry_2
_geom_bond_distance
Co1 O1 . 2.097(5)
Co1 O1 2_565 2.097(5)
Co1 O2 . 2.089(4)
Co1 O2 2_565 2.088(4)
Co1 O3 . 2.084(4)
Co1 O3 2_565 2.084(4)
Cr1 N1 . 2.003(7)
Cr1 N2 . 1.998(6)
Cr1 N3 . 2.007(7)
Cr1 N4 . 1.999(6)
Cr1 N5 . 2.065(6)
Cr1 N6 . 2.045(6)
S1 O2 . 1.523(5)
S1 C3 . 1.777(7)
S1 C4 . 1.767(8)
S2 O1 . 1.521(5)
S2 C1 . 1.763(8)
S2 C2 . 1.755(9)
S3 C5 . 1.571(8)
S4 C6 . 1.606(8)
S5 C7 . 1.617(8)
S6 C8 . 1.620(8)
S7 O4 . 1.506(6)
S7 C11 . 1.748(11)
S7 C12 . 1.762(10)
S8 O6 . 1.509(7)
S8 C13 . 1.771(10)
S8 C14 . 1.739(10)
S9 O5 . 1.513(5)
S9 C9 . 1.772(8)
S9 C10 . 1.766(8)
N1 C5 . 1.189(9)
N2 C6 . 1.145(9)
N3 C7 . 1.154(9)
N4 C8 . 1.173(9)
N5 H5A . 0.8900
N5 H5B . 0.8900
N5 H5C . 0.8900
N6 H6A . 0.8900
N6 H6B . 0.8900
N6 H6C . 0.8900
O1W H1WA . 0.8499
O1W H1WB . 0.8500
O3 H3A . 0.8600
O3 H3B . 0.8600
C1 H1A . 0.9600
C1 H1B . 0.9600
C1 H1C . 0.9600
C2 H2A . 0.9600
C2 H2B . 0.9600
C2 H2C . 0.9600
C3 H3C . 0.9600
C3 H3D . 0.9600
C3 H3E . 0.9600
C4 H4A . 0.9600
C4 H4B . 0.9600
C4 H4C . 0.9600
C9 H9A . 0.9600
C9 H9B . 0.9600
C9 H9C . 0.9600
C10 H10A . 0.9600
C10 H10B . 0.9600
C10 H10C . 0.9600
C11 H11A . 0.9600
C11 H11B . 0.9600
C11 H11C . 0.9600
C12 H12A . 0.9600
C12 H12B . 0.9600
C12 H12C . 0.9600
C13 H13A . 0.9600
C13 H13B . 0.9600
C13 H13C . 0.9600
C14 H14A . 0.9600
C14 H14B . 0.9600
C14 H14C . 0.9600
loop_
_geom_hbond_atom_site_label_D
_geom_hbond_atom_site_label_H
_geom_hbond_atom_site_label_A
_geom_hbond_site_symmetry_A
_geom_hbond_distance_DH
_geom_hbond_distance_HA
_geom_hbond_distance_DA
_geom_hbond_angle_DHA
N5 H5A S6 2_455 0.89 2.76 3.647(7) 176.1
N5 H5B O5 2_465 0.89 2.17 3.019(8) 160.4
N6 H6A O4 2_456 0.89 2.03 2.874(8) 157.7
N6 H6B O4 . 0.89 2.22 3.037(9) 152.2
N6 H6C O6 . 0.89 2.22 3.069(8) 160.1
O1W H1WA S6 1_565 0.85 2.55 3.293(7) 146.7
O1W H1WB O6 1_565 0.85 1.89 2.711(9) 163.0
C3 H3E S6 2 0.96 2.97 3.590(9) 123.7
loop_
_geom_torsion_atom_site_label_1
_geom_torsion_atom_site_label_2
_geom_torsion_atom_site_label_3
_geom_torsion_atom_site_label_4
_geom_torsion
C1 S2 O1 Co1 122.0(5)
C2 S2 O1 Co1 -135.1(4)
C3 S1 O2 Co1 160.4(4)
C4 S1 O2 Co1 -95.1(4)
loop_
_refln_index_h
_refln_index_k
_refln_index_l
_refln_F_squared_meas
0 -13 -5 1464.54
0 -13 -4 192.82
0 -13 -3 137.01
0 -13 -2 39.16
0 -13 -1 84.88
0 -13 0 14.07
0 -13 1 462.87
0 -13 2 454.62
0 -13 3 130.59
0 -13 4 -167.25
0 -12 -8 38.49
0 -12 -7 634.86
0 -12 -6 842.69
0 -12 -5 1657.67
0 -12 -4 131.56
0 -12 -3 576.72
0 -12 -2 435.7
0 -12 -1 50.04
0 -12 0 187.19
0 -12 1 402.01
0 -12 2 301.13
0 -12 3 -0.71
0 -12 4 48.14
0 -12 5 -149.1
0 -12 6 1576.41
0 -11 -10 559.04
0 -11 -9 98.99
0 -11 -8 936.99
0 -11 -7 28.65
0 -11 -6 198.31
0 -11 -5 533.1
0 -11 -4 2003.16
0 -11 -3 315.45
0 -11 -2 190.32
0 -11 -1 256.21
0 -11 0 1690.13
0 -11 1 363.54
0 -11 2 407.75
0 -11 3 244.76
0 -11 4 154.36
0 -11 5 735.03
0 -11 6 531.6
0 -11 7 -56.11
0 -11 8 832.35
0 -10 -11 178.28
0 -10 -10 320.46
0 -10 -9 344.56
0 -10 -8 141.9
0 -10 -7 463.48
0 -10 -6 2902.52
0 -10 -5 56.91
0 -10 -4 277.44
0 -10 -3 91.65
0 -10 -2 1085.04
0 -10 -1 150.51
0 -10 0 138.46
0 -10 1 -77.54
0 -10 2 3.38
0 -10 3 82.02
0 -10 4 72.39
0 -10 5 911.03
0 -10 6 696.35
0 -10 7 691.66
0 -10 8 263.65
0 -10 9 529.1
0 -10 10 700.55
0 -9 -12 320.65
0 -9 -11 -35.79
0 -9 -10 239.23
0 -9 -9 31.96
0 -9 -8 -5.33
0 -9 -7 136.31
0 -9 -6 -11.15
0 -9 -5 32.13
0 -9 -4 371.22
0 -9 -3 235.76
0 -9 -2 101.29
0 -9 -1 2854.79
0 -9 0 1108.52
0 -9 1 18.42
0 -9 2 212.22
0 -9 3 1474.56
0 -9 4 1426.88
0 -9 5 562.63
0 -9 6 616.93
0 -9 7 383.02
0 -9 8 398.61
0 -9 9 778.38
0 -9 10 92.3
0 -9 11 54.05
0 -8 -13 -227.35
0 -8 -12 499.21
0 -8 -11 -15.85
0 -8 -10 -100.19
0 -8 -9 585.13
0 -8 -8 1997.65
0 -8 -7 4151.75
0 -8 -6 389.42
0 -8 -5 61.74
0 -8 -4 19.62
0 -8 -3 270.27
0 -8 -2 1365.8
0 -8 -1 96.87
0 -8 0 4087.86
0 -8 1 903.56
0 -8 2 283.26
0 -8 3 37.8
0 -8 4 4806.94
0 -8 5 130.99
0 -8 6 80.67
0 -8 7 701
0 -8 8 238.24
0 -8 9 -130.83
0 -8 10 270.26
0 -8 11 -67.86
0 -8 12 91.35
0 -7 -14 1634.14
0 -7 -13 13.8
0 -7 -12 -90.24
0 -7 -11 89.73
0 -7 -10 -0.74
0 -7 -9 802.87
0 -7 -8 -49.47
0 -7 -7 2120.63
0 -7 -6 1183.03
0 -7 -5 178.2
0 -7 -4 7501.65
0 -7 -3 1782.11
0 -7 -2 888.34
0 -7 -1 595.69
0 -7 0 2120.42
0 -7 1 146.15
0 -7 2 667.93
0 -7 3 1175.5
0 -7 4 32.47
0 -7 5 64.24
0 -7 6 2299.8
0 -7 7 170.82
0 -7 8 115.11
0 -7 9 244.67
0 -7 10 689.41
0 -7 11 56.4
0 -7 12 178.16
0 -7 13 129.7
0 -6 -14 -162.26
0 -6 -13 599.89
0 -6 -12 195.44
0 -6 -11 821.62
0 -6 -10 1149.25
0 -6 -9 769.28
0 -6 -8 1509.29
0 -6 -7 -141.82
0 -6 -6 189.81
0 -6 -5 773.4
0 -6 -4 9110.47
0 -6 -3 1843.1
0 -6 -2 7027.78
0 -6 -1 451.52
0 -6 0 467.66
0 -6 1 79.97
0 -6 2 -1.83
0 -6 3 -1.47
0 -6 4 78.19
0 -6 5 679.53
0 -6 6 1726.73
0 -6 7 118.99
0 -6 8 392.59
0 -6 9 465.44
0 -6 10 100.39
0 -6 11 465.96
0 -6 12 110.98
0 -6 13 184.24
0 -5 -15 1132.33
0 -5 -14 429.98
0 -5 -13 281.7
0 -5 -12 291.14
0 -5 -11 250.24
0 -5 -10 127.97
0 -5 -9 256.29
0 -5 -8 302.86
0 -5 -7 161.08
0 -5 -6 1194.78
0 -5 -5 296.11
0 -5 -4 2118.02
0 -5 -3 167.96
0 -5 -2 2406.56
0 -5 -1 164.75
0 -5 0 721.52
0 -5 1 2143.19
0 -5 2 301.13
0 -5 3 13.44
0 -5 4 401.14
0 -5 5 6116.19
0 -5 6 1798.65
0 -5 7 602.1
0 -5 8 578.23
0 -5 9 1422.02
0 -5 10 80.77
0 -5 11 90.34
0 -5 12 604.75
0 -5 13 421.05
0 -5 14 347.74
0 -4 -15 213.07
0 -4 -14 -99.5
0 -4 -13 178.57
0 -4 -12 636.23
0 -4 -11 136.83
0 -4 -10 1855.99
0 -4 -9 1097.11
0 -4 -8 269.32
0 -4 -7 965.74
0 -4 -6 1932.32
0 -4 -5 324.95
0 -4 -4 2126.44
0 -4 -3 2112.98
0 -4 -2 1383.05
0 -4 -1 732.99
0 -4 0 2141.64
0 -4 1 1839.79
0 -4 2 7401.73
0 -4 3 449.12
0 -4 4 4594.73
0 -4 5 109.71
0 -4 6 977.96
0 -4 7 389.06
0 -4 8 201.75
0 -4 9 895.14
0 -4 10 37.9
0 -4 11 560.8
0 -4 12 146.88
0 -4 13 62.78
0 -4 14 800.22
0 -3 -15 -87.24
0 -3 -14 22.23
0 -3 -13 80.5
0 -3 -12 1749.68
0 -3 -11 -183.38
0 -3 -10 956.09
0 -3 -9 3568.87
0 -3 -8 5203.03
0 -3 -7 400.35
0 -3 -6 1921.54
0 -3 -5 1089.39
0 -3 -4 1802.54
0 -3 -3 98.4
0 -3 -2 22922.5
0 -3 -1 39.43
0 -3 0 11351.02
0 -3 1 6706.84
0 -3 2 60.93
0 -3 3 540.37
0 -3 4 3003.85
0 -3 5 1811.29
0 -3 6 1884.29
0 -3 7 618.92
0 -3 8 3669.36
0 -3 9 1.48
0 -3 10 347.74
0 -3 11 374.62
0 -3 12 366.2
0 -3 13 -190.39
0 -3 14 135.65
0 -3 15 47.22
0 -2 -15 108.46
0 -2 -14 93.09
0 -2 -13 251.05
0 -2 -12 151.11
0 -2 -11 395.91
0 -2 -10 1345.8
0 -2 -9 152.42
0 -2 -8 1174.22
0 -2 -7 75.71
0 -2 -6 2205.53
0 -2 -5 37.03
0 -2 -4 3693.95
0 -2 -3 1411.8
0 -2 -2 1.92
0 -2 -1 113.43
0 -2 0 9
0 -2 1 5432.06
0 -2 2 3027.64
0 -2 3 -25.83
0 -2 4 149.66
0 -2 5 57.25
0 -2 6 3782.23
0 -2 7 32.63
0 -2 8 781.08
0 -2 9 39.21
0 -2 10 -18.62
0 -2 11 1058.97
0 -2 12 143.97
0 -2 13 1154.96
0 -2 14 -10.57
0 -2 15 241.66
0 -1 -15 40.2
0 -1 -14 270.88
0 -1 -13 467.91
0 -1 -12 68.76
0 -1 -11 2226.39
0 -1 -10 2050.13
0 -1 -9 1560.32
0 -1 -8 699.98
0 -1 -7 2154.24
0 -1 -6 884.32
0 -1 -5 4532.59
0 -1 -4 1055.84
0 -1 -3 111.04
0 -1 -2 1144.55
0 -1 -1 14370.89
0 -1 1 1795.88
0 -1 2 2754.12
0 -1 3 3737.07
0 -1 4 3864.19
0 -1 5 582.1
0 -1 6 4669.52
0 -1 7 7368.82
0 -1 8 2922.86
0 -1 9 512.76
0 -1 10 3389.89
0 -1 11 1135.42
0 -1 12 97.54
0 -1 13 2.96
0 -1 14 749.22
0 -1 15 210.53
0 0 -15 73.62
0 0 -14 36.94
0 0 -13 1457.48
0 0 -12 432.01
0 0 -11 959.9
0 0 -10 1541.82
0 0 -9 332.69
0 0 -8 119.28
0 0 -7 399.43
0 0 -6 1902.34
0 0 -5 177.79
0 0 -4 11205.7
0 0 -3 73.73
0 0 -2 963.54
0 0 1 -43.69
0 0 2 949.34
0 0 3 47.73
0 0 4 11233.76
0 0 5 87.64
0 0 6 1961.57
0 0 7 289.51
0 0 8 145.22
0 0 9 306.35
0 0 10 1542.78
0 0 11 997.76
0 0 12 385.13
0 0 13 1217.95
0 0 14 483.2
0 0 15 178.39
0 1 -15 178.18
0 1 -14 728.19
0 1 -13 7.24
0 1 -12 -231.4
0 1 -11 1330.94
0 1 -10 3190.64
0 1 -9 633.17
0 1 -8 2790.45
0 1 -7 7134.82
0 1 -6 4808.04
0 1 -5 759.02
0 1 -4 4014.62
0 1 -3 3908.98
0 1 -2 2819.15
0 1 -1 1949.44
0 1 0 -16
0 1 1 14530.79
0 1 2 1363.14
0 1 3 131.57
0 1 4 1131.55
0 1 5 4195.02
0 1 6 640.09
0 1 7 2071.16
0 1 8 590.94
0 1 9 1587.48
0 1 10 1967.12
0 1 11 2216.5
0 1 12 -200.41
0 1 13 417.11
0 1 14 244.63
0 1 15 -64.71
0 2 -15 241.89
0 2 -14 278.22
0 2 -13 1234.78
0 2 -12 142.15
0 2 -11 1214.56
0 2 -10 -21.57
0 2 -9 39.29
0 2 -8 819.18
0 2 -7 5.92
0 2 -6 3726.74
0 2 -5 96.75
0 2 -4 159.36
0 2 -3 -39.8
0 2 -2 3259.52
0 2 -1 5573.36
0 2 0 -9.41
0 2 1 153.42
0 2 2 34.78
0 2 3 1476.09
0 2 4 3792.65
0 2 5 40.75
0 2 6 2225.06
0 2 7 62.46
0 2 8 1004.95
0 2 9 52.77
0 2 10 1472.04
0 2 11 379.3
0 2 12 149.12
0 2 13 150.7
0 2 14 -61.93
0 2 15 35.38
0 3 -15 32.27
0 3 -14 429.82
0 3 -13 -20.67
0 3 -12 459.97
0 3 -11 463.09
0 3 -10 304.49
0 3 -9 77.7
0 3 -8 3895.6
0 3 -7 776.84
0 3 -6 1957.57
0 3 -5 1909.31
0 3 -4 3130.35
0 3 -3 640.73
0 3 -2 21.85
0 3 -1 7145.17
0 3 0 11835.26
0 3 1 16.93
0 3 2 22934.36
0 3 3 76.37
0 3 4 1952.87
0 3 5 867.68
0 3 6 1926.72
0 3 7 261.79
0 3 8 5117.32
0 3 9 3430
0 3 10 703.69
0 3 11 48.5
0 3 12 1747.59
0 3 13 145.67
0 3 14 -24.9
0 3 15 -75.32
0 4 -14 562.95
0 4 -13 218.47
0 4 -12 119.05
0 4 -11 547.55
0 4 -10 38.5
0 4 -9 1088.46
0 4 -8 220.84
0 4 -7 376.19
0 4 -6 951.14
0 4 -5 77.66
0 4 -4 4616.03
0 4 -3 520.9
0 4 -2 7479.4
0 4 -1 1746.67
0 4 0 2362.33
0 4 1 693.3
0 4 2 1455.71
0 4 3 2296.89
0 4 4 2089.51
0 4 5 211.91
0 4 6 2001.71
0 4 7 854.49
0 4 8 265.88
0 4 9 862.18
0 4 10 1879.78
0 4 11 206.66
0 4 12 531.93
0 4 13 203.76
0 4 14 144.6
0 4 15 187.83
0 5 -14 430.38
0 5 -13 333.93
0 5 -12 373.93
0 5 -11 83.8
0 5 -10 -8.9
0 5 -9 1240.12
0 5 -8 541.24
0 5 -7 618.97
0 5 -6 1791.5
0 5 -5 6139.52
0 5 -4 465.42
0 5 -3 17.42
0 5 -2 390.75
0 5 -1 2019.14
0 5 0 680.65
0 5 1 36.58
0 5 2 2197.18
0 5 3 234.35
0 5 4 1919.36
0 5 5 248.14
0 5 6 1035.71
0 5 7 169.95
0 5 8 237.19
0 5 9 193.49
0 5 10 116.46
0 5 11 300.37
0 5 12 60.89
0 5 13 197.16
0 5 14 154.95
0 5 15 965.81
0 6 -13 13.72
0 6 -12 -7.26
0 6 -11 347.85
0 6 -10 77.31
0 6 -9 342.09
0 6 -8 395.84
0 6 -7 18.44
0 6 -6 1997.07
0 6 -5 626.37
0 6 -4 35.85
0 6 -3 9.76
0 6 -2 -61.68
0 6 -1 129.21
0 6 0 527.74
0 6 1 523.24
0 6 2 6430.92
0 6 3 1549.74
0 6 4 8531.71
0 6 5 703.94
0 6 6 199.7
0 6 7 70.24
0 6 8 1440.54
0 6 9 835.63
0 6 10 1111.24
0 6 11 719.87
0 6 12 37.84
0 6 13 525.29
0 6 14 50.64
0 7 -13 93.55
0 7 -12 114.07
0 7 -11 98.32
0 7 -10 654.45
0 7 -9 250.6
0 7 -8 55.13
0 7 -7 -6.44
0 7 -6 2353.07
0 7 -5 48.73
0 7 -4 79.48
0 7 -3 877.78
0 7 -2 596.14
0 7 -1 108.61
0 7 0 2041.56
0 7 1 390.35
0 7 2 635
0 7 3 1570.66
0 7 4 6938.08
0 7 5 164.75
0 7 6 1269.88
0 7 7 1933.24
0 7 8 -13.56
0 7 9 617.19
0 7 10 431.39
0 7 11 11.58
0 7 12 40.5
0 7 13 81.55
0 7 14 1403.35
0 8 -12 31.92
0 8 -11 32.26
0 8 -10 364.09
0 8 -9 439.83
0 8 -8 52.99
0 8 -7 520.6
0 8 -6 -19.34
0 8 -5 152.26
0 8 -4 5095.07
0 8 -3 41.35
0 8 -2 299.94
0 8 -1 551.62
0 8 0 3987.31
0 8 1 215.26
0 8 2 999.27
0 8 3 225.98
0 8 4 56.97
0 8 5 26.48
0 8 6 410.73
0 8 7 3751.75
0 8 8 2262.85
0 8 9 529.42
0 8 10 75.03
0 8 11 -32.83
0 8 12 547.98
0 8 13 -114.09
0 9 -11 75.56
0 9 -10 152.88
0 9 -9 689.86
0 9 -8 145.12
0 9 -7 523.99
0 9 -6 625.29
0 9 -5 625.23
0 9 -4 1312.57
0 9 -3 1317.25
0 9 -2 245.08
0 9 -1 -51.85
0 9 0 1038.5
0 9 1 2801.64
0 9 2 144.64
0 9 3 278.78
0 9 4 377.39
0 9 5 80.67
0 9 6 72.49
0 9 7 -17.92
0 9 8 87.23
0 9 9 122.02
0 9 10 216.35
0 9 11 55.43
0 9 12 246.65
0 10 -10 662.95
0 10 -9 540.02
0 10 -8 175.8
0 10 -7 578.39
0 10 -6 662.66
0 10 -5 860.19
0 10 -4 142.29
0 10 -3 138.74
0 10 -2 77.06
0 10 -1 -4.93
0 10 0 -35.49
0 10 1 28.16
0 10 2 622.59
0 10 3 -1.45
0 10 4 260.66
0 10 5 65.83
0 10 6 2615.56
0 10 7 345.48
0 10 8 282.21
0 10 9 59.15
0 10 10 281.48
0 10 11 209.8
0 11 -8 984.59
0 11 -7 111.68
0 11 -6 484.91
0 11 -5 563.37
0 11 -4 102.68
0 11 -3 88.38
0 11 -2 509.31
0 11 -1 420.31
0 11 0 1604.79
0 11 1 294.85
0 11 2 220.6
0 11 3 282.31
0 11 4 1808.18
0 11 5 435.31
0 11 6 83.19
0 11 7 250.13
0 11 8 935.18
0 11 9 78.79
0 11 10 473.63
0 12 -6 1229.11
0 12 -5 -2.68
0 12 -4 163.64
0 12 -3 8.02
0 12 -2 410.55
0 12 -1 265.64
0 12 0 54.4
0 12 1 60.81
0 12 2 203.51
0 12 3 258.59
0 12 4 249.81
0 12 5 1150.92
0 12 6 1012.49
0 12 7 383.23
0 12 8 82.27
0 13 -4 73.06
0 13 -3 147.73
0 13 -2 319.27
0 13 -1 426.23
0 13 0 -38.58
0 13 1 -115.76
0 13 2 -32.45
0 13 3 62.97
0 13 4 35.92
0 13 5 70.63
1 -13 -4 49.65
1 -13 -3 242.98
1 -13 -2 444.8
1 -13 -1 90.49
1 -13 0 284.16
1 -13 1 59.1
1 -13 2 -249.66
1 -12 -7 799.86
1 -12 -6 744.44
1 -12 -5 10.28
1 -12 -4 300.84
1 -12 -3 383.12
1 -12 -2 160.97
1 -12 -1 142.37
1 -12 0 312.06
1 -12 1 130.17
1 -12 2 -16.01
1 -12 3 150
1 -12 4 -101.94
1 -12 5 1249.36
1 -11 -9 272.28
1 -11 -8 330.75
1 -11 -7 -175.56
1 -11 -6 -5.74
1 -11 -5 207.39
1 -11 -4 114.68
1 -11 -3 -79.18
1 -11 -2 835.46
1 -11 -1 1174.87
1 -11 0 571.42
1 -11 1 216.33
1 -11 2 236.34
1 -11 3 42.6
1 -11 4 421.72
1 -11 5 216.99
1 -11 6 116.8
1 -11 7 220.3
1 -10 -10 516.26
1 -10 -9 574.42
1 -10 -8 302.49
1 -10 -7 149.82
1 -10 -6 214.63
1 -10 -5 157.38
1 -10 -4 13.82
1 -10 -3 642.23
1 -10 -2 419.89
1 -10 -1 1274.02
1 -10 0 1856.85
1 -10 1 430.2
1 -10 2 588.99
1 -10 3 4.48
1 -10 4 226.83
1 -10 5 56.65
1 -10 6 284.63
1 -10 7 40.85
1 -10 8 70.89
1 -10 9 -65.55
1 -9 -12 97.31
1 -9 -11 -129.03
1 -9 -10 477.41
1 -9 -9 97.57
1 -9 -8 482.98
1 -9 -7 239.96
1 -9 -6 186.47
1 -9 -5 548.82
1 -9 -4 444.43
1 -9 -3 922.38
1 -9 -2 396.86
1 -9 -1 -7.59
1 -9 0 416.37
1 -9 1 1300.51
1 -9 2 -92.27
1 -9 3 222.82
1 -9 4 74.98
1 -9 5 734.87
1 -9 6 169.2
1 -9 7 578.35
1 -9 8 -78.89
1 -9 9 305.31
1 -9 10 841.44
1 -8 -12 66.29
1 -8 -11 772.55
1 -8 -10 218.32
1 -8 -9 991.72
1 -8 -8 685.63
1 -8 -7 214.48
1 -8 -6 530.06
1 -8 -5 1604.23
1 -8 -4 504.38
1 -8 -3 360.17
1 -8 -2 738
1 -8 -1 2753.24
1 -8 0 82.15
1 -8 1 2125.07
1 -8 2 22.53
1 -8 3 1628.95
1 -8 4 283.77
1 -8 5 1519.29
1 -8 6 40.51
1 -8 7 1481.77
1 -8 8 262.16
1 -8 9 -342.59
1 -8 10 -287.96
1 -8 11 74.02
1 -7 -13 368.02
1 -7 -12 -66.63
1 -7 -11 325.16
1 -7 -10 -102.38
1 -7 -9 1791.61
1 -7 -8 2593.43
1 -7 -7 8092.22
1 -7 -6 108.6
1 -7 -5 1907.05
1 -7 -4 940
1 -7 -3 1236.8
1 -7 -2 358.53
1 -7 -1 1277.9
1 -7 0 300.17
1 -7 1 1274.94
1 -7 2 4.66
1 -7 3 384.53
1 -7 4 1359.86
1 -7 5 170.29
1 -7 6 1785.64
1 -7 7 252.89
1 -7 8 3412.17
1 -7 9 2274.71
1 -7 10 -0.7
1 -7 11 80.87
1 -7 12 96.27
1 -6 -14 876.57
1 -6 -13 236.98
1 -6 -12 216.86
1 -6 -11 43.35
1 -6 -10 9.71
1 -6 -9 693.98
1 -6 -8 128.38
1 -6 -7 848.67
1 -6 -6 537.66
1 -6 -5 562.97
1 -6 -4 30.23
1 -6 -3 3266.62
1 -6 -2 3134.32
1 -6 -1 944.41
1 -6 0 423.05
1 -6 1 203.04
1 -6 2 6213.46
1 -6 3 349.24
1 -6 4 490.44
1 -6 5 55.66
1 -6 6 1358.55
1 -6 7 104.85
1 -6 8 48.02
1 -6 9 1233.83
1 -6 10 54.34
1 -6 11 7.05
1 -6 12 148.61
1 -6 13 428.62
1 -5 -14 -208.79
1 -5 -13 366.83
1 -5 -12 -25.1
1 -5 -11 320.15
1 -5 -10 1402.76
1 -5 -9 2475.46
1 -5 -8 1192.72
1 -5 -7 1083.2
1 -5 -6 127.4
1 -5 -5 791.24
1 -5 -4 1317.82
1 -5 -3 1303.68
1 -5 -2 90.99
1 -5 -1 4135.87
1 -5 0 752.48
1 -5 1 844.75
1 -5 2 3862.58
1 -5 3 4460.15
1 -5 4 1059.58
1 -5 5 639.73
1 -5 6 644.58
1 -5 7 561.64
1 -5 8 1600.48
1 -5 9 224.95
1 -5 10 -46.47
1 -5 11 37.57
1 -5 12 455.6
1 -5 13 134.1
1 -5 14 162.53
1 -4 -15 1102.16
1 -4 -14 -36.04
1 -4 -13 -58.96
1 -4 -12 317.22
1 -4 -11 1374.04
1 -4 -10 1959.96
1 -4 -9 -10.2
1 -4 -8 536.3
1 -4 -7 1121.86
1 -4 -6 126.01
1 -4 -5 6372.35
1 -4 -4 1785.67
1 -4 -3 38.5
1 -4 -2 904.43
1 -4 -1 174.83
1 -4 0 91.56
1 -4 1 11573.68
1 -4 2 449.74
1 -4 3 3222.96
1 -4 4 -62.86
1 -4 5 12414.67
1 -4 6 45.96
1 -4 7 378.25
1 -4 8 1148.97
1 -4 9 115.42
1 -4 10 166.06
1 -4 11 663.9
1 -4 12 32.74
1 -4 13 1182.65
1 -4 14 405.18
1 -3 -15 -214.39
1 -3 -14 9.61
1 -3 -13 104.03
1 -3 -12 543.2
1 -3 -11 96.37
1 -3 -10 1621.75
1 -3 -9 1057.9
1 -3 -8 69.81
1 -3 -7 937.2
1 -3 -6 2223.97
1 -3 -5 3467.99
1 -3 -4 4.48
1 -3 -3 673.7
1 -3 -2 -22.97
1 -3 -1 575.99
1 -3 0 8960.11
1 -3 1 343.59
1 -3 2 1253.05
1 -3 3 177.66
1 -3 4 5413.63
1 -3 5 605.42
1 -3 6 2942.59
1 -3 7 1375.05
1 -3 8 178.48
1 -3 9 117.74
1 -3 10 430.33
1 -3 11 -17.9
1 -3 12 6.54
1 -3 13 50.16
1 -3 14 1482.75
1 -3 15 -39.43
1 -2 -15 44.43
1 -2 -14 201.1
1 -2 -13 76.83
1 -2 -12 728.8
1 -2 -11 160.9
1 -2 -10 99.78
1 -2 -9 151.11
1 -2 -8 225.67
1 -2 -7 341.72
1 -2 -6 2646.94
1 -2 -5 2721.01
1 -2 -4 4005.04
1 -2 -3 336.44
1 -2 -2 1906.69
1 -2 -1 5980.41
1 -2 0 3066.13
1 -2 1 -52.86
1 -2 2 7927.42
1 -2 3 6811.85
1 -2 4 4569.48
1 -2 5 4119.5
1 -2 6 1653.66
1 -2 7 7019.19
1 -2 8 1339.43
1 -2 9 110.61
1 -2 10 633.86
1 -2 11 3316.89
1 -2 12 766.66
1 -2 13 149.48
1 -2 14 515.6
1 -2 15 10.02
1 -1 -15 -33.95
1 -1 -14 3017.98
1 -1 -13 243.2
1 -1 -12 127.34
1 -1 -11 596.05
1 -1 -10 93.63
1 -1 -9 857.24
1 -1 -8 315.66
1 -1 -7 13975
1 -1 -6 1414.24
1 -1 -5 508.64
1 -1 -4 346.76
1 -1 -3 43948.02
1 -1 -2 98.83
1 -1 -1 515.56
1 -1 0 589.18
1 -1 1 9162.57
1 -1 2 747.99
1 -1 3 72655.13
1 -1 4 671.64
1 -1 5 302.11
1 -1 6 992.83
1 -1 7 5317.65
1 -1 8 2013.71
1 -1 9 38.43
1 -1 10 1822.98
1 -1 11 7.78
1 -1 12 444.03
1 -1 13 1047.57
1 -1 14 112
1 -1 15 87.59
1 0 -15 -1.79
1 0 -14 107.3
1 0 -13 1544.35
1 0 -12 24.92
1 0 -11 190.2
1 0 -10 3034.46
1 0 -9 2041.49
1 0 -8 100.96
1 0 -7 5399.85
1 0 -6 4554.46
1 0 -5 20.53
1 0 -4 1485.23
1 0 -3 26115.07
1 0 -2 6481.88
1 0 -1 9033.67
1 0 0 672.61
1 0 1 23.36
1 0 2 1138.92
1 0 3 9726
1 0 4 4380.38
1 0 5 4954.04
1 0 6 386.02
1 0 7 2641.84
1 0 8 1481.84
1 0 9 149.62
1 0 10 49.37
1 0 11 391.31
1 0 12 -20.78
1 0 13 56.44
1 0 14 45.78
1 0 15 364.49
1 1 -15 -103.33
1 1 -14 1055.91
1 1 -13 212.35
1 1 -12 133.81
1 1 -11 839.82
1 1 -10 1740.5
1 1 -9 1984.04
1 1 -8 7489.17
1 1 -7 1510.46
1 1 -6 16.45
1 1 -5 1674
1 1 -4 2553.07
1 1 -3 10381.44
1 1 -2 38.82
1 1 -1 528.71
1 1 0 12980.28
1 1 2 182.79
1 1 3 5428.25
1 1 4 1126.08
1 1 5 9382.82
1 1 6 2241.53
1 1 7 61.56
1 1 8 112.08
1 1 9 272.13
1 1 10 29.72
1 1 11 -34.5
1 1 12 195.34
1 1 13 164.93
1 1 14 38.73
1 1 15 122.52
1 2 -15 131.61
1 2 -14 237.93
1 2 -13 39.37
1 2 -12 525.13
1 2 -11 931.78
1 2 -10 385.58
1 2 -9 42.46
1 2 -8 3310.29
1 2 -7 4169.31
1 2 -6 379.58
1 2 -5 5154.18
1 2 -4 77.46
1 2 -3 13866.16
1 2 -2 8460.52
1 2 -1 2812.44
-1 -2 0 908.18
1 2 1 363.37
1 2 2 4540.53
1 2 3 9553.47
1 2 4 2861.73
1 2 5 6223.81
1 2 6 65.1
1 2 7 774.99
1 2 8 11.74
1 2 9 8282.11
1 2 10 -21.18
1 2 11 33.57
1 2 12 370.59
1 2 13 289.07
1 2 14 -59.81
1 2 15 95.8
1 3 -15 70.02
1 3 -14 1263.93
1 3 -13 395.69
1 3 -12 17.48
1 3 -11 145.32
1 3 -10 -7.21
1 3 -9 180.08
1 3 -8 45.11
1 3 -7 298.64
1 3 -6 699.68
1 3 -5 1654.11
1 3 -4 117.6
1 3 -3 4765.78
1 3 -2 10833.33
1 3 -1 72963.15
-1 -3 0 12.1
-1 -3 -1 3409
1 3 2 6138.9
1 3 3 7612.78
1 3 4 65.42
1 3 5 1389.68
1 3 6 -36.78
1 3 7 99.08
1 3 8 1071.67
1 3 9 275.05
1 3 10 969.94
1 3 11 427.39
1 3 12 588.84
1 3 13 140.63
1 3 14 716.95
1 3 15 732.21
1 4 -14 450.48
1 4 -13 257.41
1 4 -12 1322.22
1 4 -11 50.66
1 4 -10 621.89
1 4 -9 207.25
1 4 -8 3044.67
1 4 -7 83.78
1 4 -6 546.95
1 4 -5 951.72
1 4 -4 3769
1 4 -3 8089.67
1 4 -2 779.17
1 4 -1 1886.94
-1 -4 0 1089.18
-1 -4 -1 4101.72
1 4 2 1639.46
1 4 3 63.54
1 4 4 1401.25
1 4 5 1982.64
1 4 6 23.14
1 4 7 422.93
1 4 8 2051.1
1 4 9 958.78
1 4 10 778.68
1 4 11 80.09
1 4 12 1807.02
1 4 13 1049.55
1 4 14 194.76
1 4 15 424.85
1 5 -14 522.48
1 5 -13 140.04
1 5 -12 400.16
1 5 -11 227.32
1 5 -10 37.88
1 5 -9 1642.03
1 5 -8 67.73
1 5 -7 43.5
1 5 -6 170.4
1 5 -5 -14.81
1 5 -4 158.3
1 5 -3 14060.82
1 5 -2 2858.95
1 5 -1 6740.13
1 5 0 13094.33
-1 -5 -1 6269.33
1 5 2 3435.06
1 5 3 319.34
1 5 4 2046.59
1 5 5 302.04
1 5 6 108.71
1 5 7 799.25
1 5 8 -75.69
1 5 9 151.91
1 5 10 563.62
1 5 11 240.17
1 5 12 6.05
1 5 13 372.26
1 5 14 1454.07
1 5 15 138.85
1 6 -13 64.05
1 6 -12 139.21
1 6 -11 99.82
1 6 -10 414.69
1 6 -9 1358.73
1 6 -8 182.43
1 6 -7 142.65
1 6 -6 2051.09
1 6 -5 874.89
1 6 -4 2627.88
1 6 -3 3866.65
1 6 -2 2205.05
1 6 -1 1346.86
1 6 0 1674.12
-1 -6 -1 2206.41
1 6 2 1436.8
1 6 3 1527.46
1 6 4 1262.34
1 6 5 2389.39
1 6 6 170.39
1 6 7 11508.81
1 6 8 2601.35
1 6 9 -84.08
1 6 10 171.87
1 6 11 1560.68
1 6 12 77.12
1 6 13 -56.7
1 6 14 30.69
1 7 -13 376.83
1 7 -12 -32.48
1 7 -11 164.32
1 7 -10 10.77
1 7 -9 70.92
1 7 -8 -27.38
1 7 -7 3144.91
1 7 -6 55.11
1 7 -5 66.99
1 7 -4 1134.04
1 7 -3 7178.21
1 7 -2 91.41
1 7 -1 876.98
1 7 0 62.13
1 7 1 1651.7
1 7 2 263.54
1 7 3 2330.91
1 7 4 1635.65
1 7 5 2100.47
1 7 6 68.89
1 7 7 824.43
1 7 8 2057.66
1 7 9 941.22
1 7 10 608.49
1 7 11 51.34
1 7 12 -15.64
1 7 13 541.81
1 7 14 -72.41
1 8 -12 -25.16
1 8 -11 39.06
1 8 -10 1014.27
1 8 -9 23.89
1 8 -8 -60.04
1 8 -7 157.74
1 8 -6 3462.34
1 8 -5 670.14
1 8 -4 79.48
1 8 -3 8.51
1 8 -2 997.01
1 8 -1 135.47
1 8 0 35.5
1 8 1 129.55
1 8 2 318.74
1 8 3 249.24
1 8 4 1155.16
1 8 5 -47.35
1 8 6 1463.1
1 8 7 1804.91
1 8 8 262.56
1 8 9 37.67
1 8 10 408.95
1 8 11 343.03
1 8 12 402.03
1 8 13 -14.7
1 9 -11 30.15
1 9 -10 95.99
1 9 -9 209.03
1 9 -8 56.98
1 9 -7 786.75
1 9 -6 74.85
1 9 -5 26.1
1 9 -4 527.04
1 9 -3 7.35
1 9 -2 320.48
1 9 -1 3795.11
1 9 0 287.13
1 9 1 2563.38
1 9 2 -3.86
1 9 3 1040.18
1 9 4 439.89
1 9 5 52.75
1 9 6 58.74
1 9 7 453.15
1 9 8 174.04
1 9 9 1474.77
1 9 10 59.32
1 9 11 -17.28
1 9 12 774.63
1 10 -10 -28.41
1 10 -9 21.8
1 10 -8 486.46
1 10 -7 723.84
1 10 -6 39.06
1 10 -5 105.62
1 10 -4 214.39
1 10 -3 123.32
1 10 -2 18.99
1 10 -1 153.75
1 10 0 1004.85
1 10 1 1894.21
1 10 2 107.72
1 10 3 1397.77
1 10 4 -38.87
1 10 5 1856.32
1 10 6 16.75
1 10 7 665.29
1 10 8 99.28
1 10 9 183.84
1 10 10 61.22
1 10 11 49.8
1 11 -9 37.9
1 11 -8 265.7
1 11 -7 -47.45
1 11 -6 197.09
1 11 -5 878.02
1 11 -4 192.7
1 11 -3 315.27
1 11 -2 1007.57
1 11 -1 2839.36
1 11 0 56.02
1 11 1 351.35
1 11 2 941.16
1 11 3 697.85
1 11 4 274.08
1 11 5 48.73
1 11 6 1424.21
1 11 7 219.56
1 11 8 65.83
1 11 9 12.75
1 11 10 21.06
1 12 -7 461.91
1 12 -6 6.38
1 12 -5 201.25
1 12 -4 569.28
1 12 -3 325.67
1 12 -2 202.08
1 12 -1 557.76
1 12 0 454.05
1 12 1 383.32
1 12 2 209.15
1 12 3 -58.02
1 12 4 -79.2
1 12 5 51.29
1 12 6 443.29
1 12 7 0.34
1 12 8 77.66
1 12 9 882.51
1 13 -4 151.49
1 13 -3 702.21
1 13 -2 181.07
1 13 -1 329.15
1 13 0 211.51
1 13 1 229.67
1 13 2 169.18
1 13 3 -114.83
1 13 4 -101.46
1 13 5 117.49
1 13 6 121.42
1 14 1 -32.69
2 -12 -6 -50.3
2 -12 -5 772.58
2 -12 -4 236.36
2 -12 -3 357.22
2 -12 -2 8.83
2 -12 -1 524.46
2 -12 0 293.69
2 -12 1 222.51
2 -12 2 826.93
2 -12 3 598.34
2 -12 4 350.95
2 -11 -8 17.25
2 -11 -7 511.04
2 -11 -6 1011.05
2 -11 -5 131.05
2 -11 -4 363.68
2 -11 -3 312.09
2 -11 -2 2204.61
2 -11 -1 140.96
2 -11 0 78.79
2 -11 1 141.16
2 -11 2 316.09
2 -11 3 153.46
2 -11 4 -26.76
2 -11 5 430.23
2 -11 6 -25.46
2 -11 7 22.86
2 -10 -10 247.9
2 -10 -9 111.01
2 -10 -8 2.14
2 -10 -7 -72.01
2 -10 -6 108.66
2 -10 -5 215.18
2 -10 -4 111.58
2 -10 -3 127.78
2 -10 -2 2369.5
2 -10 -1 1946.69
2 -10 0 238.51
2 -10 1 13.16
2 -10 2 516.72
2 -10 3 1845.43
2 -10 4 26.52
2 -10 5 241.9
2 -10 6 225.79
2 -10 7 250.14
2 -10 8 106.1
2 -9 -11 38.46
2 -9 -10 49.96
2 -9 -9 347.44
2 -9 -8 2233.55
2 -9 -7 209.25
2 -9 -6 283.3
2 -9 -5 -4.65
2 -9 -4 561.92
2 -9 -3 35.62
2 -9 -2 459.55
2 -9 -1 37.58
2 -9 0 574.39
2 -9 1 106.46
2 -9 2 25.08
2 -9 3 270.23
2 -9 4 2327.84
2 -9 5 119.12
2 -9 6 -170.02
2 -9 7 32.37
2 -9 8 106.03
2 -9 9 94.52
2 -9 10 280.68
2 -8 -12 260.34
2 -8 -11 -44.28
2 -8 -10 1470.46
2 -8 -9 3.96
2 -8 -8 337.84
2 -8 -7 2.83
2 -8 -6 54.83
2 -8 -5 161.79
2 -8 -4 938.93
2 -8 -3 1396.7
2 -8 -2 69.88
2 -8 -1 53.09
2 -8 0 2060.2
2 -8 1 606.19
2 -8 2 618.6
2 -8 3 1904.28
2 -8 4 66.48
2 -8 5 237.22
2 -8 6 925.86
2 -8 7 85.33
2 -8 8 2.12
2 -8 9 69.76
2 -8 10 250.65
2 -8 11 195.99
2 -7 -13 65.59
2 -7 -12 676.9
2 -7 -11 272.14
2 -7 -10 9.15
2 -7 -9 363.42
2 -7 -8 -58.05
2 -7 -7 29.68
2 -7 -6 33.1
2 -7 -5 893.25
2 -7 -4 1918.25
2 -7 -3 1708.48
2 -7 -2 425.83
2 -7 -1 1372.03
2 -7 0 80.5
2 -7 1 1258.43
2 -7 2 12.24
2 -7 3 39.71
2 -7 4 363.15
2 -7 5 493.89
2 -7 6 348.57
2 -7 7 94.23
2 -7 8 186.64
2 -7 9 211.57
2 -7 10 33.5
2 -7 11 78.87
2 -7 12 57
2 -6 -13 -153.4
2 -6 -12 71.47
2 -6 -11 420.07
2 -6 -10 -172.61
2 -6 -9 106.89
2 -6 -8 160.31
2 -6 -7 -118.44
2 -6 -6 705.07
2 -6 -5 -161.79
2 -6 -4 4391.79
2 -6 -3 727.13
2 -6 -2 1841.54
2 -6 -1 86.57
2 -6 0 4230.01
2 -6 1 170.68
2 -6 2 948.97
2 -6 3 8.77
2 -6 4 -13.61
2 -6 5 103.72
2 -6 6 575.88
2 -6 7 282.45
2 -6 8 678.57
2 -6 9 503.68
2 -6 10 94.72
2 -6 11 25.5
2 -6 12 231.25
2 -6 13 -42.78
2 -5 -14 284.86
2 -5 -13 59.6
2 -5 -12 872.48
2 -5 -11 315.79
2 -5 -10 103.18
2 -5 -9 206.82
2 -5 -8 1409.33
2 -5 -7 353.98
2 -5 -6 2466.31
2 -5 -5 327.11
2 -5 -4 164.76
2 -5 -3 1147.7
2 -5 -2 8514.93
2 -5 -1 120.68
2 -5 0 2463.13
2 -5 1 112.72
2 -5 2 4599.72
2 -5 3 154.03
2 -5 4 35.61
2 -5 5 130.63
2 -5 6 253.83
2 -5 7 673.63
2 -5 8 200.76
2 -5 9 8.37
2 -5 10 57.38
2 -5 11 229.03
2 -5 12 -8.52
2 -5 13 228.12
2 -4 -14 4.41
2 -4 -13 -38.03
2 -4 -12 367.13
2 -4 -11 163.09
2 -4 -10 1379.58
2 -4 -9 929.82
2 -4 -8 2592.82
2 -4 -7 -8.16
2 -4 -6 1368.56
2 -4 -5 2038.31
2 -4 -4 105.97
2 -4 -3 9.7
2 -4 -2 2068.25
2 -4 -1 2817.26
2 -4 0 64.95
2 -4 1 1242.8
2 -4 2 231.4
2 -4 3 -1.11
2 -4 4 2768.23
2 -4 5 2030.76
2 -4 6 2881.55
2 -4 7 6217.89
2 -4 8 1847.71
2 -4 9 -72.44
2 -4 10 236.7
2 -4 11 100.51
2 -4 12 72.94
2 -4 13 124.2
2 -4 14 67.25
2 -3 -15 -71.98
2 -3 -14 456.78
2 -3 -13 43.75
2 -3 -12 121.89
2 -3 -11 155.08
2 -3 -10 665.95
2 -3 -9 31.39
2 -3 -8 1418
2 -3 -7 324.38
2 -3 -6 3267.65
2 -3 -5 388.39
2 -3 -4 3057.09
2 -3 -3 2209.6
2 -3 -2 143.8
2 -3 -1 1058.39
2 -3 0 25.38
2 -3 1 1867.4
2 -3 2 -31.95
2 -3 3 1022.94
2 -3 4 6326.1
2 -3 5 15728.35
2 -3 6 982.48
2 -3 7 69.13
2 -3 8 3894.53
2 -3 9 -30.07
2 -3 10 -22.22
2 -3 11 -83.94
2 -3 12 761.05
2 -3 13 205.14
2 -3 14 276.49
2 -2 -15 28.49
2 -2 -14 496.13
2 -2 -13 45.69
2 -2 -12 301.11
2 -2 -11 934.58
2 -2 -10 3135.85
2 -2 -9 -16.81
2 -2 -8 213.02
2 -2 -7 1381.67
2 -2 -6 10591.12
2 -2 -5 2109.83
2 -2 -4 13942.46
2 -2 -3 320.25
2 -2 -2 8002.33
2 -2 -1 2223.17
2 -2 0 22764.96
2 -2 1 828.71
2 -2 2 57.41
2 -2 3 1073.81
2 -2 4 5854.8
2 -2 5 3147.46
2 -2 6 17987.22
2 -2 7 1747.96
2 -2 8 -22.91
2 -2 9 32.68
2 -2 10 1600.55
2 -2 11 60.24
2 -2 12 12.26
2 -2 13 164.44
2 -2 14 156.45
2 -2 15 -20.1
2 -1 -15 91.19
2 -1 -14 189.28
2 -1 -13 1014.15
2 -1 -12 1491.45
2 -1 -11 97.83
2 -1 -10 2472.86
2 -1 -9 2894.49
2 -1 -8 737.39
2 -1 -7 309.99
2 -1 -6 2166.05
2 -1 -5 2222.12
2 -1 -4 3817.01
2 -1 -3 2271.88
2 -1 -2 31.5
2 -1 -1 14138.8
2 -1 0 39735.94
2 -1 1 3008.81
2 -1 2 1787.75
2 -1 3 3224.18
2 -1 4 12929.25
2 -1 5 2198.67
2 -1 6 143.59
2 -1 7 1897.61
2 -1 8 135.26
2 -1 9 -28.31
2 -1 10 37.69
2 -1 11 94.65
2 -1 12 176.66
2 -1 13 151.44
2 -1 14 19.28
2 -1 15 108.36
2 0 -15 93.96
2 0 -14 440.32
2 0 -13 -108.52
2 0 -12 157.94
2 0 -11 2703.39
2 0 -10 19.49
2 0 -9 -43.3
2 0 -8 248.41
2 0 -7 11157.67
2 0 -6 624.4
2 0 -5 1363.24
2 0 -4 743.33
2 0 -3 5001.31
2 0 -2 1161.87
2 0 -1 6471.15
2 0 0 3760.51
2 0 1 1177.29
2 0 2 7391.5
2 0 3 1934.63
2 0 4 107
2 0 5 2605.11
2 0 6 1050.54
2 0 7 -7.43
2 0 8 1524.23
2 0 9 -18.79
2 0 10 28.99
2 0 11 190.39
2 0 12 -63.27
2 0 13 96.16
2 0 14 -54.56
2 0 15 284.41
2 1 -15 142
2 1 -14 160.69
2 1 -13 327.97
2 1 -12 166.46
2 1 -11 141.46
2 1 -10 320.85
2 1 -9 49.58
2 1 -8 59.5
2 1 -7 656.61
2 1 -6 505.02
2 1 -5 3528.85
2 1 -4 648
2 1 -3 2745.85
2 1 -2 1235.01
2 1 -1 1597.81
2 1 0 624.73
2 1 1 1158.19
2 1 2 22931.06
2 1 3 646.22
2 1 4 3919.12
2 1 6 6189.21
2 1 7 -20.8
2 1 8 277.14
2 1 9 222.46
2 1 10 1158.81
2 1 11 -107.58
2 1 12 303.44
2 1 13 34.91
2 1 14 175.89
2 1 15 426.61
2 2 -15 251.04
2 2 -14 86.11
2 2 -13 -14.53
2 2 -12 62.84
2 2 -11 657.72
2 2 -10 107.77
2 2 -9 159.69
2 2 -8 6517.4
2 2 -7 52.63
2 2 -6 624.62
2 2 -5 189.24
2 2 -4 1956.37
2 2 -3 499.51
2 2 -2 153.38
2 2 -1 -69.56
2 2 0 25.77
2 2 1 459.22
2 2 2 44797.05
2 2 3 6185.24
2 2 4 864.38
2 2 5 1699.06
2 2 6 858.61
2 2 7 4354.14
2 2 8 2205.93
2 2 9 2537.21
2 2 10 -21.1
2 2 11 46.51
2 2 12 654.2
2 2 13 -35.13
2 2 14 53.08
2 2 15 -46.52
2 3 -15 662.83
2 3 -14 35.1
2 3 -13 16.47
2 3 -12 393.24
2 3 -11 72.13
2 3 -10 113.3
2 3 -9 20.49
2 3 -8 37.93
2 3 -7 135.08
2 3 -6 2081.86
2 3 -5 3625.97
2 3 -4 -11.47
2 3 -3 117.61
2 3 -2 2935.04
2 3 -1 1959.54
2 3 0 3552.23
2 3 1 4525.37
2 3 2 1730.78
2 3 3 2821.54
2 3 4 126.57
2 3 5 621.63
2 3 6 46.13
2 3 7 -22.7
2 3 8 595.74
2 3 9 1658.68
2 3 10 1024.1
2 3 11 283.7
2 3 12 47.32
2 3 13 0
2 3 14 660.96
2 3 15 84.22
2 4 -14 176.1
2 4 -13 215.86
2 4 -12 -27.48
2 4 -11 34.66
2 4 -10 967.66
2 4 -9 2998.55
2 4 -8 276.73
2 4 -7 47.17
2 4 -6 216.81
2 4 -5 186.81
2 4 -4 40.23
2 4 -3 1949.48
2 4 -2 69.85
2 4 -1 124.28
-2 -4 0 2684.56
-2 -4 -1 234.28
2 4 2 2.21
2 4 3 643.45
2 4 4 1525.53
2 4 5 173.72
2 4 6 620.91
2 4 7 1628.1
2 4 8 18.99
2 4 9 374.36
2 4 10 20.48
2 4 11 1321.99
2 4 12 32.27
2 4 13 242.31
2 4 14 610.78
2 4 15 501.32
2 5 -14 -39.01
2 5 -13 103.72
2 5 -12 457.08
2 5 -11 713.2
2 5 -10 708.35
2 5 -9 3141.68
2 5 -8 1199.69
2 5 -7 29.1
2 5 -6 2987.28
2 5 -5 85.95
2 5 -4 47.24
2 5 -3 119.14
2 5 -2 513.38
2 5 -1 1443.36
-2 -5 0 6957.81
-2 -5 -1 6215.1
-2 -5 -2 8101.77
2 5 3 -106.74
2 5 4 13371.72
2 5 5 17.68
2 5 6 1334.77
2 5 7 28.53
2 5 8 3626.31
2 5 9 1444.95
2 5 10 3234.05
2 5 11 771
2 5 12 433.04
2 5 13 344.31
2 5 14 159.48
2 5 15 221.85
2 6 -13 258.83
2 6 -12 -105.33
2 6 -11 408.94
2 6 -10 2074.62
2 6 -9 53.97
2 6 -8 497.23
2 6 -7 -13.04
2 6 -6 2325.91
2 6 -5 32.93
2 6 -4 1351.48
2 6 -3 2877.95
2 6 -2 4488.28
2 6 -1 24.89
-2 -6 0 27.62
-2 -6 -1 8733.27
-2 -6 -2 6113.14
-2 -6 -3 126.62
2 6 4 2046.45
2 6 5 4966.42
2 6 6 4595.73
2 6 7 314.22
2 6 8 159.93
2 6 9 12409.32
2 6 10 182.54
2 6 11 155.51
2 6 12 17.33
2 6 13 424.94
2 6 14 145.59
2 7 -13 366.12
2 7 -12 65.73
2 7 -11 50.22
2 7 -10 66.31
2 7 -9 444.74
2 7 -8 52.21
2 7 -7 2340.38
2 7 -6 -29.32
2 7 -5 2399.87
2 7 -4 1953.07
2 7 -3 3607.86
2 7 -2 315.01
2 7 -1 2799.46
-2 -7 0 6673.5
-2 -7 -1 268.46
-2 -7 -2 776.69
-2 -7 -3 49.24
2 7 4 105.87
2 7 5 55.72
2 7 6 469.91
2 7 7 2444.72
2 7 8 828.27
2 7 9 282.73
2 7 10 156.55
2 7 11 914.19
2 7 12 741
2 7 13 -5.09
2 7 14 -119.09
2 8 -12 268.18
2 8 -11 186
2 8 -10 197.34
2 8 -9 806.55
2 8 -8 1.94
2 8 -7 167.68
2 8 -6 -2.63
2 8 -5 141.59
2 8 -4 5139.04
2 8 -3 459.45
2 8 -2 2706.23
2 8 -1 4518.07
-2 -8 0 4573.77
-2 -8 -1 224.68
-2 -8 -2 45.82
-2 -8 -3 148.83
2 8 4 223.98
2 8 5 685.17
2 8 6 688.54
2 8 7 284.65
2 8 8 203.22
2 8 9 856.85
2 8 10 -26.52
2 8 11 885.24
2 8 12 1170.2
2 8 13 1160.56
2 9 -11 88.32
2 9 -10 112.65
2 9 -9 28.06
2 9 -8 165.69
2 9 -7 770.1
2 9 -6 -1.93
2 9 -5 -1.96
2 9 -4 1038.56
2 9 -3 292.73
2 9 -2 314.99
2 9 -1 793.03
2 9 0 43.41
-2 -9 -1 359.52
-2 -9 -2 683.97
-2 -9 -3 17.23
2 9 4 404.89
-2 -9 -4 709.12
2 9 5 64.94
2 9 6 6745.17
2 9 7 56.73
2 9 8 839.19
2 9 9 3.47
2 9 10 1601.79
2 9 11 231.37
2 9 12 -105.57
2 9 13 73.26
2 10 -10 289.59
2 10 -9 380.99
2 10 -8 1619.65
2 10 -7 58.05
2 10 -6 75.33
2 10 -5 784.67
2 10 -4 584.23
2 10 -3 -68.32
2 10 -2 568
2 10 -1 1904.62
2 10 0 1493.43
-2 -10 -1 181.55
-2 -10 -2 1157.36
-2 -10 -3 603.46
-2 -10 -4 715.48
2 10 5 62.33
2 10 6 110.02
2 10 7 42.22
2 10 8 158.25
2 10 9 398.66
2 10 10 202.68
2 10 11 44.83
2 10 12 -55.53
2 11 -9 -66.7
2 11 -8 296.36
2 11 -7 3371.93
2 11 -6 390.01
2 11 -5 -112.01
2 11 -4 170.49
2 11 -3 428.3
2 11 -2 39
2 11 -1 -73.64
2 11 0 -56.46
-2 -11 -1 -336.91
-2 -11 -2 251.65
-2 -11 -3 63.89
-2 -11 -4 526.84
2 11 5 752.94
2 11 6 595.32
2 11 7 -1.92
2 11 8 480.25
2 11 9 80.96
2 11 10 738.65
2 12 -7 -64.22
2 12 -6 277.74
2 12 -5 41.13
2 12 -4 63.16
2 12 -3 209.06
2 12 -2 1302.6
2 12 -1 1.35
2 12 0 5.23
2 12 1 36.83
-2 -12 -2 168.85
-2 -12 -3 -210.39
-2 -12 -4 564.19
2 12 5 246.25
2 12 6 -65.76
2 12 7 226.19
2 12 8 134.47
2 12 9 312.98
2 13 -5 63.98
2 13 -4 39.02
2 13 -3 -60.92
2 13 -2 346.13
2 13 -1 425.02
2 13 0 471.04
2 13 1 16.3
2 13 2 52.81
-2 -13 -3 44.23
-2 -13 -4 463.54
2 13 5 29.44
2 13 6 271.42
2 13 7 -147.18
2 14 -1 -154.99
2 14 0 -100.38
2 14 1 1095.69
2 14 2 885.62
2 14 3 -51.26
2 14 4 13.23
3 -12 -4 -266.96
3 -12 -3 -84.31
3 -12 -2 290.95
3 -12 -1 26.51
3 -12 0 -417.25
3 -12 1 -188.08
3 -12 2 177.19
3 -11 -7 372.44
3 -11 -6 295.3
3 -11 -5 -38.46
3 -11 -4 507.11
3 -11 -3 347.45
3 -11 -2 1386.41
3 -11 -1 1640.35
3 -11 0 1563.74
3 -11 1 27.99
3 -11 2 -97.65
3 -11 3 530.44
3 -11 4 689.18
3 -11 5 37.76
3 -10 -9 -253.3
3 -10 -8 -146.73
3 -10 -7 267.38
3 -10 -6 167.14
3 -10 -5 806.66
3 -10 -4 7.03
3 -10 -3 2035.8
3 -10 -2 80.81
3 -10 -1 -87.78
3 -10 0 66.5
3 -10 1 1337.5
3 -10 2 282.52
3 -10 3 248.79
3 -10 4 258.86
3 -10 5 524.43
3 -10 6 -109.06
3 -10 7 476.8
3 -9 -10 1097.7
3 -9 -9 -329.55
3 -9 -8 -93.91
3 -9 -7 785.72
3 -9 -6 316.46
3 -9 -5 247.25
3 -9 -4 1118.39
3 -9 -3 -126.59
3 -9 -2 2304.12
3 -9 -1 953.78
3 -9 0 -49.51
3 -9 1 -91.85
3 -9 2 313.3
3 -9 3 1782.3
3 -9 4 175.14
3 -9 5 -16.68
3 -9 6 -73.94
3 -9 7 1079.88
3 -9 8 54.97
3 -9 9 -181.83
3 -8 -11 250.97
3 -8 -10 33.83
3 -8 -9 877.33
3 -8 -8 1237.88
3 -8 -7 727.76
3 -8 -6 -166.42
3 -8 -5 966
3 -8 -4 551.44
3 -8 -3 1884.85
3 -8 -2 264
3 -8 -1 197.7
3 -8 0 365.5
3 -8 1 -40.53
3 -8 2 344.9
3 -8 3 236.5
3 -8 4 -20.05
3 -8 5 65.1
3 -8 6 253.29
3 -8 7 2167.55
3 -8 8 1859.63
3 -8 9 -110.13
3 -8 10 25.58
3 -7 -12 262.6
3 -7 -11 31.28
3 -7 -10 160.86
3 -7 -9 -16.51
3 -7 -8 -33.52
3 -7 -7 240.31
3 -7 -6 8.53
3 -7 -5 1712.64
3 -7 -4 1378.95
3 -7 -3 4646.22
3 -7 -2 940.76
3 -7 -1 1094.1
3 -7 0 -4.07
3 -7 1 684.31
3 -7 2 657.09
3 -7 3 1966.49
3 -7 4 101.25
3 -7 5 13.12
3 -7 6 688.25
3 -7 7 218.88
3 -7 8 363.81
3 -7 9 522.52
3 -7 10 270.03
3 -7 11 -68.19
3 -6 -13 -319.05
3 -6 -12 -219.98
3 -6 -11 -169.02
3 -6 -10 699.13
3 -6 -9 1953.37
3 -6 -8 454.63
3 -6 -7 29.67
3 -6 -6 243.35
3 -6 -5 6673.39
3 -6 -4 -17.79
3 -6 -3 592.5
3 -6 -2 37.7
3 -6 -1 4475.45
3 -6 0 51.13
3 -6 1 63.25
3 -6 2 305.6
3 -6 3 83.16
3 -6 4 101.89
3 -6 5 39.02
3 -6 6 234.06
3 -6 7 71.68
3 -6 8 957.61
3 -6 9 1041.99
3 -6 10 43.06
3 -6 11 620.95
3 -6 12 517.27
3 -5 -14 349.39
3 -5 -13 -69.88
3 -5 -12 914.6
3 -5 -11 1804.54
3 -5 -10 464.75
3 -5 -9 103.91
3 -5 -8 38.82
3 -5 -7 903
3 -5 -6 -2.5
3 -5 -5 1964.6
3 -5 -4 435.73
3 -5 -3 1033.31
3 -5 -2 1324.95
3 -5 -1 318.39
3 -5 0 3059.12
3 -5 1 6765.73
3 -5 2 1726.48
3 -5 3 209.57
3 -5 4 845.47
3 -5 5 4258.52
3 -5 6 827.23
3 -5 7 -53.9
3 -5 8 -52.48
3 -5 9 -229.66
3 -5 10 1438.96
3 -5 11 197.19
3 -5 12 304.69
3 -5 13 34.01
3 -4 -14 319.54
3 -4 -13 -478.86
3 -4 -12 -329.43
3 -4 -11 763.91
3 -4 -10 105.99
3 -4 -9 118.76
3 -4 -8 699.21
3 -4 -7 176.73
3 -4 -6 1186.83
3 -4 -5 -2.85
3 -4 -4 100.7
3 -4 -3 110.23
3 -4 -2 1516.27
3 -4 -1 524.87
3 -4 0 234.6
3 -4 1 715.11
3 -4 2 329.88
3 -4 3 98.46
3 -4 4 1048.71
3 -4 5 4159.19
3 -4 6 2549.29
3 -4 7 111.48
3 -4 8 2398.82
3 -4 9 589.13
3 -4 10 834.56
3 -4 11 -39.71
3 -4 12 -32.63
3 -4 13 -62.22
3 -4 14 102.09
3 -3 -14 -141.96
3 -3 -13 605.29
3 -3 -12 353.5
3 -3 -11 196.83
3 -3 -10 85.5
3 -3 -9 190.41
3 -3 -8 38.92
3 -3 -7 1878.36
3 -3 -6 254.34
3 -3 -5 1341.58
3 -3 -4 611.53
3 -3 -3 3320.72
3 -3 -2 352.76
3 -3 -1 3249.08
3 -3 0 1750.21
3 -3 1 9665.57
3 -3 2 348.28
3 -3 3 6109.36
3 -3 4 291
3 -3 5 448.82
3 -3 6 674.09
3 -3 7 5810.06
3 -3 8 359.61
3 -3 9 462.67
3 -3 10 -9.01
3 -3 11 2969.93
3 -3 12 209.15
3 -3 13 110.4
3 -3 14 -54.03
3 -2 -15 111.15
3 -2 -14 46.25
3 -2 -13 445.07
3 -2 -12 962.54
3 -2 -11 272.7
3 -2 -10 126.37
3 -2 -9 2521.26
3 -2 -8 619.06
3 -2 -7 9282.81
3 -2 -6 600.1
3 -2 -5 214.13
3 -2 -4 6156.14
3 -2 -3 30097.86
3 -2 -2 2666.64
3 -2 -1 1207.02
3 -2 0 1082.96
3 -2 1 159.01
3 -2 2 10302
3 -2 3 14666.77
3 -2 4 301.07
3 -2 5 656.44
3 -2 6 -5.5
3 -2 7 3664.8
3 -2 8 524.73
3 -2 9 454.38
3 -2 10 4385.62
3 -2 11 188.66
3 -2 12 156.48
3 -2 13 613.79
3 -2 14 312.63
3 -1 -15 265.15
3 -1 -14 1222.26
3 -1 -13 318.07
3 -1 -12 -240.49
3 -1 -11 285.9
3 -1 -10 3165.97
3 -1 -9 149.72
3 -1 -8 390.16
3 -1 -7 496.47
3 -1 -6 2267.03
3 -1 -5 411.8
3 -1 -4 1775.76
3 -1 -3 2418.66
3 -1 -2 7891.09
3 -1 -1 6159.3
3 -1 0 4765.33
3 -1 1 1152.63
3 -1 2 5618.78
3 -1 3 563.01
3 -1 4 1771.88
3 -1 5 118.29
3 -1 6 2961.26
3 -1 7 210.42
3 -1 8 96.41
3 -1 9 78.57
3 -1 10 224.96
3 -1 11 141.32
3 -1 12 79.93
3 -1 13 60.42
3 -1 14 161.07
3 -1 15 385.81
3 0 -15 125.96
3 0 -14 202.17
3 0 -13 249.22
3 0 -12 117.11
3 0 -11 48.69
3 0 -10 207.31
3 0 -9 3940.66
3 0 -8 3223.6
3 0 -7 2147.28
3 0 -6 916.08
3 0 -5 842.19
3 0 -4 2490.34
3 0 -3 2607.64
3 0 -2 2317.24
3 0 -1 594.5
3 0 0 199.33
3 0 1 781.55
3 0 2 2603.19
3 0 3 5165.25
3 0 4 13986.95
3 0 5 46.68
3 0 6 276.88
3 0 7 1177.04
3 0 8 203.66
3 0 9 137.31
3 0 10 380.93
3 0 11 -39.14
3 0 12 -72.19
3 0 13 646.4
3 0 14 157.16
3 0 15 215.49
3 1 -15 118.58
3 1 -14 111.95
3 1 -13 114.27
3 1 -12 92.41
3 1 -11 1726.35
3 1 -10 170.91
3 1 -9 2656.53
3 1 -8 5685.65
3 1 -7 4823.64
3 1 -6 139.72
3 1 -5 2147.27
3 1 -4 1231.19
3 1 -3 366.02
3 1 -2 -4.48
3 1 -1 34872.87
3 1 0 127.71
3 1 1 1600.51
3 1 2 9977.76
3 1 3 238.44
3 1 4 12600.22
3 1 5 23912.9
3 1 6 4526.84
3 1 7 2334.14
3 1 8 925.55
3 1 9 3737.87
3 1 10 837.41
3 1 11 157.82
3 1 12 703.53
3 1 13 384.43
3 1 14 258.28
3 1 15 -128.67
3 2 -15 213.23
3 2 -14 90.44
3 2 -13 166.7
3 2 -12 274.72
3 2 -11 2316.57
3 2 -10 1168.27
3 2 -9 2513.24
3 2 -8 114.95
3 2 -7 18.63
3 2 -6 25.38
3 2 -5 2084.18
3 2 -4 2810.29
3 2 -3 365.94
3 2 -2 5457.33
3 2 -1 5615.45
3 2 0 2960.67
3 2 1 70.79
3 2 2 10328.28
3 2 3 227.31
3 2 4 -70.38
3 2 5 348.46
3 2 6 245.5
3 2 7 1204.34
3 2 8 928.23
3 2 9 -21.91
3 2 10 136.84
3 2 11 185.7
3 2 12 -9.25
3 2 13 -2.48
3 2 14 559.35
3 2 15 506
3 3 -14 213.11
3 3 -13 157.21
3 3 -12 1129.96
3 3 -11 184.84
3 3 -10 1225.28
3 3 -9 90.69
3 3 -8 2726.66
3 3 -7 3396.02
3 3 -6 704.17
3 3 -5 67.44
3 3 -4 161.75
3 3 -3 188.47
3 3 -2 1689.72
3 3 -1 828.89
3 3 0 400.51
3 3 1 3605.39
3 3 2 2857.33
3 3 3 2161.79
3 3 4 137.27
3 3 5 2559.52
3 3 6 837.75
3 3 7 32.03
3 3 8 2848.83
3 3 9 51.03
3 3 10 304.27
3 3 11 -54.78
3 3 12 1183.27
3 3 13 577.99
3 3 14 104.28
3 3 15 296.62
3 4 -14 237.03
3 4 -13 157.63
3 4 -12 335.49
3 4 -11 342.69
3 4 -10 349.5
3 4 -9 58.8
3 4 -8 32.41
3 4 -7 91.88
3 4 -6 358.46
3 4 -5 995.55
3 4 -4 350.31
3 4 -3 2784.45
3 4 -2 406.44
3 4 -1 4000.33
3 4 0 76.82
3 4 1 36771.9
3 4 2 2869.98
3 4 3 -55.01
3 4 4 522.18
3 4 5 903.08
3 4 6 207.27
3 4 7 4328.63
3 4 8 100.57
3 4 9 -1.44
3 4 10 165.13
3 4 11 2026.19
3 4 12 1307.5
3 4 13 1016.58
3 4 14 1658.99
3 4 15 22.52
3 5 -14 79.5
3 5 -13 88.14
3 5 -12 153.03
3 5 -11 152.02
3 5 -10 1162.17
3 5 -9 2455.2
3 5 -8 76.2
3 5 -7 45.1
3 5 -6 3186.69
3 5 -5 2189.89
3 5 -4 1280.33
3 5 -3 1223.27
3 5 -2 913.31
3 5 -1 2786.89
3 5 0 191.64
-3 -5 -1 7429.24
-3 -5 -2 9370.82
3 5 3 1511.26
3 5 4 168.22
3 5 5 -18.85
3 5 6 2785.62
3 5 7 3959.47
3 5 8 147.05
3 5 9 1243.87
3 5 10 58
3 5 11 1262.29
3 5 12 179.86
3 5 13 -16.71
3 5 14 -547.58
3 5 15 43.91
3 6 -13 199.86
3 6 -12 147.84
3 6 -11 147.15
3 6 -10 224.71
3 6 -9 23.7
3 6 -8 65.79
3 6 -7 3368.2
3 6 -6 1079.99
3 6 -5 1192.06
3 6 -4 1637.75
3 6 -3 2993.6
3 6 -2 4040.69
3 6 -1 472.33
-3 -6 0 3342.03
-3 -6 -1 1554.7
-3 -6 -2 771.74
-3 -6 -3 1840.33
3 6 4 1184.07
3 6 5 879.62
3 6 6 2251.16
3 6 7 678.49
3 6 8 154.36
3 6 9 179.43
3 6 10 458.1
3 6 11 111.5
3 6 12 109.12
3 6 13 193.77
3 6 14 361.45
3 7 -13 135.9
3 7 -12 165.41
3 7 -11 141.87
3 7 -10 669.96
3 7 -9 -42.68
3 7 -8 89.41
3 7 -7 524.7
3 7 -6 2689.16
3 7 -5 62.13
3 7 -4 213.67
3 7 -3 80.9
3 7 -2 773.15
3 7 -1 1789.94
-3 -7 0 2121.65
-3 -7 -1 2093.04
-3 -7 -2 1969.6
-3 -7 -3 2546.46
3 7 4 245.87
3 7 5 270.06
3 7 6 3896.9
3 7 7 38.75
3 7 8 120.4
3 7 9 542.24
3 7 10 1141.13
3 7 11 278.09
3 7 12 136.57
3 7 13 883.42
3 7 14 53.23
3 8 -12 -42.8
3 8 -11 -38.17
3 8 -10 466.56
3 8 -9 -38.66
3 8 -8 90.65
3 8 -7 114.58
3 8 -6 317.56
3 8 -5 66.14
3 8 -4 1328.84
3 8 -3 1723.87
3 8 -2 97.69
3 8 -1 6702.85
-3 -8 0 701.17
-3 -8 -1 1997.83
-3 -8 -2 824.21
-3 -8 -3 7334.2
-3 -8 -4 53
3 8 5 70.92
3 8 6 85.89
3 8 7 1402.77
3 8 8 293.9
3 8 9 1016.84
3 8 10 364.47
3 8 11 845.82
3 8 12 156.95
3 8 13 253.41
3 9 -11 695.83
3 9 -10 53.61
3 9 -9 -29.41
3 9 -8 907.93
3 9 -7 329.03
3 9 -6 74.92
3 9 -5 3810.22
3 9 -4 686.33
3 9 -3 110.82
3 9 -2 14.94
3 9 -1 449.09
-3 -9 0 2173.25
-3 -9 -1 705.81
-3 -9 -2 200.67
-3 -9 -3 -129.5
-3 -9 -4 2928.68
3 9 5 3560.93
3 9 6 919.48
3 9 7 137.16
3 9 8 29.73
3 9 9 -8.03
3 9 10 307.82
3 9 11 47.77
3 9 12 342.4
3 9 13 223.84
3 10 -10 807.4
3 10 -9 509.08
3 10 -8 -8.19
3 10 -7 202.14
3 10 -6 188.75
3 10 -5 34.42
3 10 -4 2893.46
3 10 -3 28.12
3 10 -2 2093
3 10 -1 1300.92
-3 -10 0 -5.39
-3 -10 -1 248.83
-3 -10 -2 563.92
-3 -10 -3 1060.26
-3 -10 -4 509.7
-3 -10 -5 1096.74
3 10 6 107.78
3 10 7 248.19
3 10 8 150.64
3 10 9 127.07
3 10 10 17.23
3 10 11 -33.41
3 10 12 4.2
3 11 -9 184.44
3 11 -8 240.75
3 11 -7 104.26
3 11 -6 11.49
3 11 -5 687.18
3 11 -4 26.38
3 11 -3 849.58
3 11 -2 1967.76
3 11 -1 407.01
-3 -11 0 65.72
-3 -11 -1 178.68
-3 -11 -2 611.15
-3 -11 -3 148.9
-3 -11 -4 655.94
-3 -11 -5 87.07
3 11 6 309.03
3 11 7 133.73
3 11 8 544.63
3 11 9 267.04
3 11 10 169.94
3 11 11 44.32
3 12 -7 132.52
3 12 -6 199.02
3 12 -5 162.72
3 12 -4 221.16
3 12 -3 687.83
3 12 -2 423.49
3 12 -1 959.97
-3 -12 0 90.13
-3 -12 -1 368.08
-3 -12 -2 179.73
-3 -12 -3 -122.62
-3 -12 -4 292.83
-3 -12 -5 -2.79
3 12 6 174.37
3 12 7 333.37
3 12 8 965.12
3 12 9 1188.29
3 13 -5 48.93
3 13 -4 464.82
3 13 -3 -64.78
3 13 -2 1621.26
3 13 -1 585.55
3 13 0 157.83
-3 -13 -1 64.68
-3 -13 -2 940.48
-3 -13 -3 228.39
-3 -13 -4 354.99
-3 -13 -5 260.52
3 13 6 -41.4
3 13 7 323.65
3 14 -2 234.06
3 14 -1 126.71
3 14 0 138.84
-3 -14 -1 -11.9
-3 -14 -2 -94.03
-3 -14 -3 626.29
-3 -14 -4 268.92
4 -11 -5 252.31
4 -11 -4 62.7
4 -11 -3 88.1
4 -11 -2 1059.8
4 -11 -1 41.62
4 -11 0 -210.37
4 -11 1 217.21
4 -11 2 683.87
4 -11 3 472.56
4 -11 4 213.51
4 -10 -8 396.77
4 -10 -7 14.11
4 -10 -6 519.82
4 -10 -5 179.21
4 -10 -4 697.92
4 -10 -3 132.81
4 -10 -2 69.21
4 -10 -1 73.07
4 -10 0 477.76
4 -10 1 101.41
4 -10 2 -289.58
4 -10 3 175.35
4 -10 4 1477.97
4 -10 5 -26.18
4 -10 6 -115.57
4 -9 -9 -133.51
4 -9 -8 242.09
4 -9 -7 270.19
4 -9 -6 -46.11
4 -9 -5 117.99
4 -9 -4 -27.88
4 -9 -3 18.14
4 -9 -2 442.39
4 -9 -1 276.79
4 -9 0 222.85
4 -9 1 1085.83
4 -9 2 789.79
4 -9 3 782.95
4 -9 4 224.73
4 -9 5 1719.61
4 -9 6 245.22
4 -9 7 138.23
4 -9 8 -5.68
4 -8 -11 439.45
4 -8 -10 776.89
4 -8 -9 93.72
4 -8 -8 125.77
4 -8 -7 118.7
4 -8 -6 329.24
4 -8 -5 372.76
4 -8 -4 308.95
4 -8 -3 301.64
4 -8 -2 373.51
4 -8 -1 450.5
4 -8 0 703.8
4 -8 1 144.99
4 -8 2 1240.21
4 -8 3 336.61
4 -8 4 74.82
4 -8 5 83.07
4 -8 6 1252.11
4 -8 7 -225.68
4 -8 8 53.86
4 -8 9 -244.88
4 -8 10 145.77
4 -7 -12 787.73
4 -7 -11 -274.79
4 -7 -10 249.52
4 -7 -9 -9.61
4 -7 -8 392.11
4 -7 -7 542.9
4 -7 -6 201.74
4 -7 -5 385.03
4 -7 -4 669.73
4 -7 -3 144.79
4 -7 -2 35.22
4 -7 -1 1560.17
4 -7 0 2064.15
4 -7 1 1123.49
4 -7 2 12.66
4 -7 3 -144.06
4 -7 4 251.28
4 -7 5 191.28
4 -7 6 395.29
4 -7 7 80.55
4 -7 8 137.94
4 -7 9 240.37
4 -7 10 260.97
4 -7 11 471.5
4 -6 -12 48.1
4 -6 -11 1477.15
4 -6 -10 -84.79
4 -6 -9 -139.13
4 -6 -8 2151.72
4 -6 -7 606.27
4 -6 -6 90.53
4 -6 -5 2486.28
4 -6 -4 964.03
4 -6 -3 1124.14
4 -6 -2 3723.03
4 -6 -1 1154.67
4 -6 0 3651.02
4 -6 1 1208.63
4 -6 2 1506.61
4 -6 3 380.73
4 -6 4 100.27
4 -6 5 263.29
4 -6 6 410.46
4 -6 7 664.07
4 -6 8 919.85
4 -6 9 59.12
4 -6 10 440.87
4 -6 11 300.13
4 -6 12 337.65
4 -5 -13 202.56
4 -5 -12 377.83
4 -5 -11 311.94
4 -5 -10 402.66
4 -5 -9 513.86
4 -5 -8 -6.8
4 -5 -7 314.19
4 -5 -6 716.48
4 -5 -5 497.39
4 -5 -4 75.44
4 -5 -3 -20.82
4 -5 -2 45.62
4 -5 -1 687.85
4 -5 0 1863.77
4 -5 1 697.23
4 -5 2 261.18
4 -5 3 993.4
4 -5 4 869.59
4 -5 5 707.24
4 -5 6 2093.65
4 -5 7 910.05
4 -5 8 268.36
4 -5 9 88.93
4 -5 10 669.35
4 -5 11 1907.34
4 -5 12 179.67
4 -4 -13 163.52
4 -4 -12 159.23
4 -4 -11 24.18
4 -4 -10 189.53
4 -4 -9 22.35
4 -4 -8 380.57
4 -4 -7 1747.18
4 -4 -6 373.18
4 -4 -5 648.42
4 -4 -4 5078.53
4 -4 -3 1467.65
4 -4 -2 192.72
4 -4 -1 1328.29
4 -4 0 5267.56
4 -4 1 71.27
4 -4 2 7135.18
4 -4 3 -23.55
4 -4 4 7973.57
4 -4 5 725.75
4 -4 6 33.31
4 -4 7 578.88
4 -4 8 2961.27
4 -4 9 189.06
4 -4 10 -81.33
4 -4 11 85.87
4 -4 12 359.7
4 -4 13 -115.46
4 -3 -14 277.34
4 -3 -13 -53.58
4 -3 -12 -41.25
4 -3 -11 291.21
4 -3 -10 2175.34
4 -3 -9 526.92
4 -3 -8 1918.26
4 -3 -7 1013.44
4 -3 -6 12604.02
4 -3 -5 2937.68
4 -3 -4 1043.9
4 -3 -3 3480.4
4 -3 -2 8665.41
4 -3 -1 350.1
4 -3 0 6971.3
4 -3 1 1768.26
4 -3 2 191.07
4 -3 3 208.07
4 -3 4 149.8
4 -3 5 4450.85
4 -3 6 1143.39
4 -3 7 2695.28
4 -3 8 0
4 -3 9 1483.04
4 -3 10 3807.39
4 -3 11 224.22
4 -3 12 -24.45
4 -3 13 240.1
4 -3 14 -175.46
4 -2 -14 466.47
4 -2 -13 3243.29
4 -2 -12 301.71
4 -2 -11 317.57
4 -2 -10 58.67
4 -2 -9 678.57
4 -2 -8 -113.56
4 -2 -7 1298.97
4 -2 -6 538.9
4 -2 -5 3431.61
4 -2 -4 40.94
4 -2 -3 215.1
4 -2 -2 677.73
4 -2 -1 4417.83
4 -2 0 1095.1
4 -2 1 114.26
4 -2 2 743.41
4 -2 3 2161.21
4 -2 4 2462.94
4 -2 5 526.36
4 -2 6 191.02
4 -2 7 18.31
4 -2 8 50.43
4 -2 9 73.57
4 -2 10 83.24
4 -2 11 367.68
4 -2 12 217.83
4 -2 13 -21.32
4 -2 14 240.63
4 -1 -14 501.85
4 -1 -13 -45.4
4 -1 -12 1728.74
4 -1 -11 343.31
4 -1 -10 583.66
4 -1 -9 1206.46
4 -1 -8 785.83
4 -1 -7 317.97
4 -1 -6 769.02
4 -1 -5 -0.35
4 -1 -4 606.94
4 -1 -3 581.58
4 -1 -2 -7.54
4 -1 -1 557.14
4 -1 0 -12.94
4 -1 1 470.63
4 -1 2 226.21
4 -1 3 404.68
4 -1 4 2463.06
4 -1 5 1663.39
4 -1 6 1745.08
4 -1 7 2164.75
4 -1 8 89.2
4 -1 9 435.2
4 -1 10 157.76
4 -1 11 94.8
4 -1 12 93.41
4 -1 13 382.73
4 -1 14 10.52
4 0 -14 798.8
4 0 -13 518.69
4 0 -12 -20.4
4 0 -11 196.24
4 0 -10 327.07
4 0 -9 323.98
4 0 -8 1224.35
4 0 -7 577.33
4 0 -6 2996.61
4 0 -5 100.5
4 0 -4 2241.28
4 0 -3 2582.32
4 0 -2 3555.31
4 0 -1 4322.28
4 0 0 30.9
4 0 1 507.17
4 0 2 4936.45
4 0 3 122.52
4 0 4 183.21
4 0 5 49.22
4 0 6 4650.5
4 0 7 2725.15
4 0 8 84.87
4 0 9 77.18
4 0 10 -14.24
4 0 11 598.36
4 0 12 335.89
4 0 13 21.47
4 0 14 360.33
4 0 15 361.85
4 1 -14 35.01
4 1 -13 -130.47
4 1 -12 241.78
4 1 -11 233.13
4 1 -10 32.24
4 1 -9 829.35
4 1 -8 3149.04
4 1 -7 234.2
4 1 -6 6.48
4 1 -5 3859.42
4 1 -4 12734.34
4 1 -3 31.45
4 1 -2 2930.21
4 1 -1 32.17
4 1 0 1486.5
4 1 1 5467.79
4 1 2 1306.56
4 1 3 188.41
4 1 4 68.74
4 1 5 1210.44
4 1 6 721.5
4 1 7 4253.74
4 1 8 2318.63
4 1 9 2378.36
4 1 10 -89.85
4 1 11 -63.63
4 1 12 539.32
4 1 13 137.82
4 1 14 -270.17
4 1 15 122.19
4 2 -14 -302.83
4 2 -13 189.24
4 2 -12 613.16
4 2 -11 204.2
4 2 -10 461.25
4 2 -9 1280.04
4 2 -8 29.97
4 2 -7 191.31
4 2 -6 819.31
4 2 -5 280.21
4 2 -4 8806.94
4 2 -3 3409.31
4 2 -2 4232.94
4 2 -1 133
4 2 0 156.83
4 2 1 3659.59
4 2 2 3035.71
4 2 3 814.61
4 2 4 1006.27
4 2 5 3899.16
4 2 6 205.42
4 2 7 536.81
4 2 8 553.87
4 2 9 1029.9
4 2 10 20.32
4 2 11 -32.95
4 2 12 946.4
4 2 13 498.23
4 2 14 87.32
4 2 15 814.31
4 3 -14 213.99
4 3 -13 170.1
4 3 -12 -31.43
4 3 -11 64.07
4 3 -10 1714.03
4 3 -9 135.85
4 3 -8 147.91
4 3 -7 14.59
4 3 -6 1911.06
4 3 -5 1123.5
4 3 -4 5424.35
4 3 -3 610.78
4 3 -2 -30.63
4 3 -1 216.4
4 3 0 454.24
4 3 1 93.86
4 3 2 1040.3
4 3 3 -88.34
4 3 4 3761.46
4 3 5 492.86
4 3 6 1723.98
4 3 7 4185.25
4 3 8 489.14
4 3 9 829.89
4 3 10 1081.88
4 3 11 1563.55
4 3 12 587.89
4 3 13 485.2
4 3 14 782.68
4 3 15 27.95
4 4 -14 -213.11
4 4 -13 49.06
4 4 -12 679.36
4 4 -11 307.95
4 4 -10 989.26
4 4 -9 2550.26
4 4 -8 895.41
4 4 -7 -37.5
4 4 -6 662.49
4 4 -5 2284.4
4 4 -4 90.51
4 4 -3 841.8
4 4 -2 7717.37
4 4 -1 476.5
4 4 0 7998.47
4 4 1 228.59
4 4 2 4727.63
4 4 3 1087.8
4 4 4 19304.63
4 4 5 85.39
4 4 6 3216.45
4 4 7 424.3
4 4 8 3207.92
4 4 9 1286.84
4 4 10 759.91
4 4 11 -51.64
4 4 12 653.85
4 4 13 30.27
4 4 14 109.71
4 4 15 41.06
4 5 -14 -20.11
4 5 -13 516.49
4 5 -12 180.65
4 5 -11 1141.62
4 5 -10 2338.4
4 5 -9 81.93
4 5 -8 402.37
4 5 -7 5087.26
4 5 -6 5396.97
4 5 -5 144.04
4 5 -4 528.38
4 5 -3 2783.48
4 5 -2 -128.07
4 5 -1 484.21
4 5 0 2342.07
4 5 1 15677.05
4 5 2 228.78
4 5 3 -173.81
4 5 4 1170.93
4 5 5 1361.71
4 5 6 2745.15
4 5 7 417.95
4 5 8 97.9
4 5 9 218.52
4 5 10 203.6
4 5 11 36.74
4 5 12 41.77
4 5 13 323.93
4 5 14 -85.58
4 6 -13 726.81
4 6 -12 42.03
4 6 -11 330.59
4 6 -10 133.74
4 6 -9 1154.8
4 6 -8 326.76
4 6 -7 343.24
4 6 -6 2012.17
4 6 -5 890.34
4 6 -4 269.2
4 6 -3 207.01
4 6 -2 115.97
4 6 -1 89.79
4 6 0 193.66
4 6 1 1064.04
4 6 2 2863.56
4 6 3 1753.22
4 6 4 5964.84
4 6 5 3208.89
4 6 6 2493.9
4 6 7 374.46
4 6 8 290.5
4 6 9 1887.97
4 6 10 647.89
4 6 11 516.07
4 6 12 262.04
4 6 13 441.19
4 6 14 127.54
4 7 -13 296.77
4 7 -12 252.36
4 7 -11 -30.59
4 7 -10 150.48
4 7 -9 -72.73
4 7 -8 83.08
4 7 -7 63.78
4 7 -6 248.3
4 7 -5 259.41
4 7 -4 2781.24
4 7 -3 93.87
4 7 -2 4839.91
4 7 -1 2832.53
4 7 0 12216.11
-4 -7 -1 96.93
-4 -7 -2 646.73
-4 -7 -3 104.57
4 7 4 1767.98
4 7 5 1130.82
4 7 6 3840.98
4 7 7 518.75
4 7 8 5.29
4 7 9 585.38
4 7 10 625.8
4 7 11 1860.8
4 7 12 1045.01
4 7 13 326.02
4 7 14 -754.83
4 8 -12 -46.1
4 8 -11 754.78
4 8 -10 6.03
4 8 -9 5.15
4 8 -8 257.21
4 8 -7 357.12
4 8 -6 -46.67
4 8 -5 378.78
4 8 -4 2278.93
4 8 -3 2107.44
4 8 -2 5299.43
4 8 -1 51.64
-4 -8 0 -230.73
-4 -8 -1 1595.94
-4 -8 -2 3155.68
-4 -8 -3 115.02
-4 -8 -4 307.23
4 8 5 2594.62
4 8 6 2029.08
4 8 7 875.2
4 8 8 221.25
4 8 9 778.76
4 8 10 695.11
4 8 11 142.18
4 8 12 -3.85
4 8 13 -0.64
4 9 -11 505.25
4 9 -10 -59.26
4 9 -9 175.48
4 9 -8 1471.46
4 9 -7 189.49
4 9 -6 -3.84
4 9 -5 394.42
4 9 -4 -2.09
4 9 -3 1311.68
4 9 -2 -17
4 9 -1 3622.93
-4 -9 0 163.6
-4 -9 -1 122.6
-4 -9 -2 -98.37
-4 -9 -3 1569.86
-4 -9 -4 494.01
4 9 5 4.38
4 9 6 90.68
4 9 7 -24.83
4 9 8 -168.82
4 9 9 206.36
4 9 10 63.27
4 9 11 -50.84
4 9 12 62.26
4 9 13 78.3
4 10 -10 -81.01
4 10 -9 113.99
4 10 -8 1158.78
4 10 -7 1462.23
4 10 -6 134.96
4 10 -5 -90.64
4 10 -4 164.83
4 10 -3 518.97
4 10 -2 668.95
4 10 -1 151.35
-4 -10 0 3399.75
-4 -10 -1 1162.12
-4 -10 -2 211.65
-4 -10 -3 1996.78
-4 -10 -4 286.68
-4 -10 -5 243.12
4 10 6 -55.69
4 10 7 91.65
4 10 8 845.22
4 10 9 20.33
4 10 10 208.72
4 10 11 366.01
4 10 12 283.57
4 11 -9 49.04
4 11 -8 344.41
4 11 -7 185.82
4 11 -6 15.63
4 11 -5 260
4 11 -4 639.6
4 11 -3 681.69
4 11 -2 1114.76
4 11 -1 37.99
-4 -11 0 55.04
-4 -11 -1 -111.6
-4 -11 -2 150.01
-4 -11 -3 -182.36
-4 -11 -4 165.02
-4 -11 -5 142.32
4 11 6 113.32
4 11 7 78.67
4 11 8 220.16
4 11 9 286.7
4 11 10 59.11
4 11 11 189.81
4 12 -7 -28.45
4 12 -6 318.95
4 12 -5 609.12
4 12 -4 130.59
4 12 -3 196.05
4 12 -2 20.64
4 12 -1 100.3
-4 -12 0 642.98
-4 -12 -1 182.06
-4 -12 -2 202.82
-4 -12 -3 692.79
-4 -12 -4 592.7
-4 -12 -5 679.03
-4 -12 -6 -354.61
4 12 7 871.52
4 12 8 210.35
4 12 9 43.97
4 13 -6 109.02
4 13 -5 655.54
4 13 -4 -90
4 13 -3 319.4
4 13 -2 310.83
4 13 -1 -30.55
-4 -13 0 1117.77
-4 -13 -1 1881.37
-4 -13 -2 1409.8
-4 -13 -3 252.75
-4 -13 -4 656.31
-4 -13 -5 15.99
-4 -13 -6 -248.79
4 13 7 168.84
4 13 8 12.8
4 14 -3 -369.46
4 14 -2 -77.73
4 14 -1 43.51
-4 -14 0 99.5
-4 -14 -1 747.61
-4 -14 -2 509.59
-4 -14 -3 304.69
-4 -14 -4 37.89
-4 -14 -5 405.39
5 -11 -1 -121.18
5 -11 0 117.97
5 -10 -6 514.64
5 -10 -5 61.06
5 -10 -4 114.08
5 -10 -3 139.29
5 -10 -2 506.7
5 -10 -1 -40.69
5 -10 0 677.7
5 -10 1 569.93
5 -10 2 1736.71
5 -10 3 688.92
5 -10 4 -79.32
5 -10 5 91.22
5 -9 -8 13.15
5 -9 -7 46.59
5 -9 -6 -389.06
5 -9 -5 1520.38
5 -9 -4 1177.8
5 -9 -3 68.53
5 -9 -2 17.7
5 -9 -1 265.92
5 -9 0 59.77
5 -9 1 481.03
5 -9 2 -142.85
5 -9 3 663.61
5 -9 4 157.49
5 -9 5 18.86
5 -9 6 -369.6
5 -9 7 1166.98
5 -8 -10 -51.22
5 -8 -9 624.04
5 -8 -8 101.17
5 -8 -7 14.47
5 -8 -6 294.67
5 -8 -5 -98.53
5 -8 -4 965.98
5 -8 -3 238.11
5 -8 -2 54.06
5 -8 -1 216.2
5 -8 0 642.13
5 -8 1 16.63
5 -8 2 -53.8
5 -8 3 419.38
5 -8 4 -257.01
5 -8 5 432.77
5 -8 6 481.25
5 -8 7 1063.35
5 -8 8 194.16
5 -8 9 629.15
5 -7 -11 299.14
5 -7 -10 565.98
5 -7 -9 98.61
5 -7 -8 308.38
5 -7 -7 357.95
5 -7 -6 635.89
5 -7 -5 2158.48
5 -7 -4 155.67
5 -7 -3 653.26
5 -7 -2 309.86
5 -7 -1 1169.31
5 -7 0 377.37
5 -7 1 234.2
5 -7 2 625.72
5 -7 3 310.56
5 -7 4 241.2
5 -7 5 318.81
5 -7 6 598.83
5 -7 7 297.06
5 -7 8 -205.65
5 -7 9 106.02
5 -7 10 269.96
5 -6 -12 546.24
5 -6 -11 239.02
5 -6 -10 70.05
5 -6 -9 185.29
5 -6 -8 112.31
5 -6 -7 207.11
5 -6 -6 127.05
5 -6 -5 440.07
5 -6 -4 569.96
5 -6 -3 41.46
5 -6 -2 -70.8
5 -6 -1 428.8
5 -6 0 3838.04
5 -6 1 795.44
5 -6 2 470.21
5 -6 3 61.2
5 -6 4 3616.78
5 -6 5 86.2
5 -6 6 91.56
5 -6 7 136.49
5 -6 8 -3.64
5 -6 9 1114.81
5 -6 10 133.1
5 -6 11 171.51
5 -5 -12 -47.09
5 -5 -11 1611.91
5 -5 -10 325.78
5 -5 -9 236.48
5 -5 -8 163.47
5 -5 -7 1875.96
5 -5 -6 125.89
5 -5 -5 125.76
5 -5 -4 379.35
5 -5 -3 192.64
5 -5 -2 116.74
5 -5 -1 1735.62
5 -5 0 44.51
5 -5 1 5930.8
5 -5 2 30.08
5 -5 3 173.4
5 -5 4 1358.32
5 -5 5 5506.57
5 -5 6 92.43
5 -5 7 765.23
5 -5 8 355.01
5 -5 9 758.81
5 -5 10 7.87
5 -5 11 309.86
5 -5 12 117.31
5 -4 -13 1302.65
5 -4 -12 180.16
5 -4 -11 -64.42
5 -4 -10 138.11
5 -4 -9 1361.03
5 -4 -8 813.61
5 -4 -7 1537.65
5 -4 -6 1682.49
5 -4 -5 -6.32
5 -4 -4 66.33
5 -4 -3 3351.87
5 -4 -2 7906.7
5 -4 -1 2033.56
5 -4 0 383.13
5 -4 1 5397.75
5 -4 2 5268.41
5 -4 3 3316.93
5 -4 4 1791.18
5 -4 5 91.39
5 -4 6 492.59
5 -4 7 411.2
5 -4 8 -48.96
5 -4 9 140.62
5 -4 10 11.35
5 -4 11 1405.9
5 -4 12 405.56
5 -3 -13 -267.41
5 -3 -12 1256.96
5 -3 -11 101.4
5 -3 -10 1501.77
5 -3 -9 992.36
5 -3 -8 749.92
5 -3 -7 360.62
5 -3 -6 428.28
5 -3 -5 59.77
5 -3 -4 2689.75
5 -3 -3 5869.91
5 -3 -2 459.39
5 -3 -1 3597.8
5 -3 0 43.56
5 -3 1 192.43
5 -3 2 1575.72
5 -3 3 108.74
5 -3 4 40.67
5 -3 5 51.13
5 -3 6 343.41
5 -3 7 526.84
5 -3 8 653.75
5 -3 9 2126.33
5 -3 10 286.08
5 -3 11 232.67
5 -3 12 704.31
5 -3 13 659.54
5 -2 -14 1401.12
5 -2 -13 -59.31
5 -2 -12 102.46
5 -2 -11 206.29
5 -2 -10 925.7
5 -2 -9 257.55
5 -2 -8 50.55
5 -2 -7 74.15
5 -2 -6 37.96
5 -2 -5 1801.42
5 -2 -4 8.57
5 -2 -3 1932.47
5 -2 -2 2411.06
5 -2 -1 2886.11
5 -2 0 79.33
5 -2 1 -18.14
5 -2 2 1459.2
5 -2 3 216.16
5 -2 4 -58.77
5 -2 5 898.06
5 -2 6 146.57
5 -2 7 325.04
5 -2 8 464.36
5 -2 9 1249.21
5 -2 10 2432.41
5 -2 11 -40.79
5 -2 12 52.63
5 -2 13 405.18
5 -1 -14 608.02
5 -1 -13 481.63
5 -1 -12 9.4
5 -1 -11 160.45
5 -1 -10 1383.49
5 -1 -9 -13.77
5 -1 -8 1136.03
5 -1 -7 -14.05
5 -1 -6 114.83
5 -1 -5 7000.59
5 -1 -4 2025.22
5 -1 -3 3636.55
5 -1 -2 1426.06
5 -1 -1 4919.27
5 -1 0 739.85
5 -1 1 192.67
5 -1 2 -61.34
5 -1 3 6401.81
5 -1 4 1604.21
5 -1 5 604.38
5 -1 6 -9.31
5 -1 7 758.38
5 -1 8 -5.17
5 -1 9 69.33
5 -1 10 366.57
5 -1 11 -301.48
5 -1 12 418.41
5 -1 13 -449.07
5 -1 14 446.08
5 0 -14 109.09
5 0 -13 -63.38
5 0 -12 188.15
5 0 -11 1847.76
5 0 -10 58.81
5 0 -9 3340.22
5 0 -8 554.32
5 0 -7 3532.42
5 0 -6 337.37
5 0 -5 203.13
5 0 -4 6385.3
5 0 -3 5092.37
5 0 -2 1757.32
5 0 -1 3665.22
5 0 0 882.73
5 0 1 504.06
5 0 2 4093.38
5 0 3 468.55
5 0 4 5134.59
5 0 5 3293.96
5 0 6 2537.11
5 0 7 569.72
5 0 8 2125.81
5 0 9 1331.74
5 0 10 46.46
5 0 11 185.67
5 0 12 308.24
5 0 13 206.72
5 0 14 142.63
5 1 -14 86.8
5 1 -13 -161.17
5 1 -12 246.02
5 1 -11 -113.5
5 1 -10 399.09
5 1 -9 347.48
5 1 -8 256.51
5 1 -7 1195.26
5 1 -6 2200.71
5 1 -5 2959.76
5 1 -4 2193.07
5 1 -3 2009.01
5 1 -2 4280.15
5 1 -1 596.85
5 1 0 40.02
5 1 1 38.77
5 1 2 1419.94
5 1 3 802.28
5 1 4 886.24
5 1 5 9.95
5 1 6 3259.5
5 1 7 3092.26
5 1 8 130.06
5 1 9 366.57
5 1 10 84.28
5 1 11 337.4
5 1 12 -39.22
5 1 13 208.97
5 1 14 137.63
5 2 -14 74.56
5 2 -13 524.89
5 2 -12 51.84
5 2 -11 925.5
5 2 -10 169.93
5 2 -9 209.49
5 2 -8 106.98
5 2 -7 302
5 2 -6 81.23
5 2 -5 210.26
5 2 -4 173.28
5 2 -3 53.39
5 2 -2 862.97
5 2 -1 552.66
5 2 0 -16.82
5 2 1 1882.85
5 2 2 693.95
5 2 3 1618.33
5 2 4 1048.18
5 2 5 2260.53
5 2 6 -21.06
5 2 7 6637.45
5 2 8 2180.31
5 2 9 202.92
5 2 10 18.49
5 2 11 826.41
5 2 12 441.9
5 2 13 62.26
5 2 14 177.99
5 3 -14 116.4
5 3 -13 125.08
5 3 -12 1155.48
5 3 -11 206.02
5 3 -10 125.75
5 3 -9 2862.08
5 3 -8 -35
5 3 -7 2165.87
5 3 -6 78.28
5 3 -5 1500.76
5 3 -4 808.17
5 3 -3 2320.62
5 3 -2 161.01
5 3 -1 777.28
5 3 0 1993.75
5 3 1 16369.01
5 3 2 693.69
5 3 3 137.49
5 3 4 78.23
5 3 5 7340.28
5 3 6 1673.88
5 3 7 1532.13
5 3 8 152.4
5 3 9 239.05
5 3 10 -56.01
5 3 11 20.92
5 3 12 1427.5
5 3 13 480.45
5 3 14 220.71
5 4 -14 50.18
5 4 -13 563.14
5 4 -12 58.66
5 4 -11 238.72
5 4 -10 2110.24
5 4 -9 800.41
5 4 -8 1177.36
5 4 -7 470.55
5 4 -6 3195.59
5 4 -5 973.26
5 4 -4 385.42
5 4 -3 1643.91
5 4 -2 1077.56
5 4 -1 116.22
5 4 0 1610.5
5 4 1 1005.96
5 4 2 509.57
5 4 3 19.12
5 4 4 3092.19
5 4 5 1185.36
5 4 6 378.26
5 4 7 600.92
5 4 8 589.9
5 4 9 684.44
5 4 10 0.65
5 4 11 914.37
5 4 12 263.82
5 4 13 207.54
5 4 14 116.7
5 5 -13 -17.6
5 5 -12 525.67
5 5 -11 153.62
5 5 -10 490.52
5 5 -9 9.28
5 5 -8 547.48
5 5 -7 464.5
5 5 -6 117.46
5 5 -5 3626.06
5 5 -4 597.25
5 5 -3 1435.73
5 5 -2 300.77
5 5 -1 2693.66
5 5 0 167.34
5 5 1 83.7
5 5 2 671.2
5 5 3 -32.33
5 5 4 2037.96
5 5 5 682.83
5 5 6 78.22
5 5 7 -28.95
5 5 8 144.58
5 5 9 -35.92
5 5 10 80.25
5 5 11 496.75
5 5 12 179.45
5 5 13 186.64
5 5 14 236.85
5 6 -13 159.06
5 6 -12 -85.04
5 6 -11 192.96
5 6 -10 397.08
5 6 -9 201.05
5 6 -8 456.75
5 6 -7 5256.78
5 6 -6 749.57
5 6 -5 2241.42
5 6 -4 814.18
5 6 -3 1899.38
5 6 -2 1062.05
5 6 -1 40.68
5 6 0 64.33
5 6 1 938.52
5 6 2 11.58
5 6 3 7503.52
5 6 4 2395.5
5 6 5 47.03
5 6 6 3124.02
5 6 7 138.49
5 6 8 1492.61
5 6 9 4767.93
5 6 10 831.79
5 6 11 -108.61
5 6 12 24.27
5 6 13 329.64
5 6 14 323.73
5 7 -12 -74.75
5 7 -11 140.56
5 7 -10 11.06
5 7 -9 -14.24
5 7 -8 76.5
5 7 -7 -61.44
5 7 -6 1857.39
5 7 -5 786.73
5 7 -4 -72.03
5 7 -3 101.91
5 7 -2 2795.24
5 7 -1 5962.73
5 7 0 1406.34
5 7 1 3216.01
5 7 2 2198.29
5 7 3 9204.4
5 7 4 92.72
5 7 5 27.72
5 7 6 1024.94
5 7 7 396.18
5 7 8 71.01
5 7 9 153.18
5 7 10 1238.91
5 7 11 912.33
5 7 12 39.03
5 7 13 147.79
5 7 14 189.75
5 8 -12 381.52
5 8 -11 203.44
5 8 -10 20.84
5 8 -9 260.7
5 8 -8 2139.52
5 8 -7 542.54
5 8 -6 884.08
5 8 -5 1341.54
5 8 -4 2970.68
5 8 -3 -19.97
5 8 -2 126.05
5 8 -1 528.62
5 8 0 2751.07
5 8 1 13.13
-5 -8 -2 6.03
5 8 3 1131.54
5 8 4 1755.57
5 8 5 1111.68
5 8 6 141.42
5 8 7 -16.64
5 8 8 -23.28
5 8 9 232.22
5 8 10 299.26
5 8 11 102.76
5 8 12 160.39
5 8 13 132.54
5 9 -11 349.13
5 9 -10 1013.58
5 9 -9 375.61
5 9 -8 314.67
5 9 -7 212.87
5 9 -6 119.13
5 9 -5 593.04
5 9 -4 121.5
5 9 -3 23.25
5 9 -2 -38.64
5 9 -1 516.1
5 9 0 -38.32
-5 -9 -1 208.25
-5 -9 -2 374.35
-5 -9 -3 6012.98
-5 -9 -4 1459.01
5 9 5 1428.17
5 9 6 3.71
5 9 7 902.96
5 9 8 119.51
5 9 9 233.26
5 9 10 45.57
5 9 11 -76.4
5 9 12 241.86
5 10 -10 280.55
5 10 -9 365.58
5 10 -8 43.22
5 10 -7 415.49
5 10 -6 359.84
5 10 -5 242.81
5 10 -4 64.45
5 10 -3 976.38
5 10 -2 1011.48
5 10 -1 -68.64
-5 -10 0 75.26
-5 -10 -1 189.24
-5 -10 -2 418.05
-5 -10 -3 83.2
-5 -10 -4 558.08
-5 -10 -5 1021.23
5 10 6 456.01
5 10 7 539.47
5 10 8 121.33
5 10 9 81.97
5 10 10 -17.48
5 10 11 180.45
5 10 12 48.92
5 11 -9 244.56
5 11 -8 10.4
5 11 -7 76.57
5 11 -6 55.75
5 11 -5 327.15
5 11 -4 807.39
5 11 -3 2678.99
5 11 -2 378.42
5 11 -1 189.58
-5 -11 0 -80.69
-5 -11 -1 1715.52
-5 -11 -2 80.87
-5 -11 -3 125
-5 -11 -4 946.79
-5 -11 -5 330.21
5 11 6 227.2
5 11 7 60.28
5 11 8 1387.78
5 11 9 153.52
5 11 10 78.83
5 11 11 85.36
5 12 -7 339.28
5 12 -6 310.76
5 12 -5 281.22
5 12 -4 77.9
5 12 -3 823.04
5 12 -2 2146.08
5 12 -1 141.25
-5 -12 0 9.29
-5 -12 -1 595.45
-5 -12 -2 616.53
-5 -12 -3 110.28
-5 -12 -4 390.92
-5 -12 -5 -64.5
-5 -12 -6 306.29
5 12 7 50.35
5 12 8 -106.44
5 12 9 7.04
5 13 -6 -71.95
5 13 -5 77.9
5 13 -4 56.79
5 13 -3 216.8
5 13 -2 16.48
5 13 -1 -0.52
-5 -13 0 103.55
-5 -13 -1 315.05
-5 -13 -2 263.36
-5 -13 -3 429.68
-5 -13 -4 -22.08
-5 -13 -5 18.17
-5 -13 -6 -211.13
5 13 7 1097.73
5 13 8 64.15
5 14 -3 1.09
5 14 -2 174.05
5 14 -1 523.56
-5 -14 0 237.13
-5 -14 -1 -34.11
-5 -14 -2 124.31
-5 -14 -3 428.77
-5 -14 -4 530.09
-5 -14 -5 855.39
6 -10 -3 254.52
6 -10 -2 429.26
6 -10 -1 373.59
6 -10 0 -351.57
6 -10 1 144.64
6 -10 2 300.8
6 -9 -6 1219.08
6 -9 -5 585.46
6 -9 -4 357.3
6 -9 -3 -494.52
6 -9 -2 -37
6 -9 -1 737.35
6 -9 0 285.65
6 -9 1 11.49
6 -9 2 376.51
6 -9 3 -400.49
6 -9 4 11.73
6 -9 5 160.57
6 -8 -8 492.04
6 -8 -7 225.03
6 -8 -6 264.41
6 -8 -5 793.28
6 -8 -4 260.29
6 -8 -3 556.83
6 -8 -2 -773.26
6 -8 -1 712.36
6 -8 0 249.44
6 -8 1 1085.17
6 -8 2 104.07
6 -8 3 373.74
6 -8 4 275.77
6 -8 5 539.86
6 -8 6 290.73
6 -8 7 319.06
6 -7 -10 140.65
6 -7 -9 -254.32
6 -7 -8 537.35
6 -7 -7 -14.41
6 -7 -6 201.45
6 -7 -5 415.09
6 -7 -4 27.81
6 -7 -3 474.44
6 -7 -2 1652.12
6 -7 -1 1797.76
6 -7 0 839.99
6 -7 1 1104.53
6 -7 2 251.66
6 -7 3 102.9
6 -7 4 242.13
6 -7 5 156.49
6 -7 6 405.62
6 -7 7 1201.56
6 -7 8 -114.54
6 -7 9 -197.45
6 -6 -11 375.64
6 -6 -10 -160.71
6 -6 -9 326.53
6 -6 -8 -116.48
6 -6 -7 333.79
6 -6 -6 449.99
6 -6 -5 311.54
6 -6 -4 525.2
6 -6 -3 155.91
6 -6 -2 1246.03
6 -6 -1 868.17
6 -6 0 86.78
6 -6 1 11.28
6 -6 2 2651.85
6 -6 3 1025.17
6 -6 4 242.67
6 -6 5 234.9
6 -6 6 1053.41
6 -6 7 -25.35
6 -6 8 987.68
6 -6 9 18.35
6 -6 10 274.23
6 -5 -11 -621.59
6 -5 -10 1010.17
6 -5 -9 1259.69
6 -5 -8 988.31
6 -5 -7 666.05
6 -5 -6 515.66
6 -5 -5 1782
6 -5 -4 1182.26
6 -5 -3 423.63
6 -5 -2 178.39
6 -5 -1 1539.23
6 -5 0 2343.21
6 -5 1 845.89
6 -5 2 95.17
6 -5 3 648.83
6 -5 4 3002.18
6 -5 5 -2.15
6 -5 6 -41.71
6 -5 7 220.62
6 -5 8 1217.53
6 -5 9 60.78
6 -5 10 188.74
6 -5 11 170.37
6 -4 -12 -84.95
6 -4 -11 268.98
6 -4 -10 306.64
6 -4 -9 347.58
6 -4 -8 1368.56
6 -4 -7 2810.08
6 -4 -6 2379.5
6 -4 -5 506.1
6 -4 -4 905.12
6 -4 -3 275.46
6 -4 -2 811.12
6 -4 -1 3423.65
6 -4 0 1133.22
6 -4 1 101.55
6 -4 2 64.15
6 -4 3 245.86
6 -4 4 132.47
6 -4 5 742.58
6 -4 6 300.04
6 -4 7 529.97
6 -4 8 46.13
6 -4 9 1615
6 -4 10 1026.61
6 -4 11 -8.33
6 -4 12 -79.95
6 -3 -13 540.14
6 -3 -12 322.15
6 -3 -11 138.51
6 -3 -10 131.01
6 -3 -9 259.36
6 -3 -8 114.08
6 -3 -7 211
6 -3 -6 -15.53
6 -3 -5 15.82
6 -3 -4 524.72
6 -3 -3 622.07
6 -3 -2 871.62
6 -3 -1 446.01
6 -3 0 58.52
6 -3 1 250.8
6 -3 2 255.93
6 -3 3 2381.03
6 -3 4 49.61
6 -3 5 33.4
6 -3 6 73.97
6 -3 7 225.34
6 -3 8 -20.58
6 -3 9 11.8
6 -3 10 347.72
6 -3 11 142.36
6 -3 12 147.61
6 -2 -13 850.11
6 -2 -12 1833.52
6 -2 -11 152.85
6 -2 -10 822.59
6 -2 -9 360.36
6 -2 -8 1592.57
6 -2 -7 473.17
6 -2 -6 44.53
6 -2 -5 1101.87
6 -2 -4 750.93
6 -2 -3 83.56
6 -2 -2 514.92
6 -2 -1 627.82
6 -2 0 578.99
6 -2 1 137.81
6 -2 2 26.52
6 -2 3 1713.57
6 -2 4 1150.1
6 -2 5 -7.83
6 -2 6 670.64
6 -2 7 288.64
6 -2 8 128.25
6 -2 9 355.2
6 -2 10 915.52
6 -2 11 24.14
6 -2 12 139.08
6 -2 13 308.43
6 -1 -13 125.19
6 -1 -12 216.85
6 -1 -11 973.32
6 -1 -10 1374.42
6 -1 -9 64.51
6 -1 -8 218.09
6 -1 -7 242.6
6 -1 -6 1977.24
6 -1 -5 235.5
6 -1 -4 2722.19
6 -1 -3 4903.4
6 -1 -2 306.75
6 -1 -1 350.07
6 -1 0 595.73
6 -1 1 12247.79
6 -1 2 9427.99
6 -1 3 342.7
6 -1 4 215.08
6 -1 5 0.67
6 -1 6 210.71
6 -1 7 376.81
6 -1 8 -55.28
6 -1 9 658.06
6 -1 10 148.67
6 -1 11 199.21
6 -1 12 43.4
6 -1 13 93.42
6 0 -13 167.27
6 0 -12 -3.39
6 0 -11 -251.88
6 0 -10 380.25
6 0 -9 446.82
6 0 -8 999.81
6 0 -7 190.9
6 0 -6 22.78
6 0 -5 3646.85
6 0 -4 1261.6
6 0 -3 69.95
6 0 -2 42.25
6 0 -1 825.73
6 0 0 472.03
6 0 1 1535.72
6 0 2 993.86
6 0 3 60.58
6 0 4 178.5
6 0 5 460.17
6 0 6 379.13
6 0 7 246.29
6 0 8 856.38
6 0 9 313.55
6 0 10 13.37
6 0 11 827.42
6 0 12 281.21
6 0 13 12.43
6 0 14 31.61
6 1 -14 64.02
6 1 -13 44.95
6 1 -12 172.98
6 1 -11 564.31
6 1 -10 380.12
6 1 -9 6.18
6 1 -8 2177.28
6 1 -7 94.64
6 1 -6 264.91
6 1 -5 3103.14
6 1 -4 3026.35
6 1 -3 3090.21
6 1 -2 568.23
6 1 -1 1007.28
6 1 0 1737.83
6 1 1 1815.48
6 1 2 2.86
6 1 3 223.58
6 1 4 109.96
6 1 5 1061.48
6 1 6 190.94
6 1 7 16.75
6 1 8 2309.67
6 1 9 281.79
6 1 10 49.41
6 1 11 172.03
6 1 12 1356.94
6 1 13 57.66
6 1 14 16.58
6 2 -14 -21.85
6 2 -13 -6.91
6 2 -12 45.52
6 2 -11 383.27
6 2 -10 89.97
6 2 -9 283.08
6 2 -8 482.49
6 2 -7 -60.25
6 2 -6 5205.69
6 2 -5 684.04
6 2 -4 2026.7
6 2 -3 1140.49
6 2 -2 16269.31
6 2 -1 76.78
6 2 0 1215.87
6 2 1 104.75
6 2 2 2635.81
6 2 3 3259.52
6 2 4 2903.72
6 2 5 625.44
6 2 6 2076.67
6 2 7 38.29
6 2 8 1046.01
6 2 9 2104.76
6 2 10 688.02
6 2 11 1846.34
6 2 12 395.2
6 2 13 264.57
6 2 14 218.69
6 3 -13 648.59
6 3 -12 654.54
6 3 -11 170.94
6 3 -10 -72.57
6 3 -9 766.72
6 3 -8 126.34
6 3 -7 444.43
6 3 -6 230.69
6 3 -5 2717.57
6 3 -4 227.42
6 3 -3 2586.63
6 3 -2 1224.09
6 3 -1 8599.06
6 3 0 2056.16
6 3 1 436.95
6 3 2 916.05
6 3 3 1007.64
6 3 4 3484.3
6 3 5 -17.22
6 3 6 69.61
6 3 7 2462.16
6 3 8 341.77
6 3 9 -33.12
6 3 10 68.97
6 3 11 535.54
6 3 12 610.72
6 3 13 -34.31
6 3 14 882.73
6 4 -13 38.69
6 4 -12 449.06
6 4 -11 420.9
6 4 -10 520.6
6 4 -9 338.49
6 4 -8 4614.77
6 4 -7 2219.51
6 4 -6 2587.06
6 4 -5 95.07
6 4 -4 924.75
6 4 -3 1540.42
6 4 -2 234.49
6 4 -1 221.92
6 4 0 102.27
6 4 1 1092.07
6 4 2 321.58
6 4 3 453.22
6 4 4 175.54
6 4 5 3080.67
6 4 6 2603.23
6 4 7 392.37
6 4 8 75.81
6 4 9 187.29
6 4 10 980.02
6 4 11 181.27
6 4 12 202.03
6 4 13 61.44
6 4 14 135.2
6 5 -13 121.14
6 5 -12 640.49
6 5 -11 183.46
6 5 -10 947.16
6 5 -9 117.53
6 5 -8 -45.05
6 5 -7 1511.48
6 5 -6 671.31
6 5 -5 -35.11
6 5 -4 26.6
6 5 -3 1796.59
6 5 -2 291.94
6 5 -1 862.66
6 5 0 1837.37
6 5 1 142.62
6 5 2 -33.53
6 5 3 2828.6
6 5 4 37.7
6 5 5 3284.46
6 5 6 7403.37
6 5 7 37.72
6 5 8 101.11
6 5 9 60.36
6 5 10 2724.99
6 5 11 2.11
6 5 12 378.75
6 5 13 379.29
6 5 14 113.89
6 6 -12 50.66
6 6 -11 65.08
6 6 -10 321.97
6 6 -9 477.3
6 6 -8 213.37
6 6 -7 72.93
6 6 -6 81.74
6 6 -5 938.76
6 6 -4 3250.94
6 6 -3 147.48
6 6 -2 1261.42
6 6 -1 2057.59
6 6 0 6993.94
6 6 1 2523.86
6 6 2 2816.71
6 6 3 3074.05
6 6 4 4193.24
6 6 5 848.81
6 6 6 2578.24
6 6 7 232.37
6 6 8 14.97
6 6 9 88.96
6 6 10 -29.5
6 6 11 1038.9
6 6 12 -73.61
6 6 13 132.11
6 6 14 92.08
6 7 -12 469.32
6 7 -11 534.79
6 7 -10 22.27
6 7 -9 491.03
6 7 -8 531.97
6 7 -7 1800.37
6 7 -6 209.48
6 7 -5 1479.99
6 7 -4 259.01
6 7 -3 3660.75
6 7 -2 2438.72
6 7 -1 100.43
6 7 0 203.41
6 7 1 2381.21
6 7 2 1388.62
6 7 3 832.27
6 7 4 855.19
6 7 5 61.85
6 7 6 177.3
6 7 7 -50.04
6 7 8 36.68
6 7 9 611.51
6 7 10 500.15
6 7 11 77.29
6 7 12 175.81
6 7 13 -8.5
6 8 -11 342.85
6 8 -10 -50.73
6 8 -9 102.91
6 8 -8 -49.31
6 8 -7 1117.13
6 8 -6 97.43
6 8 -5 144.59
6 8 -4 130.21
6 8 -3 1137.79
6 8 -2 746.54
6 8 -1 -45.31
6 8 0 594.28
6 8 1 88.61
6 8 2 2202.32
6 8 3 751.15
6 8 4 788.07
6 8 5 -34.78
6 8 6 527.52
6 8 7 100.79
6 8 8 28.67
6 8 9 97.38
6 8 10 26.79
6 8 11 362.07
6 8 12 148.94
6 8 13 155.48
6 9 -11 18.26
6 9 -10 140.91
6 9 -9 355.85
6 9 -8 566.98
6 9 -7 9.15
6 9 -6 88.7
6 9 -5 295.82
6 9 -4 588.45
6 9 -3 -60.37
6 9 -2 156.26
6 9 -1 98.79
6 9 0 2376.43
6 9 1 74.44
6 9 2 243.12
6 9 3 470.17
6 9 4 -18.35
6 9 5 730.79
6 9 6 377.76
6 9 7 605.8
6 9 8 2066.15
6 9 9 30.38
6 9 10 19.15
6 9 11 135.8
6 9 12 479.25
6 10 -10 187.47
6 10 -9 103.39
6 10 -8 286.84
6 10 -7 112.09
6 10 -6 693.54
6 10 -5 179.77
6 10 -4 1728.02
6 10 -3 553.42
6 10 -2 567.45
6 10 -1 695.18
6 10 0 641.11
-6 -10 -1 595.52
-6 -10 -2 358.23
-6 -10 -3 196.4
-6 -10 -4 905.7
6 10 5 1131.43
6 10 6 216.59
6 10 7 -5.65
6 10 8 32.39
6 10 9 954.71
6 10 10 271.18
6 10 11 129.2
6 11 -9 397.27
6 11 -8 -21.41
6 11 -7 12.34
6 11 -6 -9
6 11 -5 1969.17
6 11 -4 318.14
6 11 -3 79.76
6 11 -2 -3.26
6 11 -1 696.49
6 11 0 99.7
-6 -11 -1 272.4
-6 -11 -2 348.83
-6 -11 -3 78.58
-6 -11 -4 108.79
-6 -11 -5 337.79
6 11 6 274.47
6 11 7 796.34
6 11 8 243.85
6 11 9 -12.79
6 11 10 42.35
6 12 -7 20.11
6 12 -6 10.33
6 12 -5 -20.51
6 12 -4 386.46
6 12 -3 -96.15
6 12 -2 253.68
6 12 -1 -60.88
-6 -12 0 1390.79
-6 -12 -1 269.51
-6 -12 -2 1408.87
-6 -12 -3 169.8
-6 -12 -4 679.6
-6 -12 -5 107.43
-6 -12 -6 248.56
6 12 7 76.88
6 12 8 15.91
6 12 9 -50.68
6 13 -5 -200.89
6 13 -4 152.8
6 13 -3 262.76
6 13 -2 -0.45
6 13 -1 33.89
-6 -13 0 -210.49
-6 -13 -1 716.28
-6 -13 -2 364.44
-6 -13 -3 314
-6 -13 -4 59.86
-6 -13 -5 729.34
-6 -13 -6 1610.09
6 13 7 -389.67
6 14 -2 -57.66
6 14 -1 365.47
-6 -14 0 709.09
-6 -14 -1 142.02
-6 -14 -2 -200.7
-6 -14 -3 743.43
-6 -14 -4 435.04
-6 -14 -5 136.68
7 -9 -4 886.36
7 -9 -3 97.11
7 -9 -2 -221.11
7 -9 -1 -13.41
7 -9 0 148.59
7 -9 1 61.67
7 -9 2 -262.95
7 -8 -6 510.11
7 -8 -5 -58.29
7 -8 -4 -211.25
7 -8 -3 157.59
7 -8 -2 -2.9
7 -8 -1 363.4
7 -8 0 645.71
7 -8 1 88.87
7 -8 2 -250.31
7 -8 3 96.77
7 -8 4 262.03
7 -8 5 -137.64
7 -7 -8 98.72
7 -7 -7 -490.05
7 -7 -6 -2.46
7 -7 -5 181.78
7 -7 -4 54.03
7 -7 -3 330.39
7 -7 -2 828.17
7 -7 -1 660.6
7 -7 0 100.5
7 -7 1 120.22
7 -7 2 -22.99
7 -7 3 727.5
7 -7 4 649.82
7 -7 5 268.55
7 -7 6 248.24
7 -7 7 84.51
7 -6 -9 175.12
7 -6 -8 1303.43
7 -6 -7 2442.73
7 -6 -6 17.16
7 -6 -5 219.72
7 -6 -4 -310.35
7 -6 -3 914.13
7 -6 -2 801.73
7 -6 -1 433.61
7 -6 0 -91.56
7 -6 1 1006.16
7 -6 2 950.31
7 -6 3 218.69
7 -6 4 1097.32
7 -6 5 1728.82
7 -6 6 111.42
7 -6 7 260.35
7 -6 8 -20.06
7 -6 9 133.43
7 -5 -10 317.94
7 -5 -9 1394.37
7 -5 -8 225.03
7 -5 -7 -98.01
7 -5 -6 596.9
7 -5 -5 -2.1
7 -5 -4 511.24
7 -5 -3 158.32
7 -5 -2 743.41
7 -5 -1 170.67
7 -5 0 -3.94
7 -5 1 269.66
7 -5 2 3606.67
7 -5 3 1602.07
7 -5 4 1391.89
7 -5 5 1.42
7 -5 6 677.79
7 -5 7 472.19
7 -5 8 183.68
7 -5 9 59.68
7 -5 10 -538.36
7 -4 -11 -4.17
7 -4 -10 387.45
7 -4 -9 1033.21
7 -4 -8 842.06
7 -4 -7 84.62
7 -4 -6 -219.32
7 -4 -5 614.4
7 -4 -4 1486.95
7 -4 -3 3461.28
7 -4 -2 457.68
7 -4 -1 306.86
7 -4 0 480.48
7 -4 1 398.16
7 -4 2 18.49
7 -4 3 433.03
7 -4 4 -21.9
7 -4 5 -136.78
7 -4 6 383.62
7 -4 7 202.15
7 -4 8 402.79
7 -4 9 253.21
7 -4 10 221.11
7 -4 11 180.11
7 -3 -12 -18.6
7 -3 -11 205.57
7 -3 -10 154.26
7 -3 -9 233.21
7 -3 -8 55.79
7 -3 -7 -78.82
7 -3 -6 91.4
7 -3 -5 177.14
7 -3 -4 1318.37
7 -3 -3 31.02
7 -3 -2 778.09
7 -3 -1 -76.9
7 -3 0 1246.83
7 -3 1 4661.51
7 -3 2 3117.61
7 -3 3 64.25
7 -3 4 782.85
7 -3 5 37.1
7 -3 6 26.95
7 -3 7 473.81
7 -3 8 617.08
7 -3 9 624.26
7 -3 10 286.76
7 -3 11 70.96
7 -2 -12 -315.22
7 -2 -11 -143.57
7 -2 -10 1666.71
7 -2 -9 52.18
7 -2 -8 23.26
7 -2 -7 1308.43
7 -2 -6 1183.36
7 -2 -5 1238.14
7 -2 -4 674.3
7 -2 -3 158.11
7 -2 -2 668.54
7 -2 -1 2700.54
7 -2 0 474.61
7 -2 1 1363.14
7 -2 2 107.85
7 -2 3 3354.61
7 -2 4 2081.83
7 -2 5 78.61
7 -2 6 467.35
7 -2 7 338.24
7 -2 8 132.57
7 -2 9 -25.56
7 -2 10 257.38
7 -2 11 604.35
7 -2 12 282.47
7 -1 -13 -94.52
7 -1 -12 827.62
7 -1 -11 413.14
7 -1 -10 167.97
7 -1 -9 865.6
7 -1 -8 1429.55
7 -1 -7 247.1
7 -1 -6 12.37
7 -1 -5 480.12
7 -1 -4 933.14
7 -1 -3 41.66
7 -1 -2 1987.1
7 -1 -1 803.92
7 -1 0 267.11
7 -1 1 -3.56
7 -1 2 344.17
7 -1 3 26.72
7 -1 4 324.06
7 -1 5 576.12
7 -1 6 855.39
7 -1 7 38.65
7 -1 8 684.47
7 -1 9 14.58
7 -1 10 226.88
7 -1 11 67.81
7 -1 12 603.18
7 -1 13 221.54
7 0 -13 712.95
7 0 -12 46.74
7 0 -11 92.12
7 0 -10 285.88
7 0 -9 -5.76
7 0 -8 185.9
7 0 -7 825.48
7 0 -6 582.1
7 0 -5 3527.91
7 0 -4 773.92
7 0 -3 1488.56
7 0 -2 16.82
7 0 -1 -20.86
7 0 0 238.36
7 0 1 145.01
7 0 2 777.91
7 0 3 449.09
7 0 4 240.9
7 0 5 634.89
7 0 6 360.68
7 0 7 373.81
7 0 8 2.85
7 0 9 762.82
7 0 10 3.47
7 0 11 65.44
7 0 12 38.83
7 0 13 -66.83
7 1 -13 322.57
7 1 -12 -78.57
7 1 -11 221.01
7 1 -10 174.91
7 1 -9 113.7
7 1 -8 21.19
7 1 -7 497.08
7 1 -6 165.32
7 1 -5 4759.39
7 1 -4 301.36
7 1 -3 2186.43
7 1 -2 157.5
7 1 -1 472.65
7 1 0 161.58
7 1 1 591.97
7 1 2 2304.96
7 1 3 379.96
7 1 4 412.85
7 1 5 1246.33
7 1 6 3552.23
7 1 7 314.46
7 1 8 17.67
7 1 9 289.95
7 1 10 736.43
7 1 11 1669.63
7 1 12 -131.85
7 1 13 125.45
7 2 -13 -76.89
7 2 -12 1344.48
7 2 -11 521.29
7 2 -10 65.07
7 2 -9 425.13
7 2 -8 12.05
7 2 -7 354.29
7 2 -6 118.21
7 2 -5 1039.92
7 2 -4 2758.46
7 2 -3 105.55
7 2 -2 68.21
7 2 -1 1003.59
7 2 0 11340.51
7 2 1 6909.55
7 2 2 254.4
7 2 3 339.92
7 2 4 2149.91
7 2 5 1484.71
7 2 6 766.53
7 2 7 1022.96
7 2 8 141.51
7 2 9 207.12
7 2 10 30.31
7 2 11 12.98
7 2 12 213.29
7 2 13 566.87
7 3 -13 783.5
7 3 -12 -51.19
7 3 -11 1587.32
7 3 -10 399.52
7 3 -9 319.95
7 3 -8 426.27
7 3 -7 45.58
7 3 -6 937.57
7 3 -5 2185.05
7 3 -4 2818.45
7 3 -3 1274.63
7 3 -2 660.81
7 3 -1 8.15
7 3 0 1236.01
7 3 1 26.26
7 3 2 99.24
7 3 3 1997.96
7 3 4 514.99
7 3 5 830.08
7 3 6 404.47
7 3 7 -52.82
7 3 8 668.81
7 3 9 -31.28
7 3 10 832.21
7 3 11 290.35
7 3 12 -73.65
7 3 13 -28.27
7 4 -13 242.52
7 4 -12 483.2
7 4 -11 258.91
7 4 -10 77.93
7 4 -9 211.86
7 4 -8 82.22
7 4 -7 232.13
7 4 -6 335.04
7 4 -5 119.72
7 4 -4 9.99
7 4 -3 157.04
7 4 -2 730.79
7 4 -1 880.01
7 4 0 216.2
7 4 1 123.92
7 4 2 27.99
7 4 3 849.95
7 4 4 704.1
7 4 5 51.85
7 4 6 2142.48
7 4 7 2090.75
7 4 8 213.33
7 4 9 287.54
7 4 10 173.96
7 4 11 708.44
7 4 12 205.77
7 4 13 177.25
7 5 -12 34.7
7 5 -11 -90.83
7 5 -10 405.63
7 5 -9 -36.48
7 5 -8 846.17
7 5 -7 3192.93
7 5 -6 102.48
7 5 -5 1347.01
7 5 -4 425.92
7 5 -3 9589.42
7 5 -2 138.27
7 5 -1 539.62
7 5 0 250.95
7 5 1 136.18
7 5 2 1312.2
7 5 3 2613.14
7 5 4 2159.8
7 5 5 145.54
7 5 6 647.6
7 5 7 2466.69
7 5 8 3561.01
7 5 9 2061.65
7 5 10 784.92
7 5 11 216.67
7 5 12 62.22
7 5 13 17.56
7 6 -12 -39.12
7 6 -11 125.29
7 6 -10 847.71
7 6 -9 -29.54
7 6 -8 646.92
7 6 -7 218.06
7 6 -6 2646.98
7 6 -5 945.88
7 6 -4 -21.68
7 6 -3 2094.49
7 6 -2 7714.62
7 6 -1 3921.74
7 6 0 1133.9
7 6 1 34.89
7 6 2 1355.83
7 6 3 418.24
7 6 4 48.8
7 6 5 50.36
7 6 6 348.3
7 6 7 -16.22
7 6 8 419.57
7 6 9 274.77
7 6 10 778.65
7 6 11 227.61
7 6 12 33.31
7 6 13 -3.57
7 7 -12 -38.51
7 7 -11 116.09
7 7 -10 273.07
7 7 -9 1663.59
7 7 -8 799.52
7 7 -7 50.74
7 7 -6 135.21
7 7 -5 1215.62
7 7 -4 1839.7
7 7 -3 975.46
7 7 -2 110.46
7 7 -1 692.88
7 7 0 188.21
7 7 1 121.24
7 7 2 289.88
7 7 3 185.33
7 7 4 195.18
7 7 5 112.73
7 7 6 101.82
7 7 7 193.42
7 7 8 759.87
7 7 9 1020.01
7 7 10 304.3
7 7 11 67.91
7 7 12 373.91
7 7 13 93.27
7 8 -11 226.93
7 8 -10 331.88
7 8 -9 -3.97
7 8 -8 463.88
7 8 -7 59.5
7 8 -6 134.75
7 8 -5 -32.92
7 8 -4 988.69
7 8 -3 1400.17
7 8 -2 192.91
7 8 -1 30.71
7 8 0 417.88
7 8 1 459.37
7 8 2 3186.95
7 8 3 2107.39
7 8 4 981.94
7 8 5 1707.55
7 8 6 -32.16
7 8 7 1074.8
7 8 8 -22.87
7 8 9 902.86
7 8 10 221.94
7 8 11 386.59
7 8 12 -24.29
7 9 -10 391.71
7 9 -9 368.91
7 9 -8 43.28
7 9 -7 105.97
7 9 -6 437.02
7 9 -5 446.6
7 9 -4 64.35
7 9 -3 20.1
7 9 -2 -3.12
7 9 -1 232.74
7 9 0 393.6
7 9 1 619.56
7 9 2 2168.92
7 9 3 1033.76
7 9 4 589.12
7 9 5 136.03
7 9 6 908.35
7 9 7 926.88
7 9 8 -78.66
7 9 9 55.61
7 9 10 111.76
7 9 11 334.68
7 9 12 178
7 10 -9 48.22
7 10 -8 148.57
7 10 -7 15.85
7 10 -6 7.11
7 10 -5 282.77
7 10 -4 1234.08
7 10 -3 632.45
7 10 -2 622.11
7 10 -1 109.05
7 10 0 648.68
7 10 1 214.65
7 10 2 1011.62
7 10 3 163.34
7 10 4 143.95
7 10 5 2.88
7 10 6 18.93
7 10 7 276.06
7 10 8 385.28
7 10 9 56.87
7 10 10 101.21
7 10 11 -58.25
7 11 -8 396.81
7 11 -7 66.67
7 11 -6 246.27
7 11 -5 180.84
7 11 -4 230.25
7 11 -3 991.01
7 11 -2 270.57
7 11 -1 357.29
7 11 0 251.53
7 11 1 1097.7
7 11 2 -8.67
-7 -11 -3 115.78
7 11 4 120
7 11 5 137.56
7 11 6 -29.7
7 11 7 121.48
7 11 8 12.78
7 11 9 -8.67
7 11 10 350.36
7 12 -7 70.58
7 12 -6 395.12
7 12 -5 201.26
7 12 -4 -37.08
7 12 -3 37.31
7 12 -2 290.59
7 12 -1 530.38
7 12 0 37.61
-7 -12 -1 -43.98
-7 -12 -2 8.56
-7 -12 -3 438.25
-7 -12 -4 68.62
-7 -12 -5 -65.31
7 12 6 -1.32
7 12 7 640.28
7 12 8 172.61
7 12 9 228.45
7 13 -5 216.69
7 13 -4 284.77
7 13 -3 49.71
7 13 -2 154.3
7 13 -1 69.06
7 13 0 1089.79
-7 -13 -1 40.36
-7 -13 -2 42.42
-7 -13 -3 101.45
-7 -13 -4 1414.56
-7 -13 -5 277.24
-7 -13 -6 246.83
7 13 7 25.02
7 14 -2 287.81
7 14 -1 154.72
-7 -14 0 420.5
-7 -14 -1 289.49
-7 -14 -2 116.65
-7 -14 -3 -306.57
-7 -14 -4 -39.78
8 -8 -3 292.29
8 -8 -2 -71.32
8 -8 -1 242.94
8 -8 0 393.84
8 -8 1 613.92
8 -8 2 78.04
8 -8 3 225.89
8 -7 -6 175.71
8 -7 -5 286.73
8 -7 -4 684.41
8 -7 -3 322.45
8 -7 -2 1254.62
8 -7 -1 -315.13
8 -7 0 73.15
8 -7 1 178.8
8 -7 2 432.82
8 -7 3 92.87
8 -7 4 -3.56
8 -7 5 -5.7
8 -6 -8 9.69
8 -6 -7 38.43
8 -6 -6 -451.23
8 -6 -5 2299.02
8 -6 -4 407.71
8 -6 -3 -437.54
8 -6 -2 -488.36
8 -6 -1 1529.75
8 -6 0 79.58
8 -6 1 198.56
8 -6 2 59.23
8 -6 3 310.29
8 -6 4 585.49
8 -6 5 168.07
8 -6 6 61.65
8 -6 7 -85.09
8 -5 -9 -336.99
8 -5 -8 400.29
8 -5 -7 1346.93
8 -5 -6 352.54
8 -5 -5 38.07
8 -5 -4 1145.62
8 -5 -3 1001.58
8 -5 -2 -135.39
8 -5 -1 512.9
8 -5 0 504.84
8 -5 1 94.14
8 -5 2 31.15
8 -5 3 -167.54
8 -5 4 172.95
8 -5 5 240.75
8 -5 6 103.06
8 -5 7 -63.27
8 -5 8 238.5
8 -5 9 177.09
8 -4 -10 -54.03
8 -4 -9 -97.58
8 -4 -8 181.66
8 -4 -7 118.62
8 -4 -6 200.66
8 -4 -5 864.88
8 -4 -4 477.93
8 -4 -3 710.8
8 -4 -2 561.74
8 -4 -1 -101.16
8 -4 0 5.52
8 -4 1 21.67
8 -4 2 567.56
8 -4 3 111.41
8 -4 4 301.75
8 -4 5 102.46
8 -4 6 440.48
8 -4 7 233.42
8 -4 8 175.4
8 -4 9 472.25
8 -4 10 70.76
8 -3 -11 -330.83
8 -3 -10 668.97
8 -3 -9 581.65
8 -3 -8 560.23
8 -3 -7 190.48
8 -3 -6 -7.74
8 -3 -5 -37.58
8 -3 -4 975.06
8 -3 -3 556.61
8 -3 -2 48.02
8 -3 -1 195.28
8 -3 0 964.91
8 -3 1 331.75
8 -3 2 -12.67
8 -3 3 300.97
8 -3 4 6.64
8 -3 5 0
8 -3 6 -34.96
8 -3 7 211.33
8 -3 8 41.64
8 -3 9 -114.89
8 -3 10 187.8
8 -2 -11 341.14
8 -2 -10 607.16
8 -2 -9 269.2
8 -2 -8 31.32
8 -2 -7 347.96
8 -2 -6 109.89
8 -2 -5 -37.9
8 -2 -4 133.71
8 -2 -3 440.71
8 -2 -2 1104.77
8 -2 -1 207.99
8 -2 0 -57.28
8 -2 1 4207.21
8 -2 2 1025.22
8 -2 3 128.98
8 -2 4 16.11
8 -2 5 230.28
8 -2 6 518.99
8 -2 7 46.93
8 -2 8 -89.32
8 -2 9 103.92
8 -2 10 -69.34
8 -2 11 27.39
8 -1 -12 137.43
8 -1 -11 -105.36
8 -1 -10 1399.06
8 -1 -9 376.03
8 -1 -8 499.57
8 -1 -7 -363.28
8 -1 -6 2194.35
8 -1 -5 703.53
8 -1 -4 379.75
8 -1 -3 182.24
8 -1 -2 699.73
8 -1 -1 1.58
8 -1 0 -41.91
8 -1 1 46.48
8 -1 2 313.31
8 -1 3 528.66
8 -1 4 434.16
8 -1 5 -14.38
8 -1 6 1386.06
8 -1 7 102.07
8 -1 8 138.57
8 -1 9 158.06
8 -1 10 103.32
8 -1 11 45.26
8 -1 12 -219.05
8 0 -12 385.53
8 0 -11 58.88
8 0 -10 178.66
8 0 -9 -420.31
8 0 -8 110.24
8 0 -7 111.67
8 0 -6 -40.58
8 0 -5 1394.12
8 0 -4 50.82
8 0 -3 403.22
8 0 -2 265.75
8 0 -1 3834.56
8 0 0 2557.18
8 0 1 2164.96
8 0 2 721.02
8 0 3 2360.88
8 0 4 1059.72
8 0 5 198.95
8 0 6 100.39
8 0 7 357.85
8 0 8 676.88
8 0 9 4.88
8 0 10 100.62
8 0 11 35.36
8 0 12 726
8 1 -12 -203.21
8 1 -11 533.21
8 1 -10 233.53
8 1 -9 245.24
8 1 -8 243.73
8 1 -7 1610.36
8 1 -6 2925.32
8 1 -5 64.79
8 1 -4 625.45
8 1 -3 3977.46
8 1 -2 7584.9
8 1 -1 152.23
8 1 0 1698.52
8 1 1 536.74
8 1 2 1557.68
8 1 3 2389.68
8 1 4 244.25
8 1 5 258.97
8 1 6 106.26
8 1 7 -50.79
8 1 8 -40.77
8 1 9 585.78
8 1 10 1228.16
8 1 11 465.72
8 1 12 3.81
8 2 -12 407.38
8 2 -11 73.74
8 2 -10 215.63
8 2 -9 390.2
8 2 -8 215.21
8 2 -7 145.09
8 2 -6 154.44
8 2 -5 2139.49
8 2 -4 710.28
8 2 -3 611.39
8 2 -2 762.93
8 2 -1 3220.02
8 2 0 2024.62
8 2 1 719.27
8 2 2 690.65
8 2 3 1596.04
8 2 4 2101.16
8 2 5 235.87
8 2 6 293.04
8 2 7 73.61
8 2 8 38.64
8 2 9 100.28
8 2 10 115.5
8 2 11 1826.85
8 2 12 33.95
8 2 13 79.2
8 3 -12 242.75
8 3 -11 -160.61
8 3 -10 -117.89
8 3 -9 166.28
8 3 -8 1069.8
8 3 -7 256.7
8 3 -6 1803.9
8 3 -5 47.17
8 3 -4 879.25
8 3 -3 246.84
8 3 -2 169.57
8 3 -1 425.53
8 3 0 200.08
8 3 1 74.21
8 3 2 56.01
8 3 3 -14.59
8 3 4 3097.59
8 3 5 620.45
8 3 6 86.89
8 3 7 205
8 3 8 840.15
8 3 9 746.4
8 3 10 -69.86
8 3 11 206.2
8 3 12 243.18
8 3 13 0.84
8 4 -12 247.42
8 4 -11 342.23
8 4 -10 598.14
8 4 -9 90.6
8 4 -8 1704.29
8 4 -7 1063.9
8 4 -6 1078.64
8 4 -5 368.84
8 4 -4 1872.91
8 4 -3 389.41
8 4 -2 -21
8 4 -1 97.01
8 4 0 3603.32
8 4 1 496.32
8 4 2 96.37
8 4 3 933.84
8 4 4 182.05
8 4 5 3377.34
8 4 6 522.6
8 4 7 62.77
8 4 8 -80.12
8 4 9 1471.62
8 4 10 574.26
8 4 11 512.47
8 4 12 172.48
8 4 13 125.33
8 5 -12 200.72
8 5 -11 140.29
8 5 -10 -53.51
8 5 -9 305.84
8 5 -8 525.35
8 5 -7 160.72
8 5 -6 76.3
8 5 -5 775.41
8 5 -4 1079.27
8 5 -3 225.48
8 5 -2 118.35
8 5 -1 451.92
8 5 0 -49.62
8 5 1 230.17
8 5 2 27.92
8 5 3 624.73
8 5 4 55.82
8 5 5 380.67
8 5 6 96.96
8 5 7 210.74
8 5 8 127.8
8 5 9 172.69
8 5 10 181.48
8 5 11 18.57
8 5 12 66.81
8 5 13 59.6
8 6 -11 241.74
8 6 -10 -404.27
8 6 -9 37.93
8 6 -8 134.1
8 6 -7 432.48
8 6 -6 1094.81
8 6 -5 168.9
8 6 -4 -123.38
8 6 -3 222.6
8 6 -2 38.98
8 6 -1 -89.4
8 6 0 -7.78
8 6 1 28.94
8 6 2 -30.52
8 6 3 159.92
8 6 4 -57.72
8 6 5 59.38
8 6 6 14.31
8 6 7 -16.13
8 6 8 -23.95
8 6 9 231.05
8 6 10 235.64
8 6 11 25.91
8 6 12 146.87
8 7 -11 40.21
8 7 -10 -198.52
8 7 -9 -80.01
8 7 -8 435.74
8 7 -7 -95.02
8 7 -6 128.45
8 7 -5 -9.72
8 7 -4 51.72
8 7 -3 33.76
8 7 -2 52.35
8 7 -1 18.74
8 7 0 -80.4
8 7 1 82.25
8 7 2 136.48
8 7 3 55.72
8 7 4 80.44
8 7 5 60.41
8 7 6 -22.22
8 7 7 76.44
8 7 8 -7.95
8 7 9 -41.4
8 7 10 15.57
8 7 11 -6.64
8 7 12 113.99
8 8 -10 11.58
8 8 -9 -111.08
8 8 -8 -151.7
8 8 -7 127.78
8 8 -6 121.9
8 8 -5 98.91
8 8 -4 -55.39
8 8 -3 -43.2
8 8 -2 54.84
8 8 -1 -13.09
8 8 0 -72.6
8 8 1 -26.35
8 8 2 17.47
8 8 3 128.08
8 8 4 91.96
8 8 5 -10.97
8 8 6 54.87
8 8 7 152.77
8 8 8 84.63
8 8 9 -212.51
8 8 10 12.71
8 8 11 79.12
8 8 12 97.75
8 9 -10 -15.49
8 9 -9 -11.48
8 9 -8 -22.44
8 9 -7 313.42
8 9 -6 72.73
8 9 -5 25.4
8 9 -4 87.48
8 9 -3 68.88
8 9 -2 143.39
8 9 -1 62.06
8 9 0 -38.25
8 9 1 28.64
8 9 2 -44.78
8 9 3 92.33
8 9 4 -27.41
8 9 5 13.18
8 9 6 -27.58
8 9 7 -68.1
8 9 8 -51.23
8 9 9 53.3
8 9 10 4.24
8 9 11 -0.21
8 10 -9 47.93
8 10 -8 -19.95
8 10 -7 110.14
8 10 -6 146.2
8 10 -5 65.38
8 10 -4 -11.18
8 10 -3 79.56
8 10 -2 -50.18
8 10 -1 107.82
8 10 0 34.15
8 10 1 21.08
8 10 2 28.95
8 10 3 43.9
8 10 4 60.65
8 10 5 24.1
8 10 6 48.78
8 10 7 -65.94
8 10 8 -43.17
8 10 9 28.41
8 10 10 128.29
8 11 -7 382.69
8 11 -6 50.52
8 11 -5 76.54
8 11 -4 16.57
8 11 -3 7.9
8 11 -2 -124.21
8 11 -1 -6.55
8 11 0 14.98
8 11 1 -64.99
8 11 2 -41.34
8 11 3 -11.07
8 11 4 41.72
8 11 5 95.81
8 11 6 -46.84
8 11 7 -177
8 11 8 -13.84
8 11 9 30.97
8 12 -6 -29.91
8 12 -5 33.16
8 12 -4 42.49
8 12 -3 45.75
8 12 -2 165.4
8 12 -1 85.57
8 12 0 -0.42
8 12 1 -1.02
8 12 2 6.15
8 12 3 65.83
8 12 4 11.2
8 12 5 35.51
8 12 6 23.62
8 12 7 -7.7
8 12 8 -106.54
8 13 -4 -53.15
8 13 -3 23.4
8 13 -2 75.74
8 13 -1 148.16
8 13 0 4.14
8 13 1 60.89
-8 -13 -2 4.66
-8 -13 -3 -247.88
-8 -13 -4 33.89
8 13 5 4.02
8 13 6 18.02
8 14 0 -72.78
-8 -14 -1 69.86
-8 -14 -2 71.52
9 -7 -3 -46.33
9 -7 -2 301.8
9 -7 -1 -29.34
9 -7 0 13.79
9 -7 1 -143.09
9 -7 2 62.81
9 -6 -6 -229.67
9 -6 -5 -75.94
9 -6 -4 255.38
9 -6 -3 46.04
9 -6 -2 84.42
9 -6 -1 -69.17
9 -6 0 1.05
9 -6 1 16.48
9 -6 2 145.26
9 -6 3 19.22
9 -6 4 11.88
9 -6 5 -169.2
9 -5 -7 90.39
9 -5 -6 119.09
9 -5 -5 109.4
9 -5 -4 103.24
9 -5 -3 -533.01
9 -5 -2 68.05
9 -5 -1 63.32
9 -5 0 -604.59
9 -5 1 -499.83
9 -5 2 -27.89
9 -5 3 284.5
9 -5 4 -4.81
9 -5 5 -599.82
9 -5 6 -388.25
9 -5 7 292.1
9 -4 -8 644.87
9 -4 -7 544.67
9 -4 -6 -95.41
9 -4 -5 -39.07
9 -4 -4 84.25
9 -4 -3 105.98
9 -4 -2 -56.46
9 -4 -1 -57.16
9 -4 0 53.38
9 -4 1 106.15
9 -4 2 -21.84
9 -4 3 -12.73
9 -4 4 158.62
9 -4 5 7.03
9 -4 6 0.33
9 -4 7 12.73
9 -4 8 -340.89
9 -3 -9 -2.02
9 -3 -8 -12.41
9 -3 -7 -612.94
9 -3 -6 317.31
9 -3 -5 48.25
9 -3 -4 12.19
9 -3 -3 91.81
9 -3 -2 278.2
9 -3 -1 60.12
9 -3 0 176.06
9 -3 1 198.38
9 -3 2 -1.63
9 -3 3 68.84
9 -3 4 171.53
9 -3 5 -41.5
9 -3 6 -37.96
9 -3 7 85.06
9 -3 8 265.02
9 -3 9 81.5
9 -2 -10 23.36
9 -2 -9 65.6
9 -2 -8 74.88
9 -2 -7 34.87
9 -2 -6 44.05
9 -2 -5 -34.96
9 -2 -4 32.47
9 -2 -3 109.1
9 -2 -2 3.83
9 -2 -1 11.44
9 -2 0 144.81
9 -2 1 72.92
9 -2 2 -1.26
9 -2 3 11.29
9 -2 4 85.78
9 -2 5 -26.93
9 -2 6 -76.8
9 -2 7 275.49
9 -2 8 204.52
9 -2 9 -185.57
9 -2 10 34.25
9 -1 -11 -179.14
9 -1 -10 187.32
9 -1 -9 713.32
9 -1 -8 347.37
9 -1 -7 1058.46
9 -1 -6 1104.24
9 -1 -5 455.45
9 -1 -4 364.53
9 -1 -3 -3.11
9 -1 -2 28.12
9 -1 -1 57.78
9 -1 0 -22.33
9 -1 1 384.92
9 -1 2 186.52
9 -1 3 499.23
9 -1 4 12.08
9 -1 5 841.76
9 -1 6 -14.22
9 -1 7 83.96
9 -1 8 -55.49
9 -1 9 631.88
9 -1 10 153.49
9 -1 11 200.43
9 0 -11 288.73
9 0 -10 -8.8
9 0 -9 119.18
9 0 -8 -226.09
9 0 -7 840.68
9 0 -6 1733.9
9 0 -5 2212.35
9 0 -4 660.5
9 0 -3 -54.95
9 0 -2 29.73
9 0 -1 81.6
9 0 0 3235.05
9 0 1 2078.4
9 0 2 207.36
9 0 3 36.79
9 0 4 66.22
9 0 5 149.2
9 0 6 1235.07
9 0 7 110.56
9 0 8 313.31
9 0 9 -131.16
9 0 10 302.48
9 0 11 150.43
9 1 -11 -43.36
9 1 -10 376.91
9 1 -9 -36.76
9 1 -8 1099.72
9 1 -7 181.34
9 1 -6 29.81
9 1 -5 234.2
9 1 -4 17.57
9 1 -3 299.58
9 1 -2 70.7
9 1 -1 881.97
9 1 0 1069.41
9 1 1 362.73
9 1 2 65.82
9 1 3 63.08
9 1 4 614.71
9 1 5 81.49
9 1 6 52.2
9 1 7 446.71
9 1 8 74.7
9 1 9 145.14
9 1 10 31.3
9 1 11 -394.44
9 1 12 -73.51
9 2 -11 757.24
9 2 -10 115.8
9 2 -9 514.98
9 2 -8 121.79
9 2 -7 926.73
9 2 -6 -69.9
9 2 -5 567.99
9 2 -4 410.44
9 2 -3 33.22
9 2 -2 133.79
9 2 -1 85.97
9 2 0 310.76
9 2 1 558.99
9 2 2 3704.44
9 2 3 777.85
9 2 4 634.53
9 2 5 703.09
9 2 6 424.44
9 2 7 298.73
9 2 8 -30.53
9 2 8 53.01
9 2 9 106.4
9 2 10 224.48
9 2 11 497.02
9 2 12 135.14
9 3 -11 68.88
9 3 -10 152.99
9 3 -9 69.37
9 3 -8 226.43
9 3 -7 78.4
9 3 -6 56.01
9 3 -5 381.54
9 3 -4 -42.17
9 3 -3 1425.92
9 3 -2 1602.93
9 3 -1 522.61
9 3 0 164.68
9 3 1 54.88
9 3 2 2940.74
9 3 3 6855.44
9 3 4 13.4
9 3 5 -28.98
9 3 6 152.84
9 3 7 1314.31
9 3 8 647.38
9 3 9 -16.53
9 3 10 72.57
9 3 11 189.36
9 3 12 254.52
9 4 -11 -103.26
9 4 -10 138.75
9 4 -9 172.85
9 4 -8 727.38
9 4 -7 990.84
9 4 -6 97.72
9 4 -5 130.71
9 4 -4 2697.22
9 4 -3 1157.01
9 4 -2 1854.28
9 4 -1 210.86
9 4 0 446.32
9 4 1 34.95
9 4 2 274.86
9 4 3 118.92
9 4 4 1089.08
9 4 5 -30.39
9 4 6 -21.26
9 4 7 -56.31
9 4 8 1031.13
9 4 9 652.79
9 4 10 302.06
9 4 11 57.38
9 4 12 44.32
9 5 -11 -15.7
9 5 -10 280.49
9 5 -9 285.12
9 5 -8 97.83
9 5 -7 17.97
9 5 -6 807.78
9 5 -5 85.53
9 5 -4 26.27
9 5 -3 347.87
9 5 -2 543.11
9 5 -1 120.09
9 5 0 -6.69
9 5 1 206.76
9 5 2 76.33
9 5 3 505.12
9 5 4 -72.35
9 5 5 181.04
9 5 6 -5.62
9 5 7 213.77
9 5 8 70.89
9 5 9 -33.53
9 5 10 257.62
9 5 11 -56.33
9 5 12 -22.6
9 6 -11 -39.33
9 6 -10 32.96
9 6 -9 317.57
9 6 -8 -3.93
9 6 -7 89.99
9 6 -6 125.13
9 6 -5 376.32
9 6 -4 -70.6
9 6 -3 268.68
9 6 -2 -83.35
9 6 -1 58.65
9 6 0 -51.84
9 6 1 84.02
9 6 2 -96.12
9 6 3 -25.5
9 6 4 -5.96
9 6 5 -29.71
9 6 6 -113.64
9 6 7 34.79
9 6 8 200.06
9 6 9 -18.93
9 6 10 148.31
9 6 11 -2.2
9 6 12 249.61
9 7 -10 -117.15
9 7 -9 189.96
9 7 -8 135.29
9 7 -7 -12.66
9 7 -6 -107.56
9 7 -5 109.61
9 7 -4 -17.79
9 7 -3 -59.22
9 7 -2 24.5
9 7 -1 34.22
9 7 0 42.14
9 7 1 78.83
9 7 2 60.44
9 7 3 53.42
9 7 4 14.36
9 7 5 60.38
9 7 6 -22.7
9 7 7 47.53
9 7 8 28.57
9 7 9 54.05
9 7 10 360.15
9 7 11 84.64
9 8 -10 -179.2
9 8 -9 10.16
9 8 -8 44.44
9 8 -7 81.93
9 8 -6 171.27
9 8 -5 119.83
9 8 -4 101.22
9 8 -3 57.04
9 8 -2 14.14
9 8 -1 505.4
9 8 0 -27.38
9 8 1 38.05
9 8 2 111.95
9 8 3 -30.02
9 8 4 -15.48
9 8 5 82.64
9 8 6 16.72
9 8 7 15.9
9 8 8 -13.13
9 8 9 80.18
9 8 10 -11.15
9 8 11 115.82
9 9 -9 -25.11
9 9 -8 -8.56
9 9 -7 56.66
9 9 -6 -67.03
9 9 -5 -6.13
9 9 -4 -30.7
9 9 -3 -115.05
9 9 -2 25.28
9 9 -1 -39.53
9 9 0 -43.38
9 9 1 57.6
9 9 2 -12.76
9 9 3 -46.28
9 9 4 260.21
9 9 5 84.68
9 9 6 21.67
9 9 7 20.73
9 9 8 71.64
9 9 9 68.17
9 9 10 -80.45
9 10 -8 30.21
9 10 -7 -38.24
9 10 -6 39.39
9 10 -5 -113.1
9 10 -4 -20.97
9 10 -3 27.86
9 10 -2 -62.24
9 10 -1 -93.57
9 10 0 83.07
9 10 1 -40.57
9 10 2 50.92
9 10 3 36.11
9 10 4 64.64
9 10 5 -50.66
9 10 6 -13.84
9 10 7 4.39
9 10 8 -50.58
9 10 9 -27.29
9 10 10 20.99
9 11 -7 0
9 11 -6 -59.51
9 11 -5 -113.74
9 11 -4 -20.47
9 11 -3 1.79
9 11 -2 19.15
9 11 -1 -81.39
9 11 0 31.25
9 11 1 31.37
9 11 2 14.51
9 11 3 123.48
9 11 4 -3.86
9 11 5 -11.02
9 11 6 91.67
9 11 7 24.84
9 11 8 68.23
9 12 -5 59.62
9 12 -4 -33.26
9 12 -3 43.93
9 12 -2 -38.63
9 12 -1 4.91
9 12 0 -41.46
9 12 1 -29.68
9 12 2 -72.08
9 12 3 -29.22
9 12 4 50.56
9 12 5 15.57
9 12 6 62.11
9 12 7 4.72
9 13 -3 27.12
9 13 -2 -11.2
9 13 -1 28.17
9 13 0 23.44
9 13 1 -28.69
9 13 2 21.87
9 13 3 -47.24
9 13 4 9.62
9 13 5 117.04
10 -6 -1 -1.72
10 -6 0 42.43
10 -5 -5 -47.53
10 -5 -4 -70.89
10 -5 -3 120.41
10 -5 -2 69.8
10 -5 -1 130.89
10 -5 0 -108.14
10 -5 1 -309.77
10 -5 2 -66.92
10 -5 3 2.36
10 -5 4 80.95
10 -4 -6 117.35
10 -4 -5 12.6
10 -4 -4 218.99
10 -4 -3 -4.31
10 -4 -2 68.54
10 -4 -1 340.13
10 -4 0 29.4
10 -4 1 115.34
10 -4 2 -33.85
10 -4 3 -40.33
10 -4 4 -14.41
10 -4 5 -300.16
10 -4 6 303.11
10 -3 -8 580.25
10 -3 -7 -625.95
10 -3 -6 -24.17
10 -3 -5 74.39
10 -3 -4 187.59
10 -3 -3 -69.63
10 -3 -2 -271.66
10 -3 -1 60.6
10 -3 0 124.36
10 -3 1 70.09
10 -3 2 586.34
10 -3 3 -206.7
10 -3 4 6
10 -3 5 149.67
10 -3 6 -42.63
10 -3 7 -39.15
10 -3 8 -52.65
10 -2 -9 -16.7
10 -2 -8 616.05
10 -2 -7 213.24
10 -2 -6 403.19
10 -2 -5 529.41
10 -2 -4 382.54
10 -2 -3 32.84
10 -2 -2 -89.57
10 -2 -1 -45.81
10 -2 0 -118.32
10 -2 1 9.2
10 -2 2 10.69
10 -2 3 -143.37
10 -2 4 -137
10 -2 5 298.7
10 -2 6 310
10 -2 7 470.43
10 -2 8 -192.41
10 -2 9 6.66
10 -1 -9 21.31
10 -1 -8 424.34
10 -1 -7 253.52
10 -1 -6 15.07
10 -1 -5 306.78
10 -1 -4 -44.45
10 -1 -3 0
10 -1 -2 19.24
10 -1 -1 574.61
10 -1 0 171.44
10 -1 1 -83.17
10 -1 2 164.94
10 -1 3 236.85
10 -1 4 67.12
10 -1 5 193.66
10 -1 6 -51.66
10 -1 7 -52.29
10 -1 8 89.68
10 -1 9 25.67
10 0 -10 -260.64
10 0 -9 -205.14
10 0 -8 323.95
10 0 -7 1556.8
10 0 -6 444.26
10 0 -5 -29.49
10 0 -4 447.76
10 0 -3 988.4
10 0 -2 1063.12
10 0 -1 392.01
10 0 0 359.54
10 0 1 212.19
10 0 2 75.14
10 0 3 494.66
10 0 4 78.07
10 0 5 48.85
10 0 6 69.43
10 0 7 34.91
10 0 8 100.03
10 0 9 427.74
10 0 10 410.3
10 1 -10 138.12
10 1 -9 82.47
10 1 -8 418.77
10 1 -7 76.71
10 1 -6 31.08
10 1 -5 439.98
10 1 -4 -12.92
10 1 -3 850.77
10 1 -2 630.25
10 1 -1 2200.74
10 1 0 327.89
10 1 1 11.81
10 1 2 612.25
10 1 3 578.44
10 1 4 107.92
10 1 5 187.66
10 1 6 9.51
10 1 7 48.18
10 1 8 1.09
10 1 9 45.01
10 1 10 331.68
10 2 -10 204.41
10 2 -9 741.75
10 2 -8 370.66
10 2 -7 74.53
10 2 -6 4.23
10 2 -5 280.82
10 2 -4 787.07
10 2 -3 311.46
10 2 -2 209.91
10 2 -1 -54.11
10 2 0 2230.81
10 2 1 531.61
10 2 2 123.11
10 2 3 235.31
10 2 4 2863.84
10 2 5 450.26
10 2 6 35.84
10 2 7 320.71
10 2 8 732.35
10 2 9 -67.06
10 2 10 29.13
10 2 11 143.67
10 3 -10 -11.39
10 3 -9 -100.88
10 3 -8 1003.38
10 3 -7 1178.05
10 3 -6 207.26
10 3 -5 336.94
10 3 -4 210.92
10 3 -3 787.17
10 3 -2 411.48
10 3 -1 3751.98
10 3 0 1385.15
10 3 1 1289.33
10 3 2 116.64
10 3 3 4.36
10 3 4 45.82
10 3 5 2195.99
10 3 6 264.33
10 3 7 527.19
10 3 8 650.29
10 3 9 66.81
10 3 10 220.48
10 3 11 171.12
10 4 -10 124.85
10 4 -9 641.45
10 4 -8 88.4
10 4 -7 -44.53
10 4 -6 658.93
10 4 -5 313.24
10 4 -4 489.4
10 4 -3 217.46
10 4 -2 313.25
10 4 -1 91.94
10 4 0 80.16
10 4 1 183.25
10 4 2 12.87
10 4 3 86.19
10 4 4 70.9
10 4 5 120.99
10 4 6 -83.41
10 4 7 276.95
10 4 8 812.28
10 4 9 121.15
10 4 10 -78.47
10 4 11 222.62
10 5 -10 4.18
10 5 -9 -115.9
10 5 -8 32.51
10 5 -7 -99.31
10 5 -6 94.8
10 5 -5 40.35
10 5 -4 -66.3
10 5 -3 19.46
10 5 -2 116.61
10 5 -1 -79.99
10 5 0 38.09
10 5 1 257.78
10 5 2 -44.19
10 5 3 176.36
10 5 4 -51.83
10 5 5 175.53
10 5 6 47.81
10 5 7 92.73
10 5 8 33.51
10 5 9 129.11
10 5 10 233.79
10 5 11 57.96
10 6 -10 24.71
10 6 -9 122.57
10 6 -8 17.39
10 6 -7 -1.47
10 6 -6 42.24
10 6 -5 -49.51
10 6 -4 -33.48
10 6 -3 62.71
10 6 -2 1.61
10 6 -1 -90
10 6 0 122.32
10 6 1 71.42
10 6 2 41.67
10 6 3 103.24
10 6 4 42.26
10 6 5 1.41
10 6 6 107.54
10 6 7 182.34
10 6 8 -87.46
10 6 9 8.84
10 6 10 17.6
10 6 11 98.35
10 7 -9 76.69
10 7 -8 55.92
10 7 -7 92.53
10 7 -6 -39.19
10 7 -5 190.31
10 7 -4 -36.27
10 7 -3 -20.15
10 7 -2 -57.3
10 7 -1 35.2
10 7 0 -96.11
10 7 1 -7.17
10 7 2 49.93
10 7 3 34.19
10 7 4 50.37
10 7 5 5.63
10 7 6 6.04
10 7 7 40.01
10 7 8 55.89
10 7 9 159.25
10 7 10 -49.4
10 8 -9 -1.08
10 8 -8 1.36
10 8 -7 119.28
10 8 -6 -97.11
10 8 -5 56.56
10 8 -4 -8.1
10 8 -3 3.7
10 8 -2 34.45
10 8 -1 35.24
10 8 0 -23.16
10 8 1 -59.85
10 8 2 -89.99
10 8 3 -19.87
10 8 4 20.85
10 8 5 43.95
10 8 6 9.87
10 8 7 -62.07
10 8 8 107.09
10 8 9 37.88
10 8 10 55.56
10 9 -8 -15.73
10 9 -7 156.45
10 9 -6 148.6
10 9 -5 53.61
10 9 -4 89.61
10 9 -3 -55.97
10 9 -2 30.23
10 9 -1 47.49
10 9 0 9.11
10 9 1 56.32
10 9 2 -12.82
10 9 3 75.11
10 9 4 -2.8
10 9 5 -20.6
10 9 6 -36.65
10 9 7 -28.79
10 9 8 50.36
10 9 9 109.84
10 10 -7 -57.87
10 10 -6 -101.53
10 10 -5 1.66
10 10 -4 42.83
10 10 -3 -48.72
10 10 -2 88.8
10 10 -1 36.22
10 10 0 80.71
10 10 1 73.65
10 10 2 -6.39
10 10 3 13.62
10 10 4 -85.19
10 10 5 -71.48
10 10 6 -82.23
10 10 7 -69.8
10 10 8 39.71
10 11 -5 -3.19
10 11 -4 -38.92
10 11 -3 -46.34
10 11 -2 -152.11
10 11 -1 63.41
10 11 0 3.3
10 11 1 21.19
10 11 2 -16.62
10 11 3 -41.11
10 11 4 -65.78
10 11 5 -41.29
10 11 6 31.84
10 11 7 61.76
10 12 -4 51.63
10 12 -3 58.73
10 12 -2 -45.23
10 12 -1 -12.03
10 12 0 -6.65
10 12 1 -36.21
10 12 2 -108.12
10 12 3 35.69
10 12 4 22.74
10 12 5 6.47
10 12 6 -21.87
10 13 0 -46.89
10 13 1 -22.57
10 13 2 86.25
11 -4 -3 15.9
11 -4 -2 227.67
11 -4 -1 -83.4
11 -4 0 59.35
11 -4 1 129.02
11 -4 2 112.34
11 -4 3 33.63
11 -3 -5 329.61
11 -3 -4 0.32
11 -3 -3 219.11
11 -3 -2 183.62
11 -3 -1 239.14
11 -3 0 187.74
11 -3 1 55.82
11 -3 2 -263.56
11 -3 3 -15.4
11 -3 4 102.67
11 -3 5 70.31
11 -2 -7 57.34
11 -2 -6 215.24
11 -2 -5 79.22
11 -2 -4 334.86
11 -2 -3 -38.76
11 -2 -2 51.81
11 -2 -1 11.74
11 -2 0 183.14
11 -2 1 -1.49
11 -2 2 75.54
11 -2 3 84.1
11 -2 4 36.79
11 -2 5 158.71
11 -2 5 286.25
11 -2 6 95.52
11 -2 7 583.86
11 -1 -7 306.53
11 -1 -6 567.42
11 -1 -5 210.45
11 -1 -4 107.63
11 -1 -3 122
11 -1 -2 801.16
11 -1 -1 63.64
11 -1 0 771.11
11 -1 1 188.95
11 -1 2 214.13
11 -1 3 -27.16
11 -1 4 -51.95
11 -1 5 87.17
11 -1 6 700.18
11 -1 7 566.51
11 -1 8 132.19
11 0 -8 344.41
11 0 -7 152.88
11 0 -6 61.42
11 0 -5 407.21
11 0 -4 439.27
11 0 -3 858.19
11 0 -2 311.59
11 0 -1 378.63
11 0 0 136.17
11 0 1 -9.87
11 0 2 375.2
11 0 3 182.34
11 0 4 236.05
11 0 5 10.82
11 0 6 126.43
11 0 7 199.8
11 0 8 610.83
11 1 -8 394
11 1 -7 1099.54
11 1 -6 117.25
11 1 -5 15.91
11 1 -4 182.96
11 1 -3 343.85
11 1 -2 -72
11 1 -1 10.53
11 1 0 -17.07
11 1 1 1161.47
11 1 2 -56.69
11 1 3 -55.9
11 1 4 894.76
11 1 5 615.69
11 1 6 -59.45
11 1 7 48.85
11 1 8 790.34
11 1 9 226.01
11 2 -9 488.53
11 2 -8 319.03
11 2 -7 -43.79
11 2 -6 551.37
11 2 -5 -54.46
11 2 -4 248.8
11 2 -3 47.21
11 2 -2 1259.36
11 2 -1 230.94
11 2 0 -15.54
11 2 1 112.17
11 2 2 4704.54
11 2 3 1532.96
11 2 4 19.15
11 2 5 191.69
11 2 6 138.73
11 2 7 222.74
11 2 8 83.88
11 2 9 -77.4
11 3 -9 803.9
11 3 -8 942.27
11 3 -7 105.31
11 3 -6 488.13
11 3 -5 691.49
11 3 -4 1104.18
11 3 -3 -23.67
11 3 -2 192.58
11 3 -1 45.54
11 3 0 272.82
11 3 1 47.15
11 3 2 8.65
11 3 3 34.38
11 3 4 478.03
11 3 5 269.57
11 3 6 410.51
11 3 7 251.4
11 3 8 712.73
11 3 9 375.22
11 3 10 -125.04
11 4 -9 501.28
11 4 -8 28.21
11 4 -7 7.28
11 4 -6 206.64
11 4 -5 30.03
11 4 -4 1447.2
11 4 -3 150.26
11 4 -2 984.39
11 4 -1 273.88
11 4 0 611.44
11 4 1 163.47
11 4 2 644.38
11 4 3 -6.46
11 4 4 434.54
11 4 5 -4.52
11 4 6 239.88
11 4 7 430.75
11 4 8 83.69
11 4 9 263.85
11 4 10 48.61
11 5 -9 2.61
11 5 -8 -35.38
11 5 -7 -146.34
11 5 -6 229.13
11 5 -5 605.49
11 5 -4 330.9
11 5 -3 359.2
11 5 -2 -21.3
11 5 -1 1643.49
11 5 0 3.65
11 5 1 178.23
11 5 2 96.57
11 5 3 48.53
11 5 4 1478.36
11 5 5 354.04
11 5 6 377.16
11 5 7 134.87
11 5 8 49.3
11 5 9 -72.22
11 5 10 740.87
11 6 -8 117.65
11 6 -7 -88.64
11 6 -6 277.52
11 6 -5 328.49
11 6 -4 720.18
11 6 -3 102
11 6 -2 623.79
11 6 -1 120.15
11 6 0 1957.51
11 6 1 201.16
11 6 2 113.72
11 6 3 -0.68
11 6 4 733.08
11 6 5 85.44
11 6 6 56.65
11 6 7 33.83
11 6 8 69.31
11 6 9 113.9
11 6 10 107.98
11 7 -8 -149.94
11 7 -7 1406.73
11 7 -6 767.81
11 7 -5 644.73
11 7 -4 387.55
11 7 -3 481.17
11 7 -2 4.97
11 7 -1 105.98
11 7 0 181.94
11 7 1 9.05
11 7 2 103.82
11 7 3 -60.79
11 7 4 -4.96
11 7 5 364.33
11 7 6 940.41
11 7 7 87.68
11 7 8 133.17
11 7 9 147.34
11 8 -7 286.94
11 8 -6 322.14
11 8 -5 -18.95
11 8 -4 311.16
11 8 -3 734.29
11 8 -2 -9.87
11 8 -1 -10.22
11 8 0 187.15
11 8 1 147.48
11 8 2 156.6
11 8 3 7.23
11 8 4 903.55
11 8 5 64.7
11 8 6 702.41
11 8 7 718.29
11 8 8 163.5
11 8 9 99.48
11 9 -7 313.91
11 9 -6 6.88
11 9 -5 -61.86
11 9 -4 56.45
11 9 -3 350.51
11 9 -2 -18.52
11 9 -1 223.14
11 9 0 491.22
11 9 1 267.38
11 9 2 541.57
11 9 3 96.4
11 9 4 400.82
11 9 5 291.68
11 9 6 280.1
11 9 7 110.88
11 9 8 669.35
11 10 -5 644.09
11 10 -4 487.54
11 10 -3 67.37
11 10 -2 1864.14
11 10 -1 87.72
11 10 0 -1.37
11 10 1 303.92
11 10 2 908.38
11 10 3 172.15
11 10 4 -21.34
11 10 5 166.55
11 10 6 8.92
11 10 7 -55.63
11 11 -4 0.2
11 11 -3 309.13
11 11 -2 -20.96
11 11 -1 379.68
11 11 0 17
11 11 1 110.57
11 11 2 3.32
11 11 3 282.02
11 11 4 109.87
11 11 5 108.47
11 11 6 175.65
11 12 -1 67
11 12 0 55.98
11 12 1 97.45
11 12 2 255.95
11 12 3 19.42
12 -2 -3 516.48
12 -2 -2 147.16
12 -2 -1 568.8
12 -2 0 -193.6
12 -2 1 34.06
12 -2 2 59.76
12 -2 3 819.26
12 -1 -5 198.5
12 -1 -4 4.93
12 -1 -3 465.7
12 -1 -2 129.11
12 -1 -1 40.65
12 -1 0 -6.11
12 -1 1 53.53
12 -1 2 500.57
12 -1 3 623.14
12 -1 4 -147.84
12 -1 5 120.42
12 0 -6 131.79
12 0 -5 252.39
12 0 -4 43.61
12 0 -3 430.03
12 0 -2 1211.7
12 0 -1 393.69
12 0 0 -1.6
12 0 1 472.45
12 0 2 396.98
12 0 3 128.69
12 0 4 403.79
12 0 5 7.79
12 0 6 1.82
12 1 -6 378.42
12 1 -5 1183.23
12 1 -4 260.13
12 1 -3 -172.9
12 1 -2 309.11
12 1 -1 1616.55
12 1 0 339.48
12 1 1 455.87
12 1 2 -95.78
12 1 3 171.65
12 1 4 73.91
12 1 5 1529.4
12 1 6 29.17
12 1 7 217.34
12 2 -7 484.68
12 2 -6 100.38
12 2 -5 185.08
12 2 -4 486.59
12 2 -3 613.52
12 2 -2 38.33
12 2 -1 215.97
12 2 0 -42.04
12 2 1 679.64
12 2 2 6.82
12 2 3 -48.37
12 2 4 77.81
12 2 5 277.3
12 2 6 544.61
12 2 7 359.86
12 2 8 25.57
12 3 -7 289.46
12 3 -6 1013.7
12 3 -5 764.81
12 3 -4 710.47
12 3 -3 233.77
12 3 -2 -63.5
12 3 -1 -43.67
12 3 0 147.58
12 3 1 317.25
12 3 2 102.81
12 3 3 72.49
12 3 4 38.07
12 3 5 67.83
12 3 6 227.52
12 3 7 839.63
12 3 8 582.94
12 4 -7 -318.1
12 4 -6 214.61
12 4 -5 82.12
12 4 -4 150.43
12 4 -3 60.1
12 4 -2 152.02
12 4 -1 2.42
12 4 0 468.54
12 4 1 -12.13
12 4 2 286.71
12 4 3 135.83
12 4 4 20.89
12 4 5 118.9
12 4 6 -12.45
12 4 7 1792.91
12 4 8 121.34
12 5 -7 139.11
12 5 -6 335.18
12 5 -5 -36.15
12 5 -4 -113.7
12 5 -3 197.34
12 5 -2 98.55
12 5 -1 17.85
12 5 0 576.53
12 5 1 1305.46
12 5 2 222.53
12 5 3 523.92
12 5 4 29.57
12 5 5 254.95
12 5 6 177.25
12 5 7 58.76
12 5 8 -2.19
12 6 -7 19.52
12 6 -6 98.95
12 6 -5 123.74
12 6 -4 197.28
12 6 -3 252.37
12 6 -2 -29.35
12 6 -1 712.9
12 6 0 -55.2
12 6 1 56.18
12 6 2 108.41
12 6 3 530.7
12 6 4 3.63
12 6 5 220.71
12 6 6 164.05
12 6 7 101.88
12 6 8 114.6
12 7 -6 -2.35
12 7 -5 104.46
12 7 -4 80.21
12 7 -3 96.58
12 7 -2 -41.11
12 7 -1 777.45
12 7 0 538.98
12 7 1 319.66
12 7 2 76.63
12 7 3 -25.81
12 7 4 472.19
12 7 5 255.61
12 7 6 42.11
12 7 7 42.62
12 7 8 232.98
12 8 -6 233.98
12 8 -5 -13.29
12 8 -4 56.07
12 8 -3 828.71
12 8 -2 1103.24
12 8 -1 213.24
12 8 0 -5.27
12 8 1 8.17
12 8 2 -9.35
12 8 3 149.99
12 8 4 85.83
12 8 5 915.4
12 8 6 323.56
12 8 7 117.04
12 9 -5 5087.98
12 9 -4 124.72
12 9 -3 59.37
12 9 -2 828.27
12 9 -1 1209.92
12 9 0 130.94
12 9 1 746.79
12 9 2 161.46
12 9 3 53.48
12 9 4 -180.6
12 9 5 202.59
12 9 6 456.26
12 10 -3 -130.02
12 10 -2 50.33
12 10 -1 120.8
12 10 0 51.16
12 10 1 47.76
12 10 2 9.1
12 10 3 31.67
12 10 4 -300.56
12 10 5 -60.71
12 11 -1 46.54
12 11 0 -25.19
12 11 1 66.31
12 11 2 -9.1
12 11 3 305.11
13 0 -2 473.65
13 0 -1 -93.94
13 0 0 64.8
13 0 1 243.63
13 0 2 -0.76
13 1 -3 -41.25
13 1 -2 541.07
13 1 -1 3.01
13 1 0 88.71
13 1 1 624.25
13 1 2 1077.55
13 1 3 432.08
13 1 4 64.82
13 2 -4 8.01
13 2 -3 -34.1
13 2 -2 208.25
13 2 -1 -95.63
13 2 0 59.47
13 2 1 356.78
13 2 2 -191.93
13 2 3 82.16
13 2 4 223.79
13 2 5 286.75
13 3 -5 5.71
13 3 -4 220.8
13 3 -3 -165.95
13 3 -2 261.38
13 3 -1 73.31
13 3 0 499.38
13 3 1 142.7
13 3 2 150.75
13 3 3 252.75
13 3 4 28.52
13 3 5 188.99
13 3 6 76.31
13 4 -5 -146.34
13 4 -4 220.32
13 4 -3 163.95
13 4 -2 343.66
13 4 -1 595.24
13 4 0 35.59
13 4 1 326.01
13 4 2 71.24
13 4 3 132.81
13 4 4 1003.75
13 4 5 -5.6
13 4 6 109.67
13 5 -5 -153.56
13 5 -4 109.66
13 5 -3 67.08
13 5 -2 45.42
13 5 -1 350.5
13 5 0 737.14
13 5 1 15.65
13 5 2 70.2
13 5 3 15.02
13 5 4 112.9
13 5 5 25.05
13 5 6 151.68
13 6 -5 -22.63
13 6 -4 -23.98
13 6 -3 8
13 6 -2 118.48
13 6 -1 96.02
13 6 0 -9.72
13 6 1 134.77
13 6 2 395
13 6 3 218.28
13 6 4 -79.16
13 6 5 400.43
13 6 6 109.69
13 7 -4 23.13
13 7 -3 186.89
13 7 -2 65.44
13 7 -1 14.19
13 7 0 260.42
13 7 1 322.49
13 7 2 152.04
13 7 3 140.05
13 7 4 98.6
13 7 5 45.04
13 8 -3 380.49
13 8 -2 264.58
13 8 -1 249.63
13 8 0 280.16
13 8 1 75.85
13 8 2 385.7
13 8 3 -45.71
13 8 4 453.95
13 8 5 161.34
13 9 -2 686.47
13 9 -1 84.97
13 9 0 -54.19
13 9 1 132.38
13 9 2 267.49
13 9 3 84.32
14 5 0 96.38
14 5 1 86.02
