#------------------------------------------------------------------------------
#$Date: 2016-11-08 22:10:22 +0200 (Tue, 08 Nov 2016) $
#$Revision: 188249 $
#$URL: file:///home/coder/svn-repositories/cod/cif/1/54/41/1544141.cif $
#------------------------------------------------------------------------------
#
# This file is available in the Crystallography Open Database (COD),
# http://www.crystallography.net/
#
# All data on this site have been placed in the public domain by the
# contributors.
#
data_1544141
loop_
_publ_author_name
'Milshtein, Jarrod D.'
'Kaur, Aman Preet'
'Casselman, Matthew D.'
'Kowalski, Jeffrey A.'
'Modekrutti, Subrahmanyam'
'Zhang, Peter L.'
'Harsha Attanayake, N.'
'Elliott, Corrine F.'
'Parkin, Sean R.'
'Risko, Chad'
'Brushett, Fikile R.'
'Odom, Susan A.'
_publ_section_title
;
 High current density, long duration cycling of soluble organic active
 species for non-aqueous redox flow batteries
;
_journal_issue                   11
_journal_name_full               'Energy Environ. Sci.'
_journal_page_first              3531
_journal_paper_doi               10.1039/C6EE02027E
_journal_volume                  9
_journal_year                    2016
_chemical_formula_moiety         'C15 H15 N O S'
_chemical_formula_sum            'C15 H15 N O S'
_chemical_formula_weight         257.34
_space_group_crystal_system      monoclinic
_space_group_IT_number           14
_space_group_name_Hall           '-P 2yn'
_space_group_name_H-M_alt        'P 1 21/n 1'
_symmetry_space_group_name_Hall  '-P 2yn'
_symmetry_space_group_name_H-M   'P 1 21/n 1'
_atom_sites_solution_hydrogens   difmap
_atom_sites_solution_primary     direct
_atom_sites_solution_secondary   difmap
_audit_creation_method           'SHELXL-2014/7 and CIFFIX'
_audit_update_record
;
2016-07-11 deposited with the CCDC.
2016-09-15 downloaded from the CCDC.
;
_cell_angle_alpha                90
_cell_angle_beta                 99.37(3)
_cell_angle_gamma                90
_cell_formula_units_Z            4
_cell_length_a                   8.7624(18)
_cell_length_b                   7.6786(15)
_cell_length_c                   19.134(4)
_cell_measurement_reflns_used    3184
_cell_measurement_temperature    90.0(2)
_cell_measurement_theta_max      27.48
_cell_measurement_theta_min      1.00
_cell_volume                     1270.2(5)
_computing_cell_refinement       '<i>SCALEPACK</i> (Otwinowski & Minor, 2006)'
_computing_data_collection       '<i>COLLECT</i> (Nonius, 1998)'
_computing_data_reduction        '<i>DENZO-SMN</i> (Otwinowski & Minor, 2006)'
_computing_molecular_graphics    '<i>XP in SHELXTL</i> (Sheldrick, 2008)'
_computing_publication_material
'<i>SHELX</i> (Sheldrick, 2008) and <i>CIFFIX</i> (Parkin, 2013)'
_computing_structure_refinement  '<i>SHELXL-2014/7</i> (Sheldrick, 2015b)'
_computing_structure_solution    '<i>SHELXT</i> (Sheldrick, 2015a)'
_diffrn_ambient_temperature      90.0(2)
_diffrn_detector_area_resol_mean 9.1
_diffrn_measured_fraction_theta_full 1.000
_diffrn_measured_fraction_theta_max 1.000
_diffrn_measurement_device_type  'Nonius KappaCCD diffractometer'
_diffrn_measurement_method       '\f and \w scans at fixed \c = 55\%'
_diffrn_radiation_type           MoK\a
_diffrn_radiation_wavelength     0.71073
_diffrn_reflns_av_R_equivalents  0.0339
_diffrn_reflns_av_unetI/netI     0.0206
_diffrn_reflns_Laue_measured_fraction_full 1.000
_diffrn_reflns_Laue_measured_fraction_max 1.000
_diffrn_reflns_limit_h_max       11
_diffrn_reflns_limit_h_min       -11
_diffrn_reflns_limit_k_max       9
_diffrn_reflns_limit_k_min       -9
_diffrn_reflns_limit_l_max       24
_diffrn_reflns_limit_l_min       -24
_diffrn_reflns_number            27500
_diffrn_reflns_point_group_measured_fraction_full 1.000
_diffrn_reflns_point_group_measured_fraction_max 1.000
_diffrn_reflns_theta_full        25.242
_diffrn_reflns_theta_max         27.497
_diffrn_reflns_theta_min         2.158
_diffrn_source                   'fine-focus sealed-tube'
_exptl_absorpt_coefficient_mu    0.241
_exptl_absorpt_correction_T_max  0.958
_exptl_absorpt_correction_T_min  0.808
_exptl_absorpt_correction_type   multi-scan
_exptl_absorpt_process_details   '<i>SADABS</i> (Krause et al., 2015)'
_exptl_crystal_colour            colourless
_exptl_crystal_density_diffrn    1.346
_exptl_crystal_description       block
_exptl_crystal_F_000             544
_exptl_crystal_size_max          0.420
_exptl_crystal_size_mid          0.340
_exptl_crystal_size_min          0.220
_refine_diff_density_max         0.546
_refine_diff_density_min         -0.327
_refine_diff_density_rms         0.063
_refine_ls_extinction_method     none
_refine_ls_goodness_of_fit_ref   1.105
_refine_ls_hydrogen_treatment    constr
_refine_ls_matrix_type           full
_refine_ls_number_parameters     164
_refine_ls_number_reflns         2912
_refine_ls_number_restraints     0
_refine_ls_restrained_S_all      1.105
_refine_ls_R_factor_all          0.0546
_refine_ls_R_factor_gt           0.0432
_refine_ls_shift/su_max          0.001
_refine_ls_shift/su_mean         0.000
_refine_ls_structure_factor_coef Fsqd
_refine_ls_weighting_details
'w=1/[\s^2^(Fo^2^)+(0.0653P)^2^+0.5595P] where P=(Fo^2^+2Fc^2^)/3'
_refine_ls_weighting_scheme      calc
_refine_ls_wR_factor_gt          0.1130
_refine_ls_wR_factor_ref         0.1197
_reflns_Friedel_coverage         0.000
_reflns_number_gt                2331
_reflns_number_total             2912
_reflns_threshold_expression     'I > 2\s(I)'
_cod_data_source_file            c6ee02027e2.cif
_cod_data_source_block           k16007
_cod_depositor_comments
'Adding full bibliography for 1544139--1544142.cif.'
_cod_database_code               1544141
_shelx_shelxl_version_number     2014/7
_shelx_space_group_comment
; 
The symmetry employed for this shelxl refinement is uniquely defined 
by the following loop, which should always be used as a source of 
symmetry information in preference to the above space-group names. 
They are only intended as comments. 
;
_shelx_estimated_absorpt_t_min   0.905
_shelx_estimated_absorpt_t_max   0.949
_exptl_absorpt_special_details
; 
In addition to absorption, multi-scan techniques also correct other slowly 
varying changes in scale factor over reciprocal space, such as those caused 
by x-ray beam inhomogeneity, goniometer imperfection, crystal decomposition, 
crystal longer than the x-ray beam cross section, absorption by the crystal 
mount etc.  These account, by and large, for much of the difference between 
estimated values of Tmin and Tmax and the _exptl_absorpt_correction_ values. 
;
_shelx_res_file
; 
 
    k16007.res created by SHELXL-2014/7 
 
 
TITL k16007s : space group P21/n 
CELL  0.71073   8.7624   7.6786  19.1339   90.000   99.366   90.000 
ZERR    4.000   0.0018   0.0015   0.0038    0.000    0.030    0.000 
LATT  1 
SYMM 1/2-X, 1/2+Y, 1/2-Z 
SFAC C H N O S 
UNIT 60 60 4 4 4 
TEMP -183 
SIZE 0.42 0.34 0.22 
REM FORM block 
REM COLR colourless 
OMIT -2 55 
CONF 
ACTA 
L.S. 10 
BOND $H 
LIST 4 
FMAP 2 
PLAN 10 
REM EXTI    0.000000 not needed. 
WGHT    0.065300    0.559500 
FVAR       0.77699 
N1    3    0.503469    0.247568    0.348069    11.00000    0.01870    0.02436 = 
         0.01773   -0.00005    0.00414   -0.00352 
S1    5    0.638419    0.500850    0.257604    11.00000    0.02319    0.02224 = 
         0.02210    0.00260    0.00257   -0.00320 
O1    4    0.334236    0.187536    0.507639    11.00000    0.03168    0.02429 = 
         0.02245   -0.00173    0.01299   -0.00441 
C1    1    0.439827    0.236831    0.275439    11.00000    0.01802    0.02154 = 
         0.02041   -0.00134    0.00357    0.00279 
C2    1    0.320773    0.122369    0.249581    11.00000    0.02093    0.02475 = 
         0.02052   -0.00026    0.00578   -0.00056 
AFIX  43 
H2A   2    0.285097    0.041385    0.280820    11.00000   -1.20000 
AFIX   0 
C3    1    0.253711    0.125121    0.178872    11.00000    0.01980    0.02644 = 
         0.02312   -0.00467    0.00211   -0.00136 
AFIX  43 
H3A   2    0.168928    0.050421    0.162610    11.00000   -1.20000 
AFIX   0 
C4    1    0.308850    0.235195    0.131925    11.00000    0.02354    0.03027 = 
         0.01971   -0.00096    0.00137    0.00451 
AFIX  43 
H4A   2    0.263047    0.236264    0.083382    11.00000   -1.20000 
AFIX   0 
C5    1    0.431411    0.343927    0.156211    11.00000    0.02265    0.02371 = 
         0.02144    0.00143    0.00455    0.00343 
AFIX  43 
H5A   2    0.472458    0.417294    0.123855    11.00000   -1.20000 
AFIX   0 
C6    1    0.495074    0.347002    0.227349    11.00000    0.02048    0.02138 = 
         0.02207   -0.00123    0.00425    0.00108 
C7    1    0.742234    0.379122    0.327332    11.00000    0.02086    0.02022 = 
         0.01969   -0.00230    0.00274   -0.00109 
C8    1    0.899996    0.402873    0.344573    11.00000    0.02105    0.02485 = 
         0.02541   -0.00212    0.00711   -0.00215 
AFIX  43 
H8A   2    0.952221    0.475022    0.315756    11.00000   -1.20000 
AFIX   0 
C9    1    0.982201    0.322684    0.403268    11.00000    0.01841    0.02958 = 
         0.02856   -0.00352    0.00363   -0.00108 
AFIX  43 
H9A   2    1.090012    0.343192    0.416238    11.00000   -1.20000 
AFIX   0 
C10   1    0.906682    0.212585    0.442942    11.00000    0.02288    0.02634 = 
         0.02449   -0.00068    0.00202    0.00399 
AFIX  43 
H10A  2    0.962907    0.156897    0.483468    11.00000   -1.20000 
AFIX   0 
C11   1    0.749837    0.182158    0.424443    11.00000    0.02369    0.02112 = 
         0.02136    0.00026    0.00579    0.00063 
AFIX  43 
H11A  2    0.699815    0.102425    0.451218    11.00000   -1.20000 
AFIX   0 
C12   1    0.664832    0.267785    0.366771    11.00000    0.01970    0.02107 = 
         0.01968   -0.00312    0.00496   -0.00062 
C13   1    0.420089    0.165314    0.398880    11.00000    0.02026    0.02424 = 
         0.01983   -0.00028    0.00463   -0.00396 
AFIX  23 
H13A  2    0.468687    0.051805    0.413454    11.00000   -1.20000 
H13B  2    0.312020    0.143116    0.376221    11.00000   -1.20000 
AFIX   0 
C14   1    0.420323    0.278059    0.463478    11.00000    0.02165    0.02217 = 
         0.01967    0.00126    0.00548   -0.00353 
AFIX  23 
H14A  2    0.527426    0.297545    0.488011    11.00000   -1.20000 
H14B  2    0.372304    0.392417    0.449891    11.00000   -1.20000 
AFIX   0 
C15   1    0.311329    0.288488    0.566554    11.00000    0.03572    0.03408 = 
         0.02428   -0.00492    0.01340   -0.00391 
AFIX 137 
H15A  2    0.252460    0.220853    0.596504    11.00000   -1.50000 
H15B  2    0.253771    0.394248    0.550201    11.00000   -1.50000 
H15C  2    0.411825    0.320572    0.593933    11.00000   -1.50000 
 
AFIX   0 
HKLF 4 
 
REM  k16007s : space group P21/n 
REM R1 =  0.0432 for    2331 Fo > 4sig(Fo)  and  0.0546 for all    2912 data 
REM    164 parameters refined using      0 restraints 
 
END 
 
WGHT      0.0653      0.5611 
 
REM Highest difference peak  0.546,  deepest hole -0.327,  1-sigma level  0.063 
Q1    1   0.6747  0.1923  0.4962  11.00000  0.05    0.33 
Q2    1   0.2457  0.1776  0.5789  11.00000  0.05    0.29 
Q3    1   0.4211  0.0074  0.2715  11.00000  0.05    0.28 
Q4    1   0.5465  0.3962  0.2363  11.00000  0.05    0.27 
Q5    1   0.6934  0.3064  0.3436  11.00000  0.05    0.26 
Q6    1   0.3423  0.2536  0.6363  11.00000  0.05    0.25 
Q7    1   0.4998  0.2432  0.6570  11.00000  0.05    0.24 
Q8    1   0.3038 -0.1274  0.2482  11.00000  0.05    0.24 
Q9    1   1.1233  0.2853  0.4272  11.00000  0.05    0.23 
Q10   1   0.3418  0.3159  0.1474  11.00000  0.05    0.23 
;
_shelx_res_checksum              23318
_shelx_hkl_file
;
   1   0   0 0.09450 0.51003   1
   1   0   0 -0.2545 0.30932   4
  -1   0   0 0.07003 0.44073   3
  -1   0   0 1.00327 0.72903   6
   1   0   0 0.37689 0.50507   6
  -1   0   0 0.16059 0.31249   8
  -1   0   0 0.49918 0.43688   4
   1   0   0 -0.5977 0.44378   8
   2   0   0 45.3110 2.32448   8
  -2   0   0 44.2606 2.05719   4
  -2   0   0 47.7213 2.66229   1
   2   0   0 43.7029 2.57665   1
  -2   0   0 46.1677 2.52178   3
  -2   0   0 42.9250 2.41909   6
  -2   0   0 46.3606 2.05283   8
   2   0   0 46.1372 2.44041   3
   2   0   0 44.2088 1.93429   4
   2   0   0 47.4331 2.41626   6
  -3   0   0 -0.1378 1.15712   8
   3   0   0 -0.0635 1.22149   8
   3   0   0 0.69285 2.22599   1
   3   0   0 -0.1041 1.42041   6
  -3   0   0 0.82174 1.34494   6
  -3   0   0 0.39699 1.27182   3
   3   0   0 0.27768 1.20832   4
  -3   0   0 -0.4036 1.16856   4
  -3   0   0 -0.5859 1.41797   1
   3   0   0 0.20685 1.75938   3
  -4   0   0 -0.0800 1.49786   4
   4   0   0 -0.6542 1.66423   4
   4   0   0 -0.3643 1.86677   6
  -4   0   0 0.78036 2.02601   1
   4   0   0 1.63668 1.74873   8
  -4   0   0 2.27346 2.47849   3
  -4   0   0 1.09930 1.59432   8
   4   0   0 -0.3207 3.03851   1
   4   0   0 1.53035 1.68253   3
  -4   0   0 0.99176 1.95219   6
   5   0   0 -0.0196 2.15849   4
  -5   0   0 0.13243 1.95424   4
   5   0   0 0.59534 2.36266   8
  -5   0   0 -0.2567 3.42417   6
   5   0   0 -2.3438 3.19475   6
  -5   0   0 0.93119 2.25086   3
  -5   0   0 0.09857 2.34331   1
   5   0   0 -0.7073 2.81190   3
  -5   0   0 -0.0574 2.00553   8
   5   0   0 -0.8919 2.74443   1
  -6   0   0 38.3652 3.16447   4
   6   0   0 39.0276 4.65999   6
   6   0   0 43.2873 4.31727   3
   6   0   0 44.1980 3.58340   8
  -6   0   0 42.7091 5.54084   1
  -6   0   0 48.8985 4.09641   5
  -6   0   0 37.2698 5.31073   3
  -6   0   0 42.3448 3.69546   8
   6   0   0 46.1841 4.08899   4
  -7   0   0 -1.1996 2.58204   2
  -7   0   0 -3.1521 2.98199   5
   7   0   0 0.75244 2.45665   8
  -7   0   0 0.91544 2.86275   8
  -7   0   0 -0.3602 2.07663   4
   7   0   0 1.80768 3.49850   4
  -7   0   0 1.21828 4.94492   1
   7   0   0 -0.6351 3.42569   6
   7   0   0 35.1259 22.1387   3
  -8   0   0 45.8962 4.98125   8
  -8   0   0 64.1115 6.54023   2
  -8   0   0 51.5595 6.74015   5
   8   0   0 52.0135 6.97766   3
   8   0   0 54.1393 6.68655   6
  -8   0   0 57.6197 6.83505   1
   9   0   0 1.79813 7.48303   6
   9   0   0 -0.5471 4.42061   3
  -9   0   0 5.85386 5.23566   5
  -9   0   0 -0.9932 5.27207   1
  -9   0   0 -5.3642 3.84908   2
  -9   0   0 1.72158 4.13770   8
  10   0   0 16.8714 7.94912   3
 -10   0   0 15.0091 7.01172   2
  10   0   0 15.2053 7.17136   6
 -10   0   0 7.42358 8.93950   1
 -11   0   0 -1.7367 7.07742   2
 -11   0   0 2.97110 7.46386   1
  11   0   0 -1.6137 6.22890   3
  11   0   0 -2.1821 7.28741   6
   0  -1   0 -12.537 0.63009   9
   0  -1   0 -12.937 0.66937   8
   0   1   0 -12.385 0.67922   8
   0   1   0 -13.000 0.54079   7
   0   1   0 -13.772 0.47516   2
   0   1   0 -12.538 0.71441   6
   0   1   0 -13.225 0.45617   9
   0   1   0 -13.259 0.47963   4
  -1  -1   0 318.248 7.88725   4
  -1  -1   0 309.133 10.1238   9
  -1  -1   0 313.820 10.6219   8
   1  -1   0 322.408 10.6601   1
   1  -1   0 322.597 10.6634   7
  -1  -1   0 317.199 8.63975   2
   1  -1   0 316.776 9.86201   6
  -1  -1   0 324.561 10.8960   3
  -1  -1   0 307.582 9.91297   5
  -1   1   0 330.528 10.5913   3
   1   1   0 318.692 9.17450   8
  -1   1   0 337.663 11.6657   1
  -1   1   0 334.505 12.6438   7
  -1   1   0 278.134 16.5070   9
   1   1   0 322.087 10.5339   2
   1   1   0 326.026 11.7680   4
   1   1   0 325.065 10.1429   3
   1   1   0 318.304 12.5098   5
  -1   1   0 335.180 10.1832   6
   2  -1   0 8629.29 253.892   1
  -2  -1   0 8934.36 273.112   3
  -2  -1   0 8560.39 258.100   2
   2  -1   0 9249.12 279.479   6
  -2  -1   0 9299.42 341.165   1
   2  -1   0 8761.65 253.067   3
  -2  -1   0 9066.53 337.143   4
  -2  -1   0 8969.42 344.704   8
  -2   1   0 8780.43 243.588   3
   2   1   0 8777.94 256.374   8
  -2   1   0 9092.35 297.554   6
  -2   1   0 9124.96 379.372   1
   2   1   0 8706.35 286.384   4
   2   1   0 9309.21 297.890   2
   2   1   0 9190.27 370.841   1
   2   1   0 8979.97 301.067   3
  -3  -1   0 131.674 4.67553   2
   3  -1   0 140.850 5.80246   4
   3  -1   0 137.754 4.53803   3
   3  -1   0 141.091 5.69274   6
  -3  -1   0 129.130 4.30860   5
  -3  -1   0 136.721 6.87314   8
  -3  -1   0 139.720 5.59270   4
   3  -1   0 137.562 5.56345   1
  -3  -1   0 132.255 5.81128   1
  -3  -1   0 141.435 5.51877   3
   3   1   0 138.915 5.45096   3
  -3   1   0 142.489 6.98581   1
  -3   1   0 140.122 4.91242   8
   3   1   0 143.512 9.86845   1
  -3   1   0 140.138 5.68407   3
   3   1   0 135.016 5.62571   6
   3   1   0 137.936 6.82870   8
  -3   1   0 139.663 4.82612   4
   3   1   0 134.566 5.78810   4
  -3   1   0 144.186 6.64573   6
  -4  -1   0 380.511 14.2900   4
  -4  -1   0 388.603 18.5451   8
  -4  -1   0 352.715 11.2758   2
  -4  -1   0 382.689 15.6252   3
  -4  -1   0 363.529 13.2238   5
  -4  -1   0 378.202 11.6458   1
   4  -1   0 372.555 11.6385   6
   4  -1   0 382.320 14.6703   4
   4  -1   0 355.899 11.5389   3
   4  -1   0 362.581 12.0768   1
  -4   1   0 381.084 19.2426   3
   4   1   0 378.402 15.9999   1
   4   1   0 362.443 10.1951   3
   4   1   0 356.226 10.0794   6
   4   1   0 388.141 16.3108   8
  -4   1   0 385.671 12.1177   6
  -4   1   0 372.428 14.1854   8
  -4   1   0 389.598 15.8168   1
  -4   1   0 379.981 21.2812   4
   4   1   0 377.449 14.3371   4
   5  -1   0 70.5856 5.15503   6
  -5  -1   0 68.8345 5.68685   1
  -5  -1   0 70.2123 4.32323   2
   5  -1   0 70.1374 3.40424   4
   5  -1   0 60.7770 5.84189   1
  -5  -1   0 60.5137 4.93512   3
  -5  -1   0 67.4053 3.14730   5
  -5  -1   0 66.4742 4.38863   4
   5  -1   0 64.9583 4.07019   3
  -5  -1   0 67.6437 4.07116   8
  -5   1   0 61.3682 2.88944   4
   5   1   0 60.4233 5.86081   1
  -5   1   0 51.3849 4.36084   3
  -5   1   0 65.7888 3.17049   8
  -5   1   0 53.7104 5.43627   6
   5   1   0 60.7888 5.46987   6
   5   1   0 68.5990 5.38765   3
  -5   1   0 66.4386 4.95190   1
   5   1   0 70.3502 4.18673   4
   5   1   0 65.6527 4.51260   8
   6  -1   0 304.170 13.0903   4
  -6  -1   0 298.734 9.50833   8
   6  -1   0 312.361 10.1547   3
  -6  -1   0 330.175 12.1583   1
  -6  -1   0 294.734 11.2976   2
  -6  -1   0 308.241 10.7577   5
  -6  -1   0 311.880 11.6799   4
   6  -1   0 320.562 11.3591   6
   6   1   0 327.366 21.4109   8
  -6   1   0 311.156 11.0059   1
   6   1   0 283.812 12.3902   6
  -6   1   0 279.455 18.5610   3
   6   1   0 307.979 17.5788   4
  -6   1   0 296.509 11.5737   8
   6   1   0 295.620 14.8811   3
  -6   1   0 305.326 12.1562   4
  -7  -1   0 368.271 15.8551   5
  -7  -1   0 360.414 11.8478   2
  -7  -1   0 366.683 13.8125   1
  -7  -1   0 367.829 12.4943   8
   7  -1   0 357.084 17.9739   6
   7  -1   0 376.322 17.5426   4
   7  -1   0 386.109 12.3641   3
  -7   1   0 372.416 13.5515   1
  -7   1   0 353.855 15.7223   8
   7   1   0 383.370 17.0283   3
   7   1   0 346.382 15.1963   6
   8  -1   0 42.6462 4.89255   4
  -8  -1   0 39.2339 5.49647   8
   8  -1   0 43.6264 7.93360   6
  -8  -1   0 53.3620 4.80902   5
   8  -1   0 51.3900 5.64115   3
  -8  -1   0 61.0525 6.94826   1
  -8  -1   0 49.3489 5.57325   2
   8   1   0 42.4958 6.21378   6
  -8   1   0 39.7723 4.00224   8
  -8   1   0 47.6208 6.30526   1
   8   1   0 44.9702 7.42232   3
  -9  -1   0 1.64059 4.98715   2
   9  -1   0 -0.0414 5.83441   3
   9  -1   0 5.10732 7.77989   6
  -9  -1   0 1.19402 5.39477   1
  -9  -1   0 1.48430 5.02526   8
   9   1   0 2.38933 7.13275   3
   9   1   0 -0.6374 4.82522   6
  -9   1   0 2.93999 6.57624   5
  -9   1   0 2.37999 7.37764   1
 -10  -1   0 147.269 11.6547   1
  10  -1   0 146.277 11.0445   3
 -10  -1   0 146.123 10.0556   2
  10  -1   0 132.098 13.5591   6
 -10   1   0 178.124 19.4193   5
 -10   1   0 159.757 10.6413   2
  10   1   0 136.051 13.1377   6
  10   1   0 148.664 10.9477   3
 -10   1   0 143.601 11.5471   1
  11  -1   0 132.120 15.5784   6
  11  -1   0 131.010 15.9008   7
  11   1   0 146.665 13.3341   3
  11   1   0 153.284 12.8898   6
 -11   1   0 152.488 13.9409   2
 -11   1   0 137.426 14.5426   1
   0  -2   0 9618.94 340.177   9
   0  -2   0 9166.79 412.693   7
   0  -2   0 9625.58 377.747   8
   0   2   0 9771.40 257.497   6
   0   2   0 9694.01 232.280   7
   0   2   0 9783.86 302.619   4
   0   2   0 9999.99 292.423   9
   0   2   0 9572.38 266.746   8
   0   2   0 9808.39 404.633   2
   0   2   0 9705.97 336.580   1
  -1  -2   0 1694.41 51.6850   9
  -1  -2   0 1784.49 51.8975   4
  -1  -2   0 1674.80 56.2762   3
  -1  -2   0 1689.12 68.6434   8
   1  -2   0 1640.37 67.3368   7
   1  -2   0 1663.75 55.7292   1
  -1  -2   0 1691.12 51.4116   2
   1  -2   0 1723.24 52.5832   6
   1  -2   0 1728.17 55.9195   9
  -1   2   0 1748.17 59.3871   9
   1   2   0 1713.82 68.5247   3
   1   2   0 1735.94 51.4296   7
   1   2   0 1734.99 66.1108   8
   1   2   0 1728.16 53.4909   2
   1   2   0 1682.26 55.6270   5
  -1   2   0 1725.06 66.9960   6
  -1   2   0 1708.08 73.8245   7
   1   2   0 1723.98 52.1127   4
   1   2   0 1696.47 49.7276   9
  -1   2   0 1712.56 45.9404   1
  -1   2   0 1705.60 55.1622   8
  -2  -2   0 351.676 11.3341   8
  -2  -2   0 351.458 8.23053   2
  -2  -2   0 339.687 14.8557   5
   2  -2   0 355.266 10.5714   7
   2  -2   0 346.750 16.0731   1
  -2  -2   0 348.707 12.4014   4
  -2  -2   0 347.742 16.2241   3
   2  -2   0 368.184 10.2938   6
  -2  -2   0 352.424 7.78737   9
  -2   2   0 364.309 10.9519   1
  -2   2   0 344.649 17.9806   8
  -2   2   0 360.209 17.7353   7
  -2   2   0 358.263 18.8362   9
   2   2   0 366.596 15.2014   5
   2   2   0 346.562 10.5065   3
   2   2   0 358.227 12.1431   4
   2   2   0 370.750 9.73819   2
   2   2   0 361.375 15.2573   8
  -2   2   0 376.651 11.8481   6
  -2   2   0 356.570 10.7733   3
  -3  -2   0 165.891 6.66292   3
  -3  -2   0 165.999 6.28564   2
   3  -2   0 168.567 6.36275   6
   3  -2   0 154.913 6.39154   1
  -3  -2   0 161.065 7.42268   8
  -3  -2   0 160.639 7.21143   4
   3  -2   0 180.602 6.89976   7
  -3  -2   0 168.119 6.04802   5
   3  -2   0 172.693 6.08268   3
   3   2   0 171.365 6.13276   2
  -3   2   0 179.554 9.26824   6
   3   2   0 163.474 6.21989   8
   3   2   0 171.249 6.98584   3
   3   2   0 167.241 6.31938   5
  -3   2   0 187.504 7.36471   1
  -3   2   0 159.572 5.75656   3
   3   2   0 174.698 6.04675   4
   3   2   0 166.902 7.71492   1
  -3   2   0 171.237 6.35015   4
   4  -2   0 1093.41 45.8657   1
  -4  -2   0 1130.92 27.1083   4
  -4  -2   0 1092.32 29.4028   2
   4  -2   0 1089.77 28.4629   6
  -4  -2   0 1078.46 31.6466   5
   4  -2   0 1096.89 28.6308   3
  -4  -2   0 1144.37 32.4471   3
  -4  -2   0 1121.14 31.9491   8
   4  -2   0 1151.65 30.9251   7
  -4   2   0 1158.19 35.1138   4
   4   2   0 1143.30 25.3166   3
   4   2   0 1159.28 34.2574   4
   4   2   0 1192.86 39.0345   1
   4   2   0 1098.68 24.4362   6
  -4   2   0 1122.44 44.9306   8
   4   2   0 1173.58 31.3090   8
  -4   2   0 1155.03 36.6147   3
  -4   2   0 1152.21 40.2388   1
  -4   2   0 1158.54 44.4454   6
   5  -2   0 12.2132 1.60305   4
  -5  -2   0 12.0628 3.43987   8
   5  -2   0 11.4634 3.51541   7
   5  -2   0 11.2177 2.24460   3
  -5  -2   0 13.5491 2.08662   2
  -5  -2   0 7.70937 2.51521   4
  -5  -2   0 11.8499 1.28549   5
   5  -2   0 10.4967 3.29809   6
   5  -2   0 5.51427 4.65661   1
   5   2   0 12.9746 2.98741   6
   5   2   0 10.6204 4.28424   3
  -5   2   0 7.86529 2.93064   3
  -5   2   0 7.01774 3.93726   1
  -5   2   0 9.51743 1.19549   8
   5   2   0 6.84150 3.60102   4
   5   2   0 12.2757 2.99058   8
  -5   2   0 8.51574 1.15565   4
  -6  -2   0 3.23415 1.87181   5
   6  -2   0 6.76823 4.88528   6
  -6  -2   0 2.27775 3.56592   8
  -6  -2   0 3.25955 2.68469   4
   6  -2   0 4.26577 2.31105   3
  -6  -2   0 6.72686 2.85124   2
   6  -2   0 3.28445 2.20639   4
   6  -2   0 0.66745 4.80225   7
   6   2   0 4.37896 3.25144   6
  -6   2   0 2.62085 1.57774   4
  -6   2   0 1.45212 3.23484   3
   6   2   0 6.06137 3.53507   3
  -6   2   0 4.23929 4.39994   1
  -6   2   0 4.28953 1.64944   8
  -7  -2   0 4.80202 4.28028   8
  -7  -2   0 11.3111 3.73581   2
   7  -2   0 2.82336 5.85865   7
   7  -2   0 5.57355 4.06168   3
   7  -2   0 4.38177 2.27307   4
   7  -2   0 4.74961 5.60291   6
  -7  -2   0 2.54429 2.00191   5
  -7  -2   0 6.57517 1.68001   5
  -7   2   0 6.74955 4.00132   1
  -7   2   0 2.22246 1.71097   8
   7   2   0 1.36027 5.48484   3
  -7   2   0 6.50074 4.45962   3
   7   2   0 -0.1604 3.45754   6
   8  -2   0 411.570 16.5347   7
  -8  -2   0 422.164 19.7412   8
   8  -2   0 391.054 15.7493   6
  -8  -2   0 414.406 18.1420   2
   8  -2   0 374.237 22.4537   3
  -8   2   0 422.477 16.9610   1
   8   2   0 398.634 18.1777   3
   8   2   0 395.207 16.3905   6
   9  -2   0 3.85104 8.24914   7
   9  -2   0 7.70121 5.79410   3
  -9  -2   0 7.12886 4.86479   2
  -9  -2   0 2.43064 5.97640   8
   9  -2   0 4.03487 8.10499   6
  -9   2   0 7.23496 7.90532   5
  -9   2   0 4.15637 5.51344   1
   9   2   0 -0.7576 7.25851   6
 -10  -2   0 133.325 10.4400   8
  10  -2   0 137.843 11.7622   6
  10  -2   0 132.689 12.2339   7
  10  -2   0 163.316 13.6787   3
 -10   2   0 135.638 13.4301   5
 -10   2   0 135.272 11.5207   1
  10   2   0 133.936 11.3274   6
  11  -2   0 4.25371 8.93485   7
  11  -2   0 2.83939 8.93581   6
 -11   2   0 7.21350 9.93959   2
  11   2   0 4.72925 8.06538   6
  11   2   0 6.57241 11.0699   3
 -11   2   0 -0.1965 10.6090   1
   0  -3   0 1.48371 2.05907   7
   0  -3   0 0.88604 1.24126   8
   0  -3   0 -1.0983 1.64827   9
   0   3   0 -1.3300 1.88141   6
   0   3   0 -2.0085 1.22095   2
   0   3   0 -2.1391 2.44535   1
   0   3   0 0.00386 2.17259   3
   0   3   0 -0.6184 1.11960   9
   0   3   0 -0.6638 1.96217   7
   0   3   0 -0.1836 1.29784   4
   0   3   0 -0.5890 1.76777   5
   0   3   0 -0.5792 1.25300   8
   1  -3   0 321.993 11.1796   6
   1  -3   0 329.059 9.59939   7
  -1  -3   0 312.733 9.38760   9
   1  -3   0 322.610 10.2753   1
   1  -3   0 324.736 10.4164   9
   1  -3   0 331.586 11.5948   8
  -1  -3   0 332.645 10.0358   8
  -1  -3   0 328.308 10.1184   2
  -1   3   0 327.645 10.5491   1
  -1   3   0 338.545 8.27862   4
   1   3   0 321.064 11.9009   3
  -1   3   0 331.514 10.5032   8
   1   3   0 333.154 14.5786   7
  -1   3   0 324.250 9.58012   7
   1   3   0 338.916 8.66275   8
  -1   3   0 327.434 14.8110   6
  -1   3   0 339.407 11.3209   9
   1   3   0 337.425 9.31169   2
   1   3   0 335.688 9.39438   4
   1   3   0 337.369 9.21696   9
   1   3   0 322.158 8.73710   5
  -2  -3   0 86.1773 4.47666   8
  -2  -3   0 89.4888 3.70407   2
   2  -3   0 85.0158 5.14626   7
  -2  -3   0 91.6742 4.11696   9
  -2  -3   0 98.0452 5.92714   3
   2  -3   0 84.8900 4.73660   1
   2  -3   0 88.9281 4.57443   6
  -2   3   0 93.4257 4.78666   6
   2   3   0 87.1162 3.76777   2
   2   3   0 90.7483 4.69428   8
  -2   3   0 88.3111 4.79435   9
   2   3   0 93.2174 3.83287   5
  -2   3   0 84.1558 3.98295   8
   2   3   0 97.5234 4.04268   9
  -2   3   0 94.3213 5.26133   7
  -2   3   0 93.6082 4.84656   3
   2   3   0 88.4656 5.58155   3
   2   3   0 80.4597 4.48765   4
  -2   3   0 79.6042 2.93874   4
  -2   3   0 80.2989 4.82746   1
  -3  -3   0 1565.54 43.3277   8
   3  -3   0 1536.35 64.1909   1
  -3  -3   0 1507.16 41.2371   9
   3  -3   0 1523.26 37.2580   6
  -3  -3   0 1461.16 51.7545   2
   3  -3   0 1579.60 43.5085   7
  -3  -3   0 1575.46 50.3662   3
  -3   3   0 1505.24 42.8460   8
   3   3   0 1560.73 41.6910   3
  -3   3   0 1524.15 64.0260   3
  -3   3   0 1614.27 70.0991   6
   3   3   0 1643.71 49.3325   1
   3   3   0 1660.28 54.7429   2
   3   3   0 1644.46 53.2583   8
  -3   3   0 1635.31 54.9673   1
   3   3   0 1617.01 91.2858   5
  -3   3   0 1639.24 56.5718   9
   3   3   0 1599.36 48.2507   4
  -4  -3   0 8.85559 3.53065   8
  -4  -3   0 9.93452 2.13544   2
  -4  -3   0 8.60450 2.74830   4
  -4  -3   0 4.11718 1.86275   9
   4  -3   0 7.23836 2.92910   6
   4  -3   0 8.97900 4.32260   1
   4  -3   0 3.43311 2.86605   7
  -4   3   0 6.96246 0.97880   4
  -4   3   0 5.64748 0.77792   8
   4   3   0 4.79225 2.33829   2
   4   3   0 7.51466 2.90522   4
  -4   3   0 7.93105 3.93361   1
   4   3   0 4.15539 2.97312   1
   4   3   0 8.44315 4.43493   3
   4   3   0 1.84697 2.64058   8
  -4   3   0 5.32132 2.39887   3
   4   3   0 7.13961 0.86567   5
  -4   3   0 1.33306 3.65025   6
  -4   3   0 7.17871 1.03443   8
  -5  -3   0 2.95992 1.57600   9
  -5  -3   0 2.88003 2.83416   8
   5  -3   0 3.94223 4.40586   6
  -5  -3   0 2.17441 2.18513   2
   5  -3   0 2.71308 2.57257   3
   5  -3   0 6.47449 4.72031   7
   5   3   0 4.50265 2.81698   6
  -5   3   0 2.49086 2.97174   1
  -5   3   0 1.83337 2.47406   3
   5   3   0 1.43204 4.82751   3
   6  -3   0 96.3338 8.05631   6
   6  -3   0 86.9889 8.24453   7
  -6  -3   0 96.2059 5.09602   2
  -6  -3   0 97.5236 6.99864   8
   6  -3   0 94.6254 5.63418   3
  -6   3   0 76.0039 6.61562   3
   6   3   0 90.5155 7.40267   6
  -6   3   0 99.3740 7.05987   1
   6   3   0 98.4731 7.45586   3
   7  -3   0 385.318 16.0086   6
   7  -3   0 371.366 20.0168   7
  -7  -3   0 384.815 13.4752   8
   7  -3   0 381.253 20.1830   3
  -7  -3   0 356.576 15.9636   2
   7   3   0 381.468 14.3846   6
  -7   3   0 386.149 14.2980   1
   7   3   0 385.316 18.4670   3
   8  -3   0 30.8978 5.33601   3
   8  -3   0 28.1143 6.85045   7
  -8  -3   0 18.9770 4.96440   8
  -8  -3   0 31.1115 4.52126   2
   8  -3   0 27.2329 6.48326   6
  -8   3   0 18.5365 7.45095   1
   8   3   0 25.7488 5.75927   6
   8   3   0 26.7446 6.45465   3
   9  -3   0 7.71080 9.24135   7
  -9  -3   0 10.7091 4.76291   2
  -9  -3   0 1.51521 4.80256   8
   9  -3   0 18.7340 5.81490   3
   9  -3   0 13.7282 8.97815   6
   9   3   0 5.20696 10.5045   3
  -9   3   0 14.1953 7.17029   5
  -9   3   0 -0.5897 5.53174   1
   9   3   0 9.15254 6.02349   6
  10  -3   0 4.63340 7.24225   6
 -10  -3   0 10.3967 8.14524   8
  10  -3   0 10.0108 8.24111   7
 -10   3   0 2.68090 6.72993   1
 -10   3   0 22.9027 10.9026   5
  10   3   0 6.40893 6.81908   6
   0  -4   0 538.921 13.6340   9
   0  -4   0 571.413 20.6932   7
   0  -4   0 564.848 18.1275   8
   0   4   0 580.783 18.2443   3
   0   4   0 561.037 21.6035   1
   0   4   0 575.441 32.7941   8
   0   4   0 592.687 25.8290   9
   0   4   0 573.625 31.0049   2
   0   4   0 574.209 34.4710   6
   0   4   0 555.545 15.9592   4
   0   4   0 570.678 25.6597   7
   0   4   0 565.607 33.5067   5
  -1  -4   0 17.5383 2.68135   8
   1  -4   0 20.9005 3.28996   9
   1  -4   0 19.1292 3.49998   6
  -1  -4   0 15.8055 2.45031   9
   1  -4   0 17.9624 2.18852   8
   1  -4   0 18.9741 2.97196   7
  -1   4   0 13.8203 2.96258   1
  -1   4   0 15.5960 2.70231   8
  -1   4   0 13.4534 2.51521   2
  -1   4   0 17.8178 2.90291   7
   1   4   0 14.9169 2.73624   4
   1   4   0 16.5776 2.60393   6
   1   4   0 16.5545 3.97504   3
  -1   4   0 16.7732 3.72961   5
   1   4   0 18.5050 2.74450   2
  -1   4   0 13.1687 2.99059   9
  -1   4   0 13.5769 2.60792   6
   1   4   0 14.4698 2.61287   7
  -1   4   0 14.9762 2.62897   4
   1   4   0 12.8346 2.66963   8
   1   4   0 15.3266 2.49781   9
   1   4   0 15.0937 3.48154   5
   2  -4   0 75.6188 5.17420   1
   2  -4   0 82.8541 4.96483   6
  -2  -4   0 77.8407 5.47285   8
   2  -4   0 75.0528 5.06250   7
  -2  -4   0 79.8121 3.78986   9
  -2   4   0 75.4041 4.90126   6
   2   4   0 70.4757 4.84085   7
   2   4   0 74.7975 5.51031   3
   2   4   0 82.0747 4.21194   2
  -2   4   0 76.0062 4.59733   9
  -2   4   0 70.3570 3.91252   8
  -2   4   0 72.5437 3.67817   4
   2   4   0 77.8864 5.77520   8
   2   4   0 66.8894 4.61132   5
   2   4   0 71.3500 3.98670   9
   2   4   0 78.4777 5.59471   4
  -2   4   0 75.9815 5.81895   1
  -2   4   0 79.2415 5.21764   7
  -3  -4   0 3.34744 1.51297   2
  -3  -4   0 3.48505 2.04264   9
  -3  -4   0 3.96195 3.49507   8
   3  -4   0 1.85905 3.59540   6
   3  -4   0 1.32917 2.83248   7
   3  -4   0 2.49474 3.94001   1
   3   4   0 -1.1317 4.31591   3
  -3   4   0 3.16925 2.24976   3
  -3   4   0 2.28645 2.82804   7
  -3   4   0 4.48047 2.75606   6
  -3   4   0 2.91970 1.41878   8
  -3   4   0 2.43558 1.40796   4
   3   4   0 1.13697 2.31763   7
   3   4   0 1.95442 2.12559   2
  -3   4   0 3.77583 3.00813   1
   3   4   0 -0.1676 1.83227   5
   4  -4   0 852.940 26.4229   6
  -4  -4   0 835.183 22.2397   2
  -4  -4   0 829.187 22.3666   9
  -4  -4   0 850.547 24.4788   8
   4  -4   0 813.839 33.1109   7
  -4   4   0 846.235 34.4454   4
  -4   4   0 848.086 42.9910   8
  -4   4   0 864.480 28.5099   1
  -4   4   0 816.495 39.7768   3
  -4   4   0 867.321 45.9463   4
   4   4   0 873.437 27.4833   5
   4   4   0 939.133 31.6354   2
   4   4   0 874.279 27.9860   3
   5  -4   0 149.098 8.65611   7
  -5  -4   0 135.240 8.07497   8
  -5  -4   0 150.344 6.97581   9
  -5  -4   0 152.812 7.13143   2
   5  -4   0 133.980 9.10349   6
   5   4   0 154.912 9.13378   3
  -5   4   0 154.292 11.1989   1
   5   4   0 145.334 6.56752   2
  -5   4   0 133.725 12.1988   3
   6  -4   0 454.253 16.3282   6
  -6  -4   0 445.370 17.6119   8
  -6  -4   0 434.397 20.6919   2
  -6  -4   0 441.897 19.4577   9
   6  -4   0 452.370 17.2419   7
  -6   4   0 479.832 17.6790   1
  -6   4   0 438.407 31.6361   3
   6   4   0 475.200 26.0230   3
   6   4   0 437.303 14.5726   6
  -7  -4   0 172.259 9.41203   8
  -7  -4   0 172.162 7.94971   9
   7  -4   0 160.634 10.6422   7
  -7  -4   0 166.770 7.75266   2
   7  -4   0 142.222 9.72107   6
  -7   4   0 164.657 11.0584   1
   7   4   0 165.001 11.9940   3
   7   4   0 158.889 9.45125   6
   8  -4   0 1.86055 8.33162   7
  -8  -4   0 0.07427 4.54692   8
   8  -4   0 0.82859 7.57302   6
  -8  -4   0 -2.5655 2.55798   2
   8  -4   0 1.48598 3.19192   3
  -8  -4   0 1.96489 2.42826   9
   8   4   0 1.92497 5.68769   3
  -8   4   0 0.20046 9.18825   5
   8   4   0 -1.6282 4.64966   6
  -8   4   0 -0.9023 6.86822   1
  -9  -4   0 3.29606 5.40961   8
   9  -4   0 3.24383 9.81281   7
   9  -4   0 13.3390 9.69581   6
  -9   4   0 11.2207 8.12659   5
   9   4   0 -3.3715 5.69926   6
   9   4   0 9.32190 7.51404   3
  -9   4   0 5.80166 6.29795   1
  10  -4   0 2.70879 10.9351   6
 -10  -4   0 7.24638 6.67372   8
  10  -4   0 2.51428 8.46533   7
 -10   4   0 12.7161 7.80458   1
 -10   4   0 6.95319 8.56065   5
  10   4   0 7.29448 8.47648   3
  10   4   0 0.50114 12.5971   6
   0  -5   0 -1.7680 3.30706   7
   0  -5   0 1.57355 2.99284   8
   0  -5   0 -1.0063 2.04933   9
   0   5   0 -0.7546 2.03796   9
   0   5   0 1.15192 2.93309   1
   0   5   0 -1.7813 3.04388   5
   0   5   0 -0.3458 3.29196   8
   0   5   0 -1.5466 2.45480   6
   0   5   0 1.15610 3.36339   7
   0   5   0 0.51789 3.24492   4
   0   5   0 0.51623 2.98017   2
   0   5   0 1.05963 2.67760   3
   1  -5   0 352.286 11.5837   7
   1  -5   0 397.049 13.5863   9
  -1  -5   0 360.011 12.3246   9
  -1  -5   0 367.820 12.4986   8
  -1   5   0 376.980 15.1155   1
   1   5   0 362.747 21.8841   2
  -1   5   0 354.658 16.8989   8
   1   5   0 333.989 13.1762   1
   1   5   0 383.809 24.3031   7
   1   5   0 363.829 18.2910   4
   1   5   0 384.403 19.6435   6
   1   5   0 374.033 18.3167   9
   1   5   0 394.192 15.4782   3
  -1   5   0 374.613 20.2003   3
   1   5   0 362.170 15.9475   5
  -1   5   0 380.305 13.4884   5
   1   5   0 375.578 16.1089   8
  -1   5   0 369.825 18.2502   6
  -1   5   0 389.467 15.4683   7
  -1   5   0 385.094 13.0530   4
   2  -5   0 25.0892 4.80894   6
   2  -5   0 24.4040 4.02078   7
   2  -5   0 32.9669 4.67814   1
  -2  -5   0 31.5171 4.75837   8
  -2  -5   0 31.5250 3.31513   9
   2   5   0 21.3146 3.59094   2
  -2   5   0 26.4437 5.27242   5
   2   5   0 20.1056 4.56855   7
  -2   5   0 24.1027 3.19511   8
  -2   5   0 19.9619 5.06068   1
   2   5   0 20.5818 3.97662   5
  -2   5   0 25.1454 3.21127   4
   2   5   0 25.2330 4.55053   3
   2   5   0 26.1368 3.63936   9
  -3  -5   0 614.126 25.3436   9
   3  -5   0 630.222 17.4332   6
  -3  -5   0 627.432 20.7523   8
  -3  -5   0 623.552 20.8778   2
   3  -5   0 640.415 19.1346   7
   3   5   0 690.456 40.3861   2
  -3   5   0 657.868 27.9080   5
   3   5   0 664.584 23.0030   5
   3   5   0 633.530 30.7024   7
  -3   5   0 683.594 24.2259   4
   3   5   0 660.090 21.4598   3
  -3   5   0 655.873 34.8530   3
  -3   5   0 662.193 20.5725   1
  -3   5   0 672.785 27.6454   8
  -4  -5   0 3.45186 3.40460   8
  -4  -5   0 5.74815 2.49826   9
  -4  -5   0 6.69013 2.04808   2
   4  -5   0 6.28506 3.76702   7
   4  -5   0 5.56820 3.62384   6
   4   5   0 2.11271 3.18875   2
  -4   5   0 3.98504 5.20967   5
  -4   5   0 4.16758 1.74179   4
  -4   5   0 3.07862 3.01467   3
   4   5   0 3.00727 1.94991   5
   4   5   0 2.17211 5.89234   3
  -4   5   0 3.47165 1.70515   8
  -4   5   0 6.30989 5.28343   1
  -5  -5   0 219.774 7.53590   9
   5  -5   0 232.477 11.4116   7
  -5  -5   0 229.107 10.9003   8
   5  -5   0 220.302 11.3419   6
  -5  -5   0 228.396 7.46518   2
   5   5   0 225.390 9.82476   2
  -5   5   0 220.240 13.4560   3
  -5   5   0 232.743 16.9409   5
   5   5   0 208.778 11.6871   3
  -5   5   0 232.519 11.9112   1
   6  -5   0 -2.4647 4.41691   7
  -6  -5   0 0.58474 2.63949   9
  -6  -5   0 -0.3397 2.90713   2
   6  -5   0 -1.4923 4.31867   6
  -6  -5   0 3.90784 5.65868   8
  -6   5   0 -3.2902 6.13247   1
  -6   5   0 0.29547 6.03918   5
   6   5   0 3.99123 7.34276   3
   7  -5   0 59.7693 7.61385   6
   7  -5   0 72.4955 9.74132   7
  -7  -5   0 58.9304 6.95399   8
  -7  -5   0 67.7790 5.05745   2
  -7  -5   0 72.7988 5.02980   9
   7   5   0 68.0390 10.5042   3
  -7   5   0 54.2835 8.81880   1
   7   5   0 53.6581 6.88263   6
  -7   5   0 65.7772 9.84107   5
   8  -5   0 52.0591 8.52770   7
   8  -5   0 54.3472 10.5000   6
  -8  -5   0 56.6290 7.59564   8
   8   5   0 67.8326 9.70577   3
   8   5   0 60.2213 8.19044   6
  -8   5   0 70.8489 11.0476   5
  -8   5   0 46.7115 9.97894   1
   9  -5   0 0.90025 10.1021   6
  -9  -5   0 2.03692 6.22593   8
   9  -5   0 4.68677 10.1474   7
   9   5   0 2.02902 9.07155   6
  -9   5   0 -0.0846 6.67730   1
   9   5   0 1.65138 8.19501   3
  -9   5   0 5.99366 8.52530   5
   0  -6   0 358.408 12.3342   7
   0  -6   0 374.953 11.8233   8
   0  -6   0 346.489 18.8777   9
   0   6   0 349.198 16.7840   1
   0   6   0 380.517 20.8077   5
   0   6   0 341.876 14.2397   3
  -1  -6   0 171.563 7.20831   9
  -1  -6   0 163.438 7.66768   8
   1  -6   0 164.334 8.65341   7
   1   6   0 167.308 18.9378   3
   1   6   0 131.006 9.29537   1
  -1   6   0 146.843 8.87016   3
  -1   6   0 157.743 9.41256   4
   1   6   0 150.752 10.7767   5
  -1   6   0 149.832 9.21727   1
  -1   6   0 165.744 9.82279   5
  -1   6   0 161.111 9.75013   8
   2  -6   0 0.51229 3.35286   7
  -2  -6   0 1.87128 2.30631   9
  -2  -6   0 -1.2291 4.43887   8
   2  -6   0 2.37810 3.41791   6
  -2   6   0 0.14670 3.73637   3
   2   6   0 1.09827 2.74856   2
  -2   6   0 -2.9441 6.48144   5
  -2   6   0 -0.3227 2.25963   4
   2   6   0 -1.7563 4.01257   5
  -2   6   0 0.98920 2.29028   8
   2   6   0 0.19589 3.92589   3
   2   6   0 -0.2001 2.61732   9
  -2   6   0 5.99792 5.68974   1
   3  -6   0 21.9630 4.81295   6
  -3  -6   0 24.4293 5.74007   8
   3  -6   0 18.0862 6.05005   7
  -3  -6   0 30.4376 3.22872   9
   3   6   0 23.6849 4.48322   9
  -3   6   0 18.7932 3.03260   8
  -3   6   0 22.6064 3.46947   4
  -3   6   0 14.5719 6.25289   1
   3   6   0 25.4125 5.82501   3
   3   6   0 21.0785 4.62787   2
  -3   6   0 11.9347 4.50617   3
   3   6   0 21.9826 4.38483   5
  -3   6   0 25.5200 6.72455   5
   4  -6   0 103.557 9.26710   7
   4  -6   0 104.025 8.67191   6
  -4  -6   0 99.7490 7.37827   8
  -4  -6   0 111.801 5.70108   9
  -4  -6   0 106.077 5.80521   2
  -4   6   0 91.6970 11.5778   5
   4   6   0 96.0340 10.2067   3
   4   6   0 88.0319 6.54817   5
  -4   6   0 91.7247 7.88220   1
  -5  -6   0 73.2115 7.05743   8
  -5  -6   0 94.8507 5.51740   2
  -5  -6   0 97.8547 5.32402   9
   5  -6   0 83.7405 7.89461   6
   5  -6   0 90.3554 9.57417   7
  -5   6   0 66.4854 11.7235   5
  -5   6   0 83.6134 9.86661   1
   5   6   0 69.8284 8.56688   3
   6  -6   0 16.8606 7.79519   6
  -6  -6   0 10.0020 5.07499   8
   6  -6   0 13.5015 6.21841   7
  -6  -6   0 24.4157 4.01165   2
  -6  -6   0 14.6272 2.83491   9
   6   6   0 9.69212 6.92708   3
  -6   6   0 10.1250 5.85385   1
  -6   6   0 14.3938 8.15106   5
   7  -6   0 208.954 13.7800   6
  -7  -6   0 195.679 21.1840   8
   7  -6   0 216.021 15.0163   7
   7   6   0 184.339 13.6976   3
  -7   6   0 242.922 16.5996   5
   7   6   0 196.863 12.8717   6
  -7   6   0 190.815 13.4865   1
   8  -6   0 137.376 11.7840   6
   8  -6   0 152.937 12.8569   7
  -8  -6   0 128.467 11.2956   8
   8   6   0 164.126 13.5989   3
  -8   6   0 145.916 13.7259   1
   8   6   0 134.873 13.0601   6
  -8   6   0 162.414 14.7784   5
   9  -6   0 -1.8446 11.7374   7
  -9  -6   0 1.41434 6.63276   8
   9  -6   0 6.19512 7.87495   6
  -9   6   0 10.3432 9.58145   5
   9   6   0 0.12030 9.52041   6
  -9   6   0 6.78975 7.56627   1
   9   6   0 3.73105 8.82525   3
   0  -7   0 -0.5012 3.73297   7
   0  -7   0 -0.5192 3.24379   9
   0   7   0 -2.2516 6.16577   3
   0   7   0 -2.3748 6.14490   1
   0   7   0 0.33627 6.89624   5
   1  -7   0 107.241 7.68076   7
  -1  -7   0 114.202 7.21023   8
  -1  -7   0 98.1872 6.11903   9
   1   7   0 90.6422 8.14906   1
   1   7   0 93.7920 9.69002   3
  -1   7   0 96.2368 7.53481   3
  -1   7   0 105.613 8.32608   1
  -1   7   0 95.6940 9.11430   5
   1   7   0 99.3245 8.10739   5
  -2  -7   0 8.42388 4.10402   9
  -2  -7   0 7.23117 5.53026   8
   2  -7   0 4.85682 4.48637   7
   2   7   0 5.69038 5.21658   1
  -2   7   0 3.20384 6.86046   1
  -2   7   0 4.76501 8.04556   5
   2   7   0 11.6133 7.44458   3
   2   7   0 4.70024 5.71757   5
  -2   7   0 4.91132 5.37127   3
   3  -7   0 25.6316 6.97572   7
  -3  -7   0 25.1574 4.33084   9
   3  -7   0 22.4933 6.59530   6
  -3  -7   0 18.3766 6.30580   8
  -3   7   0 19.7230 9.01502   5
  -3   7   0 8.97727 5.04407   3
   3   7   0 10.3963 5.01090   5
  -3   7   0 16.0017 5.49173   1
   3   7   0 17.1474 6.12464   3
   4  -7   0 3.27363 6.56209   6
   4  -7   0 -0.6882 4.70632   7
  -4  -7   0 -0.5132 3.34820   9
  -4  -7   0 -3.2327 4.40647   8
  -4   7   0 -1.0081 6.95332   1
  -4   7   0 4.34043 6.62746   5
   4   7   0 -0.4776 5.60707   3
   5  -7   0 1.17597 7.70834   7
   5  -7   0 -3.5163 7.41015   6
  -5  -7   0 -1.9768 5.01704   8
  -5  -7   0 -1.2471 3.30092   9
  -5   7   0 1.27598 7.55199   1
   5   7   0 -3.0695 6.84723   3
  -5   7   0 0.48160 7.19201   5
  -6  -7   0 -0.8976 5.37211   8
   6  -7   0 0.56100 6.41481   7
   6  -7   0 -0.1505 5.70250   6
  -6   7   0 4.25392 8.06899   5
  -6   7   0 6.87649 6.06158   1
   6   7   0 5.83349 7.73083   3
  -7  -7   0 207.817 21.3081   8
   7  -7   0 195.149 13.5724   7
   7  -7   0 180.226 14.5528   6
   7   7   0 223.932 27.5993   3
  -7   7   0 184.601 15.8429   5
  -7   7   0 158.783 14.7862   1
  -8  -7   0 7.61925 7.47893   8
   8  -7   0 8.48644 8.58698   6
   8  -7   0 8.93431 8.79089   7
  -8   7   0 5.17776 27.0886   1
   8   7   0 12.0779 10.0462   3
  -8   7   0 19.7318 10.5007   5
   8   7   0 8.63826 7.67413   6
   0   8   0 526.393 26.0686   3
   0   8   0 492.307 18.9883   5
   0   8   0 481.678 21.7527   1
  -1  -8   0 1.11677 4.72127   8
   1  -8   0 5.24663 4.83488   7
  -1  -8   0 7.88683 4.13020   9
  -1   8   0 2.53983 5.38025   1
  -1   8   0 3.37846 9.57427   5
   1   8   0 5.68483 7.65788   5
   1   8   0 8.32802 6.15675   3
   1   8   0 1.27183 5.66513   1
  -1   8   0 5.99541 7.59943   3
   2  -8   0 16.4882 7.85017   7
  -2  -8   0 18.1247 5.25471   9
  -2  -8   0 8.11788 5.12276   8
  -2   8   0 7.13056 8.34805   1
   2   8   0 8.86288 6.86966   3
   2   8   0 7.34506 8.37969   1
  -2   8   0 8.92394 7.29463   5
  -2   8   0 10.3456 6.85102   3
   2   8   0 9.19115 5.05386   5
   3  -8   0 2.23718 7.78546   7
  -3  -8   0 9.15607 9.23792   8
  -3  -8   0 2.26256 4.77746   9
  -3   8   0 -1.5681 7.78181   1
   3   8   0 -4.6592 8.41345   1
  -3   8   0 -1.2828 10.1922   5
   3   8   0 4.86301 9.40482   3
   4  -8   0 18.7074 6.69706   7
   4  -8   0 29.5864 6.60071   6
  -4  -8   0 24.2682 6.55301   8
  -4  -8   0 26.6597 6.74431   9
  -4   8   0 13.6160 8.94585   1
  -4   8   0 33.3574 9.62036   5
   4   8   0 20.6276 11.2864   3
  -5  -8   0 -2.7138 5.79104   8
   5  -8   0 0.75227 8.42595   6
   5  -8   0 -3.0935 6.24342   7
  -5   8   0 -4.3538 8.81143   5
  -5   8   0 1.51359 6.16293   1
   5   8   0 8.46429 8.41399   3
   6  -8   0 29.8929 8.31255   7
  -6  -8   0 22.5073 7.66250   8
   6  -8   0 22.4174 8.45122   6
  -6   8   0 17.2003 11.2518   5
   6   8   0 15.0617 9.87066   3
  -6   8   0 0.77610 9.99157   1
   0   9   0 4.98988 6.20132   3
   0   9   0 0.69609 6.49106   1
   0   9   0 -5.2640 6.54235   5
   1  -9   0 75.8741 8.60181   7
  -1   9   0 78.3368 12.1418   1
   1   9   0 72.8549 12.0206   1
   1   9   0 71.6144 12.4864   3
  -1   9   0 60.4754 10.7053   5
   1   9   0 76.3332 11.2766   5
  -1   9   0 61.0344 10.5768   3
   2  -9   0 11.8201 6.44714   7
   2   9   0 -1.4962 6.46706   1
   2   9   0 3.24763 7.60941   3
  -2   9   0 6.15486 8.37764   5
  -2   9   0 -6.3102 9.22073   1
  -3  -9   0 151.115 10.7779   8
   3  -9   0 158.078 13.5286   7
   3   9   0 143.696 14.0304   1
  -3   9   0 136.154 11.8242   1
   3   9   0 135.658 14.1366   3
  -3   9   0 149.674 14.5483   5
   4  -9   0 2.88184 7.18783   7
  -4   9   0 6.43732 10.9291   5
   4   9   0 11.8456 8.97932   3
   4   9   0 7.89285 8.34285   1
  -4   9   0 -3.5374 6.86921   1
   0  10   0 21.2569 8.24730   1
   0  10   0 19.5534 8.30813   5
 -11   0   1 6.73369 7.51388   2
  11   0  -1 4.37961 9.41844   3
 -11   0   1 3.58833 7.60186   1
  11   0  -1 8.82125 7.72871   6
  10   0  -1 -1.6734 6.07857   6
  10   0  -1 -0.7061 6.68897   3
 -10   0   1 1.33499 14.3446   1
 -10   0   1 -0.9937 4.31447   2
   9   0  -1 1005.05 50.4197   3
   9   0  -1 1035.46 40.7654   6
  -9   0   1 1061.00 51.6331   2
  -9   0   1 1091.04 67.5491   8
  -9   0   1 1094.22 45.9238   1
   8   0  -1 0.50240 3.40863   3
  -8   0   1 2.21348 3.49237   4
  -8   0   1 1.18401 3.38610   8
  -8   0   1 2.26809 3.00568   2
   8   0  -1 2.54392 4.20555   6
  -8   0   1 0.00000 4.18778   1
  -8   0   1 -0.7180 6.74429   5
  -7   0   1 280.681 12.0722   1
  -7   0   1 282.791 10.8080   4
  -7   0   1 302.187 16.4635   5
   7   0  -1 283.911 10.3693   3
  -7   0   1 290.941 10.8871   8
   7   0  -1 275.125 11.4620   6
   7   0  -1 289.300 14.7523   4
  -6   0   1 -0.6850 2.40977   8
   6   0  -1 0.59463 2.86857   6
  -6   0   1 2.67164 3.86945   3
  -6   0   1 -0.1101 1.81282   5
   6   0  -1 0.55202 2.10163   4
  -6   0   1 0.49355 2.34978   4
   6   0  -1 0.81120 3.46362   3
  -6   0   1 -1.2194 2.77755   1
  -5   0   1 2071.90 64.4444   4
  -5   0   1 2039.19 97.5681   6
  -5   0   1 2156.56 95.4583   3
  -5   0   1 2065.37 71.2221   5
  -5   0   1 2001.12 57.1383   8
   5   0  -1 2014.14 72.5133   3
  -5   0   1 2040.02 67.7437   1
   5   0  -1 2000.27 57.3426   6
   5   0  -1 2033.70 89.7522   1
   5   0  -1 2117.36 63.9741   8
   5   0  -1 2025.41 66.8374   4
   4   0  -1 -0.2141 2.13965   1
  -4   0   1 -2.0925 1.78373   6
   4   0  -1 -0.2347 1.72619   4
   4   0  -1 -0.3123 1.77767   8
  -4   0   1 -1.6246 1.64321   8
   4   0  -1 -1.1740 1.86690   6
  -4   0   1 -0.9169 2.34353   3
  -4   0   1 -1.0112 1.62281   4
   4   0  -1 -0.6180 2.04860   3
  -4   0   1 2.03459 14.7451   1
  -4   0   1 -1.1244 1.67583   5
   3   0  -1 1335.11 57.1133   8
   3   0  -1 1374.46 57.5835   4
  -3   0   1 1399.82 60.8012   3
  -3   0   1 1365.15 62.7047   6
  -3   0   1 1392.82 46.8426   5
   3   0  -1 1347.41 30.0819   1
  -3   0   1 1363.79 46.1416   4
   3   0  -1 1340.58 36.5085   6
  -3   0   1 1387.99 50.9102   1
   3   0  -1 1374.21 38.3846   3
  -3   0   1 1373.21 50.0419   8
  -2   0   1 -3.3466 0.94009   4
   2   0  -1 -4.1170 0.74063   3
   2   0  -1 -3.4289 1.07310   1
  -2   0   1 -1.2512 1.19453   3
   2   0  -1 -2.5668 1.03393   6
  -2   0   1 -2.6663 0.73124   5
   2   0  -1 -3.8531 0.63873   4
  -2   0   1 -4.0441 0.90593   8
  -2   0   1 -1.2958 1.42606   6
   2   0  -1 -3.4633 0.91097   8
  -2   0   1 -3.1886 1.01474   1
   1   0  -1 12.1134 0.95465   4
  -1   0   1 11.4449 0.97766   5
  -1   0   1 10.9227 0.87834   3
   1   0  -1 11.8558 0.96299   6
   1   0  -1 12.0754 0.83765   3
  -1   0   1 14.0091 0.95895   4
   1   0  -1 11.5591 1.13945   1
  -1   0   1 12.2987 0.98285   1
   1   0  -1 13.4756 0.96249   5
   0   0   1 -3.0319 0.17453   3
   0   0   1 -2.7763 0.24455   5
   0   0  -1 -3.0242 0.16993   2
   0   0  -1 -3.0249 0.18466   5
   0   0   1 -2.6957 0.16680   2
   0   0  -1 -2.3975 0.23359   3
   0   0  -1 -2.2584 0.24815   7
   0   0   1 -2.6880 0.13679   1
   1   0   1 1681.10 50.2715   8
   1   0   1 1646.75 68.9903   3
  -1   0  -1 1697.00 59.4429   1
  -1   0  -1 1680.70 59.9321   8
  -1   0  -1 1609.34 48.3501   3
   1   0   1 1689.79 71.3305   6
  -1   0  -1 1662.75 55.9895   6
  -1   0  -1 1606.25 96.7704   5
   1   0   1 1681.08 44.9897   1
  -2   0  -1 -2.1657 1.32595   3
   2   0   1 -1.4752 1.02526   6
   2   0   1 -2.1328 1.49112   1
  -2   0  -1 -1.8138 0.94578   6
   2   0   1 -2.8013 0.78199   8
  -2   0  -1 -1.0748 0.68119   8
   2   0   1 -1.9935 0.82709   4
  -2   0  -1 -2.3335 1.43412   1
   2   0   1 -2.1238 1.01819   3
  -2   0  -1 -1.6314 0.67989   4
   3   0   1 716.459 27.7336   8
   3   0   1 756.730 21.1856   6
   3   0   1 727.979 28.5559   1
  -3   0  -1 713.254 39.1850   8
  -3   0  -1 709.580 20.1696   3
   3   0   1 718.640 29.5632   4
  -3   0  -1 731.346 19.3713   1
  -3   0  -1 715.689 28.3250   6
  -3   0  -1 714.920 23.6710   4
   3   0   1 709.489 18.9978   3
  -4   0  -1 -0.5542 1.08452   8
  -4   0  -1 -1.0725 2.65828   6
   4   0   1 0.95553 1.64654   4
   4   0   1 1.31393 1.78114   3
  -4   0  -1 -0.5278 1.52747   4
   4   0   1 -0.4769 2.60455   6
   4   0   1 -0.2203 1.11985   8
  -4   0  -1 1.71746 1.95828   1
   4   0   1 0.88407 2.06574   1
  -4   0  -1 0.07293 4.59929   3
   5   0   1 454.298 24.9111   1
  -5   0  -1 448.922 16.0824   1
   5   0   1 436.261 13.9426   6
  -5   0  -1 413.990 18.3981   3
   5   0   1 455.556 12.5114   4
  -5   0  -1 444.777 19.3879   6
   5   0   1 411.779 11.8169   3
   5   0   1 449.023 14.0578   8
  -5   0  -1 435.167 15.2382   8
  -6   0  -1 0.26366 1.66094   8
   6   0   1 -0.5203 2.78861   6
  -6   0  -1 0.80007 2.36129   2
   6   0   1 -0.2284 2.65214   4
  -6   0  -1 -1.8362 2.92331   1
   6   0   1 1.81115 2.67629   3
   6   0   1 -1.8451 2.73471   8
  -7   0  -1 113.438 22.3521   2
   7   0   1 103.614 7.78991   8
  -7   0  -1 101.164 6.67315   5
   7   0   1 99.5105 6.85687   3
  -7   0  -1 101.414 5.59842   8
  -7   0  -1 103.298 7.40384   1
  -7   0  -1 102.112 6.77325   5
   7   0   1 100.147 5.89320   4
   7   0   1 78.7464 7.63730   6
   8   0   1 0.28753 5.94996   6
  -8   0  -1 -1.8470 4.64202   2
  -8   0  -1 1.57968 3.05446   5
  -8   0  -1 -0.6396 4.34598   1
   8   0   1 -1.5696 5.34302   3
  -8   0  -1 0.80029 3.38043   8
  -9   0  -1 176.488 13.4125   2
  -9   0  -1 194.901 12.1366   5
  -9   0  -1 173.056 11.3209   1
  -9   0  -1 177.743 15.0811   8
   9   0   1 161.981 12.3332   6
   9   0   1 186.349 10.4061   3
 -10   0  -1 3.91727 8.60642   1
 -10   0  -1 4.56726 6.69136   2
  10   0   1 2.21371 6.32967   6
  10   0   1 3.58435 7.65920   3
  11   0   1 11.5018 9.02433   7
 -11   0  -1 5.62838 8.06599   1
  11   0   1 9.59290 8.31751   6
  11   0   1 9.27734 7.23818   3
 -11   0  -1 25.9778 6.50988   2
  11  -1  -1 43.1516 10.2056   7
  11  -1  -1 24.6035 12.0712   6
 -11  -1   1 27.8094 9.34668   1
 -11   1   1 32.7945 9.39453   1
 -11   1   1 26.6722 7.13882   2
  11   1  -1 29.9702 9.10821   6
  11   1  -1 44.3418 8.64907   3
 -10  -1   1 6.93294 6.71645   1
  10  -1  -1 16.6692 9.78936   6
 -10  -1   1 15.5026 6.39467   2
 -10  -1   1 6.82179 4.54132   8
  10  -1  -1 16.2722 5.53416   3
 -10   1   1 12.4371 5.43438   2
  10   1  -1 16.1657 6.41498   3
 -10   1   1 12.4787 6.89091   1
  10   1  -1 17.2918 9.29997   6
 -10   1   1 18.2668 8.18715   5
   9  -1  -1 -2.3545 7.42653   6
   9  -1  -1 13.2111 6.16609   3
  -9  -1   1 8.71635 4.02390   8
  -9  -1   1 9.02038 5.67020   1
  -9  -1   1 15.2266 3.81077   2
  -9   1   1 5.55998 7.35284   1
   9   1  -1 13.0601 5.84670   6
   9   1  -1 11.6492 5.28441   3
  -8  -1   1 18.2114 2.74700   5
   8  -1  -1 23.3910 4.42513   3
   8  -1  -1 15.6720 4.37905   4
  -8  -1   1 18.0987 5.19717   1
  -8  -1   1 17.8896 3.83543   4
  -8  -1   1 19.4783 3.84433   8
   8  -1  -1 22.0556 7.02032   6
  -8  -1   1 25.3304 4.54278   2
  -8   1   1 26.3726 6.88039   1
   8   1  -1 28.6583 5.19277   3
   8   1  -1 22.9559 5.31393   6
  -8   1   1 14.2545 3.38811   4
  -8   1   1 11.8931 3.19777   8
  -7  -1   1 92.9559 5.88707   2
   7  -1  -1 95.9695 5.90298   3
  -7  -1   1 79.2035 5.34479   4
   7  -1  -1 92.7494 8.13721   6
  -7  -1   1 87.3914 5.56165   8
  -7  -1   1 89.8693 4.79183   5
  -7  -1   1 84.3912 8.48937   1
   7  -1  -1 92.2326 5.59874   4
  -7   1   1 84.7420 4.76411   4
  -7   1   1 80.4937 7.90295   3
  -7   1   1 85.0646 6.97240   1
   7   1  -1 86.8819 6.94870   6
   7   1  -1 97.2355 6.95157   3
  -7   1   1 77.8060 4.82764   8
   6  -1  -1 168.308 8.27925   6
  -6  -1   1 160.670 7.14627   8
  -6  -1   1 171.038 8.98217   1
  -6  -1   1 175.417 6.90870   2
   6  -1  -1 171.892 7.67283   4
   6  -1  -1 188.322 7.11132   3
  -6  -1   1 180.272 5.96383   5
  -6  -1   1 165.401 6.82098   4
   6   1  -1 184.681 10.9966   8
  -6   1   1 177.138 7.22855   8
  -6   1   1 151.418 10.3479   3
  -6   1   1 180.782 8.69126   1
   6   1  -1 168.625 11.4672   4
   6   1  -1 178.593 8.93488   3
  -6   1   1 170.526 5.63650   4
   6   1  -1 166.514 8.03438   6
   5  -1  -1 1281.80 41.9528   6
   5  -1  -1 1320.72 40.6086   4
  -5  -1   1 1358.61 45.6790   4
   5  -1  -1 1279.87 40.7553   3
  -5  -1   1 1329.67 37.0822   8
   5  -1  -1 1297.90 58.7908   1
  -5  -1   1 1334.68 39.5824   1
  -5  -1   1 1282.98 42.6775   2
  -5  -1   1 1341.36 69.7009   3
  -5  -1   1 1303.57 38.1466   5
   5   1  -1 1319.06 31.0483   6
   5   1  -1 1348.91 61.3950   1
  -5   1   1 1361.10 39.8634   4
  -5   1   1 1321.99 67.2442   8
   5   1  -1 1354.23 56.7748   4
   5   1  -1 1396.84 58.8369   8
  -5   1   1 1342.32 43.2943   1
  -5   1   1 1410.61 52.0083   3
  -5   1   1 1369.38 71.2268   6
   5   1  -1 1297.73 46.6526   3
   4  -1  -1 815.084 25.8215   4
   4  -1  -1 771.357 20.5721   3
  -4  -1   1 838.915 21.6609   3
  -4  -1   1 802.604 29.0037   4
   4  -1  -1 850.624 25.2920   6
   4  -1  -1 808.716 22.4262   1
  -4  -1   1 801.431 26.8596   2
  -4  -1   1 808.259 24.9416   1
  -4  -1   1 811.035 28.2044   8
  -4  -1   1 785.124 29.8627   5
   4   1  -1 810.547 23.1792   4
  -4   1   1 830.469 45.1600   6
  -4   1   1 838.112 28.0294   3
  -4   1   1 841.747 34.8684   4
   4   1  -1 831.452 34.3763   1
  -4   1   1 830.279 30.0791   1
  -4   1   1 839.545 30.4278   8
   4   1  -1 836.792 23.1575   8
   4   1  -1 794.350 22.8391   3
   4   1  -1 792.275 18.1403   6
  -3  -1   1 94.0694 3.32934   5
   3  -1  -1 102.235 5.23818   1
  -3  -1   1 102.492 4.55228   3
  -3  -1   1 105.114 5.36381   8
   3  -1  -1 102.269 4.55414   6
   3  -1  -1 106.309 3.74922   4
   3  -1  -1 100.864 3.62661   3
  -3  -1   1 103.606 4.01807   4
  -3  -1   1 104.015 4.50890   1
  -3  -1   1 100.635 3.71272   2
  -3   1   1 103.051 3.54572   3
   3   1  -1 110.411 5.26089   4
  -3   1   1 108.777 5.53637   4
  -3   1   1 107.694 5.10682   8
  -3   1   1 94.2071 5.62216   6
   3   1  -1 102.654 4.91842   1
  -3   1   1 107.536 26.5327   1
   3   1  -1 103.480 4.60336   8
   3   1  -1 102.630 4.82126   3
   3   1  -1 106.531 25.8277   6
   2  -1  -1 1908.22 64.7645   3
   2  -1  -1 2023.60 56.3936   6
  -2  -1   1 2041.19 83.3676   1
   2  -1  -1 1964.02 70.4261   4
  -2  -1   1 1961.76 55.7497   3
   2  -1  -1 1898.35 53.2647   1
  -2  -1   1 1871.62 73.4786   5
  -2  -1   1 1896.33 56.5053   2
  -2  -1   1 1945.47 57.0189   4
  -2  -1   1 1969.79 59.5580   8
   2   1  -1 1973.07 67.4132   3
   2   1  -1 2024.40 75.8144   8
  -2   1   1 2006.38 59.5365   6
   2   1  -1 1984.16 64.4191   1
  -2   1   1 1987.48 78.7432   1
  -2   1   1 2037.69 77.9431   9
  -2   1   1 2018.27 64.9647   3
   2   1  -1 1864.20 77.0740   5
   2   1  -1 1972.54 51.6667   4
  -2   1   1 2033.33 80.5157   4
  -1  -1   1 4599.89 163.204   8
   1  -1  -1 4678.73 159.864   6
   1  -1  -1 4577.85 182.301   7
  -1  -1   1 4550.27 144.579   4
  -1  -1   1 4488.18 214.830   5
  -1  -1   1 4441.37 140.494   2
   1  -1  -1 4449.96 157.898   9
   1  -1  -1 4640.01 167.266   1
  -1  -1   1 4454.13 218.122   3
   1   1  -1 4724.76 129.919   1
   1   1  -1 4654.13 163.628   5
   1   1  -1 4537.17 138.314   3
  -1   1   1 4733.67 155.125   9
   1   1  -1 4565.42 107.591   4
  -1   1   1 4551.80 225.143   1
   1   1  -1 4652.58 132.294   2
   1   1  -1 4631.15 190.565   8
  -1   1   1 4682.75 146.773   3
  -1   1   1 4621.03 134.426   6
   0  -1   1 1.49415 1.41930   5
   0  -1  -1 2.68020 1.02597   3
   0  -1  -1 2.36647 1.02274   9
   0  -1  -1 3.63929 1.05235   7
   0  -1  -1 3.99057 0.88389   6
   0  -1   1 3.16482 0.96765   8
   0  -1  -1 4.49817 1.13976   2
   0  -1   1 4.58651 0.87929   4
   0   1   1 1.73353 1.20158   1
   0   1   1 2.06538 0.71263   6
   0   1   1 1.31586 0.88477   3
   0   1  -1 3.00491 1.12456   7
   0   1  -1 1.78412 1.41015   5
   0   1  -1 2.09524 1.06546   6
   0   1   1 3.21733 1.07570   2
   0   1  -1 2.28656 0.91778   8
   0   1   1 2.93947 0.83911   7
   0   1  -1 1.76355 0.89028   9
   0   1   1 1.94911 1.01322   9
   0   1   1 1.92348 0.93271   8
   0   1  -1 2.31355 0.84270   4
   1  -1   1 2022.57 85.6275   8
   1  -1   1 2101.19 65.9952   6
  -1  -1  -1 2100.62 63.2532   2
  -1  -1  -1 2117.18 70.1112   8
  -1  -1  -1 2121.69 91.9018   3
  -1  -1  -1 2120.01 71.8929   9
   1  -1   1 2109.17 65.2106   3
   1  -1   1 2139.75 70.6473   7
   1  -1   1 2048.04 69.9624   1
  -1   1  -1 2124.70 162.615   5
  -1   1  -1 2036.36 78.2887   8
   1   1   1 2180.73 71.3165   3
  -1   1  -1 2200.17 89.4625   1
   1   1   1 2175.29 56.8734   2
  -1   1  -1 2064.37 66.1324   3
  -1   1  -1 2143.12 63.4009   6
  -1   1  -1 2126.25 61.6322   7
   1   1   1 2169.96 64.3145   8
  -1   1  -1 2026.56 65.6006   4
   2  -1   1 1106.00 36.5108   7
  -2  -1  -1 1052.68 33.1197   8
   2  -1   1 1097.04 38.1660   6
  -2  -1  -1 981.687 27.1038   5
  -2  -1  -1 1061.02 29.8106   3
   2  -1   1 1054.61 29.1455   3
  -2  -1  -1 1022.02 32.3121   2
   2  -1   1 1034.30 31.0210   4
   2  -1   1 1043.96 36.2497   1
   2   1   1 1106.56 35.9323   1
   2   1   1 1049.43 35.6883   4
   2   1   1 1072.88 41.0549   2
   2   1   1 1059.63 30.0328   6
  -2   1  -1 1111.22 45.6991   6
  -2   1  -1 1051.85 39.2936   8
   2   1   1 1067.82 38.0713   8
  -2   1  -1 1081.98 35.9184   3
  -2   1  -1 1086.55 46.9605   1
   2   1   1 1051.02 31.1500   3
   3  -1   1 353.037 10.1089   3
   3  -1   1 349.016 11.6245   1
  -3  -1  -1 345.351 9.73976   2
  -3  -1  -1 292.155 12.6918   4
  -3  -1  -1 342.830 18.5300   3
  -3  -1  -1 344.608 10.5617   5
   3  -1   1 332.482 15.1038   4
  -3  -1  -1 357.320 10.2584   1
   3  -1   1 356.766 10.1429   6
  -3  -1  -1 354.607 12.0650   8
  -3   1  -1 345.134 16.4095   6
   3   1   1 353.018 13.9399   6
   3   1   1 347.564 19.1333   1
   3   1   1 346.681 12.2129   8
  -3   1  -1 335.818 15.6894   3
  -3   1  -1 342.853 16.6443   8
  -3   1  -1 344.387 12.3460   1
   3   1   1 358.735 12.8908   4
   3   1   1 332.481 16.8369   3
  -3   1  -1 349.776 17.7486   4
   4  -1   1 569.717 17.4815   1
  -4  -1  -1 557.307 15.9638   2
  -4  -1  -1 540.995 19.3324   5
  -4  -1  -1 535.342 19.1730   3
   4  -1   1 542.639 15.9268   3
   4  -1   1 529.761 14.5334   6
  -4  -1  -1 542.090 13.9049   1
   4  -1   1 542.055 13.4055   8
  -4  -1  -1 558.333 17.1358   8
   4  -1   1 540.159 18.9415   4
   4   1   1 554.564 14.2449   6
   4   1   1 563.770 18.0883   4
  -4   1  -1 529.883 22.0850   3
   4   1   1 530.814 19.7542   3
  -4   1  -1 557.507 18.1889   1
  -4   1  -1 555.342 23.6343   4
   4   1   1 538.701 18.4860   1
   4   1   1 581.067 15.5774   8
  -4   1  -1 549.883 18.4800   8
  -4   1  -1 564.440 21.5694   6
  -5  -1  -1 12.7575 3.17200   1
  -5  -1  -1 11.3013 2.30738   2
   5  -1   1 12.0036 3.40269   1
   5  -1   1 11.2185 3.34122   3
   5  -1   1 15.2977 4.11168   6
  -5  -1  -1 7.89773 3.07298   3
  -5  -1  -1 11.7405 2.33985   8
  -5  -1  -1 16.3500 1.74536   5
   5   1   1 10.6414 3.64745   6
  -5   1  -1 10.8007 1.77941   8
  -5   1  -1 9.79136 3.28853   3
  -5   1  -1 10.7956 2.88316   1
   5   1   1 12.6461 2.48031   8
   5   1   1 11.4298 3.92009   3
   5   1   1 16.2151 2.65580   4
  -6  -1  -1 232.925 8.08309   2
   6  -1   1 222.091 9.15382   3
  -6  -1  -1 227.350 7.91354   8
  -6  -1  -1 217.084 9.42911   1
  -6  -1  -1 212.243 9.91856   5
   6  -1   1 237.919 10.3993   4
  -6  -1  -1 237.323 7.03631   5
   6  -1   1 216.364 10.7140   6
   6   1   1 231.136 9.38019   6
   6   1   1 226.679 11.9277   8
  -6   1  -1 204.597 12.0850   3
  -6   1  -1 226.745 9.52242   1
   6   1   1 228.064 9.43509   3
   6   1   1 233.969 16.1381   4
  -6   1  -1 219.061 8.13242   8
  -7  -1  -1 5.79696 2.98870   5
  -7  -1  -1 2.62084 3.55244   8
  -7  -1  -1 4.17097 5.30530   1
   7  -1   1 5.95616 4.00239   6
   7  -1   1 5.13374 4.73024   3
   7  -1   1 5.50449 2.81288   4
  -7  -1  -1 11.0436 3.92161   2
  -7  -1  -1 9.14033 2.77359   5
  -7   1  -1 4.98795 4.98720   1
  -7   1  -1 4.16635 1.80927   8
   7   1   1 6.98584 3.84502   6
   7   1   1 8.52238 4.06312   3
   8  -1   1 198.037 11.1566   3
  -8  -1  -1 190.864 10.2023   8
  -8  -1  -1 202.068 8.62204   5
  -8  -1  -1 202.448 9.46885   2
   8  -1   1 173.156 11.5947   6
  -8  -1  -1 182.367 10.5982   1
  -8   1  -1 182.681 10.4900   1
   8   1   1 191.498 10.3912   3
  -8   1  -1 185.387 9.17563   8
   8   1   1 165.958 10.9159   6
  -8   1  -1 214.433 11.0732   5
   9  -1   1 187.573 10.3873   3
  -9  -1  -1 208.322 10.6220   2
  -9  -1  -1 180.525 11.7335   1
  -9  -1  -1 179.791 9.97697   8
   9  -1   1 157.376 12.8446   6
   9   1   1 200.107 12.4662   3
  -9   1  -1 171.430 12.7009   1
  -9   1  -1 199.981 12.7461   5
  -9   1  -1 184.042 11.4514   2
   9   1   1 167.617 11.2786   6
  10  -1   1 40.0393 10.6549   6
  10  -1   1 33.0824 10.8411   7
  10  -1   1 52.2961 8.83190   3
 -10  -1  -1 31.8909 7.39454   2
 -10   1  -1 49.5369 7.44624   2
  10   1   1 21.2951 9.63386   6
  10   1   1 36.6026 7.61835   3
 -10   1  -1 30.3059 8.00866   1
  11  -1   1 9.99526 11.0989   6
  11  -1   1 16.5183 11.5093   7
  11  -1   1 6.98357 9.00771   3
  11   1   1 -6.7841 6.74833   3
  11   1   1 2.06444 7.92857   6
 -11   1  -1 7.51647 6.29260   2
 -11   1  -1 5.54700 10.3090   1
  11  -2  -1 0.61155 7.66183   6
  11  -2  -1 -4.1012 8.03471   7
  11   2  -1 -2.3977 6.99730   6
 -11   2   1 -5.9930 10.4732   1
  11   2  -1 -2.5088 10.0454   3
 -10  -2   1 5.39214 6.83310   8
  10  -2  -1 6.52241 9.97824   7
  10  -2  -1 1.95582 6.57923   6
 -10   2   1 6.71962 8.83679   5
  10   2  -1 6.66601 8.78987   3
 -10   2   1 4.82973 6.35338   1
  10   2  -1 2.39908 6.27598   6
   9  -2  -1 0.81671 7.83302   7
  -9  -2   1 0.58991 2.98864   2
  -9  -2   1 -1.5408 5.67586   8
   9  -2  -1 2.54087 3.67805   3
   9  -2  -1 4.72532 7.87443   6
   9   2  -1 3.04693 5.21426   3
  -9   2   1 -5.2776 5.20503   1
   9   2  -1 -1.9394 5.28657   6
  -8  -2   1 65.1665 5.56545   2
   8  -2  -1 51.4025 5.81324   3
  -8  -2   1 38.2216 5.26524   8
   8  -2  -1 60.0567 7.63978   7
   8  -2  -1 54.1778 7.08001   6
   8   2  -1 49.2165 6.69347   6
  -8   2   1 54.6516 6.84150   1
   8   2  -1 52.7263 6.87499   3
   7  -2  -1 10.1973 3.04647   3
  -7  -2   1 5.17526 3.15122   4
  -7  -2   1 3.96055 4.19055   8
  -7  -2   1 6.22542 2.05051   5
   7  -2  -1 3.40002 2.64166   4
  -7  -2   1 5.77209 2.52317   2
  -7  -2   1 4.08832 3.97964   1
   7  -2  -1 2.86547 5.52160   6
   7   2  -1 4.54284 3.87518   3
  -7   2   1 5.51064 5.42169   1
   7   2  -1 4.84193 3.89331   6
  -7   2   1 1.73496 1.86959   4
  -7   2   1 3.00356 1.96776   8
  -7   2   1 -0.3274 2.77472   3
   6  -2  -1 0.46243 1.97291   3
   6  -2  -1 3.87768 3.29506   6
  -6  -2   1 3.27047 3.29790   1
  -6  -2   1 0.75078 2.46357   4
   6  -2  -1 0.36353 2.06426   4
  -6  -2   1 1.44395 1.32981   5
  -6  -2   1 -1.0422 2.31579   2
  -6  -2   1 0.63637 2.47352   8
  -6   2   1 0.19543 1.77415   8
   6   2  -1 0.16768 3.14608   6
  -6   2   1 2.24001 3.22141   1
   6   2  -1 1.64831 4.52399   3
  -6   2   1 0.35941 1.46584   4
  -6   2   1 0.27400 2.01721   3
  -5  -2   1 31.4780 2.76771   2
  -5  -2   1 29.0736 4.02799   1
  -5  -2   1 26.8978 3.99485   4
   5  -2  -1 21.6700 4.59476   6
   5  -2  -1 32.0916 3.17499   3
  -5  -2   1 25.3776 3.39309   8
  -5  -2   1 18.9130 10.8219   3
  -5  -2   1 28.1955 1.91190   5
  -5   2   1 29.6081 4.05189   1
  -5   2   1 19.0378 2.87141   3
   5   2  -1 35.7059 4.54372   8
  -5   2   1 27.6759 2.02932   4
  -5   2   1 25.9470 2.17839   8
   5   2  -1 22.3138 3.54290   6
  -5   2   1 26.8306 3.50939   9
   5   2  -1 21.5850 4.73468   3
   5   2  -1 30.1062 4.50060   4
  -4  -2   1 42.7489 4.72993   3
   4  -2  -1 37.5819 2.48906   3
   4  -2  -1 33.8385 4.50966   7
  -4  -2   1 33.5583 3.71000   4
  -4  -2   1 39.7894 2.07066   5
  -4  -2   1 38.9958 3.87136   8
   4  -2  -1 35.2854 3.70329   6
   4  -2  -1 35.4257 4.07513   1
  -4  -2   1 39.7354 2.53696   2
  -4   2   1 35.7945 2.05777   8
   4   2  -1 37.8823 2.10758   5
  -4   2   1 27.9452 3.51197   6
  -4   2   1 43.3796 2.43583   4
   4   2  -1 36.3938 3.46292   8
   4   2  -1 34.6732 4.66106   3
   4   2  -1 37.9724 3.48225   4
  -4   2   1 36.4007 3.77179   1
  -4   2   1 36.0159 3.79168   9
  -4   2   1 36.9743 2.84513   3
   4   2  -1 38.5916 3.96687   1
  -3  -2   1 408.207 10.3249   9
   3  -2  -1 414.143 11.6340   3
   3  -2  -1 418.729 11.2258   6
  -3  -2   1 406.590 10.6988   2
   3  -2  -1 418.928 12.1561   7
  -3  -2   1 411.199 16.4788   5
  -3  -2   1 425.724 19.8063   8
  -3  -2   1 414.968 17.5048   3
  -3  -2   1 425.900 16.5671   4
   3  -2  -1 410.485 16.5304   1
   3   2  -1 440.117 11.3437   2
  -3   2   1 430.526 14.3961   4
  -3   2   1 432.600 14.3954   1
  -3   2   1 426.434 16.2538   6
   3   2  -1 440.420 17.2380   3
   3   2  -1 435.618 11.9629   1
  -3   2   1 429.438 16.4350   9
   3   2  -1 424.373 10.4253   4
   3   2  -1 434.671 18.8602   8
   3   2  -1 418.971 14.2161   5
  -3   2   1 409.368 12.2147   3
  -2  -2   1 2514.33 102.888   5
  -2  -2   1 2496.66 79.9949   3
  -2  -2   1 2537.45 74.8831   9
  -2  -2   1 2534.02 82.0046   8
  -2  -2   1 2534.61 79.8064   2
  -2  -2   1 2591.37 93.8337   4
   2  -2  -1 2588.71 80.5743   6
   2  -2  -1 2591.00 108.842   1
   2  -2  -1 2595.42 84.9105   7
   2   2  -1 2718.73 59.2475   1
   2   2  -1 2718.09 75.2888   2
  -2   2   1 2646.71 78.0993   6
   2   2  -1 2596.64 70.5863   3
  -2   2   1 2604.54 67.4933   3
  -2   2   1 2788.14 92.1903   1
   2   2  -1 2686.91 94.0891   5
  -2   2   1 2660.09 72.0953   9
   2   2  -1 2593.46 54.3453   8
   2   2  -1 2654.97 72.4384   4
  -1  -2   1 2269.24 97.9922   5
  -1  -2   1 2415.83 73.0383   2
   1  -2  -1 2350.28 68.3377   9
   1  -2  -1 2398.81 70.0603   7
  -1  -2   1 2370.71 98.3508   8
   1  -2  -1 2314.30 68.5760   6
   1  -2  -1 2302.86 111.245   1
  -1  -2   1 2338.46 75.1726   9
  -1  -2   1 2353.62 77.9918   4
  -1   2   1 2422.68 75.7514   6
  -1   2   1 2239.05 92.8269   7
  -1   2   1 2353.64 81.7562   1
   1   2  -1 2430.37 70.1062   3
   1   2  -1 2428.08 46.7982   4
   1   2  -1 2420.76 66.4150   9
   1   2  -1 2405.73 84.4870   5
   1   2  -1 2402.31 76.3655   7
   1   2  -1 2435.81 50.7781   8
   1   2  -1 2381.93 60.8412   2
  -1   2   1 2360.39 58.0747   8
  -1   2   1 2414.32 72.5594   9
   0  -2   1 39.2799 3.09541   7
   0  -2  -1 36.5192 2.12562   2
   0  -2  -1 47.0040 2.44834   7
   0  -2  -1 39.0334 2.12736   8
   0  -2   1 39.2513 2.15401   4
   0  -2   1 40.7656 2.18369   9
   0  -2  -1 39.7901 2.27553   9
   0  -2   1 35.9841 1.97210   8
   0   2  -1 40.9587 2.47836   6
   0   2   1 42.2337 2.22874   8
   0   2  -1 40.8042 2.23687   8
   0   2  -1 42.9166 2.82050   5
   0   2   1 38.2144 2.17826   2
   0   2  -1 34.4553 2.50262   7
   0   2  -1 41.0832 2.35368   9
   0   2   1 40.8859 2.13922   7
   0   2   1 39.9784 2.31556   9
   0   2   1 39.9209 2.87276   1
   0   2   1 37.0840 2.49509   3
   0   2  -1 37.2771 2.64001   1
   0   2   1 40.1648 2.21153   6
   0   2  -1 40.7593 2.20588   4
   1  -2   1 48.3652 3.47695   7
   1  -2   1 50.8522 2.95824   6
  -1  -2  -1 49.8244 2.97099   3
   1  -2   1 49.1045 2.61406   1
  -1  -2  -1 54.2016 2.24994   9
  -1  -2  -1 53.8064 2.37135   2
   1  -2   1 49.4281 1.88912   8
  -1  -2  -1 44.9688 2.62685   8
  -1   2  -1 48.9413 2.09393   8
   1   2   1 48.0188 2.72785   8
   1   2   1 53.0128 2.32377   9
   1   2   1 44.3234 2.87876   4
  -1   2  -1 49.3467 2.95573   7
  -1   2  -1 54.2695 3.12784   1
   1   2   1 48.9641 2.96609   3
   1   2   1 49.1758 2.34408   2
  -1   2  -1 49.1403 2.38141   4
  -1   2  -1 45.2387 2.77557   6
  -1   2  -1 49.7418 2.59934   9
  -1   2  -1 44.9316 3.82179   5
   1   2   1 49.0811 2.72848   7
  -2  -2  -1 428.517 13.2987   8
  -2  -2  -1 452.051 19.2462   3
   2  -2   1 408.915 19.7008   1
  -2  -2  -1 439.340 11.1965   2
   2  -2   1 442.769 12.7518   6
  -2  -2  -1 412.983 13.0562   9
   2  -2   1 441.759 13.9315   7
  -2   2  -1 441.898 16.8108   6
  -2   2  -1 436.707 14.7331   4
   2   2   1 427.698 16.8527   3
   2   2   1 454.515 12.7683   2
   2   2   1 442.047 20.0315   5
   2   2   1 438.027 19.3089   4
   2   2   1 443.184 13.3299   8
  -2   2  -1 447.376 14.7561   1
  -2   2  -1 441.268 12.7142   3
  -2   2  -1 446.440 20.2824   7
  -2   2  -1 434.183 15.3134   8
   3  -2   1 1678.38 48.6462   1
  -3  -2  -1 1693.77 61.6341   3
  -3  -2  -1 1684.20 44.8550   2
   3  -2   1 1730.39 46.2161   7
   3  -2   1 1768.13 54.3039   6
   3  -2   1 1717.41 56.6577   3
  -3  -2  -1 1647.49 50.3927   8
  -3   2  -1 1772.89 55.9169   1
  -3   2  -1 1754.03 43.6517   3
   3   2   1 1804.46 46.8778   1
   3   2   1 1794.58 40.3065   4
   3   2   1 1760.73 47.2219   8
   3   2   1 1804.23 70.4376   2
  -3   2  -1 1761.19 59.4539   6
   3   2   1 1759.29 39.8621   3
   4  -2   1 4.94256 1.95848   3
   4  -2   1 3.88705 3.55589   1
   4  -2   1 7.14594 2.84112   6
  -4  -2  -1 2.02627 1.99880   8
  -4  -2  -1 4.47085 2.69319   3
  -4  -2  -1 2.91631 2.22436   2
   4  -2   1 1.70068 3.60872   7
   4   2   1 3.48999 1.74353   2
   4   2   1 3.78794 2.99628   4
  -4   2  -1 3.89053 2.54727   6
   4   2   1 7.09091 3.53938   3
  -4   2  -1 4.91581 2.43141   3
   4   2   1 -0.4346 2.70310   6
   4   2   1 -0.1414 2.55110   1
  -4   2  -1 3.85419 2.32008   1
  -4   2  -1 4.74034 0.53569   8
   4   2   1 8.68878 3.21136   8
   5  -2   1 237.496 7.83780   4
   5  -2   1 234.243 16.2338   1
  -5  -2  -1 245.576 8.52167   8
   5  -2   1 267.725 11.0397   7
   5  -2   1 256.695 9.66418   6
  -5  -2  -1 229.929 7.57519   2
   5  -2   1 242.194 10.2639   3
  -5  -2  -1 243.033 6.19388   5
  -5  -2  -1 244.775 7.15878   5
   5   2   1 248.802 11.5665   8
  -5   2  -1 246.327 8.73869   8
   5   2   1 253.200 10.9987   3
  -5   2  -1 264.564 12.3860   1
   5   2   1 259.731 10.9361   4
  -5   2  -1 251.776 12.9757   3
   5   2   1 246.023 8.99940   6
  -6  -2  -1 2.53808 2.82798   2
   6  -2   1 0.40882 3.27412   3
  -6  -2  -1 2.24388 1.26484   5
  -6  -2  -1 1.00566 2.51489   8
  -6  -2  -1 2.22848 0.90686   5
   6  -2   1 -0.2846 21.6890   6
   6  -2   1 9.61535 3.04826   4
   6  -2   1 4.73984 18.8698   7
  -6   2  -1 -4.8209 3.57389   3
   6   2   1 1.44118 4.21480   6
  -6   2  -1 0.74315 1.03093   8
   6   2   1 0.30824 3.27982   3
  -6   2  -1 6.77330 3.38353   1
  -7  -2  -1 30.0958 2.14926   5
   7  -2   1 27.8383 5.60480   7
   7  -2   1 34.6833 5.24205   3
  -7  -2  -1 28.8217 1.93404   5
  -7  -2  -1 25.9093 4.16480   8
  -7  -2  -1 25.3685 3.62664   2
   7  -2   1 27.2339 2.86954   4
   7  -2   1 28.4234 6.61669   6
  -7   2  -1 35.8406 5.75787   5
  -7   2  -1 19.8207 4.54858   1
  -7   2  -1 20.4770 1.95194   8
   7   2   1 31.9435 6.15980   6
   7   2   1 22.2134 5.20163   3
   8  -2   1 22.6786 6.20328   7
  -8  -2  -1 20.2648 4.40672   8
   8  -2   1 20.6428 11.7735   3
  -8  -2  -1 29.9294 4.32320   2
   8  -2   1 23.2883 6.04901   6
  -8   2  -1 28.3271 6.04583   5
  -8   2  -1 21.2535 5.64327   1
   8   2   1 17.2509 6.89510   6
   8   2   1 22.2421 5.80098   3
  -9  -2  -1 139.589 8.49358   2
   9  -2   1 129.563 10.7235   6
  -9  -2  -1 122.267 11.2582   8
   9  -2   1 144.512 8.65615   3
   9  -2   1 137.944 12.6834   7
  -9   2  -1 149.466 11.9570   5
   9   2   1 138.990 10.3870   3
   9   2   1 137.020 11.5684   6
  -9   2  -1 136.930 10.5177   1
 -10  -2  -1 50.0388 6.76875   8
  10  -2   1 58.4499 9.86259   7
  10  -2   1 50.8063 9.36109   6
 -10   2  -1 79.0107 9.01972   2
 -10   2  -1 81.1837 11.1473   5
  10   2   1 63.8250 8.92702   6
 -10   2  -1 49.8812 8.83980   1
  10  -3  -1 209.128 15.2486   7
  10  -3  -1 197.577 13.6903   6
 -10  -3   1 213.797 15.2354   8
 -10   3   1 248.545 16.7672   5
  10   3  -1 207.033 13.6160   3
 -10   3   1 210.814 14.8087   1
  10   3  -1 192.435 13.2302   6
   9  -3  -1 2.34399 6.28097   7
  -9  -3   1 -2.5701 9.50902   8
   9  -3  -1 5.31419 4.95874   3
   9  -3  -1 0.52933 8.46800   6
   9   3  -1 2.15451 5.65812   6
  -9   3   1 -1.5941 7.66678   1
   9   3  -1 -1.0574 6.20661   3
   8  -3  -1 202.314 13.1971   7
  -8  -3   1 194.600 10.8859   8
  -8  -3   1 218.452 11.0661   2
   8  -3  -1 217.406 10.5664   3
   8  -3  -1 199.628 11.5855   6
   8   3  -1 190.214 12.6516   6
  -8   3   1 190.089 11.3388   1
   8   3  -1 209.010 11.7129   3
   7  -3  -1 13.1993 7.01383   6
  -7  -3   1 16.2973 1.25798   5
   7  -3  -1 15.8325 8.15987   7
   7  -3  -1 15.9261 3.05629   3
  -7  -3   1 11.9416 4.08130   8
  -7  -3   1 12.4396 3.07938   2
  -7   3   1 16.8655 4.97026   1
   7   3  -1 11.8324 4.69398   6
   7   3  -1 15.0632 6.51163   3
  -6  -3   1 155.298 8.33935   4
  -6  -3   1 148.419 8.12564   8
  -6  -3   1 158.347 5.52323   5
  -6  -3   1 154.950 5.61453   2
   6  -3  -1 163.845 9.07307   3
   6  -3  -1 140.097 10.7278   7
   6  -3  -1 170.862 9.75687   6
  -6   3   1 134.049 12.2084   3
  -6   3   1 149.267 7.49907   8
   6   3  -1 161.013 8.99042   3
  -6   3   1 146.168 5.50848   4
   6   3  -1 161.733 8.38835   6
  -6   3   1 146.623 8.45893   1
   5  -3  -1 52.0095 3.63316   3
  -5  -3   1 55.4902 3.02209   2
  -5  -3   1 52.3887 5.25482   4
  -5  -3   1 59.6035 2.97813   9
  -5  -3   1 51.0549 4.59242   8
  -5  -3   1 55.3236 2.52292   5
   5  -3  -1 50.0013 5.07192   6
   5  -3  -1 54.1788 6.38036   7
  -5   3   1 54.3993 5.25569   1
   5   3  -1 50.0370 6.46810   3
  -5   3   1 51.1379 2.42497   8
  -5   3   1 50.9683 2.35417   4
  -5   3   1 48.0950 4.06734   3
   4  -3  -1 229.410 8.99312   7
  -4  -3   1 248.378 8.42744   8
  -4  -3   1 231.312 7.15707   2
  -4  -3   1 223.563 8.08715   4
   4  -3  -1 214.994 11.2734   1
  -4  -3   1 235.980 7.20484   9
   4  -3  -1 220.503 8.53959   6
  -4  -3   1 225.610 8.36883   5
  -4   3   1 224.920 10.7831   6
   4   3  -1 242.110 8.86068   2
   4   3  -1 218.200 9.20769   3
   4   3  -1 213.531 16.9550   4
  -4   3   1 222.509 9.53029   4
   4   3  -1 218.677 14.5746   8
   4   3  -1 219.600 10.4000   1
  -4   3   1 251.454 11.4449   1
  -4   3   1 227.510 20.7346   9
   4   3  -1 226.485 9.78307   5
  -4   3   1 230.963 9.76844   3
  -3  -3   1 4.01056 2.18265   4
   3  -3  -1 2.24513 3.56828   1
  -3  -3   1 2.76753 1.32913   2
  -3  -3   1 5.65171 2.60240   3
  -3  -3   1 4.88103 1.64231   5
   3  -3  -1 6.39637 3.38147   7
  -3  -3   1 3.86591 1.33609   9
  -3  -3   1 1.30224 2.05209   8
   3  -3  -1 6.43035 3.21213   6
  -3   3   1 4.43578 2.30869   6
   3   3  -1 4.31615 2.38956   8
  -3   3   1 1.61815 1.58339   3
   3   3  -1 3.25196 2.77496   3
  -3   3   1 -0.1456 3.59623   1
   3   3  -1 1.89225 1.53580   5
   3   3  -1 1.92914 1.62507   2
  -3   3   1 3.16141 1.18034   8
   3   3  -1 3.96255 2.41507   1
   3   3  -1 1.95454 2.25304   4
  -3   3   1 4.70973 2.79164   9
  -2  -3   1 506.620 15.5296   2
  -2  -3   1 502.578 15.3804   4
   2  -3  -1 535.844 15.7599   7
   2  -3  -1 509.710 15.6594   1
  -2  -3   1 513.747 16.3447   9
   2  -3  -1 531.423 13.1705   6
  -2  -3   1 502.840 13.4799   5
  -2  -3   1 518.062 16.8381   8
  -2   3   1 535.885 14.4150   7
   2   3  -1 529.881 15.1522   2
   2   3  -1 525.703 16.6091   8
   2   3  -1 538.170 17.4978   7
  -2   3   1 548.328 20.8275   9
  -2   3   1 520.940 12.2514   8
  -2   3   1 536.576 22.5888   6
   2   3  -1 536.902 21.3129   9
   2   3  -1 535.020 27.0946   5
   2   3  -1 517.852 13.2670   4
  -2   3   1 521.692 15.8924   1
   2   3  -1 516.269 22.2289   3
   1  -3  -1 212.422 7.43295   9
   1  -3  -1 207.476 7.23916   7
  -1  -3   1 206.513 8.10456   9
  -1  -3   1 211.246 7.63122   4
   1  -3  -1 207.857 10.7146   1
  -1  -3   1 212.283 6.94749   8
   1  -3  -1 214.736 6.68498   6
  -1   3   1 222.619 7.43086   9
  -1   3   1 206.216 8.40320   8
   1   3  -1 219.491 6.85519   4
   1   3  -1 198.972 6.60894   5
   1   3  -1 212.174 6.50983   9
  -1   3   1 207.655 7.81950   2
  -1   3   1 207.105 9.35303   6
   1   3  -1 201.528 6.85184   8
   1   3  -1 209.119 6.30241   2
  -1   3   1 214.243 7.23462   7
   1   3  -1 210.983 8.09494   3
  -1   3   1 214.222 7.37214   1
   1   3  -1 201.013 8.47773   7
   0  -3   1 230.316 6.48718   9
   0  -3   1 224.432 6.84287   8
   0  -3  -1 239.227 8.89054   7
   0  -3  -1 230.871 6.37191   9
   0  -3   1 226.838 8.27549   7
   0  -3  -1 217.102 6.50726   8
   0   3   1 228.030 10.4123   2
   0   3   1 219.058 7.66571   8
   0   3  -1 227.267 9.58258   9
   0   3   1 225.283 10.5092   6
   0   3   1 226.957 6.79171   3
   0   3  -1 237.194 10.7515   6
   0   3  -1 247.311 8.74070   2
   0   3   1 230.341 8.53068   1
   0   3   1 233.962 7.57009   4
   0   3  -1 226.226 7.72116   5
   0   3  -1 226.787 6.71594   4
   0   3   1 239.214 8.52301   9
   0   3  -1 237.219 10.2483   7
   0   3  -1 226.770 8.50558   1
   0   3  -1 228.955 9.25036   8
   0   3   1 237.224 8.81694   7
  -1  -3  -1 712.511 20.8397   9
   1  -3   1 723.363 17.7278   8
  -1  -3  -1 719.757 33.1900   3
   1  -3   1 724.913 26.2732   7
  -1  -3  -1 714.757 25.7514   8
  -1  -3  -1 704.469 17.3998   2
   1  -3   1 690.010 23.8174   6
   1  -3   1 719.242 41.0557   1
  -1   3  -1 731.276 22.5971   7
   1   3   1 756.146 23.9003   7
   1   3   1 738.369 21.5230   2
   1   3   1 717.488 23.3727   5
  -1   3  -1 767.051 22.3745   9
  -1   3  -1 761.822 22.2104   1
  -1   3  -1 746.217 24.8839   5
   1   3   1 755.092 21.7761   9
  -1   3  -1 737.323 17.3265   4
  -1   3  -1 731.471 23.6084   6
   1   3   1 751.172 20.2054   8
   1   3   1 742.690 29.6872   4
  -1   3  -1 730.416 17.1698   8
   1   3   1 744.356 24.2979   3
   2  -3   1 262.319 10.9412   7
   2  -3   1 234.334 7.99357   6
   2  -3   1 232.947 7.93189   1
  -2  -3  -1 233.863 6.63678   2
  -2  -3  -1 227.409 6.08233   9
  -2  -3  -1 222.400 10.8049   8
  -2  -3  -1 227.536 11.2136   3
   2   3   1 241.334 8.88574   2
  -2   3  -1 232.163 8.41188   6
   2   3   1 225.800 8.20913   5
   2   3   1 221.591 9.37170   3
  -2   3  -1 256.014 58.4856   5
  -2   3  -1 234.966 7.42087   4
  -2   3  -1 234.276 7.78720   8
   2   3   1 243.936 9.34592   9
  -2   3  -1 253.268 9.10746   1
  -2   3  -1 233.447 13.8661   7
   2   3   1 230.532 7.82996   8
  -2   3  -1 234.905 11.0248   3
  -2   3  -1 229.269 10.0279   9
   2   3   1 249.144 8.43237   4
  -3  -3  -1 62.3021 4.76497   3
   3  -3   1 55.2887 4.91116   1
  -3  -3  -1 64.0407 3.10410   9
  -3  -3  -1 61.0979 3.22254   2
   3  -3   1 56.8564 4.36965   6
  -3  -3  -1 52.2546 4.50853   8
   3  -3   1 66.7298 4.78838   7
  -3   3  -1 47.4124 3.74563   3
   3   3   1 60.6671 2.15862   5
  -3   3  -1 54.2998 2.11970   4
  -3   3  -1 58.4274 4.74080   7
   3   3   1 48.7050 4.52957   3
   3   3   1 62.0952 3.52727   2
   3   3   1 53.5800 4.66788   4
  -3   3  -1 58.3910 1.90131   4
  -3   3  -1 66.8737 4.94222   1
   3   3   1 55.0362 4.74609   8
  -3   3  -1 55.6906 1.95293   8
  -3   3  -1 51.9184 4.32152   6
  -3   3  -1 54.9571 3.96504   9
  -4  -3  -1 35.4199 3.74122   8
  -4  -3  -1 35.5903 3.16160   2
   4  -3   1 39.6298 5.35915   7
   4  -3   1 32.9986 4.03785   1
   4  -3   1 35.5325 4.21157   6
  -4  -3  -1 34.1767 2.96143   9
   4   3   1 33.9189 4.50045   3
   4   3   1 30.6521 3.45210   2
  -4   3  -1 35.7923 4.67941   1
  -4   3  -1 33.3767 3.67376   3
  -5  -3  -1 3.35297 2.38294   9
   5  -3   1 0.73502 4.50415   6
   5  -3   1 -0.8500 2.76627   3
  -5  -3  -1 0.40536 2.58905   8
  -5  -3  -1 -0.5492 1.65965   2
   5  -3   1 1.27666 3.20026   7
   5   3   1 -2.0016 2.55946   6
  -5   3  -1 1.66429 2.82424   3
   5   3   1 -0.4952 3.17028   3
  -5   3  -1 -1.1556 3.97688   1
   5   3   1 0.76976 1.99668   2
  -6  -3  -1 434.623 14.2111   8
   6  -3   1 484.498 18.5516   7
   6  -3   1 520.140 17.4426   6
  -6  -3  -1 474.634 14.6217   2
   6  -3   1 473.809 15.1565   3
   6   3   1 483.109 15.1889   6
  -6   3  -1 477.919 28.3165   3
  -6   3  -1 503.823 15.9418   1
   6   3   1 474.338 20.7279   3
   7  -3   1 2.38486 4.40720   6
   7  -3   1 0.99101 4.60204   7
  -7  -3  -1 -0.4797 4.81517   8
   7  -3   1 -0.0402 2.88041   3
  -7  -3  -1 1.56191 2.34592   2
  -7   3  -1 -0.1260 5.59520   1
   7   3   1 3.81992 3.97329   6
   7   3   1 -2.2967 6.25633   3
  -7   3  -1 2.85720 6.92377   5
   8  -3   1 90.1521 8.67482   6
  -8  -3  -1 87.5044 8.31399   8
  -8  -3  -1 99.4858 6.59798   2
   8  -3   1 81.1447 8.94000   7
   8  -3   1 95.5970 8.98703   3
  -8   3  -1 96.4977 8.36045   1
  -8   3  -1 111.661 11.5040   5
   8   3   1 80.3698 7.87008   6
   8   3   1 88.3437 10.5853   3
   9  -3   1 4.59915 5.83562   3
   9  -3   1 0.57491 9.06254   7
  -9  -3  -1 2.07566 5.03092   8
  -9  -3  -1 3.58060 4.89941   2
   9  -3   1 4.08738 6.14491   6
  -9   3  -1 3.73476 6.31451   5
   9   3   1 -0.6460 7.70948   6
   9   3   1 7.51471 6.32239   3
  -9   3  -1 5.89496 5.91285   1
 -10  -3  -1 32.3074 6.86808   8
  10  -3   1 39.1754 11.4753   6
  10  -3   1 34.9525 9.29184   7
  10   3   1 54.6604 11.1342   6
 -10   3  -1 50.2130 8.89613   1
 -10   3  -1 62.0502 12.0979   5
  10  -4  -1 20.5094 8.99123   7
 -10  -4   1 17.3027 6.96742   8
  10  -4  -1 23.4215 8.63714   6
 -10   4   1 39.7642 13.0809   5
  10   4  -1 8.07209 10.8305   6
  10   4  -1 34.7797 9.85639   3
 -10   4   1 19.9995 8.21467   1
   9  -4  -1 141.653 13.3546   6
  -9  -4   1 172.515 12.3040   8
   9  -4  -1 154.966 12.4900   7
   9   4  -1 168.115 12.6943   3
  -9   4   1 178.740 14.1190   5
   9   4  -1 162.516 11.7215   6
  -9   4   1 163.962 12.1664   1
  -8  -4   1 1.10702 3.29242   2
  -8  -4   1 0.11122 4.40475   8
   8  -4  -1 -0.6788 5.62280   7
  -8  -4   1 0.67686 2.18620   9
   8  -4  -1 1.81223 7.44377   6
   8   4  -1 2.18283 6.94464   6
  -8   4   1 2.59126 5.21868   1
   8   4  -1 1.60095 5.64846   3
   7  -4  -1 0.04039 4.64652   7
  -7  -4   1 3.75069 2.71304   9
  -7  -4   1 1.46867 3.94560   8
  -7  -4   1 2.00211 2.79677   2
   7  -4  -1 -0.6754 4.42532   6
   7   4  -1 -1.1432 6.08479   6
   7   4  -1 2.16109 4.91231   3
  -7   4   1 1.44280 6.37630   1
  -6  -4   1 11.4248 2.39354   9
  -6  -4   1 9.44461 5.26228   8
  -6  -4   1 11.5412 2.65533   2
   6  -4  -1 11.3939 5.90369   6
   6  -4  -1 13.4911 4.90336   7
  -6   4   1 10.6125 4.59067   1
  -6   4   1 6.03381 3.18432   3
   6   4  -1 9.69824 6.87353   3
  -5  -4   1 769.222 24.2348   8
  -5  -4   1 783.966 27.4805   2
   5  -4  -1 759.897 28.5279   7
  -5  -4   1 747.913 23.5304   9
   5  -4  -1 769.441 26.4597   6
   5   4  -1 778.749 24.0940   3
  -5   4   1 841.543 33.6711   4
  -5   4   1 749.627 37.4351   3
  -5   4   1 773.780 50.3268   8
   5   4  -1 755.854 29.7009   5
   5   4  -1 821.831 35.6068   2
  -5   4   1 801.165 29.7290   1
  -4  -4   1 29.1917 4.06990   4
  -4  -4   1 28.6535 4.82529   8
   4  -4  -1 24.4502 4.01041   6
   4  -4  -1 33.0388 4.40827   7
  -4  -4   1 32.6497 2.73299   2
  -4  -4   1 29.8663 2.55301   9
  -4   4   1 24.4170 1.96685   8
   4   4  -1 30.9886 4.99385   3
   4   4  -1 22.1132 2.97808   2
   4   4  -1 28.0491 2.46425   5
  -4   4   1 30.5253 4.61080   1
  -4   4   1 23.5563 2.29610   4
   3  -4  -1 20.2453 3.37119   6
  -3  -4   1 22.0265 2.26599   9
  -3  -4   1 21.1935 2.32559   2
   3  -4  -1 17.9306 3.56436   7
  -3  -4   1 18.3510 3.35710   4
  -3  -4   1 18.8647 4.06726   8
   3  -4  -1 18.5449 3.68212   1
   3   4  -1 16.5371 3.20977   7
   3   4  -1 20.9847 3.11235   5
  -3   4   1 12.3742 3.99817   6
  -3   4   1 13.6594 1.98835   8
  -3   4   1 21.4532 4.13338   1
  -3   4   1 18.4768 2.52423   3
   3   4  -1 20.1815 4.08020   3
   3   4  -1 12.5610 2.31151   2
   2  -4  -1 769.643 29.5526   1
   2  -4  -1 737.985 21.3878   7
  -2  -4   1 786.574 23.8161   8
  -2  -4   1 742.820 25.6366   9
   2  -4  -1 754.192 17.3284   6
  -2   4   1 815.988 31.2119   7
   2   4  -1 811.533 31.1669   4
  -2   4   1 800.959 25.6606   8
   2   4  -1 801.429 31.4748   8
   2   4  -1 805.295 27.0214   9
   2   4  -1 775.149 33.3984   7
   2   4  -1 799.763 21.2106   2
  -2   4   1 774.969 25.5545   1
  -2   4   1 811.766 20.4752   6
  -2   4   1 822.360 32.3130   9
   2   4  -1 784.230 23.6729   3
   2   4  -1 771.498 39.2905   5
  -1  -4   1 63.0763 3.29262   9
   1  -4  -1 71.2810 4.81620   7
  -1  -4   1 72.5691 4.24157   8
   1  -4  -1 68.2413 4.46765   6
   1  -4  -1 70.5103 4.58964   9
   1   4  -1 66.5928 4.90910   7
  -1   4   1 66.1533 5.45646   1
   1   4  -1 65.9379 5.14391   5
  -1   4   1 61.1869 4.51735   6
   1   4  -1 70.1014 3.73248   9
  -1   4   1 66.8481 4.92332   2
  -1   4   1 65.8643 4.26466   7
   1   4  -1 58.8337 3.47345   2
   1   4  -1 72.6521 4.40010   4
  -1   4   1 67.7203 4.10148   4
  -1   4   1 68.0462 4.12832   8
   1   4  -1 52.6001 5.19394   3
   1   4  -1 65.1878 4.31495   8
  -1   4   1 55.3041 3.71495   3
   1   4  -1 61.1065 4.12435   6
  -1   4   1 71.1187 4.13038   9
   0  -4   1 3.73995 2.36043   9
   0  -4   1 2.06379 2.26388   7
   0  -4   1 1.85488 2.39249   8
   0  -4  -1 2.39150 2.56038   8
   0  -4  -1 -1.0107 2.52899   7
   0  -4  -1 3.76106 1.85842   9
   0   4   1 1.96285 1.87402   7
   0   4  -1 3.82157 2.89601   6
   0   4   1 3.99317 2.99484   3
   0   4  -1 3.49283 1.74801   9
   0   4  -1 0.69013 2.28509   3
   0   4   1 1.53599 2.82050   8
   0   4  -1 1.12528 3.68985   5
   0   4  -1 3.60047 1.82069   2
   0   4   1 4.58093 2.76373   1
   0   4   1 1.35396 1.82109   9
   0   4  -1 0.59205 3.05760   1
   0   4  -1 0.53391 2.52615   4
   0   4   1 1.93772 1.90601   6
   0   4  -1 1.39741 2.92254   7
   0   4   1 1.53832 2.72290   4
   0   4  -1 1.77757 1.91630   8
   0   4   1 3.62269 2.60915   2
  -1  -4  -1 1782.71 56.7681   8
   1  -4   1 1806.20 81.6737   7
   1  -4   1 1824.14 80.1323   6
  -1  -4  -1 1786.19 45.7685   9
   1  -4   1 1766.11 55.8049   8
  -1  -4  -1 1764.56 50.7739   2
  -1   4  -1 1879.74 114.812   7
  -1   4  -1 1878.70 45.5741   5
   1   4   1 1899.31 56.2064   2
  -1   4  -1 1900.67 105.228   6
   1   4   1 1909.97 76.8246   7
   1   4   1 1799.44 51.8979   3
  -1   4  -1 1929.32 79.0205   9
   1   4   1 1834.59 44.4419   5
  -1   4  -1 1951.73 53.8153   4
   1   4   1 1919.14 59.3362   9
   1   4   1 1928.47 52.6140   4
  -1   4  -1 1885.82 77.3350   1
  -1   4  -1 1912.94 48.7916   8
   1   4   1 1913.14 64.3344   6
   1   4   1 1919.38 74.5722   8
  -2  -4  -1 48.2073 3.38848   9
  -2  -4  -1 49.9047 4.46179   3
   2  -4   1 49.2862 4.98742   1
  -2  -4  -1 48.7529 4.02675   8
  -2  -4  -1 47.3758 3.16932   2
   2  -4   1 45.2901 4.34078   7
   2  -4   1 45.1303 4.77680   6
   2   4   1 45.6133 4.60245   3
   2   4   1 48.1412 4.26994   7
  -2   4  -1 38.2364 2.73409   4
  -2   4  -1 36.5742 3.95604   6
  -2   4  -1 43.1269 5.23818   5
  -2   4  -1 39.9264 4.15470   9
  -2   4  -1 45.0723 4.39057   7
  -2   4  -1 46.1088 2.85583   8
   2   4   1 45.4378 3.54937   9
   2   4   1 41.3134 3.66266   2
   2   4   1 47.6383 3.70407   5
  -2   4  -1 57.1666 4.47036   1
   2   4   1 49.8596 4.27379   4
   2   4   1 40.1047 3.99588   8
  -3  -4  -1 262.645 8.23398   9
  -3  -4  -1 240.418 8.95731   2
   3  -4   1 271.919 10.4709   7
   3  -4   1 242.190 14.1723   1
   3  -4   1 262.807 9.91538   6
  -3  -4  -1 242.073 9.74803   8
   3   4   1 252.803 11.5743   2
   3   4   1 250.073 8.18492   5
  -3   4  -1 248.497 13.8618   3
  -3   4  -1 261.420 9.51389   1
  -3   4  -1 251.812 11.5043   8
  -3   4  -1 266.714 8.00496   4
   3   4   1 255.070 10.6177   3
  -3   4  -1 257.302 13.9828   5
   4  -4   1 7.72014 3.95488   7
   4  -4   1 10.0809 3.62483   1
  -4  -4  -1 8.47803 2.53892   9
   4  -4   1 9.13215 4.65691   6
  -4  -4  -1 13.2946 2.77230   2
  -4  -4  -1 14.3524 4.35697   8
   4   4   1 7.84164 3.98209   3
  -4   4  -1 12.3388 3.62206   1
   4   4   1 8.92161 1.05118   5
   4   4   1 7.05843 2.41446   2
  -4   4  -1 10.6650 4.74640   5
  -4   4  -1 11.2077 2.58365   3
  -5  -4  -1 452.290 12.3319   9
  -5  -4  -1 449.076 15.3243   8
   5  -4   1 478.649 17.0821   6
  -5  -4  -1 447.663 12.4225   2
   5  -4   1 460.347 19.2323   7
  -5   4  -1 471.800 18.7202   1
  -5   4  -1 480.651 17.2494   5
   5   4   1 452.025 15.9932   3
  -5   4  -1 462.340 20.7455   3
   5   4   1 499.311 17.0884   2
  -6  -4  -1 290.613 12.2560   9
   6  -4   1 281.931 18.9361   6
   6  -4   1 291.262 20.4041   7
  -6  -4  -1 271.969 13.1207   2
  -6  -4  -1 264.362 10.9040   8
  -6   4  -1 281.909 11.7614   1
  -6   4  -1 289.358 15.1182   5
  -6   4  -1 252.063 17.7698   3
   6   4   1 288.797 11.2992   6
   6   4   1 263.851 13.3749   3
  -7  -4  -1 25.3742 6.43182   8
   7  -4   1 27.1015 6.46747   7
  -7  -4  -1 47.1251 4.53621   9
   7  -4   1 41.4174 8.11298   6
  -7  -4  -1 39.7948 3.95429   2
   7   4   1 39.7822 6.98972   3
   7   4   1 30.6327 6.91209   6
  -7   4  -1 38.2244 9.66742   5
  -7   4  -1 29.3964 5.79289   1
   8  -4   1 17.5207 4.13749   3
   8  -4   1 11.4323 6.12247   6
  -8  -4  -1 7.39854 6.73715   8
  -8  -4  -1 9.26272 4.59712   2
   8  -4   1 16.0285 9.07578   7
  -8  -4  -1 12.2920 4.42079   9
  -8   4  -1 6.64131 7.37848   1
   8   4   1 7.80738 5.31806   6
  -8   4  -1 17.6996 10.2155   5
   8   4   1 9.09442 10.4673   3
  -9  -4  -1 83.8952 34.9328   8
   9  -4   1 97.9698 10.4356   6
   9  -4   1 103.025 11.2489   7
   9   4   1 83.1712 11.1135   6
  -9   4  -1 108.878 13.7647   5
   9   4   1 104.990 11.4364   3
  -9   4  -1 102.463 10.0139   1
 -10  -4  -1 13.9475 7.07568   8
  10  -4   1 14.5626 8.51776   6
  10  -4   1 18.9893 12.4281   7
 -10   4  -1 22.7417 9.74203   5
  10   4   1 14.0914 10.8107   6
  10   4   1 26.5203 9.58950   3
 -10   4  -1 8.06805 7.82568   1
   9  -5  -1 69.0684 10.1706   7
  -9  -5   1 56.4370 10.0412   8
   9  -5  -1 56.1911 11.4524   6
  -9   5   1 70.4364 14.5124   5
  -9   5   1 47.8627 8.91982   1
   8  -5  -1 82.8125 9.39893   6
  -8  -5   1 73.8312 9.79181   8
   8  -5  -1 83.7170 9.71832   7
   8   5  -1 60.4655 9.53765   3
   8   5  -1 72.8259 8.50689   6
  -8   5   1 68.7064 10.7879   1
  -8   5   1 79.3892 11.2545   5
   7  -5  -1 39.8567 8.83033   7
  -7  -5   1 46.6283 3.99396   9
  -7  -5   1 40.3925 5.49535   2
  -7  -5   1 43.6055 7.86995   8
   7  -5  -1 56.8319 9.00494   6
   7   5  -1 43.9952 7.92250   3
  -7   5   1 34.6329 8.35585   1
   7   5  -1 37.9830 6.48116   6
  -6  -5   1 793.666 32.1116   2
   6  -5  -1 813.941 33.1797   6
  -6  -5   1 776.292 32.9912   8
  -6  -5   1 784.877 37.8438   9
   6  -5  -1 799.368 33.4044   7
  -6   5   1 824.210 28.1336   1
   6   5  -1 795.477 28.7035   3
  -5  -5   1 45.9060 3.52924   9
   5  -5  -1 56.7768 6.11642   6
  -5  -5   1 31.5856 6.17467   8
   5  -5  -1 37.4102 5.88019   7
  -5  -5   1 41.8067 3.54939   2
  -5   5   1 37.3515 2.96402   4
  -5   5   1 38.8408 7.49074   1
   5   5  -1 41.3038 2.76051   5
   5   5  -1 42.9246 8.20535   3
  -4  -5   1 23.3176 2.36164   9
  -4  -5   1 26.5928 2.55391   2
   4  -5  -1 26.5062 4.75119   7
   4  -5  -1 23.5814 4.27226   6
  -4  -5   1 19.2594 5.17368   8
  -4   5   1 16.6652 2.53850   8
   4   5  -1 17.5698 2.87302   5
  -4   5   1 19.9702 2.51623   4
  -4   5   1 24.0956 10.0413   1
   4   5  -1 19.7711 3.43614   2
   4   5  -1 20.8305 5.23966   3
  -4   5   1 20.0866 2.72525   3
   3  -5  -1 26.3140 4.35596   7
  -3  -5   1 24.9572 2.86143   9
  -3  -5   1 23.4152 3.92608   8
   3  -5  -1 25.0678 4.12364   6
  -3   5   1 16.0325 2.97023   8
  -3   5   1 16.0513 4.32541   1
   3   5  -1 19.5966 3.58617   5
  -3   5   1 17.6859 2.96829   4
   3   5  -1 14.7343 3.04275   2
   3   5  -1 18.8890 3.20358   9
  -3   5   1 21.9091 2.85330   3
   3   5  -1 21.3384 4.85439   3
   2  -5  -1 382.562 38.2062   1
  -2  -5   1 406.662 18.9078   8
   2  -5  -1 406.809 11.9914   6
  -2  -5   1 390.260 17.0882   9
   2  -5  -1 391.486 14.7347   7
  -2   5   1 413.390 19.1992   8
   2   5  -1 420.117 13.3217   9
   2   5  -1 394.156 21.3142   5
  -2   5   1 415.623 17.4097   7
  -2   5   1 401.321 16.0388   1
   2   5  -1 406.061 14.9522   3
  -2   5   1 392.825 16.7711   4
  -2   5   1 408.669 17.1213   3
   2   5  -1 410.594 13.6829   2
   2   5  -1 415.754 13.5684   7
  -2   5   1 413.194 24.3969   6
   1  -5  -1 7.54761 3.49401   7
  -1  -5   1 8.74088 2.16058   9
  -1  -5   1 7.82820 2.64679   8
   1  -5  -1 7.93454 2.67715   9
   1   5  -1 7.33715 3.21664   5
   1   5  -1 5.43133 2.67260   6
   1   5  -1 8.32161 3.03565   4
  -1   5   1 4.64729 3.47260   6
   1   5  -1 2.95305 3.04012   1
   1   5  -1 3.63111 3.59883   7
   1   5  -1 3.99845 2.10183   2
   1   5  -1 4.75768 2.68116   9
  -1   5   1 9.15159 3.97107   5
   1   5  -1 5.78538 3.33523   3
  -1   5   1 5.32452 2.52130   3
  -1   5   1 3.00169 3.17667   4
  -1   5   1 5.45021 4.56163   1
   1   5  -1 4.49313 2.95964   8
  -1   5   1 3.95438 3.50896   7
  -1   5   1 3.64376 3.16198   8
   0  -5  -1 144.758 6.66633   8
   0  -5   1 143.311 6.07434   8
   0  -5  -1 141.578 6.47084   9
   0  -5   1 153.220 6.46876   9
   0  -5  -1 150.618 6.71917   7
   0  -5   1 141.042 7.48668   7
   0   5  -1 135.942 6.23455   8
   0   5  -1 128.648 8.66640   6
   0   5  -1 130.320 7.40455   9
   0   5  -1 134.917 8.04336   2
   0   5   1 134.938 7.67543   2
   0   5   1 130.770 7.63251   3
   0   5   1 128.295 7.04310   7
   0   5   1 122.852 6.99782   8
   0   5   1 138.032 7.98149   6
   0   5  -1 129.358 6.69582   4
   0   5  -1 133.726 7.39946   1
   0   5   1 139.552 7.96907   9
   0   5   1 124.906 7.13014   4
   0   5  -1 142.498 7.87051   3
   0   5   1 144.691 7.78528   5
   0   5  -1 132.114 9.38327   7
   0   5  -1 126.761 8.74725   5
   0   5   1 143.163 8.16548   1
  -1  -5  -1 -0.1083 2.39304   8
   1  -5   1 1.50265 2.56283   8
   1  -5   1 1.76027 2.75286   7
  -1  -5  -1 0.79495 2.53735   9
  -1   5  -1 -1.2532 2.30179   9
  -1   5  -1 -1.0808 1.92958   8
   1   5   1 -0.6531 3.04794   7
  -1   5  -1 0.27924 2.77756   4
   1   5   1 2.23171 3.00170   9
  -1   5  -1 -2.5181 2.34246   2
   1   5   1 1.17786 4.12282   3
   1   5   1 1.10779 2.28314   2
  -1   5  -1 -3.4910 3.71929   6
  -1   5  -1 -0.2466 3.82777   7
  -1   5  -1 3.24201 2.81690   1
  -1   5  -1 -1.2212 3.35667   5
   1   5   1 -1.1925 3.15785   1
   1   5   1 1.95963 2.78255   5
   1   5   1 -1.7168 2.97705   6
   2  -5   1 1434.13 70.0447   1
  -2  -5  -1 1401.70 46.8011   9
  -2  -5  -1 1388.99 57.3915   8
   2  -5   1 1451.07 40.4144   7
  -2  -5  -1 1359.93 47.8198   2
   2  -5   1 1439.14 45.5710   6
  -2   5  -1 1467.60 77.9701   1
   2   5   1 1543.99 55.7429   9
  -2   5  -1 1491.64 38.8994   5
  -2   5  -1 1517.36 68.8428   4
   2   5   1 1465.86 44.9582   3
  -2   5  -1 1530.79 74.5147   8
   2   5   1 1521.91 48.5296   2
   2   5   1 1532.13 52.8189   7
   2   5   1 1480.65 66.8477   5
  -3  -5  -1 1.01677 1.97449   2
   3  -5   1 3.08009 4.85165   7
   3  -5   1 -0.0798 3.01347   6
  -3  -5  -1 8.34612 4.43882   8
  -3  -5  -1 1.84743 2.62802   9
   3  -5   1 -4.1612 3.57720   1
  -3   5  -1 -0.0492 20.1815   5
   3   5   1 -1.6036 3.69194   3
   3   5   1 -2.1886 3.76880   7
  -3   5  -1 1.26046 1.80841   4
  -3   5  -1 1.85437 3.27372   1
  -3   5  -1 1.73048 3.42076   3
   3   5   1 4.58621 3.18630   2
   3   5   1 2.33925 2.47143   5
  -3   5  -1 3.43529 1.79327   8
  -4  -5  -1 0.17951 3.11975   8
  -4  -5  -1 -1.0080 1.90886   2
   4  -5   1 -1.6593 4.85889   6
   4  -5   1 -2.2718 5.08223   7
  -4  -5  -1 2.15812 1.94061   9
  -4   5  -1 0.49405 1.20390   4
   4   5   1 1.02429 1.76714   5
  -4   5  -1 3.58705 7.21194   5
  -4   5  -1 3.26189 3.58916   1
   4   5   1 -2.2582 5.83502   3
  -4   5  -1 0.67308 3.24444   3
   4   5   1 1.27823 3.35376   2
  -4   5  -1 0.70880 1.16109   8
  -5  -5  -1 293.889 9.43115   2
  -5  -5  -1 276.575 11.8659   9
  -5  -5  -1 269.499 12.3050   8
   5  -5   1 283.214 13.5062   6
   5  -5   1 314.971 14.1127   7
   5   5   1 279.111 14.0601   3
   5   5   1 319.343 17.4764   2
  -5   5  -1 310.080 12.2116   1
  -5   5  -1 313.182 26.8939   5
  -5   5  -1 263.183 15.9824   3
   6  -5   1 38.2503 6.33805   6
  -6  -5  -1 42.1354 3.69458   9
  -6  -5  -1 35.3704 5.57134   8
   6  -5   1 30.1690 6.34992   7
  -6  -5  -1 43.5744 4.54061   2
  -6   5  -1 39.8422 5.97209   1
   6   5   1 45.9166 5.71721   6
   6   5   1 41.5791 7.03963   3
  -6   5  -1 45.4498 8.28123   5
  -7  -5  -1 -1.5952 3.35534   9
  -7  -5  -1 -1.3042 4.59203   8
  -7  -5  -1 3.23860 2.69773   2
   7  -5   1 -2.1067 5.21305   6
   7  -5   1 -1.5879 5.22286   7
  -7   5  -1 0.59593 9.54310   5
  -7   5  -1 8.46434 5.29171   1
   7   5   1 -2.9863 5.60076   3
   7   5   1 1.39315 6.32190   6
  -8  -5  -1 4.30996 7.62068   8
   8  -5   1 -2.5891 6.07769   6
   8  -5   1 3.01254 8.89347   7
   8   5   1 0.18109 6.88395   3
  -8   5  -1 2.96468 7.55278   5
  -8   5  -1 -7.2768 5.56672   1
   8   5   1 -0.7937 5.11511   6
   9  -5   1 -3.5664 6.68899   6
   9  -5   1 1.26060 7.22266   7
  -9  -5  -1 -1.9766 8.39106   8
  -9   5  -1 -3.3049 8.92705   1
  -9   5  -1 4.37650 8.15414   5
   9   5   1 1.75028 6.34535   6
   9   5   1 -3.8844 10.3071   3
   9  -6  -1 145.384 15.2096   6
  -9  -6   1 129.468 11.6413   8
   9  -6  -1 123.579 13.1448   7
   9   6  -1 134.315 14.4253   6
  -9   6   1 138.658 13.3081   1
  -9   6   1 111.389 14.7041   5
   9   6  -1 142.171 13.9317   3
   8  -6  -1 2.22787 6.67499   6
   8  -6  -1 -4.2188 7.29879   7
  -8  -6   1 -1.0516 5.60296   8
   8   6  -1 1.77057 8.87914   6
  -8   6   1 5.70685 9.10402   5
   8   6  -1 3.52729 8.09575   3
  -8   6   1 -1.1150 6.47933   1
   7  -6  -1 20.8524 7.32163   7
   7  -6  -1 24.9362 6.78918   6
  -7  -6   1 11.0663 5.74232   8
   7   6  -1 16.3939 7.76525   3
  -7   6   1 10.6325 6.27246   1
  -7   6   1 31.6337 9.55902   5
  -6  -6   1 0.35671 4.57505   8
   6  -6  -1 1.12562 5.07633   6
  -6  -6   1 2.72833 3.18410   2
   6  -6  -1 -5.1559 5.51199   7
   6   6  -1 -4.3062 8.87117   3
  -6   6   1 0.34995 7.31310   5
  -6   6   1 -2.8450 5.14805   1
  -5  -6   1 43.6206 4.02712   9
  -5  -6   1 51.3990 4.27395   2
  -5  -6   1 27.7767 6.88316   8
   5  -6  -1 41.8624 6.46641   7
   5  -6  -1 37.0657 7.41083   6
  -5   6   1 35.6560 8.27404   5
   5   6  -1 30.5375 8.90616   3
  -5   6   1 50.1371 7.05679   1
  -4  -6   1 13.6502 5.75821   8
   4  -6  -1 15.9108 4.51158   6
  -4  -6   1 14.5312 2.47258   9
   4  -6  -1 13.9319 4.85118   7
   4   6  -1 9.41812 5.55955   3
  -4   6   1 14.0849 5.23883   1
  -4   6   1 11.1317 6.46228   5
   4   6  -1 14.3899 3.70476   5
  -3  -6   1 201.452 9.34416   8
   3  -6  -1 198.121 9.74913   7
   3  -6  -1 190.406 9.31987   6
  -3  -6   1 209.601 8.17153   9
  -3   6   1 192.221 9.79923   3
   3   6  -1 203.483 10.0151   9
  -3   6   1 206.323 7.58236   8
   3   6  -1 180.467 13.5973   3
  -3   6   1 206.079 12.2426   5
   3   6  -1 189.148 9.58140   5
  -3   6   1 190.085 8.37854   3
   3   6  -1 201.523 8.42148   2
  -3   6   1 183.302 11.4790   1
  -3   6   1 177.867 10.6078   4
   2  -6  -1 -0.2722 4.52189   6
  -2  -6   1 2.78700 4.33907   8
   2  -6  -1 1.41628 3.34577   7
  -2  -6   1 0.10960 2.95968   9
  -2   6   1 0.75422 2.44212   4
   2   6  -1 -1.0823 4.14302   3
  -2   6   1 1.82977 2.63069   8
   2   6  -1 -0.4706 4.27618   5
  -2   6   1 1.16621 5.82349   1
   2   6  -1 -1.4264 3.22108   9
   2   6  -1 -0.1968 2.59217   2
  -2   6   1 -1.4358 4.58715   5
  -2   6   1 1.89395 3.55679   3
   1  -6  -1 293.664 13.3980   9
  -1  -6   1 293.923 12.1177   9
  -1  -6   1 298.504 11.9032   8
   1  -6  -1 283.196 11.0739   7
   1   6  -1 270.326 23.7970   2
   1   6  -1 282.932 13.8881   1
  -1   6   1 319.323 13.2735   5
   1   6  -1 299.523 16.4688   3
  -1   6   1 290.884 11.3385   8
   1   6  -1 269.184 14.5345   5
  -1   6   1 291.043 12.6467   1
  -1   6   1 297.238 13.4399   4
  -1   6   1 293.507 18.9894   3
   0  -6  -1 48.7865 4.85030   7
   0  -6  -1 42.3839 4.93677   9
   0  -6   1 43.2010 4.23156   8
   0  -6   1 40.2763 4.85584   7
   0   6  -1 41.6230 5.15893   1
   0   6   1 36.5321 11.4573   1
   0   6  -1 43.7036 6.26488   3
   0   6   1 28.1206 5.08149   5
   0   6   1 38.6660 4.93606   3
   0   6  -1 29.1935 5.42200   5
  -1  -6  -1 69.9233 5.30260   9
   1  -6   1 63.0139 4.60284   8
   1  -6   1 73.9348 6.72294   7
  -1  -6  -1 78.0538 6.37541   8
  -1   6  -1 62.0506 6.74449   1
  -1   6  -1 49.8299 5.30542   4
   1   6   1 59.5653 7.63293   1
   1   6   1 52.6194 6.47760   5
   1   6   1 56.0827 6.94345   3
  -1   6  -1 55.3137 6.84196   5
  -1   6  -1 50.9932 5.36748   8
  -1   6  -1 70.0498 6.49258   3
  -2  -6  -1 77.1701 5.36560   9
   2  -6   1 82.6409 6.40507   6
  -2  -6  -1 70.4705 5.85248   8
   2  -6   1 77.7342 6.49605   7
  -2   6  -1 65.8879 5.05978   8
  -2   6  -1 71.2703 7.55160   1
   2   6   1 74.9649 6.42501   5
   2   6   1 78.2492 7.09832   3
  -2   6  -1 58.0884 4.91122   4
  -2   6  -1 66.9336 9.01948   5
  -3  -6  -1 99.1378 5.22632   9
   3  -6   1 92.7029 8.05437   6
  -3  -6  -1 92.0886 5.92015   2
  -3  -6  -1 90.3761 6.76391   8
   3  -6   1 85.9823 7.25809   7
  -3   6  -1 83.0310 8.23411   1
   3   6   1 80.1555 5.89639   5
  -3   6  -1 78.1859 6.68322   3
   3   6   1 84.8550 7.91743   3
  -3   6  -1 69.9538 9.91796   5
  -4  -6  -1 -0.9664 3.06240   9
  -4  -6  -1 -0.1026 2.21013   2
   4  -6   1 -1.1962 4.10571   6
   4  -6   1 -1.7533 4.28411   7
  -4  -6  -1 2.73570 5.50463   8
   4   6   1 6.76197 5.18778   3
  -4   6  -1 0.78433 5.56684   5
  -4   6  -1 4.24169 5.74795   1
   4   6   1 -1.2673 2.88976   5
   5  -6   1 306.026 13.7725   7
   5  -6   1 278.153 16.4491   6
  -5  -6  -1 306.967 13.6609   2
  -5  -6  -1 304.148 14.4085   9
  -5  -6  -1 285.016 13.4124   8
  -5   6  -1 325.956 15.4131   1
  -5   6  -1 328.081 16.5827   5
   5   6   1 307.254 17.7187   3
   6  -6   1 125.145 10.0111   6
  -6  -6  -1 134.937 10.7988   8
   6  -6   1 160.248 12.4553   7
  -6  -6  -1 165.528 8.76592   2
  -6  -6  -1 162.574 8.53219   9
  -6   6  -1 136.631 9.92698   1
  -6   6  -1 169.463 13.5164   5
   6   6   1 156.850 11.7067   3
  -7  -6  -1 5.19537 10.0587   8
   7  -6   1 4.93422 6.78177   7
   7  -6   1 4.12826 6.06213   6
  -7   6  -1 0.68940 11.0877   5
   7   6   1 7.52575 7.30668   3
  -7   6  -1 -2.2681 7.79813   1
   7   6   1 3.46384 5.16551   6
   8  -6   1 3.46309 7.33839   6
  -8  -6  -1 10.0772 8.95969   8
   8  -6   1 22.3073 11.5631   7
  -8   6  -1 9.07261 9.28075   1
   8   6   1 0.21185 6.07469   6
  -8   6  -1 17.9123 9.18052   5
   8   6   1 10.8686 8.57795   3
   8  -7  -1 -0.6096 7.28959   6
   8  -7  -1 10.9518 11.0238   7
   8   7  -1 7.75268 9.87242   6
  -8   7   1 1.99740 12.0133   1
   8   7  -1 -0.9744 8.98704   3
  -8   7   1 13.7495 10.2380   5
   7  -7  -1 11.9639 10.7984   7
  -7  -7   1 19.2491 15.8368   8
   7  -7  -1 10.7007 7.55927   6
  -7   7   1 4.72926 9.82109   5
  -7   7   1 18.4288 9.88646   1
   7   7  -1 17.9888 8.97597   3
   6  -7  -1 177.427 12.9288   6
  -6  -7   1 128.797 11.6574   8
   6  -7  -1 179.197 14.9180   7
  -6   7   1 144.960 14.1214   5
   6   7  -1 134.488 12.5526   3
  -6   7   1 144.469 11.2019   1
   5  -7  -1 8.24818 5.71338   6
   5  -7  -1 6.62471 5.77076   7
  -5  -7   1 3.77721 7.04737   8
  -5   7   1 10.8140 8.05385   1
  -5   7   1 8.29508 8.28786   5
   5   7  -1 1.45193 9.73978   3
  -4  -7   1 71.6467 5.20033   9
  -4  -7   1 52.7103 8.12977   8
   4  -7  -1 69.0008 8.96581   7
   4  -7  -1 66.0518 8.49451   6
  -4   7   1 54.6726 9.57816   5
   4   7  -1 59.3178 10.5122   3
  -4   7   1 42.7949 9.07651   1
   3  -7  -1 4.33157 5.95095   7
   3  -7  -1 2.14854 4.24017   6
  -3  -7   1 0.39988 4.10534   8
  -3  -7   1 0.78574 2.56690   9
   3   7  -1 0.92770 3.39483   5
  -3   7   1 1.05970 3.19116   3
  -3   7   1 4.49512 6.28138   5
  -3   7   1 0.57155 8.68174   1
   3   7  -1 -3.0491 5.48169   3
  -2  -7   1 226.026 9.71473   9
  -2  -7   1 226.824 10.3154   8
   2  -7  -1 227.424 10.6255   7
  -2   7   1 226.193 14.2913   3
   2   7  -1 227.430 12.2728   3
  -2   7   1 218.609 13.0660   5
   2   7  -1 199.650 11.1441   5
   2   7  -1 225.461 11.8799   1
  -2   7   1 215.333 11.8383   1
  -1  -7   1 200.091 9.07609   8
   1  -7  -1 197.866 11.1510   7
  -1  -7   1 212.856 8.46829   9
   1   7  -1 183.389 12.0176   3
   1   7  -1 178.661 10.9498   1
  -1   7   1 208.446 12.2761   1
   1   7  -1 198.603 12.4110   5
  -1   7   1 179.229 11.7046   3
  -1   7   1 202.335 11.7311   5
   0  -7   1 25.4910 4.19042   8
   0  -7  -1 13.5119 5.93960   7
   0  -7   1 18.1112 4.82271   7
   0  -7  -1 24.7096 5.25417   9
   0   7  -1 7.87108 6.77711   3
   0   7   1 4.54309 4.87462   5
   0   7   1 13.1861 6.58304   3
   0   7   1 16.9955 5.46262   1
   0   7  -1 12.4288 5.78516   5
   0   7  -1 8.98196 4.81393   1
  -1  -7  -1 1.98548 3.76835   8
   1  -7   1 5.09902 5.79725   7
  -1  -7  -1 7.63786 3.38639   9
  -1   7  -1 4.52922 5.95337   1
   1   7   1 1.67611 4.80442   1
  -1   7  -1 14.3008 61.5950   5
   1   7   1 -3.7079 6.07743   5
  -1   7  -1 1.22895 4.27636   3
   1   7   1 -0.2874 6.31190   3
   2  -7   1 94.1056 7.79621   7
  -2  -7  -1 95.9082 6.49835   9
  -2  -7  -1 85.5009 6.99441   8
  -2   7  -1 86.4544 9.44629   5
   2   7   1 83.3674 9.78459   3
   2   7   1 94.1172 7.13854   5
  -2   7  -1 88.0056 9.22867   1
  -2   7  -1 90.3898 8.12036   3
   2   7   1 90.3708 8.65622   1
   3  -7   1 7.37818 6.35587   6
  -3  -7  -1 5.92224 3.95161   9
  -3  -7  -1 7.51354 4.34208   8
   3  -7   1 10.5329 4.98027   7
   3   7   1 2.79682 7.47630   3
  -3   7  -1 1.74889 6.34894   5
  -3   7  -1 1.69128 11.8539   1
   3   7   1 11.4595 4.77461   5
  -4  -7  -1 17.8896 4.21400   9
   4  -7   1 9.74179 5.23022   6
   4  -7   1 6.46147 5.31701   7
  -4  -7  -1 16.5686 5.31227   8
   4   7   1 15.6857 8.86101   3
  -4   7  -1 4.50236 7.31950   1
  -4   7  -1 8.84521 9.98145   5
   5  -7   1 319.269 14.9541   7
   5  -7   1 298.345 16.8960   6
  -5  -7  -1 330.511 16.2010   2
  -5  -7  -1 314.512 17.3657   9
  -5  -7  -1 304.188 13.6363   8
   5   7   1 282.774 18.0143   3
  -5   7  -1 311.457 20.3908   1
  -5   7  -1 309.091 19.6503   5
  -6  -7  -1 218.450 12.1996   8
   6  -7   1 194.803 13.7413   6
   6  -7   1 199.377 14.6476   7
   6   7   1 186.925 13.7279   3
  -6   7  -1 181.214 17.8678   5
  -6   7  -1 211.376 13.8556   1
   7  -7   1 -0.4153 7.14922   6
   7  -7   1 -3.7962 7.43812   7
  -7  -7  -1 -2.0737 6.08345   8
  -7   7  -1 -1.6086 9.25929   5
   7   7   1 -3.0996 5.56246   6
  -7   7  -1 -2.4579 8.41929   1
   7   7   1 0.36129 8.05289   3
   8  -7   1 86.1364 10.8284   6
  -8  -7  -1 76.7873 9.62744   8
   8   7   1 73.9091 12.1261   3
  -8   7  -1 60.3432 11.9500   1
   6  -8  -1 48.3956 8.71395   7
  -6  -8   1 42.3774 8.11802   8
   6  -8  -1 37.9595 11.1193   6
  -6   8   1 46.3838 11.2137   1
  -6   8   1 48.1743 11.4162   5
   6   8  -1 46.0609 10.8354   3
  -5  -8   1 169.109 11.9581   8
   5  -8  -1 187.149 13.8631   7
   5  -8  -1 183.671 12.9115   6
   5   8  -1 166.637 13.8923   3
  -5   8   1 140.505 14.6891   5
  -5   8   1 155.829 12.7854   1
   4  -8  -1 84.4099 10.2083   7
  -4  -8   1 90.2679 10.1244   8
   4  -8  -1 85.5027 10.3758   6
   4   8  -1 83.5179 10.7771   3
  -4   8   1 70.9285 11.8856   1
  -4   8   1 82.6380 11.7422   5
  -3  -8   1 -1.2411 7.95109   8
  -3  -8   1 -0.3114 2.88973   9
   3  -8  -1 -6.4070 6.97987   7
  -3   8   1 7.81129 7.36424   5
   3   8  -1 -3.0938 6.70363   3
   3   8  -1 -4.1933 7.99703   1
  -3   8   1 -3.3109 8.14602   1
  -2  -8   1 132.161 8.70492   8
   2  -8  -1 127.922 10.3318   7
  -2  -8   1 93.0262 6.64943   9
  -2   8   1 108.252 9.53789   3
   2   8  -1 112.486 10.4932   5
  -2   8   1 121.318 11.8404   5
   2   8  -1 95.7298 9.56924   1
   2   8  -1 100.389 10.2981   3
  -2   8   1 101.486 11.5259   1
  -1  -8   1 12.0711 6.34521   8
   1  -8  -1 13.1635 5.83416   7
   1   8  -1 4.10860 7.71874   1
   1   8  -1 8.51132 23.1468   5
  -1   8   1 9.21085 6.42373   5
   1   8  -1 9.05611 8.33337   3
  -1   8   1 5.67115 7.98682   1
  -1   8   1 14.6122 7.00058   3
   0  -8  -1 19.2167 4.93005   9
   0   8   1 9.05036 6.54403   5
   0   8   1 57.0939 18.1752   3
   0   8   1 8.01017 8.79985   1
   0   8  -1 45.5975 26.9866   1
   0   8  -1 12.9790 8.53723   3
   0   8  -1 15.3419 6.82971   5
  -1  -8  -1 66.6908 8.16938   9
   1  -8   1 68.4571 7.29959   7
  -1   8  -1 48.1394 8.71699   5
   1   8   1 54.5023 9.78055   3
  -1   8  -1 47.8289 7.34530   1
   1   8   1 49.4350 8.12535   1
   1   8   1 46.8813 9.22091   5
  -1   8  -1 57.7411 8.89440   3
   2  -8   1 -3.0968 7.10852   7
  -2  -8  -1 -3.6045 4.96602   8
  -2  -8  -1 0.20634 4.86160   9
   2   8   1 -5.1176 8.28399   3
  -2   8  -1 -1.2303 5.27931   1
   2   8   1 -0.2702 6.33385   5
   2   8   1 -3.5750 8.18632   1
  -2   8  -1 -2.6486 6.78512   5
  -2   8  -1 4.43980 6.66233   3
   3  -8   1 208.593 13.2857   7
  -3  -8  -1 226.516 12.8714   8
  -3  -8  -1 222.598 12.2089   9
   3   8   1 197.799 12.9667   3
  -3   8  -1 200.191 13.9597   1
  -3   8  -1 220.074 15.3586   5
  -3   8  -1 170.215 13.8542   3
   3   8   1 200.241 13.1979   1
  -4  -8  -1 14.0707 6.03891   8
  -4  -8  -1 6.88412 4.85504   9
   4  -8   1 9.24480 6.08524   6
   4  -8   1 5.60921 6.06935   7
   4   8   1 2.61872 7.77012   3
  -4   8  -1 10.3400 8.98316   1
  -4   8  -1 8.17161 8.71070   5
   5  -8   1 143.221 11.4499   7
   5  -8   1 160.811 11.3524   6
  -5  -8  -1 147.824 10.8839   8
  -5   8  -1 120.505 12.5684   1
  -5   8  -1 142.053 14.4001   5
   5   8   1 135.580 32.2883   3
   6  -8   1 4.33058 10.3782   7
  -6  -8  -1 -1.4811 6.21285   8
   6  -8   1 9.64164 7.47749   6
  -6   8  -1 4.06015 6.56976   1
   6   8   1 -0.5260 8.16752   3
  -6   8  -1 9.05114 9.79647   5
   5  -9  -1 10.6864 6.89077   6
  -5  -9   1 -0.6612 6.29282   8
   5  -9  -1 8.36305 9.72469   7
  -5   9   1 -4.5548 10.2021   1
   4  -9  -1 25.5031 10.3900   7
   4   9  -1 30.1522 10.3150   3
  -4   9   1 17.4073 8.66500   1
   4   9  -1 27.1447 8.90730   1
  -4   9   1 30.7094 10.4858   5
   3  -9  -1 -0.2779 5.80781   7
  -3  -9   1 0.82077 6.04792   8
   3   9  -1 0.04984 8.43166   3
  -3   9   1 6.39276 10.4302   1
   3   9  -1 1.45415 9.34584   1
  -3   9   1 5.79186 8.51755   5
   2  -9  -1 450.787 28.2616   7
  -2  -9   1 500.316 24.8140   8
   2   9  -1 478.724 22.6889   1
  -2   9   1 463.395 27.1095   1
  -2   9   1 508.668 24.2434   5
   2   9  -1 486.436 33.7802   3
   1  -9  -1 230.725 13.6131   7
   1   9  -1 200.410 13.8369   3
   1   9  -1 181.069 16.4409   5
  -1   9   1 224.630 14.8459   5
  -1   9   1 206.360 16.7972   3
  -1   9   1 198.748 15.3891   1
   1   9  -1 193.637 13.6001   1
   0   9  -1 161.383 13.8518   1
   0   9   1 161.374 14.7471   1
   0   9   1 158.969 12.9238   5
   0   9   1 156.606 13.3643   3
   0   9  -1 168.395 13.1919   5
   0   9  -1 142.086 13.6175   3
   1  -9   1 50.8212 8.26089   7
  -1   9  -1 41.6447 8.82927   1
  -1   9  -1 22.2087 8.99628   5
   1   9   1 43.9109 9.02515   1
   1   9   1 31.8166 8.25361   3
   1   9   1 33.3745 10.1844   5
  -1   9  -1 37.0155 10.3011   3
   2  -9   1 108.039 9.92692   7
  -2  -9  -1 109.434 7.55844   9
   2   9   1 100.366 12.9887   1
  -2   9  -1 89.7762 12.6035   5
  -2   9  -1 96.5895 10.6292   1
   2   9   1 86.3538 14.4822   3
   3  -9   1 8.89650 7.21548   7
   3   9   1 2.83078 8.28281   3
  -3   9  -1 -0.2338 6.80478   1
   3   9   1 4.86834 10.6959   1
   4  -9   1 68.0472 9.33062   7
  -4   9  -1 61.6073 13.4205   5
   4   9   1 57.2590 11.4548   3
   4   9   1 61.9234 10.9158   1
   0  10  -1 11.9321 8.03353   5
   0  10   1 6.22736 10.6196   1
   0  10   1 11.0765 7.63064   5
  11   0  -2 -1.0387 8.15950   3
 -11   0   2 -3.6868 7.12459   1
  11   0  -2 -1.0822 10.3806   6
  10   0  -2 111.503 10.7949   6
 -10   0   2 127.729 9.75164   2
  10   0  -2 126.851 11.6937   3
 -10   0   2 134.337 12.7867   1
  -9   0   2 1.00788 4.23456   4
  -9   0   2 -1.8012 4.18118   8
  -9   0   2 -3.2492 5.03136   1
  -9   0   2 0.11885 3.26511   2
   9   0  -2 -2.6049 7.14267   6
   8   0  -2 695.578 30.4815   3
   8   0  -2 668.949 25.9827   6
  -8   0   2 654.923 22.3595   1
  -8   0   2 680.604 33.1052   8
  -8   0   2 690.022 29.8711   4
  -7   0   2 0.85683 3.32348   5
   7   0  -2 -1.7442 3.98807   3
  -7   0   2 -0.9036 3.38333   1
   7   0  -2 -1.0493 3.70661   4
  -7   0   2 0.11450 2.10941   8
  -7   0   2 1.75596 2.19227   4
   7   0  -2 1.19317 5.05254   6
  -6   0   2 545.860 22.0532   5
   6   0  -2 504.039 16.7471   6
  -6   0   2 497.069 20.9375   8
  -6   0   2 522.846 22.4324   3
   6   0  -2 516.739 20.2753   4
   6   0  -2 492.535 19.0144   3
  -6   0   2 519.552 17.8611   4
  -6   0   2 493.101 21.0556   1
  -5   0   2 -1.1179 2.27593   1
  -5   0   2 -1.6886 2.11909   8
   5   0  -2 1.66667 2.42422   4
  -5   0   2 1.02641 2.21061   4
   5   0  -2 1.33786 1.90988   3
   5   0  -2 -1.5973 4.02600   1
  -5   0   2 0.10329 2.71064   3
   5   0  -2 0.18948 2.36221   6
  -5   0   2 -1.3179 2.14299   5
  -4   0   2 2298.05 57.8806   3
   4   0  -2 2164.79 56.0062   6
  -4   0   2 2188.87 68.6931   4
   4   0  -2 2160.48 72.3165   1
   4   0  -2 2199.08 70.5187   4
   4   0  -2 2128.17 71.5523   3
  -4   0   2 2180.05 91.7158   1
  -4   0   2 2224.45 73.2173   8
  -4   0   2 2136.73 70.6093   5
  -3   0   2 0.90433 1.46367   1
  -3   0   2 0.07302 1.09130   3
   3   0  -2 -0.8076 1.45335   4
  -3   0   2 -1.2032 0.98065   8
   3   0  -2 -0.1198 1.07250   3
   3   0  -2 0.26056 2.37165   1
  -3   0   2 -0.6090 1.43532   4
  -3   0   2 -0.6417 0.99767   5
   3   0  -2 1.20510 1.49558   6
  -2   0   2 58.1262 2.90938   1
   2   0  -2 63.4929 2.91557   1
   2   0  -2 58.9468 2.39569   3
  -2   0   2 64.2604 2.47309   8
  -2   0   2 64.3598 2.76569   4
  -2   0   2 58.6106 2.49656   3
  -2   0   2 55.6964 2.99698   9
   2   0  -2 58.8957 2.55085   5
   2   0  -2 59.4953 2.52548   4
  -2   0   2 55.1151 2.47295   5
   2   0  -2 56.8705 2.93224   6
   1   0  -2 -0.6328 0.78426   5
   1   0  -2 -0.4477 0.65250   4
  -1   0   2 0.57939 0.42585   2
  -1   0   2 0.44139 0.44541   9
  -1   0   2 -0.2297 0.89980   4
   1   0  -2 -0.3383 0.42008   9
  -1   0   2 0.11113 0.78874   5
  -1   0   2 -0.1449 0.85428   1
   1   0  -2 -0.0329 0.45093   2
   1   0  -2 -0.0101 0.97126   1
   0   0   2 1932.28 102.206   7
   0   0  -2 1894.06 73.9348   3
   0   0   2 1926.41 64.1726   3
   0   0  -2 1886.97 74.8554   5
   0   0   2 1864.60 53.2845   1
   0   0  -2 1887.86 65.2612   7
   0   0  -2 1931.25 66.7444   2
   0   0   2 1877.90 126.856   5
   0   0   2 1920.64 65.3203   2
   1   0   2 0.72192 1.12087   2
  -1   0  -2 -0.0282 0.82794   3
   1   0   2 -0.6747 0.58518   6
  -1   0  -2 1.03744 0.88575   6
   1   0   2 -0.7221 0.63159   1
   1   0   2 -0.5460 0.62180   7
  -1   0  -2 -0.6751 0.80607   2
   1   0   2 -0.3360 0.86934   5
   1   0   2 -0.2366 1.13984   3
  -1   0  -2 -1.0209 0.60923   5
  -2   0  -2 6.87248 1.07951   8
  -2   0  -2 4.94617 1.25728   5
  -2   0  -2 5.97071 1.88496   1
  -2   0  -2 4.80916 1.89659   2
   2   0   2 1.76252 1.77249   1
  -2   0  -2 2.58720 1.53445   3
   2   0   2 5.10244 1.08515   8
   2   0   2 6.17156 1.67687   3
  -2   0  -2 7.00793 1.57494   6
   2   0   2 4.47040 1.44869   6
   3   0   2 -1.3811 1.47735   1
  -3   0  -2 -1.0454 1.02543   5
   3   0   2 -0.2820 1.47775   3
   3   0   2 -0.2036 1.20916   8
  -3   0  -2 0.67117 2.02021   6
   3   0   2 0.05500 0.85302   4
  -3   0  -2 -0.9780 2.08492   1
  -3   0  -2 1.50873 2.08581   3
  -3   0  -2 -0.2301 1.22264   8
   3   0   2 -0.2457 1.45342   6
  -4   0  -2 1549.71 48.9379   6
   4   0   2 1524.38 43.5724   6
  -4   0  -2 1536.62 54.6894   1
   4   0   2 1524.86 51.0921   1
   4   0   2 1540.16 46.6643   8
  -4   0  -2 1504.11 65.9147   3
   4   0   2 1469.10 49.9653   4
  -4   0  -2 1452.50 51.4014   5
  -4   0  -2 1491.59 47.8257   8
   4   0   2 1468.83 40.0707   3
  -4   0  -2 1509.96 65.1113   2
   5   0   2 0.27339 2.11283   8
   5   0   2 2.06014 2.83469   1
   5   0   2 -1.3826 2.36001   6
  -5   0  -2 1.74151 2.46945   5
  -5   0  -2 -3.0141 2.36534   1
  -5   0  -2 2.96472 3.37211   3
  -5   0  -2 -0.1829 1.94117   8
  -5   0  -2 -3.5593 2.89017   2
  -5   0  -2 0.01429 2.41442   6
   5   0   2 1.73496 3.29017   3
   5   0   2 1.43201 2.14325   4
   6   0   2 16.2660 2.54294   8
  -6   0  -2 13.6755 2.32200   8
  -6   0  -2 17.7658 3.51925   5
   6   0   2 14.2609 2.43695   4
   6   0   2 15.9141 3.81550   6
   6   0   2 22.4728 4.88284   3
  -6   0  -2 18.2754 4.17985   2
  -6   0  -2 18.7909 4.92961   1
   7   0   2 -3.6316 4.79815   3
   7   0   2 -0.7750 2.29531   8
   7   0   2 -0.1163 2.37691   4
  -7   0  -2 0.11600 2.03017   8
   7   0   2 1.62259 3.64902   6
  -7   0  -2 4.19536 3.95037   1
  -7   0  -2 0.44484 4.27856   2
  -7   0  -2 -0.2273 3.26468   5
   8   0   2 64.3082 7.20677   6
  -8   0  -2 78.6338 6.48778   5
   8   0   2 78.4560 8.06307   3
  -8   0  -2 76.2784 7.48052   2
  -8   0  -2 65.2188 7.13767   1
  -8   0  -2 60.4372 5.36063   8
  -9   0  -2 -2.6736 7.45957   1
  -9   0  -2 1.25606 4.14946   2
   9   0   2 -2.5110 5.24233   6
  -9   0  -2 -0.2719 4.60355   5
   9   0   2 -2.4549 4.85142   3
 -10   0  -2 57.0965 10.9804   1
  10   0   2 71.0356 9.48686   6
  10   0   2 82.5621 10.3401   3
 -10   0  -2 89.3866 9.56173   2
  11   0   2 5.31271 7.00525   3
 -11   0  -2 -4.5760 7.70990   1
 -11   0  -2 3.34580 5.85796   2
  11   0   2 -0.2751 7.48546   7
  11   0   2 0.62222 7.46960   6
  11  -1  -2 96.3739 11.3779   6
 -11  -1   2 95.6263 13.4025   1
 -11   1   2 109.493 10.9372   2
  11   1  -2 96.7279 10.0234   3
  11   1  -2 88.9217 11.4442   6
 -11   1   2 94.1107 11.2532   1
 -10  -1   2 9.74856 9.22968   1
  10  -1  -2 27.1093 9.91406   6
  10  -1  -2 19.2446 5.19443   3
 -10  -1   2 7.70973 4.58839   8
  10   1  -2 15.9296 6.38130   3
  10   1  -2 10.8436 9.04904   6
 -10   1   2 10.1967 6.68054   1
   9  -1  -2 0.20922 5.31203   3
   9  -1  -2 1.32794 7.44747   6
  -9  -1   2 -2.3104 5.00345   1
  -9  -1   2 -1.2196 4.03315   2
  -9  -1   2 0.89700 4.97590   4
  -9  -1   2 0.26477 3.38878   8
  -9   1   2 0.75915 6.90203   1
   9   1  -2 -1.7902 4.53189   3
   9   1  -2 -2.6417 4.95738   6
  -8  -1   2 144.986 7.62905   8
  -8  -1   2 153.307 10.0196   5
   8  -1  -2 163.656 7.80475   3
   8  -1  -2 134.782 13.5885   4
  -8  -1   2 149.923 7.98115   2
  -8  -1   2 169.227 10.1121   4
   8  -1  -2 141.046 10.4091   6
  -8  -1   2 153.871 9.73560   1
  -8   1   2 155.195 6.57037   4
  -8   1   2 138.869 10.4105   1
  -8   1   2 152.220 6.91511   8
   8   1  -2 147.998 9.58294   6
   8   1  -2 149.215 9.69240   3
  -7  -1   2 561.600 17.7847   1
  -7  -1   2 573.224 32.5998   5
  -7  -1   2 582.754 27.4669   8
   7  -1  -2 556.725 30.3054   4
  -7  -1   2 562.981 23.9309   4
   7  -1  -2 565.235 25.6802   3
   7  -1  -2 579.794 18.3869   6
  -7  -1   2 587.825 17.2876   2
   7   1  -2 544.652 18.4371   6
  -7   1   2 552.459 28.3097   3
  -7   1   2 556.267 15.4752   8
  -7   1   2 568.891 18.1505   1
   7   1  -2 607.461 16.8456   3
  -7   1   2 551.631 24.3329   4
   6  -1  -2 0.91267 2.64616   4
  -6  -1   2 3.24810 2.99565   4
   6  -1  -2 -1.7571 3.97093   6
  -6  -1   2 -2.4719 2.90837   3
   6  -1  -2 -2.1818 2.86761   3
  -6  -1   2 0.15747 1.67943   2
  -6  -1   2 -1.2660 2.90240   8
  -6  -1   2 -1.8590 2.89852   1
  -6  -1   2 0.86365 2.16748   5
   6   1  -2 -1.1489 3.54587   8
  -6   1   2 0.18702 2.19716   3
   6   1  -2 -1.3577 4.17195   6
   6   1  -2 -0.0440 3.60113   3
   6   1  -2 5.51628 3.66801   4
  -6   1   2 1.28886 1.54891   4
  -6   1   2 -2.5030 3.44722   5
  -6   1   2 0.03871 1.50921   8
  -6   1   2 -1.7247 4.20548   1
  -5  -1   2 2.93626 2.82115   2
  -5  -1   2 3.40365 3.45988   3
   5  -1  -2 0.16032 3.32362   6
  -5  -1   2 -0.0775 2.58663   4
   5  -1  -2 0.66298 1.58717   4
  -5  -1   2 -0.2630 2.48368   8
   5  -1  -2 1.04635 2.21017   3
  -5  -1   2 0.58182 1.19646   5
   5  -1  -2 2.89775 3.17031   1
  -5  -1   2 -1.4877 3.39989   1
  -5   1   2 0.03911 2.50054   1
   5   1  -2 -1.5037 3.10902   3
   5   1  -2 0.38500 1.96785   8
   5   1  -2 0.46394 1.90709   4
  -5   1   2 -1.5559 2.30191   3
  -5   1   2 0.11991 1.74295   4
   5   1  -2 3.51687 4.07139   1
   5   1  -2 1.74123 2.53945   6
  -5   1   2 1.28215 1.79889   8
  -5   1   2 3.59943 3.74393   6
   4  -1  -2 138.287 5.49384   4
  -4  -1   2 139.922 11.5416   3
  -4  -1   2 138.541 5.99008   1
  -4  -1   2 130.046 4.43708   5
   4  -1  -2 138.683 5.11342   3
  -4  -1   2 150.824 5.76987   8
   4  -1  -2 144.304 6.06544   6
  -4  -1   2 132.822 5.20632   4
   4  -1  -2 133.287 6.31436   1
  -4  -1   2 136.390 5.25341   2
  -4   1   2 151.474 8.31118   9
   4   1  -2 139.492 5.40438   4
  -4   1   2 139.092 5.34696   3
   4   1  -2 135.232 8.57543   1
   4   1  -2 137.712 6.07932   8
   4   1  -2 150.592 6.04272   3
   4   1  -2 133.592 5.88542   6
  -4   1   2 116.586 6.12545   6
  -4   1   2 142.015 6.72528   1
  -4   1   2 141.461 5.54933   8
  -4   1   2 147.698 5.16278   4
   3  -1  -2 39.7455 2.19359   3
  -3  -1   2 39.1784 2.00692   2
   3  -1  -2 33.1911 2.28528   4
  -3  -1   2 32.7984 2.12386   5
  -3  -1   2 34.9978 2.55900   4
   3  -1  -2 42.1345 3.01756   6
  -3  -1   2 35.3971 2.82200   1
   3  -1  -2 36.2300 3.27430   1
  -3  -1   2 32.8119 2.54244   8
  -3  -1   2 34.2685 2.85194   3
  -3   1   2 42.0388 2.34860   4
   3   1  -2 37.6047 3.11850   1
   3   1  -2 37.8773 3.38177   3
   3   1  -2 33.3135 2.58867   4
  -3   1   2 37.7039 2.92686   6
  -3   1   2 36.3424 2.17563   3
   3   1  -2 32.8784 2.60374   8
   3   1  -2 34.9514 2.19880   5
  -3   1   2 32.1023 2.34284   9
  -3   1   2 38.4049 3.60377   1
  -2  -1   2 221.098 10.4736   3
  -2  -1   2 220.763 9.62861   5
   2  -1  -2 245.754 6.86595   9
   2  -1  -2 221.056 6.20440   3
  -2  -1   2 234.103 10.7714   8
  -2  -1   2 237.938 7.82044   4
   2  -1  -2 233.803 8.84043   4
   2  -1  -2 235.839 7.65913   6
   2  -1  -2 234.699 7.51881   1
  -2  -1   2 233.622 8.70836   1
  -2  -1   2 217.871 8.97481   2
   2   1  -2 226.144 7.31816   5
  -2   1   2 243.904 8.70078   4
  -2   1   2 235.219 9.26778   6
   2   1  -2 240.327 11.8002   8
  -2   1   2 249.608 8.71311   3
  -2   1   2 250.187 9.97387   1
   2   1  -2 232.420 7.76408   1
  -2   1   2 239.550 9.69546   9
   2   1  -2 220.806 7.98879   3
   2   1  -2 240.844 8.22465   4
  -1  -1   2 1916.85 64.8719   4
  -1  -1   2 1947.04 61.6927   8
   1  -1  -2 1952.75 76.7667   9
   1  -1  -2 1877.20 97.4107   1
  -1  -1   2 1828.41 52.3399   5
   1  -1  -2 1897.14 53.9458   6
  -1  -1   2 1849.47 62.5356   1
  -1   1   2 1876.31 60.5486   2
  -1   1   2 1821.87 60.8022   9
  -1   1   2 1964.68 63.4355   6
   1   1  -2 1949.05 70.2510   8
   1   1  -2 1908.15 73.8261   2
  -1   1   2 1941.79 81.8347   1
  -1   1   2 1859.88 53.1015   3
   1   1  -2 1911.91 78.7011   5
   1   1  -2 1956.56 93.7425   1
   1   1  -2 1917.62 51.4771   4
   1   1  -2 1928.28 74.7157   9
   0  -1  -2 3052.65 105.586   6
   0  -1   2 3072.52 111.060   4
   0  -1   2 3064.53 139.994   7
   0  -1  -2 3270.87 119.259   9
   0  -1   2 3141.83 93.5423   5
   0  -1  -2 3113.31 105.341   7
   0  -1  -2 3226.68 111.310   3
   0  -1  -2 3047.67 97.9446   2
   0  -1   2 3192.06 85.1484   8
   0   1  -2 3339.08 99.9088   4
   0   1  -2 3215.02 122.477   6
   0   1   2 3327.29 107.856   7
   0   1   2 3243.64 124.393   5
   0   1   2 3219.49 110.966   6
   0   1  -2 3288.21 160.294   5
   0   1   2 3292.52 117.309   3
   0   1   2 3185.61 79.6936   1
   0   1  -2 3160.52 94.4152   7
   0   1   2 3204.62 98.1407   9
   0   1   2 3164.50 109.201   2
   0   1  -2 3203.90 141.253   1
  -1  -1  -2 254.387 8.86804   5
  -1  -1  -2 256.718 7.44728   2
   1  -1   2 263.447 8.39180   3
   1  -1   2 250.175 6.30611   1
   1  -1   2 250.085 6.79021   5
   1  -1   2 268.011 7.60213   4
  -1  -1  -2 257.214 9.85470   3
   1  -1   2 269.615 10.8552   7
   1  -1   2 268.044 8.69565   6
  -1  -1  -2 266.545 7.35415   8
  -1   1  -2 262.794 7.10960   3
  -1   1  -2 264.318 8.05652   4
   1   1   2 267.065 7.09678   3
   1   1   2 267.821 6.55207   2
  -1   1  -2 261.554 8.83304   1
  -1   1  -2 268.670 10.6761   6
   1   1   2 265.766 9.79404   8
   1   1   2 258.710 8.39089   6
   1   1   2 254.892 8.67137   5
  -1   1  -2 258.155 9.74804   5
  -1   1  -2 251.954 11.9737   7
   2  -1   2 3345.71 188.308   8
   2  -1   2 3531.35 120.108   6
  -2  -1  -2 3220.30 98.6379   5
   2  -1   2 3571.45 116.446   7
   2  -1   2 3283.94 135.548   4
  -2  -1  -2 3424.28 93.5006   8
  -2  -1  -2 3350.67 110.150   2
  -2  -1  -2 3480.25 98.4503   3
   2  -1   2 3200.71 109.167   1
   2  -1   2 3322.24 86.7897   3
   2   1   2 3538.51 175.746   2
   2   1   2 3414.61 134.553   8
   2   1   2 3424.78 113.287   3
  -2   1  -2 3428.54 128.229   3
  -2   1  -2 3422.13 124.438   6
   2   1   2 3628.36 111.182   4
  -2   1  -2 3407.30 119.325   5
   2   1   2 3545.66 88.4587   6
  -2   1  -2 3533.86 147.331   1
   2   1   2 3632.92 90.4312   1
  -3  -1  -2 1559.20 45.7278   5
   3  -1   2 1598.44 83.7984   8
   3  -1   2 1598.53 88.2229   4
  -3  -1  -2 1660.78 63.2574   3
   3  -1   2 1687.12 53.6296   7
  -3  -1  -2 1583.69 46.5571   2
   3  -1   2 1603.34 54.2781   6
   3  -1   2 1610.08 59.3305   1
   3  -1   2 1606.54 46.4856   3
  -3  -1  -2 1624.08 54.6071   8
   3   1   2 1610.17 49.8305   4
  -3   1  -2 1619.91 68.3128   1
  -3   1  -2 1656.96 43.3920   5
   3   1   2 1611.29 42.7547   6
   3   1   2 1647.27 52.7202   8
  -3   1  -2 1617.38 49.9400   6
   3   1   2 1678.41 52.4108   1
  -3   1  -2 1629.48 64.3656   3
   3   1   2 1650.68 40.5458   3
  -4  -1  -2 10.1382 2.67320   1
  -4  -1  -2 13.7014 1.67019   5
  -4  -1  -2 4.57082 2.35027   8
   4  -1   2 10.4269 3.47160   6
  -4  -1  -2 9.01391 2.06396   2
  -4  -1  -2 8.90169 3.43604   3
   4  -1   2 10.8771 1.37118   8
   4  -1   2 10.9818 1.33187   4
   4  -1   2 10.4238 3.43974   1
   4  -1   2 8.56656 2.74427   7
   4  -1   2 11.7238 3.16216   3
  -4   1  -2 6.94108 1.20387   8
   4   1   2 9.86481 2.65597   3
  -4   1  -2 7.93755 2.22497   3
   4   1   2 8.64415 2.89859   6
   4   1   2 11.0320 2.09962   8
  -4   1  -2 13.3444 3.41808   5
  -4   1  -2 7.44193 2.55676   6
   4   1   2 11.3380 2.17881   4
  -4   1  -2 10.8843 2.46452   1
   4   1   2 7.18716 2.75048   1
   5  -1   2 56.5224 5.02978   1
   5  -1   2 62.9076 4.48645   3
  -5  -1  -2 66.1694 3.08071   5
  -5  -1  -2 58.5964 3.34399   5
  -5  -1  -2 58.9388 5.09403   3
   5  -1   2 68.4744 3.10408   8
   5  -1   2 62.2938 2.97658   4
   5  -1   2 58.8310 4.98659   6
  -5  -1  -2 54.8179 3.88083   2
  -5  -1  -2 50.9828 4.13637   8
  -5  -1  -2 51.7953 5.34886   1
   5   1   2 63.1297 5.65524   3
  -5   1  -2 59.4304 4.77093   1
   5   1   2 61.1842 5.26329   6
  -5   1  -2 53.0924 4.86906   3
   5   1   2 64.5966 4.07124   8
  -5   1  -2 60.3339 2.87205   8
  -5   1  -2 63.9654 5.37724   5
   5   1   2 64.0272 4.51836   4
  -6  -1  -2 63.0459 6.53914   1
  -6  -1  -2 74.4997 4.71409   5
   6  -1   2 71.3813 8.70688   3
  -6  -1  -2 69.6762 4.77235   2
   6  -1   2 74.5317 3.50186   8
  -6  -1  -2 66.9046 4.98463   8
   6  -1   2 67.3258 5.89499   6
   6  -1   2 76.9792 3.78745   4
  -6  -1  -2 73.5919 3.48885   5
   6   1   2 73.8933 5.98258   3
   6   1   2 65.3143 5.44152   6
  -6   1  -2 64.7610 3.46562   8
  -6   1  -2 64.5416 6.57540   5
  -6   1  -2 63.8641 6.23529   3
   6   1   2 71.0661 5.45093   4
  -6   1  -2 52.5340 5.85664   1
   6   1   2 74.4787 6.18965   8
  -7  -1  -2 452.499 14.9444   1
  -7  -1  -2 432.377 15.3355   5
   7  -1   2 424.003 17.6191   4
  -7  -1  -2 424.182 12.5297   8
  -7  -1  -2 445.649 22.8203   5
   7  -1   2 439.171 16.0874   6
  -7  -1  -2 427.110 13.2831   2
   7  -1   2 440.568 14.1798   3
   7   1   2 405.660 17.3614   3
  -7   1  -2 419.317 19.2108   1
  -7   1  -2 453.983 18.0744   5
   7   1   2 408.303 14.5517   6
  -7   1  -2 407.306 29.4821   8
   8  -1   2 54.1744 7.09034   6
  -8  -1  -2 68.9695 6.97093   2
   8  -1   2 53.3983 7.34577   7
   8  -1   2 67.2614 6.62153   3
  -8  -1  -2 55.1049 4.91660   5
  -8  -1  -2 48.4576 5.88105   8
  -8  -1  -2 55.1898 7.17784   1
  -8   1  -2 56.1932 6.26227   2
   8   1   2 48.8897 6.54582   6
  -8   1  -2 47.7159 6.54637   1
  -8   1  -2 57.8359 6.09114   5
   8   1   2 56.2339 6.76659   3
  -8   1  -2 48.7750 4.28199   8
   9  -1   2 9.71971 8.45606   7
   9  -1   2 6.84976 4.99423   3
   9  -1   2 9.94526 8.34815   6
  -9  -1  -2 12.9204 4.59875   2
  -9  -1  -2 11.6508 3.90154   8
   9   1   2 20.3967 8.02642   3
  -9   1  -2 9.37737 6.12334   1
  -9   1  -2 11.1308 6.78017   2
  -9   1  -2 13.5592 6.57938   5
   9   1   2 9.72066 5.91773   6
 -10  -1  -2 -0.5617 6.40105   2
  10  -1   2 3.52705 9.49786   7
  10  -1   2 4.77044 5.40607   3
  10  -1   2 0.44314 9.31921   6
 -10   1  -2 1.66484 6.10042   1
  10   1   2 2.82286 5.70070   3
 -10   1  -2 0.89314 5.63336   2
  10   1   2 0.32276 8.68592   6
  11  -1   2 97.6664 14.1613   7
 -11  -1  -2 106.046 10.9829   2
  11  -1   2 85.3498 11.0439   6
  11  -1   2 118.615 12.3411   3
  11   1   2 113.308 11.6548   3
  11   1   2 86.6692 10.8626   6
 -11   1  -2 73.8522 12.8402   1
 -11   1  -2 118.348 10.3909   2
  11  -2  -2 4.21838 27.2369   7
  11  -2  -2 14.9543 26.7138   6
  11   2  -2 1.11237 7.80066   6
  11   2  -2 -1.0187 10.0355   3
 -11   2   2 7.92072 7.85226   1
  10  -2  -2 -1.0132 9.70653   7
 -10  -2   2 1.31481 6.78358   8
  10  -2  -2 4.65345 9.60876   6
  10   2  -2 3.05306 6.46013   6
  10   2  -2 14.1511 8.91959   3
 -10   2   2 3.09062 6.42919   1
  -9  -2   2 0.37764 4.22240   2
   9  -2  -2 1.01753 5.54632   7
  -9  -2   2 0.50315 4.35876   4
   9  -2  -2 8.58933 8.09546   6
  -9  -2   2 -4.9847 5.71261   8
  -9  -2   2 5.17270 5.78789   1
   9  -2  -2 0.37736 5.08207   3
   9   2  -2 4.14134 5.53487   3
  -9   2   2 0.67484 5.35854   1
   9   2  -2 -1.8681 5.20011   6
  -8  -2   2 35.7722 4.50300   2
  -8  -2   2 29.4472 5.84664   1
   8  -2  -2 30.7432 6.10460   6
   8  -2  -2 34.4033 5.03344   3
  -8  -2   2 22.5693 4.51513   8
  -8  -2   2 20.3957 4.49458   4
  -8   2   2 33.0228 6.06519   1
  -8   2   2 25.4089 4.13018   8
   8   2  -2 32.4216 5.96232   6
  -8   2   2 22.8774 3.62336   4
   8   2  -2 31.4448 5.87349   3
  -7  -2   2 168.768 6.68364   2
   7  -2  -2 148.481 8.80770   6
  -7  -2   2 154.469 7.76552   4
  -7  -2   2 149.610 7.75393   8
   7  -2  -2 158.531 7.20319   3
  -7  -2   2 136.214 8.44658   1
   7  -2  -2 143.149 9.43485   4
  -7  -2   2 158.775 6.29853   5
  -7   2   2 137.366 7.63747   4
   7   2  -2 134.482 9.94781   6
  -7   2   2 141.841 6.27682   8
  -7   2   2 161.389 9.91891   1
   7   2  -2 153.825 8.75776   3
  -6  -2   2 1.49931 3.51422   4
   6  -2  -2 1.55547 2.40689   4
  -6  -2   2 0.00000 3.50965   8
  -6  -2   2 -1.6016 2.30274   2
   6  -2  -2 8.73306 4.19081   3
  -6  -2   2 -1.7028 3.00488   1
   6  -2  -2 -2.0632 3.03974   6
  -6  -2   2 1.14854 1.68351   5
  -6   2   2 -2.7607 2.74316   3
   6   2  -2 0.04068 3.01408   6
   6   2  -2 1.28068 4.35763   3
  -6   2   2 -1.0109 1.65459   8
  -6   2   2 1.11089 1.76359   4
  -6   2   2 -2.8107 4.41717   1
  -5  -2   2 12.2972 1.84582   5
  -5  -2   2 12.7310 2.78735   8
  -5  -2   2 12.2052 2.03165   2
  -5  -2   2 9.51747 3.11671   1
  -5  -2   2 8.36565 4.38769   3
  -5  -2   2 12.8871 2.75948   4
   5  -2  -2 15.4366 3.37468   6
   5  -2  -2 12.1135 2.39216   3
   5   2  -2 10.0819 2.99507   4
   5   2  -2 13.6076 3.14919   8
  -5   2   2 9.80884 2.37271   3
   5   2  -2 12.5770 4.59150   3
  -5   2   2 15.5317 2.88062   9
  -5   2   2 10.7393 4.25558   1
  -5   2   2 11.4468 2.00917   8
  -5   2   2 10.6779 1.90884   4
   5   2  -2 12.6849 4.11979   6
  -4  -2   2 77.6801 5.27026   1
   4  -2  -2 79.4852 3.31527   3
  -4  -2   2 79.8116 3.02510   2
  -4  -2   2 73.8428 4.33725   8
  -4  -2   2 64.9611 5.41239   3
   4  -2  -2 78.5648 5.35497   6
  -4  -2   2 75.2069 4.75705   4
  -4  -2   2 76.8553 3.29089   5
   4  -2  -2 77.9167 6.21332   1
   4   2  -2 77.8267 3.79258   5
   4   2  -2 81.7968 5.29704   3
  -4   2   2 91.4340 3.26742   4
  -4   2   2 86.6170 5.65445   6
  -4   2   2 91.9181 4.87869   9
   4   2  -2 76.6257 4.95037   4
  -4   2   2 79.1541 5.73655   1
   4   2  -2 63.4800 5.64682   1
  -4   2   2 75.6085 3.48477   3
   4   2  -2 78.9968 5.06558   8
  -3  -2   2 6.74470 2.99144   3
  -3  -2   2 8.23604 4.26957   8
   3  -2  -2 10.7489 3.02253   7
   3  -2  -2 6.22509 2.17217   6
   3  -2  -2 9.37356 1.27961   3
   3  -2  -2 7.80933 2.70343   1
  -3  -2   2 9.57731 4.30038   4
  -3  -2   2 8.91980 1.17471   9
  -3  -2   2 8.82678 1.68380   5
  -3  -2   2 9.86679 1.10975   2
  -3   2   2 8.80595 2.51416   9
  -3   2   2 8.31862 2.22797   6
   3   2  -2 9.39859 1.26612   2
  -3   2   2 9.49847 1.28376   3
   3   2  -2 6.73364 2.14563   1
   3   2  -2 6.78015 2.20048   8
  -3   2   2 7.27321 2.60775   1
   3   2  -2 12.0544 2.91056   4
  -3   2   2 6.15020 1.71839   4
   3   2  -2 7.02727 1.58787   5
   3   2  -2 9.32104 3.30096   3
  -2  -2   2 1492.14 41.5794   8
   2  -2  -2 1550.89 46.0547   7
  -2  -2   2 1497.19 45.9088   9
   2  -2  -2 1470.85 65.1352   1
  -2  -2   2 1539.69 43.4068   4
  -2  -2   2 1500.38 62.8822   5
   2  -2  -2 1497.92 39.8308   6
  -2  -2   2 1487.03 50.5879   2
   2  -2  -2 1519.20 50.2191   9
  -2   2   2 1619.41 46.2590   1
   2   2  -2 1542.04 39.8195   3
   2   2  -2 1596.06 53.2033   1
   2   2  -2 1590.20 52.3426   8
  -2   2   2 1574.09 69.9648   9
   2   2  -2 1593.11 46.5642   5
   2   2  -2 1567.00 72.1510   4
   2   2  -2 1571.73 43.4288   2
  -2   2   2 1550.32 50.7831   3
  -2   2   2 1632.84 47.3823   6
  -1  -2   2 6016.55 172.347   9
  -1  -2   2 5830.10 187.956   5
   1  -2  -2 5788.00 160.635   6
  -1  -2   2 5945.14 254.384   8
  -1  -2   2 6017.07 199.884   4
   1  -2  -2 5853.97 235.019   1
   1  -2  -2 5843.04 136.828   7
   1  -2  -2 5996.24 171.329   9
  -1   2   2 6066.84 154.510   6
   1   2  -2 6012.42 155.723   9
  -1   2   2 6016.02 233.566   9
   1   2  -2 6150.98 157.774   8
   1   2  -2 5996.83 173.183   5
  -1   2   2 5975.64 217.531   3
  -1   2   2 6147.55 209.972   7
  -1   2   2 6058.69 164.129   1
   1   2  -2 6014.01 201.778   2
   1   2  -2 5952.35 180.524   7
   1   2  -2 6011.34 132.694   4
  -1   2   2 6029.26 219.687   2
   0  -2   2 5259.53 154.660   8
   0  -2   2 5278.33 159.107   4
   0  -2  -2 5198.54 170.801   2
   0  -2  -2 5145.76 158.891   7
   0  -2   2 5065.86 208.295   5
   0  -2   2 5325.65 185.190   7
   0  -2  -2 5135.22 132.531   3
   0  -2  -2 5290.22 142.968   9
   0   2  -2 5375.18 139.561   4
   0   2   2 5341.94 186.527   2
   0   2   2 5264.46 196.934   8
   0   2  -2 5305.82 154.125   6
   0   2   2 5409.41 215.814   9
   0   2  -2 5070.27 147.030   1
   0   2  -2 5507.70 170.378   9
   0   2  -2 5504.00 197.862   7
   0   2   2 5497.17 254.210   6
   0   2   2 5403.02 167.439   1
   0   2  -2 5417.53 236.290   5
   0   2  -2 5507.59 196.730   8
   0   2   2 5311.97 161.345   3
   0   2   2 5392.80 158.480   7
  -1  -2  -2 43.8678 2.64183   2
   1  -2   2 46.6426 3.04807   7
   1  -2   2 37.9103 2.52644   1
  -1  -2  -2 40.3386 2.58553   8
   1  -2   2 41.2053 2.81193   6
   1  -2   2 38.3710 1.75722   4
  -1  -2  -2 44.7598 3.67514   3
  -1  -2  -2 43.3794 2.28134   9
   1  -2   2 35.1418 1.52543   8
   1   2   2 43.9324 3.18804   3
   1   2   2 37.8652 2.89549   8
  -1   2  -2 39.2207 3.30490   5
  -1   2  -2 40.1673 1.88188   4
   1   2   2 38.8932 2.04803   7
  -1   2  -2 38.9728 3.53134   6
  -1   2  -2 39.8466 3.28131   7
   1   2   2 41.1025 2.49927   9
  -1   2  -2 38.9678 2.34340   1
  -1   2  -2 44.3175 1.82110   8
   1   2   2 43.9380 2.47924   2
  -2  -2  -2 162.948 4.81243   9
   2  -2   2 165.784 8.91887   1
  -2  -2  -2 166.012 5.14484   2
   2  -2   2 176.826 7.61686   6
  -2  -2  -2 163.930 5.76136   8
  -2  -2  -2 160.883 6.40926   3
   2  -2   2 163.616 6.14073   7
  -2   2  -2 165.720 6.20190   3
   2   2   2 159.825 6.29962   3
  -2   2  -2 171.678 6.33175   1
  -2   2  -2 170.004 4.60779   4
   2   2   2 174.587 5.74608   2
   2   2   2 161.015 6.49593   5
  -2   2  -2 165.682 8.74839   7
   2   2   2 164.814 6.49917   5
   2   2   2 172.504 7.32835   8
  -2   2  -2 165.691 6.98867   6
   2   2   2 161.200 7.71906   4
  -2   2  -2 151.060 12.7338   5
  -3  -2  -2 842.825 23.6931   2
  -3  -2  -2 880.510 26.9919   3
   3  -2   2 876.465 24.2238   6
   3  -2   2 843.021 20.3187   1
   3  -2   2 899.454 28.0027   7
   3  -2   2 850.195 26.5335   3
  -3  -2  -2 881.599 25.1913   8
   3   2   2 907.881 32.2812   8
  -3   2  -2 920.399 36.2922   6
   3   2   2 899.392 19.6562   2
   3   2   2 865.216 20.1491   6
  -3   2  -2 876.495 35.3367   1
   3   2   2 870.633 27.6548   4
  -3   2  -2 889.594 26.8164   5
   3   2   2 895.041 27.1793   3
   3   2   2 946.754 31.8056   1
  -3   2  -2 842.422 26.2544   3
   4  -2   2 3907.72 96.0491   6
  -4  -2  -2 3599.82 124.810   2
   4  -2   2 3735.59 154.427   1
  -4  -2  -2 3797.96 123.681   8
  -4  -2  -2 3925.93 168.978   3
   4  -2   2 3944.26 100.214   7
   4  -2   2 3765.64 111.497   3
   4   2   2 3914.27 172.432   2
   4   2   2 3998.06 178.626   4
  -4   2  -2 3943.96 123.219   1
   4   2   2 3886.58 146.272   3
  -4   2  -2 3855.85 110.304   5
  -4   2  -2 3811.45 177.096   3
   4   2   2 4090.72 256.471   1
   4   2   2 3911.04 150.001   8
  -4   2  -2 4030.87 143.465   6
   4   2   2 3804.39 85.7835   6
   5  -2   2 213.779 8.04940   3
   5  -2   2 195.775 14.7269   1
  -5  -2  -2 204.776 8.21227   8
   5  -2   2 186.602 8.98258   7
   5  -2   2 205.030 9.42696   6
   5  -2   2 198.543 6.60490   4
  -5  -2  -2 195.601 7.01001   2
  -5   2  -2 189.552 12.8764   3
   5   2   2 206.800 14.7369   4
  -5   2  -2 208.965 8.28262   1
   5   2   2 216.491 9.39714   3
   5   2   2 200.077 8.31544   6
  -5   2  -2 227.755 9.60640   5
   5   2   2 210.330 12.5579   8
   6  -2   2 117.603 5.49963   4
   6  -2   2 109.232 6.64626   3
   6  -2   2 119.314 7.96000   7
   6  -2   2 120.714 7.78912   6
  -6  -2  -2 102.459 6.53760   8
  -6  -2  -2 121.698 6.91804   2
  -6   2  -2 109.898 7.91287   3
  -6   2  -2 104.517 7.35764   1
   6   2   2 108.736 6.73647   6
   6   2   2 114.445 8.48068   3
  -6   2  -2 129.564 8.88341   5
   7  -2   2 29.6436 4.40584   3
  -7  -2  -2 17.7521 3.84719   8
   7  -2   2 24.6442 2.35385   4
   7  -2   2 26.8431 5.64499   7
  -7  -2  -2 25.2239 1.25685   5
  -7  -2  -2 27.2584 1.26890   5
  -7  -2  -2 32.2134 4.81848   2
   7  -2   2 17.5050 5.16238   6
   7   2   2 34.8018 6.91144   3
  -7   2  -2 32.6035 6.34122   1
   7   2   2 13.9632 4.36282   6
  -7   2  -2 42.4104 8.61499   5
   8  -2   2 164.304 10.3919   3
   8  -2   2 148.429 10.3649   6
  -8  -2  -2 156.460 8.51805   8
  -8  -2  -2 159.569 8.98931   2
   8  -2   2 156.744 10.8201   7
  -8   2  -2 133.107 10.4309   1
   8   2   2 135.576 9.22133   6
   8   2   2 166.726 10.5281   3
  -8   2  -2 160.879 12.3221   5
  -9  -2  -2 0.72535 3.67186   2
   9  -2   2 0.67073 6.38375   3
   9  -2   2 1.50291 8.97002   7
  -9  -2  -2 1.81587 5.92115   8
   9  -2   2 4.25606 6.20581   6
  -9   2  -2 4.25059 5.42547   1
  -9   2  -2 5.04612 5.61777   5
   9   2   2 -2.0841 5.02015   6
   9   2   2 -6.4104 5.78179   3
 -10  -2  -2 87.4895 7.81649   2
  10  -2   2 69.8932 9.68491   6
  10  -2   2 88.0338 10.1457   3
 -10  -2  -2 58.4853 7.09530   8
  10  -2   2 76.9896 10.7654   7
 -10   2  -2 63.4351 9.37032   1
  10   2   2 69.6874 9.73185   3
 -10   2  -2 85.7761 11.2019   5
 -10   2  -2 79.6211 9.16216   2
  10   2   2 47.6496 10.6816   6
  10  -3  -2 0.79396 7.12654   6
 -10  -3   2 -3.2144 7.53793   8
  10  -3  -2 9.10618 10.5158   7
  10   3  -2 1.63715 7.14667   3
 -10   3   2 -0.3786 6.59132   1
  10   3  -2 -2.6004 6.56030   6
   9  -3  -2 7.58468 6.47431   7
   9  -3  -2 4.32005 6.40783   6
  -9  -3   2 8.73551 5.20608   8
  -9   3   2 13.6803 8.64123   1
   9   3  -2 18.5122 6.48640   6
   9   3  -2 16.2267 6.92018   3
  -8  -3   2 48.0306 6.24617   4
   8  -3  -2 61.2936 9.12927   6
   8  -3  -2 55.0807 5.17955   3
   8  -3  -2 52.8471 9.18761   7
  -8  -3   2 65.9163 4.86951   2
  -8  -3   2 44.3655 5.95166   8
   8   3  -2 44.2706 8.25853   6
   8   3  -2 44.3923 6.92966   3
  -8   3   2 55.2327 7.23080   1
  -7  -3   2 -2.4065 4.76064   4
   7  -3  -2 1.11283 2.98968   3
   7  -3  -2 1.63697 5.91835   7
   7  -3  -2 1.43639 4.10895   6
  -7  -3   2 0.55381 3.35489   8
  -7  -3   2 1.14306 1.83554   5
  -7  -3   2 0.07296 1.64664   2
  -7   3   2 1.53315 1.81491   4
   7   3  -2 -0.7035 3.86108   6
  -7   3   2 -0.1974 1.38715   8
  -7   3   2 -2.1631 5.63330   1
   7   3  -2 4.06410 4.31690   3
  -6  -3   2 36.1343 2.71596   2
   6  -3  -2 33.8776 6.22895   7
  -6  -3   2 20.9826 4.99945   8
  -6  -3   2 29.1806 5.13031   4
  -6  -3   2 39.7379 2.98643   9
   6  -3  -2 35.3791 2.94193   3
   6  -3  -2 31.4508 6.11068   6
   6   3  -2 31.8009 4.89303   6
  -6   3   2 33.4678 2.45877   4
  -6   3   2 37.1578 6.32093   1
  -6   3   2 30.4039 2.39697   8
   6   3  -2 38.1086 6.71669   3
  -6   3   2 29.8541 3.62703   3
  -5  -3   2 401.169 12.3726   4
  -5  -3   2 392.483 11.0095   9
   5  -3  -2 401.893 12.9643   6
   5  -3  -2 396.399 13.5839   7
   5  -3  -2 402.575 15.7888   3
  -5  -3   2 403.227 10.1849   5
  -5  -3   2 398.692 10.8756   2
  -5  -3   2 400.275 12.4920   8
  -5   3   2 427.963 16.3145   1
  -5   3   2 393.232 15.3001   3
   5   3  -2 389.464 13.7564   3
   5   3  -2 404.765 16.9972   5
  -5   3   2 412.991 12.1002   4
  -4  -3   2 257.390 9.19347   4
   4  -3  -2 273.089 10.0790   6
  -4  -3   2 271.109 27.4023   3
  -4  -3   2 264.586 9.20433   5
  -4  -3   2 257.897 7.78909   2
  -4  -3   2 261.544 8.98806   8
   4  -3  -2 238.156 14.9791   1
   4  -3  -2 267.170 9.73221   7
  -4  -3   2 259.290 6.16212   9
   4   3  -2 268.606 8.72935   2
   4   3  -2 270.081 8.02565   5
   4   3  -2 261.093 10.0484   3
  -4   3   2 267.395 12.6410   9
  -4   3   2 263.109 8.61950   3
  -4   3   2 267.974 9.91344   6
  -4   3   2 274.919 7.50633   4
   4   3  -2 265.078 13.9066   1
   4   3  -2 250.077 23.4551   8
   4   3  -2 250.931 22.3609   4
  -4   3   2 273.778 11.3643   1
  -3  -3   2 2263.45 66.8435   4
  -3  -3   2 2268.27 76.1913   8
   3  -3  -2 2286.07 72.4831   7
  -3  -3   2 2185.08 103.301   5
  -3  -3   2 2184.11 59.2814   9
   3  -3  -2 2197.57 59.8009   6
  -3  -3   2 2169.41 62.0615   2
   3  -3  -2 2115.59 103.924   1
   3   3  -2 2314.01 82.0257   4
   3   3  -2 2332.63 71.4248   8
   3   3  -2 2369.85 86.2553   1
  -3   3   2 2380.48 68.9916   9
  -3   3   2 2384.91 57.6477   1
   3   3  -2 2253.08 49.1539   3
  -3   3   2 2335.95 106.571   6
   3   3  -2 2388.75 105.163   2
  -3   3   2 2261.30 62.0087   3
   3   3  -2 2257.90 54.4646   5
   2  -3  -2 4.36041 1.84104   7
  -2  -3   2 3.38817 1.86372   4
   2  -3  -2 2.92446 2.33191   1
  -2  -3   2 5.41048 1.71438   5
   2  -3  -2 4.83161 1.79871   6
   2  -3  -2 6.25400 2.79716   9
  -2  -3   2 4.26617 1.11900   9
  -2  -3   2 5.12342 1.96532   8
   2   3  -2 3.08409 3.39359   3
   2   3  -2 5.30241 2.03782   7
  -2   3   2 4.56193 2.50947   9
  -2   3   2 3.62157 2.62992   7
  -2   3   2 2.15046 3.41579   1
   2   3  -2 3.58536 2.77888   8
   2   3  -2 2.36412 2.75580   4
  -2   3   2 6.69946 2.19284   2
   2   3  -2 4.27509 1.24865   9
   2   3  -2 2.37720 2.16910   5
  -2   3   2 2.24207 2.43754   6
   2   3  -2 4.01600 0.97903   2
  -2   3   2 2.07479 1.59326   8
   1  -3  -2 108.603 6.29065   1
  -1  -3   2 112.076 4.86700   8
   1  -3  -2 120.589 4.60587   6
   1  -3  -2 118.478 5.55007   7
  -1  -3   2 116.006 10.6249   5
  -1  -3   2 118.756 5.30064   4
  -1  -3   2 111.170 4.64566   9
   1  -3  -2 105.757 5.72541   9
  -1   3   2 114.734 5.52616   7
  -1   3   2 121.143 5.01218   6
   1   3  -2 121.137 4.89204   8
   1   3  -2 115.798 6.35559   7
  -1   3   2 120.669 5.52603   2
   1   3  -2 120.897 4.81887   4
   1   3  -2 117.364 4.45902   9
   1   3  -2 104.170 5.55834   5
  -1   3   2 121.979 4.53772   8
   1   3  -2 111.771 3.94188   2
  -1   3   2 121.318 5.06429   3
  -1   3   2 101.255 5.42635   1
  -1   3   2 118.736 4.71147   9
   1   3  -2 115.924 5.57744   3
   0  -3   2 143.203 6.37954   7
   0  -3  -2 135.211 4.52853   7
   0  -3   2 129.747 6.26250   8
   0  -3   2 137.397 4.82055   4
   0  -3  -2 130.453 4.89633   9
   0  -3  -2 136.516 5.41638   2
   0   3  -2 141.181 5.23963   1
   0   3  -2 137.114 5.64142   6
   0   3  -2 126.351 6.61052   7
   0   3   2 139.181 5.80003   9
   0   3  -2 138.700 4.69694   4
   0   3  -2 134.389 6.98152   8
   0   3   2 142.618 4.57478   6
   0   3   2 134.079 5.66786   2
   0   3  -2 135.558 6.33978   5
   0   3   2 134.982 4.98636   3
   0   3   2 138.081 6.50104   7
   0   3   2 139.571 6.45165   1
   0   3  -2 137.203 5.05173   9
   0   3   2 128.271 6.24871   8
   1  -3   2 133.418 4.13017   8
   1  -3   2 140.058 6.09603   6
   1  -3   2 135.511 5.75645   1
  -1  -3  -2 134.986 5.51312   8
   1  -3   2 132.043 6.11864   7
  -1  -3  -2 131.693 6.19326   3
  -1  -3  -2 135.416 4.79227   2
  -1  -3  -2 131.103 4.57326   9
  -1   3  -2 127.169 9.51155   5
   1   3   2 128.245 5.32682   2
   1   3   2 128.342 6.15771   9
  -1   3  -2 134.474 4.56977   4
  -1   3  -2 135.911 6.77922   9
  -1   3  -2 130.301 6.46484   6
   1   3   2 129.734 5.28010   8
   1   3   2 127.263 5.49788   3
  -1   3  -2 121.740 8.10977   7
   1   3   2 138.664 5.08394   7
  -1   3  -2 137.727 5.87049   8
  -1   3  -2 128.818 5.25319   1
   2  -3   2 1995.05 54.8486   1
  -2  -3  -2 1997.92 54.2088   9
   2  -3   2 1949.20 57.0968   7
   2  -3   2 2012.40 90.4991   8
  -2  -3  -2 2039.65 63.8994   8
  -2  -3  -2 2026.52 71.2148   3
  -2  -3  -2 2057.89 65.5819   2
   2  -3   2 2141.01 66.1590   6
  -2   3  -2 2090.01 90.5499   6
  -2   3  -2 2185.56 69.2008   3
   2   3   2 2064.70 65.4327   5
  -2   3  -2 2147.25 87.9157   7
  -2   3  -2 2102.44 58.9630   5
   2   3   2 2170.10 52.3091   4
   2   3   2 2084.48 47.2347   3
  -2   3  -2 2034.91 81.8875   4
  -2   3  -2 2182.50 57.7688   1
   2   3   2 2144.72 71.2374   2
  -2   3  -2 2163.68 55.7036   9
   2   3   2 2142.12 69.3705   8
  -2   3  -2 2034.50 78.5139   8
   3  -3   2 105.580 5.79704   6
  -3  -3  -2 114.272 5.77481   8
   3  -3   2 115.926 6.84735   7
  -3  -3  -2 111.728 4.88073   2
  -3  -3  -2 107.126 10.9580   3
   3  -3   2 119.918 6.50388   1
  -3  -3  -2 112.399 4.72598   9
   3   3   2 123.217 10.8366   4
  -3   3  -2 110.279 5.97773   6
   3   3   2 111.812 4.38302   5
   3   3   2 108.737 6.78464   3
   3   3   2 110.869 2.80869   5
  -3   3  -2 109.823 5.95805   3
  -3   3  -2 111.153 7.01305   5
  -3   3  -2 124.472 6.04393   1
   3   3   2 119.144 5.74071   2
   3   3   2 120.281 10.2651   8
  -3   3  -2 105.710 6.19254   7
  -4  -3  -2 0.21638 2.34351   2
   4  -3   2 1.96652 4.14753   7
  -4  -3  -2 1.86597 2.18782   9
   4  -3   2 -1.1476 2.55664   1
  -4  -3  -2 0.47656 3.19631   8
   4  -3   2 1.32331 4.02432   6
   4  -3   2 0.79534 1.90654   3
   4   3   2 0.14564 2.80919   3
   4   3   2 1.42890 1.96882   2
   4   3   2 -0.0915 1.89349   6
  -4   3  -2 0.16653 2.97818   3
  -4   3  -2 -2.4456 3.11984   1
  -4   3  -2 -0.0227 4.83174   5
  -5  -3  -2 120.659 7.07615   8
   5  -3   2 124.963 5.94845   3
  -5  -3  -2 111.177 5.28153   9
   5  -3   2 119.897 7.33180   6
   5  -3   2 117.677 7.62545   7
  -5  -3  -2 120.862 5.81744   2
  -5   3  -2 123.902 9.28408   5
  -5   3  -2 109.620 8.62959   3
   5   3   2 109.492 6.76953   6
   5   3   2 128.794 7.33216   2
   5   3   2 135.714 7.86482   3
  -5   3  -2 119.631 7.30498   1
  -6  -3  -2 8.03752 2.66088   2
  -6  -3  -2 5.61992 3.23980   8
   6  -3   2 5.08800 4.24593   7
   6  -3   2 5.74881 5.62157   6
   6  -3   2 12.1492 4.34096   3
  -6   3  -2 3.61144 3.36181   1
   6   3   2 4.38777 4.48544   6
   6   3   2 13.4282 4.45207   3
  -6   3  -2 7.33025 4.81888   5
  -6   3  -2 2.52297 4.20672   3
  -7  -3  -2 220.718 10.6671   8
   7  -3   2 246.960 11.1966   3
  -7  -3  -2 232.104 9.55505   2
   7  -3   2 236.882 12.3083   7
   7  -3   2 242.885 11.8924   6
   7   3   2 220.684 12.2651   6
   7   3   2 268.463 12.6264   3
  -7   3  -2 225.095 10.8495   1
  -7   3  -2 252.146 13.8940   5
  -8  -3  -2 -0.7177 4.18052   2
  -8  -3  -2 3.64119 5.86463   8
   8  -3   2 2.60153 4.04231   3
   8  -3   2 -1.7724 5.60911   7
   8  -3   2 2.23088 5.36185   6
   8   3   2 2.30840 5.51636   3
   8   3   2 -1.2644 6.38363   6
  -8   3  -2 3.78474 7.59301   5
  -8   3  -2 -1.1417 4.65919   1
   9  -3   2 22.2470 5.46582   3
  -9  -3  -2 25.3010 6.09906   2
   9  -3   2 18.0439 7.16914   6
   9  -3   2 32.0120 8.22647   7
  -9  -3  -2 16.4004 7.10377   8
  -9   3  -2 18.9990 6.46376   1
  -9   3  -2 30.3412 7.96506   5
   9   3   2 23.0413 8.48147   6
   9   3   2 27.0893 7.80665   3
  10  -3   2 34.5384 12.0876   7
  10  -3   2 42.6812 11.8526   6
 -10  -3  -2 39.3244 7.21522   8
  10   3   2 29.2281 10.2097   6
 -10   3  -2 48.7243 9.15332   5
 -10   3  -2 38.7497 8.69229   1
  10  -4  -2 159.164 15.5174   7
 -10  -4   2 151.113 12.7242   8
  10  -4  -2 152.306 13.1733   6
  10   4  -2 138.433 13.0391   3
  10   4  -2 121.864 14.1542   6
 -10   4   2 152.151 12.8176   1
 -10   4   2 163.679 16.6404   5
   9  -4  -2 5.95653 6.54569   6
  -9  -4   2 2.83296 5.39168   8
   9  -4  -2 11.5114 7.22530   7
   9   4  -2 4.33164 6.32494   6
  -9   4   2 3.68515 6.47534   1
   8  -4  -2 167.748 11.5731   7
  -8  -4   2 164.686 11.1992   8
   8  -4  -2 147.341 10.5672   6
  -8   4   2 165.912 11.0454   1
   8   4  -2 166.021 11.6460   3
   8   4  -2 165.986 12.0412   6
  -7  -4   2 85.7949 4.47296   2
   7  -4  -2 74.4923 7.95598   7
   7  -4  -2 78.3574 7.59252   6
  -7  -4   2 86.4006 4.59991   9
  -7  -4   2 82.1139 7.38907   4
  -7  -4   2 68.8139 7.89062   8
  -7   4   2 81.8306 7.97232   1
   7   4  -2 64.4158 8.40100   6
   7   4  -2 77.0985 8.30532   3
  -6  -4   2 74.4152 7.22846   8
   6  -4  -2 74.7412 6.78748   6
   6  -4  -2 57.2030 6.59874   7
  -6  -4   2 76.3584 3.64748   5
  -6  -4   2 78.2318 3.90086   2
  -6  -4   2 64.7712 6.96269   4
  -6  -4   2 76.0114 4.05440   9
  -6   4   2 76.3197 7.31725   1
  -6   4   2 65.4947 4.32540   8
  -6   4   2 71.1304 3.94146   4
   6   4  -2 71.5124 7.60864   3
  -5  -4   2 158.066 6.50651   2
  -5  -4   2 163.221 5.64806   5
   5  -4  -2 142.547 8.28543   7
  -5  -4   2 141.880 8.12385   4
   5  -4  -2 144.992 7.94855   6
  -5  -4   2 145.340 7.65716   8
  -5  -4   2 154.057 6.45545   9
  -5   4   2 130.462 8.69549   3
   5   4  -2 152.234 9.96908   3
   5   4  -2 146.465 5.97470   2
  -5   4   2 142.101 5.67411   8
   5   4  -2 146.975 6.71382   5
  -5   4   2 147.827 4.91791   4
  -5   4   2 153.444 8.95552   1
   4  -4  -2 1411.62 38.7259   7
  -4  -4   2 1451.74 42.4107   8
  -4  -4   2 1376.97 70.7232   5
  -4  -4   2 1407.35 45.2626   4
  -4  -4   2 1352.21 49.0314   2
   4  -4  -2 1398.43 39.2776   6
  -4  -4   2 1375.19 55.3753   9
   4   4  -2 1389.95 41.3092   3
  -4   4   2 1390.79 47.2183   3
  -4   4   2 1393.65 71.3795   8
   4   4  -2 1474.84 47.0204   5
   4   4  -2 1536.69 52.5947   2
  -4   4   2 1481.27 55.0932   1
  -4   4   2 1393.31 49.8601   4
   3  -4  -2 166.210 9.98133   1
  -3  -4   2 162.927 7.99355   5
   3  -4  -2 173.375 7.15138   6
  -3  -4   2 164.294 6.55231   9
  -3  -4   2 163.524 5.93950   2
  -3  -4   2 157.346 6.93351   4
  -3  -4   2 155.338 7.02041   8
   3  -4  -2 165.034 7.40324   7
  -3   4   2 145.492 6.44317   8
   3   4  -2 168.844 8.07546   1
   3   4  -2 172.687 6.42482   5
   3   4  -2 151.885 8.10135   3
  -3   4   2 157.290 8.49262   3
  -3   4   2 151.265 9.87558   6
   3   4  -2 143.734 8.96055   7
   3   4  -2 152.839 6.04605   2
  -3   4   2 157.912 8.80988   1
   2  -4  -2 356.898 20.6823   1
  -2  -4   2 340.038 15.4084   8
  -2  -4   2 340.821 12.8402   5
   2  -4  -2 370.271 12.3549   6
  -2  -4   2 362.903 9.59279   9
   2  -4  -2 349.122 10.0570   9
   2  -4  -2 371.921 10.9279   7
  -2  -4   2 353.820 10.3932   4
   2   4  -2 381.786 14.5423   4
  -2   4   2 344.576 9.91086   8
  -2   4   2 367.175 24.9358   7
  -2   4   2 358.093 19.9962   9
  -2   4   2 373.523 20.4804   2
   2   4  -2 348.961 11.6177   3
  -2   4   2 351.381 18.7353   3
   2   4  -2 365.250 8.97829   9
   2   4  -2 376.399 16.6594   8
  -2   4   2 342.222 14.9766   6
   2   4  -2 380.282 13.8845   7
   2   4  -2 345.268 10.2281   2
  -2   4   2 368.499 13.8187   1
   2   4  -2 354.455 10.1016   5
   1  -4  -2 21.1156 2.56115   6
  -1  -4   2 17.2585 3.18590   8
  -1  -4   2 20.9129 2.09857   9
   1  -4  -2 19.8750 2.63982   7
   1  -4  -2 16.5882 2.59248   9
  -1  -4   2 15.0327 3.09732   4
  -1   4   2 15.6262 2.32679   3
  -1   4   2 15.2565 3.11279   9
   1   4  -2 17.7680 3.75365   7
   1   4  -2 14.6709 2.04207   2
  -1   4   2 20.0968 2.79057   7
  -1   4   2 14.9526 3.30320   1
   1   4  -2 15.3546 2.72498   8
  -1   4   2 15.2250 2.67838   2
   1   4  -2 18.9914 3.08862   5
   1   4  -2 16.7099 2.85876   6
   1   4  -2 14.9866 3.30381   4
   1   4  -2 16.7460 2.07195   9
   1   4  -2 19.3718 3.40211   3
  -1   4   2 19.9310 2.61919   6
  -1   4   2 18.3650 2.49950   8
   0  -4   2 21.3602 3.00161   8
   0  -4  -2 21.6400 3.07768   9
   0  -4  -2 28.4255 3.14558   7
   0  -4   2 19.0094 3.05660   7
   0   4   2 18.2402 3.41426   3
   0   4   2 20.7379 2.52094   7
   0   4  -2 21.0594 2.54588   2
   0   4  -2 15.3634 2.20447   9
   0   4   2 21.1396 2.78701   2
   0   4  -2 22.0291 2.65101   4
   0   4  -2 19.0670 3.42647   1
   0   4   2 19.1508 3.07056   9
   0   4   2 24.9952 3.01753   6
   0   4  -2 21.7859 3.72785   5
   0   4  -2 16.9898 3.05736   7
   0   4  -2 22.4519 2.70150   8
   0   4   2 23.8482 3.72988   1
   0   4  -2 18.8034 3.03258   6
   0   4   2 24.1847 3.51622   8
  -1  -4  -2 96.2454 5.01286   8
   1  -4   2 92.3265 4.07366   8
   1  -4   2 84.6941 5.93026   7
   1  -4   2 101.793 6.07121   6
  -1  -4  -2 94.4725 4.83707   2
  -1  -4  -2 92.2715 4.27946   9
  -1  -4  -2 96.9228 6.04267   3
  -1   4  -2 96.9243 4.54690   4
  -1   4  -2 78.5435 5.36469   7
   1   4   2 82.1969 5.50817   8
   1   4   2 98.8775 6.02186   3
  -1   4  -2 93.7588 5.76480   6
   1   4   2 92.6397 5.13596   7
   1   4   2 95.6884 4.57776   9
  -1   4  -2 93.6929 5.28296   1
  -1   4  -2 102.225 4.51528   8
  -1   4  -2 86.8148 7.01453   5
   1   4   2 91.0129 4.32259   6
  -1   4  -2 95.0559 5.90750   9
   1   4   2 93.9985 5.13232   4
   1   4   2 91.9581 5.37774   5
   1   4   2 98.1971 5.90606   2
  -2  -4  -2 20.8684 3.93525   8
   2  -4   2 15.1118 4.11863   6
   2  -4   2 18.2323 3.94482   1
  -2  -4  -2 20.1544 2.44985   9
   2  -4   2 17.5745 1.73405   8
   2  -4   2 17.6139 4.33336   7
  -2  -4  -2 19.1434 2.47900   2
  -2  -4  -2 22.3062 4.32781   3
   2   4   2 15.0079 3.23902   8
  -2   4  -2 16.3101 3.49118   7
  -2   4  -2 22.5572 3.39494   1
  -2   4  -2 14.9795 3.50731   9
   2   4   2 21.0781 2.67780   2
  -2   4  -2 18.4702 4.25888   5
  -2   4  -2 12.7073 3.15613   6
   2   4   2 14.6756 3.21775   4
   2   4   2 15.2883 2.41821   9
   2   4   2 17.9522 2.76793   5
  -2   4  -2 12.8897 1.93085   8
   2   4   2 24.3596 4.67064   3
  -2   4  -2 16.4044 2.00177   4
   2   4   2 19.4858 2.64052   7
  -2   4  -2 18.9169 2.73819   3
  -3  -4  -2 128.120 5.58235   2
   3  -4   2 115.623 6.88550   1
   3  -4   2 137.537 7.98242   7
  -3  -4  -2 138.959 5.47918   9
   3  -4   2 118.455 7.35563   6
  -3  -4  -2 117.284 8.07856   8
  -3   4  -2 132.698 7.05251   3
   3   4   2 132.122 6.47823   5
  -3   4  -2 130.296 4.62255   4
   3   4   2 125.141 8.00731   2
  -3   4  -2 142.629 6.78606   1
  -3   4  -2 129.479 5.41521   8
  -3   4  -2 132.693 8.36191   5
   3   4   2 131.063 7.83641   3
  -4  -4  -2 50.5012 5.61643   8
   4  -4   2 44.1285 5.90580   6
  -4  -4  -2 64.1182 3.99974   2
  -4  -4  -2 58.4670 3.65567   9
   4  -4   2 54.6520 5.74320   7
   4  -4   2 52.0799 5.86583   1
  -4   4  -2 48.3355 4.69572   3
   4   4   2 45.2699 5.55371   3
   4   4   2 49.0678 4.18039   2
  -4   4  -2 57.0879 6.78129   5
  -4   4  -2 45.9430 4.61136   1
   5  -4   2 10.0905 5.44288   6
  -5  -4  -2 9.21722 2.44797   9
  -5  -4  -2 8.01852 2.41709   2
   5  -4   2 8.86464 4.15821   7
  -5  -4  -2 11.3719 4.79869   8
   5   4   2 4.11512 4.05186   6
  -5   4  -2 7.06121 5.16532   5
  -5   4  -2 5.65990 3.34732   1
   5   4   2 1.90993 2.80423   2
   5   4   2 1.96856 5.63463   3
  -5   4  -2 7.35224 3.94592   3
   6  -4   2 165.533 11.2185   7
   6  -4   2 171.107 10.9960   6
  -6  -4  -2 168.441 7.60846   9
  -6  -4  -2 176.183 7.93010   2
  -6  -4  -2 158.918 8.73681   8
   6   4   2 151.491 8.32990   6
   6   4   2 182.048 11.9012   3
  -6   4  -2 170.372 9.94778   1
  -6   4  -2 160.584 12.3176   5
  -7  -4  -2 50.1742 5.38036   2
   7  -4   2 39.9264 8.30441   6
   7  -4   2 45.7717 8.90349   7
  -7  -4  -2 49.0917 4.91257   9
  -7  -4  -2 36.4258 7.12787   8
  -7   4  -2 44.2574 7.35774   1
  -7   4  -2 62.5081 8.53782   5
   7   4   2 25.7727 8.24976   3
   7   4   2 35.5454 7.85512   6
  -8  -4  -2 9.70724 4.88808   2
  -8  -4  -2 11.9177 3.39322   9
   8  -4   2 12.4441 6.73340   7
   8  -4   2 17.8955 4.39437   3
   8  -4   2 16.1627 6.40649   6
  -8  -4  -2 6.58544 5.15203   8
  -8   4  -2 12.0737 28.6182   1
   8   4   2 12.6172 7.08301   3
   8   4   2 10.5862 7.01623   6
  -8   4  -2 15.5651 7.22960   5
   9  -4   2 2.50946 6.81586   6
  -9  -4  -2 -0.2884 5.30637   8
   9  -4   2 -1.0798 7.09517   7
   9   4   2 -1.8580 6.80345   3
  -9   4  -2 2.30162 7.68172   5
  -9   4  -2 0.25912 5.84500   1
   9   4   2 3.29873 8.86620   6
  10  -4   2 66.2771 25.2418   7
  10  -4   2 69.6573 25.6536   6
 -10  -4  -2 49.5886 8.52999   8
  10   4   2 44.1660 8.93625   6
 -10   4  -2 43.2322 11.6128   1
  10   4   2 63.9243 10.8704   3
 -10   4  -2 67.6024 13.5554   5
  -9  -5   2 2.86107 6.08717   8
   9  -5  -2 -1.6400 6.57647   6
   9  -5  -2 2.54919 7.19148   7
  -9   5   2 -1.5589 7.13852   1
  -9   5   2 1.97346 8.48383   5
   9   5  -2 -4.0820 9.23936   6
  -8  -5   2 0.18190 5.11861   8
   8  -5  -2 6.64138 6.10776   6
   8  -5  -2 16.4598 9.20036   7
  -8   5   2 12.4128 9.10187   1
   8   5  -2 3.32770 6.19594   6
   8   5  -2 5.22779 7.03021   3
  -7  -5   2 1065.51 49.8395   8
   7  -5  -2 1097.31 48.8636   7
   7  -5  -2 1041.75 44.5977   6
   7   5  -2 1114.93 42.8437   3
  -7   5   2 1059.19 36.5728   1
   7   5  -2 1097.26 40.5749   6
  -6  -5   2 4.97138 2.26451   2
  -6  -5   2 6.50845 2.22152   9
   6  -5  -2 1.97423 4.42728   7
   6  -5  -2 -0.8595 4.13479   6
  -6  -5   2 7.70457 5.95598   8
  -6   5   2 7.14406 5.13916   1
   6   5  -2 8.34049 7.82514   3
   5  -5  -2 25.0044 6.32412   7
  -5  -5   2 12.0346 4.31878   8
  -5  -5   2 17.2790 2.37419   9
   5  -5  -2 19.3034 4.70666   6
  -5  -5   2 19.4338 2.56599   2
   5   5  -2 18.0106 5.80329   3
  -5   5   2 18.3564 2.55232   4
   5   5  -2 15.3364 2.85228   5
  -5   5   2 17.3372 6.92779   1
   4  -5  -2 3.73434 4.45404   6
  -4  -5   2 4.16236 3.52172   8
   4  -5  -2 1.65218 5.01494   7
  -4  -5   2 1.39497 1.54431   2
  -4  -5   2 2.72669 3.45659   4
  -4  -5   2 2.24901 1.94732   9
  -4   5   2 1.76757 2.18122   8
   4   5  -2 5.29416 4.49463   3
  -4   5   2 1.62055 3.95252   1
  -4   5   2 0.33677 2.22392   3
   4   5  -2 0.98213 2.64167   5
   4   5  -2 5.71260 2.83084   2
   3  -5  -2 561.382 16.4492   7
  -3  -5   2 578.845 18.5441   8
  -3  -5   2 572.659 25.4044   9
   3  -5  -2 622.606 17.2549   6
   3   5  -2 585.517 27.2420   5
  -3   5   2 614.403 29.1293   1
  -3   5   2 584.721 19.5592   8
   3   5  -2 615.364 16.7785   9
  -3   5   2 578.620 39.5283   3
   3   5  -2 618.377 24.8660   3
  -3   5   2 596.411 25.3520   3
   3   5  -2 587.275 28.9136   2
   2  -5  -2 148.918 6.87698   6
  -2  -5   2 150.840 7.58147   8
  -2  -5   2 164.528 5.45319   9
   2  -5  -2 154.756 7.20970   7
   2  -5  -2 137.015 6.89009   9
   2   5  -2 140.437 5.70382   2
   2   5  -2 147.535 7.49674   9
  -2   5   2 154.832 8.41784   1
  -2   5   2 141.817 8.62707   3
  -2   5   2 144.715 6.61469   8
   2   5  -2 150.257 8.98212   3
  -2   5   2 122.749 6.61279   4
   2   5  -2 134.566 7.62954   5
  -2   5   2 138.570 11.5382   6
  -2   5   2 151.786 9.74316   7
  -1  -5   2 89.5760 5.74970   8
   1  -5  -2 86.8908 5.59974   7
   1  -5  -2 92.8488 5.74727   9
  -1  -5   2 103.294 4.98217   9
   1   5  -2 84.3739 6.20629   6
  -1   5   2 83.9863 4.94072   4
   1   5  -2 88.0711 6.07897   5
   1   5  -2 82.8876 4.80834   9
   1   5  -2 87.5885 12.6106   7
  -1   5   2 96.8673 7.81149   6
   1   5  -2 94.3324 6.26744   8
  -1   5   2 95.9373 6.65382   1
   1   5  -2 90.0271 5.28992   2
  -1   5   2 82.4541 5.67318   3
  -1   5   2 73.2586 5.19307   8
   1   5  -2 89.4626 7.17348   3
   1   5  -2 86.9917 6.11264   4
  -1   5   2 80.3130 5.87300   7
   1   5  -2 80.7482 5.62313   1
   0  -5  -2 35.2284 3.45837   9
   0  -5  -2 32.7973 4.22212   7
   0  -5   2 32.5485 4.90712   7
   0  -5   2 33.3391 3.94728   8
   0   5  -2 33.7456 3.92651   1
   0   5   2 27.3696 3.35848   9
   0   5   2 26.3099 3.59216   8
   0   5   2 26.2381 5.46254   1
   0   5   2 29.5682 3.73557   4
   0   5  -2 18.1432 10.5333   7
   0   5  -2 30.7135 3.32028   2
   0   5  -2 23.9775 3.89593   4
   0   5  -2 24.5912 4.03533   3
   0   5   2 30.2006 4.33084   2
   0   5   2 23.7738 3.10637   6
   0   5   2 28.7248 4.57253   3
   0   5  -2 29.3692 5.79864   5
   0   5  -2 26.8197 3.39372   8
   0   5  -2 22.6670 10.1918   6
   0   5  -2 24.2491 2.98298   9
   0   5   2 28.5927 4.12331   7
  -1  -5  -2 329.211 11.5187   9
   1  -5   2 337.652 10.0338   8
  -1  -5  -2 335.739 14.5402   2
   1  -5   2 320.138 11.0674   7
  -1  -5  -2 326.928 10.4058   8
  -1   5  -2 319.296 12.9333   1
   1   5   2 330.024 20.3432   7
   1   5   2 320.201 12.0649   6
   1   5   2 334.756 14.0537   5
  -1   5  -2 344.552 15.6087   9
   1   5   2 323.591 12.9105   1
  -1   5  -2 318.277 13.2644   5
   1   5   2 330.707 13.4730   3
  -1   5  -2 339.031 15.8698   4
  -1   5  -2 320.766 13.9419   8
   1   5   2 356.809 17.7478   9
   1   5   2 326.136 11.7086   2
   2  -5   2 216.502 9.59168   7
  -2  -5  -2 223.615 10.9617   8
   2  -5   2 236.890 10.0100   6
   2  -5   2 233.964 11.9655   1
  -2  -5  -2 212.407 7.45083   9
  -2  -5  -2 224.457 8.08001   2
   2   5   2 242.898 8.77638   9
   2   5   2 217.326 10.1117   3
  -2   5  -2 228.278 9.73724   8
   2   5   2 214.304 8.34351   5
  -2   5  -2 230.794 11.3003   5
   2   5   2 245.735 9.12472   7
  -2   5  -2 231.665 9.16246   1
   2   5   2 236.965 11.5920   2
  -2   5  -2 226.742 10.8431   4
  -3  -5  -2 767.957 24.1730   9
  -3  -5  -2 732.735 21.5418   2
   3  -5   2 783.584 23.6751   7
  -3  -5  -2 766.469 33.2286   8
   3  -5   2 764.613 27.3469   6
   3  -5   2 715.827 36.5116   1
   3   5   2 776.610 37.3095   5
  -3   5  -2 813.495 27.8927   4
   3   5   2 792.041 24.3796   3
  -3   5  -2 818.266 37.2505   8
   3   5   2 776.241 29.6460   7
  -3   5  -2 791.646 44.3528   3
   3   5   2 789.849 39.1384   2
  -3   5  -2 825.409 35.2103   5
  -3   5  -2 786.899 31.5548   1
  -4  -5  -2 3.24973 4.22933   8
   4  -5   2 8.75383 5.63812   7
   4  -5   2 9.57631 4.10189   6
  -4  -5  -2 5.20063 2.31164   9
  -4  -5  -2 8.89371 2.59826   2
  -4   5  -2 12.9854 7.25443   5
   4   5   2 4.31935 1.46771   5
   4   5   2 4.41648 1.44767   5
  -4   5  -2 4.50377 0.74170   4
  -4   5  -2 2.53449 3.75949   3
   4   5   2 5.51384 6.03693   3
   4   5   2 4.20560 2.85955   2
  -4   5  -2 4.28792 0.85280   4
  -4   5  -2 -0.2830 4.79711   1
  -5  -5  -2 41.3687 4.53306   2
   5  -5   2 34.1259 5.66496   6
   5  -5   2 30.1149 5.99980   7
  -5  -5  -2 34.1075 5.35088   8
  -5  -5  -2 32.0209 4.12140   9
  -5   5  -2 36.2496 6.58278   1
  -5   5  -2 24.8307 5.25483   3
  -5   5  -2 38.3976 9.06954   5
   5   5   2 33.3457 7.69272   3
  -6  -5  -2 13.7492 3.88686   9
   6  -5   2 11.2107 5.63967   7
  -6  -5  -2 12.0663 4.08259   2
  -6  -5  -2 13.8068 4.78319   8
   6  -5   2 9.66079 6.86233   6
   6   5   2 6.70498 5.37606   6
   6   5   2 11.0054 7.74887   3
  -6   5  -2 8.80066 8.62384   5
  -6   5  -2 9.61896 4.59377   1
   7  -5   2 126.218 10.6321   7
  -7  -5  -2 117.118 8.68345   2
  -7  -5  -2 124.075 6.20866   9
  -7  -5  -2 121.285 8.96700   8
   7  -5   2 107.677 11.0721   6
  -7   5  -2 141.571 12.0702   5
  -7   5  -2 117.094 10.1900   1
   7   5   2 120.456 10.5843   3
   7   5   2 102.938 8.52004   6
   8  -5   2 0.27132 6.21113   6
   8  -5   2 -1.1970 6.33999   7
  -8  -5  -2 -0.6720 5.31416   8
   8   5   2 4.25617 7.47807   6
  -8   5  -2 3.30744 7.84755   5
   8   5   2 -1.2317 7.10885   3
  -8   5  -2 4.89286 5.87916   1
   9  -5   2 16.8471 7.97421   6
  -9  -5  -2 5.27080 6.26965   8
   9  -5   2 16.1086 8.06112   7
  -9   5  -2 13.5196 12.7736   5
  -9   5  -2 3.51295 9.10021   1
   9   5   2 15.3357 9.42085   3
   9   5   2 16.7536 6.94220   6
   9  -6  -2 11.5974 8.23218   6
   9  -6  -2 -3.1247 10.5860   7
  -9  -6   2 0.32236 6.56373   8
   9   6  -2 9.37469 10.8966   6
  -9   6   2 11.4206 10.5796   5
  -9   6   2 8.64126 8.15572   1
   9   6  -2 6.88277 9.56783   3
   8  -6  -2 25.7029 9.91891   6
   8  -6  -2 17.9736 8.16063   7
  -8  -6   2 13.4142 6.54418   8
  -8   6   2 21.4579 7.68692   1
   8   6  -2 19.6737 8.95548   3
  -8   6   2 27.1874 10.2300   5
   8   6  -2 13.4757 9.42391   6
   7  -6  -2 -4.5730 7.91329   6
   7  -6  -2 -5.9350 11.3455   7
  -7  -6   2 1.55846 5.27184   8
  -7   6   2 5.06271 6.04881   1
   7   6  -2 -2.8323 7.03979   3
  -6  -6   2 -6.1887 6.51183   8
   6  -6  -2 3.61141 7.68948   7
   6  -6  -2 1.93296 6.90108   6
   6   6  -2 -5.1739 6.29957   3
  -6   6   2 -0.8167 5.31514   1
  -5  -6   2 127.169 6.90198   9
  -5  -6   2 133.062 8.66340   8
   5  -6  -2 133.660 10.0785   7
   5  -6  -2 126.252 8.60273   6
   5   6  -2 117.736 10.2150   3
  -5   6   2 117.844 9.41892   1
  -4  -6   2 34.2974 3.43270   9
   4  -6  -2 38.2191 6.45463   6
  -4  -6   2 38.2954 5.36834   8
   4  -6  -2 35.1900 6.69443   7
   4   6  -2 42.2505 8.65887   3
  -4   6   2 33.5505 6.03049   1
  -4   6   2 29.6618 5.34029   3
   4   6  -2 24.7609 4.20179   5
  -3  -6   2 181.714 9.01204   8
   3  -6  -2 238.595 12.3954   6
   3  -6  -2 199.143 11.2017   7
  -3  -6   2 199.852 9.49160   9
  -3   6   2 200.639 10.0852   3
   3   6  -2 177.170 11.3426   5
  -3   6   2 190.942 11.3916   8
  -3   6   2 185.106 11.7360   1
   3   6  -2 199.527 13.7793   3
   3   6  -2 193.329 7.87695   2
   3   6  -2 200.755 8.71234   9
  -3   6   2 191.699 8.11060   3
  -3   6   2 193.404 8.77546   4
   2  -6  -2 1.24908 3.26155   9
   2  -6  -2 -2.0214 4.51452   6
   2  -6  -2 -1.4379 4.51077   7
  -2  -6   2 -0.5789 2.99154   8
  -2  -6   2 1.25999 2.66162   9
   2   6  -2 0.86488 4.35433   3
  -2   6   2 -1.2174 2.86625   8
  -2   6   2 0.27683 2.75623   4
   2   6  -2 2.31225 4.58696   5
  -2   6   2 0.43489 3.30579   3
  -2   6   2 3.18092 4.49181   1
   2   6  -2 1.02955 2.27531   9
   2   6  -2 -2.8273 3.39398   2
   1  -6  -2 114.304 7.23984   9
  -1  -6   2 126.156 6.73456   8
   1  -6  -2 130.912 7.50786   7
   1   6  -2 110.920 8.50968   5
   1   6  -2 116.784 8.05027   2
   1   6  -2 121.950 8.22268   3
  -1   6   2 120.931 7.76773   3
   1   6  -2 127.039 6.24170   9
  -1   6   2 125.772 8.85875   5
   1   6  -2 102.417 7.18002   1
  -1   6   2 122.969 8.39546   1
   0  -6   2 73.6299 6.09194   7
   0  -6   2 83.5890 5.34898   8
   0  -6  -2 84.8286 6.40660   7
   0  -6  -2 65.3955 5.59733   9
   0   6   2 73.1480 6.81962   1
   0   6   2 73.0096 6.74496   5
   0   6   2 70.0865 5.94255   7
   0   6  -2 82.9799 18.3981   5
   0   6  -2 76.6496 7.25506   3
   0   6   2 64.4741 6.38641   3
   0   6  -2 66.9706 6.64090   1
   0   6   2 70.9568 6.09165   6
  -1  -6  -2 5.53837 12.0176   9
   1  -6   2 0.58655 3.00012   8
   1  -6   2 -0.2694 4.42729   7
  -1  -6  -2 0.41876 3.09339   8
  -1   6  -2 1.70835 6.34870   5
  -1   6  -2 -0.2912 4.40492   1
   1   6   2 3.72499 5.75581   1
  -1   6  -2 2.01255 3.62004   4
   1   6   2 -0.0807 2.88457   7
  -1   6  -2 -1.2626 3.41237   8
   1   6   2 3.32420 4.68418   5
   1   6   2 2.86711 2.81042   6
   1   6   2 -1.6885 4.89894   3
  -2  -6  -2 0.35169 3.41552   9
   2  -6   2 -1.2848 4.80541   7
  -2  -6  -2 1.70373 3.34615   8
  -2  -6  -2 2.75120 2.78086   2
   2  -6   2 1.02368 3.56131   6
  -2   6  -2 0.04158 2.09506   4
   2   6   2 -1.0192 4.02065   3
   2   6   2 -2.2288 2.61197   6
   2   6   2 0.00000 3.89727   5
  -2   6  -2 -0.2960 4.72432   5
  -2   6  -2 1.17161 5.03620   1
   2   6   2 -4.9464 2.74836   7
  -2   6  -2 0.58458 2.07183   8
   3  -6   2 36.2824 5.59184   6
  -3  -6  -2 44.8477 4.92815   2
   3  -6   2 35.3824 5.70168   7
  -3  -6  -2 39.8159 3.95321   9
  -3  -6  -2 42.0751 5.33669   8
  -3   6  -2 39.2256 5.49035   1
  -3   6  -2 42.2921 7.57509   5
   3   6   2 26.9586 4.17951   5
   3   6   2 34.2346 6.05893   3
   4  -6   2 534.928 18.4463   7
  -4  -6  -2 517.078 16.9024   9
   4  -6   2 536.701 18.1010   6
  -4  -6  -2 509.486 19.8210   2
  -4  -6  -2 478.975 18.4945   8
  -4   6  -2 522.025 23.4490   1
   4   6   2 536.645 22.0723   3
  -4   6  -2 535.444 21.3109   5
   5  -6   2 6.82790 7.16218   7
   5  -6   2 0.93047 6.65265   6
  -5  -6  -2 0.96964 2.71218   2
  -5  -6  -2 1.22731 2.65750   9
  -5  -6  -2 0.66660 4.25591   8
  -5   6  -2 -0.8770 8.85747   5
  -5   6  -2 -0.0901 10.3667   1
   5   6   2 -1.3266 5.24361   3
   6  -6   2 132.114 10.7504   7
  -6  -6  -2 139.404 8.56545   9
  -6  -6  -2 108.498 8.93374   8
   6  -6   2 145.093 10.5420   6
  -6  -6  -2 138.215 8.28579   2
  -6   6  -2 145.680 14.8287   5
   6   6   2 126.025 11.7306   3
  -6   6  -2 134.715 10.7730   1
   6   6   2 134.277 8.75474   6
   7  -6   2 12.0264 9.36601   6
  -7  -6  -2 8.77992 8.00650   8
   7  -6   2 4.22514 6.88284   7
  -7   6  -2 6.29893 8.58996   5
   7   6   2 3.76287 7.36803   6
   7   6   2 4.40635 10.1595   3
  -7   6  -2 6.97885 5.84994   1
   8  -6   2 160.500 12.4299   6
   8  -6   2 154.981 13.6629   7
  -8  -6  -2 160.665 14.0214   8
  -8   6  -2 150.603 12.9085   1
   8   6   2 138.507 12.5801   6
   8   6   2 144.346 13.4377   3
  -8   6  -2 140.608 15.4911   5
   8  -7  -2 4.20265 7.88826   6
   8  -7  -2 1.48341 8.14198   7
  -8  -7   2 3.99289 6.96133   8
  -8   7   2 0.96908 11.3090   1
  -8   7   2 5.56597 11.1377   5
   8   7  -2 0.89685 10.2682   6
   7  -7  -2 10.4998 7.04840   6
  -7  -7   2 13.5571 6.44854   8
   7  -7  -2 12.0705 7.19965   7
  -7   7   2 16.5070 10.1542   1
  -7   7   2 8.63323 9.90105   5
   6  -7  -2 33.0877 7.14851   6
  -6  -7   2 20.9305 6.38113   8
   6  -7  -2 23.4220 7.18206   7
  -6   7   2 24.0579 9.66627   5
  -6   7   2 24.4903 7.75368   1
   6   7  -2 18.7869 8.61129   3
  -5  -7   2 9.56871 5.32307   8
   5  -7  -2 4.90778 5.45497   6
   5  -7  -2 11.6791 5.72689   7
  -5   7   2 14.3389 11.1199   5
   5   7  -2 3.03264 7.20930   3
  -5   7   2 9.98735 8.42968   1
  -4  -7   2 74.4222 7.30922   8
   4  -7  -2 65.9788 7.36173   7
  -4  -7   2 69.6495 4.58705   9
   4  -7  -2 63.2318 7.09510   6
  -4   7   2 57.1946 9.76835   1
  -4   7   2 65.0780 12.2274   5
   4   7  -2 69.0483 9.23743   3
  -3  -7   2 1.99419 5.52228   8
  -3  -7   2 -0.3188 3.36595   9
   3  -7  -2 5.13262 4.23280   6
   3  -7  -2 0.11686 4.10530   7
  -3   7   2 -1.5913 7.29809   1
  -3   7   2 0.72921 5.80879   5
   3   7  -2 5.58491 8.06247   3
  -3   7   2 -0.5098 4.16631   3
   3   7  -2 0.81048 5.08898   5
   2  -7  -2 199.999 11.1554   7
  -2  -7   2 203.191 10.6752   8
  -2   7   2 160.085 13.2404   5
   2   7  -2 186.049 10.7465   1
  -2   7   2 194.256 11.5762   1
  -2   7   2 189.435 11.1100   3
   2   7  -2 185.897 11.1373   5
   2   7  -2 188.341 12.7113   3
   1  -7  -2 594.754 21.4125   7
   1  -7  -2 626.888 21.4579   9
  -1  -7   2 617.843 20.7727   8
   1   7  -2 637.200 20.7112   5
  -1   7   2 620.888 28.1859   3
  -1   7   2 614.823 37.2232   5
   1   7  -2 636.599 26.9785   3
   1   7  -2 618.019 23.7983   1
  -1   7   2 628.147 29.4502   1
   0  -7   2 12.0050 4.67893   8
   0  -7  -2 5.93130 4.17330   7
   0  -7   2 7.03276 5.80131   7
   0  -7  -2 9.09681 5.09301   9
   0   7  -2 8.01369 7.39918   5
   0   7   2 4.73468 6.58515   5
   0   7   2 6.85206 5.08283   1
   0   7   2 9.47831 6.17141   3
   0   7  -2 0.05006 6.72107   3
   0   7  -2 7.18317 6.18534   1
   1  -7   2 369.402 14.0601   7
  -1  -7  -2 355.764 12.7929   9
   1   7   2 365.516 14.2319   5
  -1   7  -2 384.992 15.3844   1
   1   7   2 387.526 16.4000   3
  -1   7  -2 404.600 118.492   5
  -1   7  -2 379.851 20.2133   3
   1   7   2 399.948 17.6785   1
  -2  -7  -2 8.41961 4.37010   8
   2  -7   2 2.68417 4.72313   7
  -2  -7  -2 4.68705 3.28991   9
   2   7   2 8.91985 6.90321   3
  -2   7  -2 4.97243 6.29693   1
  -2   7  -2 7.80161 9.07653   5
   2   7   2 2.73887 5.48605   1
   2   7   2 2.15781 5.31971   5
  -3  -7  -2 151.610 7.90929   9
  -3  -7  -2 146.023 9.12054   8
   3  -7   2 143.988 9.91243   7
   3  -7   2 157.542 9.55685   6
  -3   7  -2 140.774 13.7312   5
  -3   7  -2 127.876 10.1902   1
   3   7   2 142.237 11.9340   3
   3   7   2 139.387 9.84485   5
   4  -7   2 -5.7004 6.65055   6
   4  -7   2 3.40492 7.13993   7
  -4  -7  -2 -2.8646 4.32536   2
  -4  -7  -2 -4.0191 6.23019   8
  -4  -7  -2 -1.3602 4.26986   9
   4   7   2 -1.2236 5.91348   3
  -4   7  -2 -1.3467 4.48216   1
  -4   7  -2 -5.2734 6.78542   5
  -5  -7  -2 195.203 12.6512   8
   5  -7   2 206.846 14.4460   7
  -5  -7  -2 208.677 11.3093   2
   5  -7   2 204.079 13.3766   6
  -5  -7  -2 205.532 10.4027   9
  -5   7  -2 203.887 13.0992   1
   5   7   2 219.686 13.6786   3
  -5   7  -2 205.794 15.0914   5
  -6  -7  -2 2.82024 7.80820   8
   6  -7   2 0.99599 6.13253   6
  -6   7  -2 11.6619 8.74816   5
   6   7   2 21.1167 16.9905   3
  -6   7  -2 18.9099 8.56135   1
   7  -7   2 59.7210 10.1413   7
   7  -7   2 59.6858 11.6661   6
  -7  -7  -2 59.9938 8.59767   8
  -7   7  -2 74.6877 12.2673   5
  -7   7  -2 48.7604 8.73036   1
   7   7   2 59.3683 10.9880   3
   6  -8  -2 37.5772 11.0369   7
   6  -8  -2 43.3533 11.0171   6
  -6  -8   2 53.9079 8.86338   8
  -6   8   2 35.2825 9.32972   1
   6   8  -2 56.8277 11.7802   3
  -6   8   2 35.7747 11.8469   5
   5  -8  -2 13.3590 9.38928   7
  -5  -8   2 7.20467 6.34106   8
   5  -8  -2 13.7439 6.66246   6
  -5   8   2 13.7397 10.1176   5
   5   8  -2 13.1569 8.88144   3
  -5   8   2 0.62914 9.66010   1
   4  -8  -2 95.1073 12.6395   7
  -4  -8   2 86.0226 8.80905   8
   4  -8  -2 102.850 11.1527   6
  -4   8   2 74.4246 9.66086   1
  -4   8   2 60.4602 10.9729   5
   4   8  -2 82.6970 11.0070   3
   3  -8  -2 96.4668 10.0278   7
  -3  -8   2 93.0569 8.53914   8
  -3   8   2 83.1258 11.1478   5
   3   8  -2 65.1166 10.3615   1
   3   8  -2 85.9048 10.5214   3
  -3   8   2 79.4011 9.91608   1
   2  -8  -2 4.39823 6.79967   7
  -2  -8   2 9.55059 6.55601   8
   2   8  -2 4.08139 6.59818   3
   2   8  -2 2.26076 7.02179   5
  -2   8   2 1.34950 4.32768   3
  -2   8   2 5.46141 6.78801   5
   2   8  -2 1.24683 5.49145   1
  -2   8   2 2.47593 6.20745   1
   1  -8  -2 5.62980 6.06264   7
  -1  -8   2 1.61458 4.11783   8
   1   8  -2 1.88152 5.11507   1
  -1   8   2 1.57783 5.76796   1
  -1   8   2 1.36146 6.10213   5
   1   8  -2 3.41546 5.97839   3
   1   8  -2 0.09445 5.70018   5
  -1   8   2 0.43459 6.60701   3
   0  -8   2 1151.76 51.2569   7
   0  -8   2 1210.83 41.0179   8
   0  -8  -2 1190.72 52.1186   9
   0   8   2 1262.63 60.7947   3
   0   8  -2 1235.48 74.0812   3
   0   8   2 1220.27 37.9211   1
   0   8   2 1222.80 79.4911   5
   0   8  -2 1211.24 65.9512   1
   0   8  -2 1225.97 52.5936   5
  -1  -8  -2 247.401 10.6756   9
   1  -8   2 241.550 12.0841   7
   1   8   2 229.662 12.5819   5
   1   8   2 212.567 13.7174   3
  -1   8  -2 230.137 18.0371   3
   1   8   2 239.820 13.5645   1
  -1   8  -2 228.258 13.8263   1
  -1   8  -2 247.243 14.5211   5
   2  -8   2 172.783 12.2394   7
  -2  -8  -2 181.289 9.69429   9
  -2   8  -2 150.293 11.9978   3
  -2   8  -2 159.944 12.9355   5
   2   8   2 151.066 13.0765   1
   2   8   2 146.636 11.1742   3
   2   8   2 138.666 10.4938   5
  -2   8  -2 151.068 10.6739   1
  -3  -8  -2 87.0068 6.44807   9
   3  -8   2 83.1694 9.22272   7
  -3   8  -2 83.2730 11.8779   5
  -3   8  -2 95.2554 10.7971   1
   3   8   2 77.8587 10.1771   1
  -3   8  -2 76.3949 7.72180   3
   3   8   2 78.7339 11.9731   3
  -4  -8  -2 17.5499 6.47801   8
   4  -8   2 16.3735 8.89372   7
   4  -8   2 25.1252 6.73174   6
  -4  -8  -2 17.1814 5.17749   9
   4   8   2 12.1745 11.0037   3
  -4   8  -2 19.4961 18.0834   5
  -4   8  -2 7.54795 8.13535   1
   5  -8   2 6.36798 7.06010   6
  -5  -8  -2 9.99880 6.74345   8
   5  -8   2 3.17559 10.3193   7
   5   8   2 6.62556 8.24823   3
  -5   8  -2 6.66079 22.6297   5
   6  -8   2 20.8340 7.93043   6
   6  -8   2 19.3700 8.08045   7
  -6  -8  -2 15.3075 7.64743   8
   6   8   2 8.42921 9.23753   3
  -6   8  -2 20.3710 10.7327   5
  -5  -9   2 60.5383 8.70464   8
   5  -9  -2 61.7195 8.53519   6
   5  -9  -2 69.1545 11.4145   7
  -5   9   2 52.5315 31.7140   1
   5   9  -2 37.0004 14.4756   3
  -4  -9   2 -4.7554 5.97976   8
   4  -9  -2 0.74691 8.48026   7
   4   9  -2 0.31375 6.83537   1
  -4   9   2 -2.3527 7.09199   1
   4   9  -2 4.34895 9.13601   3
  -3  -9   2 252.741 13.8401   8
   3  -9  -2 232.491 16.8047   7
   3   9  -2 209.542 15.0153   3
  -3   9   2 209.288 17.6341   5
   3   9  -2 200.420 15.4700   1
  -3   9   2 202.165 16.6169   1
  -2  -9   2 64.6574 8.10019   8
  -2   9   2 61.3808 11.0225   5
   2   9  -2 56.6000 10.4620   3
  -2   9   2 49.3708 9.85561   1
   2   9  -2 49.3356 8.70872   1
  -1  -9   2 0.51424 5.46760   8
   1  -9  -2 1.09201 5.83388   7
   1   9  -2 0.04672 9.36421   5
   1   9  -2 0.73594 6.37743   1
  -1   9   2 6.94371 9.26073   1
   1   9  -2 4.88403 10.9375   3
  -1   9   2 4.77226 8.12909   5
   0   9   2 2.40435 7.34412   1
   0   9  -2 9.82760 7.16575   3
   0   9  -2 0.38720 6.09001   1
   0   9   2 3.06828 8.60924   3
   0   9   2 -8.8742 9.42266   5
  -1   9  -2 29.7501 9.02233   5
   1   9   2 16.7174 8.10574   1
   1   9   2 15.7157 7.17598   5
  -1   9  -2 18.9467 7.68137   3
   1   9   2 10.1405 9.67667   3
  -1   9  -2 20.0247 7.48874   1
  -2  -9  -2 23.7542 6.97060   9
   2  -9   2 17.8235 7.19431   7
   2   9   2 30.8936 8.47500   1
   2   9   2 11.0717 7.71661   3
  -3  -9  -2 2.90790 6.37318   9
   3  -9   2 -2.9169 9.03838   7
   3   9   2 5.90003 10.9599   3
  -3   9  -2 -2.9475 8.67521   5
   3   9   2 7.19062 10.3653   1
   4  -9   2 2.47709 7.53882   7
   4   9   2 -7.1523 8.23137   3
   4   9   2 0.96766 8.40791   1
  -4   9  -2 3.49765 10.6667   5
  11   0  -3 18.3262 10.8332   6
 -11   0   3 10.1326 10.5520   1
  11   0  -3 17.5651 8.34573   3
 -10   0   3 -1.9750 3.90790   2
 -10   0   3 -3.1636 5.91922   1
  10   0  -3 -0.7296 6.09672   6
  10   0  -3 -0.5869 6.59409   3
  -9   0   3 5.25639 7.41299   1
  -9   0   3 3.75755 3.35396   4
  -9   0   3 11.6938 3.79943   2
   9   0  -3 8.54813 7.41821   6
   9   0  -3 7.88731 5.81418   3
  -9   0   3 3.21618 3.39219   8
   8   0  -3 1.68967 4.61980   3
   8   0  -3 4.73510 4.46733   6
  -8   0   3 0.42544 3.61567   8
  -8   0   3 0.23506 3.97709   1
  -8   0   3 0.57885 2.53150   4
  -7   0   3 519.813 15.3893   8
  -7   0   3 519.132 16.0681   1
   7   0  -3 510.857 35.3016   4
   7   0  -3 519.404 15.0164   3
  -7   0   3 472.663 31.0561   3
  -7   0   3 539.127 17.9845   4
   7   0  -3 526.761 16.4446   6
  -7   0   3 513.891 31.0417   5
  -6   0   3 2.06293 2.80633   8
  -6   0   3 -0.0779 1.96462   4
   6   0  -3 0.88288 4.10811   6
  -6   0   3 -1.4765 2.42019   3
   6   0  -3 0.34378 3.02381   3
   6   0  -3 0.00000 3.32768   4
  -6   0   3 2.31883 4.16019   1
  -6   0   3 1.97871 2.96469   5
   5   0  -3 887.662 38.3803   1
  -5   0   3 894.200 29.7618   8
   5   0  -3 848.545 24.5959   6
   5   0  -3 853.925 45.5665   3
  -5   0   3 889.530 28.6406   4
   5   0  -3 929.580 36.4565   4
  -5   0   3 906.115 30.0924   1
  -5   0   3 907.950 27.9457   5
  -5   0   3 904.925 32.5979   3
   4   0  -3 -0.6312 1.96494   3
  -4   0   3 0.01405 1.15387   9
  -4   0   3 -1.7282 2.05422   3
  -4   0   3 0.87519 1.38686   4
  -4   0   3 2.45844 1.97513   1
   4   0  -3 0.19176 3.01092   6
   4   0  -3 -2.2228 2.30735   1
  -4   0   3 -0.2479 1.95397   5
   4   0  -3 0.72090 2.17765   4
  -4   0   3 0.65307 1.41955   8
  -3   0   3 219.245 7.93885   8
   3   0  -3 200.984 9.83800   6
  -3   0   3 205.811 6.04757   3
  -3   0   3 212.340 8.49975   9
   3   0  -3 198.620 8.54350   1
   3   0  -3 206.571 6.70604   3
   3   0  -3 214.618 10.7432   4
  -3   0   3 221.082 9.51236   1
  -3   0   3 230.104 8.37169   4
  -3   0   3 213.224 7.82944   5
  -2   0   3 -1.1225 1.12478   1
   2   0  -3 -0.7085 1.85597   1
   2   0  -3 1.35793 0.90349   3
  -2   0   3 -1.9038 0.53485   9
   2   0  -3 -2.3226 1.35593   5
  -2   0   3 -1.1832 0.96277   4
   2   0  -3 -0.9794 0.86587   9
   2   0  -3 -1.5517 1.05158   4
  -2   0   3 -0.3262 1.39236   5
  -1   0   3 2.43574 0.93475   1
   1   0  -3 1.63302 0.98540   1
  -1   0   3 2.37825 1.45815   4
   1   0  -3 1.97028 0.50923   9
   1   0  -3 1.98958 1.51494   4
   1   0  -3 1.79733 0.68049   2
   1   0  -3 2.75740 0.91907   5
  -1   0   3 1.57545 0.94915   5
   0   0   3 -1.0368 0.69806   3
   0   0   3 -0.7210 0.67261   7
   0   0   3 -1.1932 0.72133   1
   0   0  -3 -1.6733 0.99950   3
   0   0  -3 -1.2081 1.11604   5
   0   0   3 -1.8994 0.78934   5
   0   0  -3 -1.8631 0.95796   2
   0   0   3 -0.9682 0.66139   2
   0   0  -3 -1.2896 0.39847   6
   0   0  -3 -1.2896 0.41224   7
  -1   0  -3 1474.81 56.5910   6
   1   0   3 1455.61 59.3782   3
   1   0   3 1487.05 53.6748   2
  -1   0  -3 1417.43 44.8694   3
   1   0   3 1499.35 46.5894   6
   1   0   3 1559.56 60.0481   7
  -1   0  -3 1505.57 55.5731   2
  -1   0  -3 1450.93 54.4989   5
  -1   0  -3 1493.68 58.2725   7
   1   0   3 1498.33 38.2193   5
  -2   0  -3 -0.1213 1.53664   1
   2   0   3 0.93535 1.62189   6
  -2   0  -3 -0.3307 1.26267   2
   2   0   3 -0.0294 0.95724   5
  -2   0  -3 0.32115 1.30880   5
   2   0   3 -0.2072 1.35798   3
  -2   0  -3 -0.1213 0.97178   6
  -2   0  -3 -1.0119 1.28856   3
   2   0   3 0.03002 1.06846   8
   2   0   3 -0.6833 1.07688   1
   3   0   3 2109.69 67.0309   8
  -3   0  -3 2133.90 66.6594   3
   3   0   3 2123.90 97.1904   1
   3   0   3 2116.76 85.4424   4
  -3   0  -3 2074.31 58.5648   1
  -3   0  -3 2104.49 64.5074   2
   3   0   3 2120.69 82.8818   3
  -3   0  -3 2052.46 109.482   5
  -3   0  -3 2094.44 70.0904   6
   3   0   3 2079.04 49.6387   6
   4   0   3 -0.0813 2.18559   1
  -4   0  -3 0.52464 2.71260   6
  -4   0  -3 -0.2710 2.04154   5
   4   0   3 -2.4975 1.72895   4
  -4   0  -3 0.75975 2.84129   1
   4   0   3 -0.8223 2.02783   3
  -4   0  -3 -0.4944 1.62346   8
  -4   0  -3 1.55160 2.81875   2
  -4   0  -3 0.69863 1.93443   3
   4   0   3 -1.2246 1.87726   6
   4   0   3 -1.2085 1.70991   8
  -5   0  -3 421.309 18.2613   6
   5   0   3 410.492 12.5598   6
  -5   0  -3 389.021 13.0089   1
  -5   0  -3 404.684 23.0144   8
  -5   0  -3 418.547 16.2372   2
   5   0   3 430.718 20.3860   4
   5   0   3 412.106 12.4955   3
  -5   0  -3 424.418 22.9404   5
   5   0   3 437.884 17.8154   1
   5   0   3 425.916 13.5734   8
  -5   0  -3 431.781 19.3119   3
   6   0   3 0.11335 2.62142   4
  -6   0  -3 0.35345 2.88244   1
  -6   0  -3 0.04013 3.81421   2
   6   0   3 1.36531 3.06346   3
  -6   0  -3 -0.6751 2.41101   8
   6   0   3 1.46177 2.62449   8
   6   0   3 -1.3970 4.24625   6
  -7   0  -3 -0.1587 3.57888   1
   7   0   3 0.50030 2.42025   4
   7   0   3 -0.3255 3.73414   6
   7   0   3 5.28330 3.85244   3
  -7   0  -3 -2.0876 3.35573   5
   7   0   3 3.90949 3.39389   8
  -7   0  -3 1.62497 4.61731   2
  -7   0  -3 -0.2678 2.75897   8
  -8   0  -3 2.76264 6.14775   1
  -8   0  -3 -3.4993 5.09820   2
  -8   0  -3 0.27028 3.85889   5
   8   0   3 -1.7649 4.39966   6
  -8   0  -3 2.77341 3.56641   8
   8   0   3 0.80759 4.34423   3
  -9   0  -3 78.2286 10.2258   1
   9   0   3 95.5526 8.68602   3
  -9   0  -3 84.3086 7.59156   2
   9   0   3 93.8985 9.17188   6
 -10   0  -3 0.30706 4.95026   2
 -10   0  -3 2.75907 6.68862   1
  10   0   3 -0.3315 5.49982   3
  10   0   3 5.49151 6.68110   6
  10   0   3 0.04081 6.50149   7
  11   0   3 17.6041 8.08325   6
  11  -1  -3 7.02652 8.04535   6
 -11  -1   3 0.88269 7.36869   1
 -11   1   3 10.3349 8.14074   1
 -11   1   3 5.20780 7.81041   2
  11   1  -3 12.7052 10.5651   6
  11   1  -3 14.6749 9.23634   3
 -10  -1   3 121.780 12.5125   1
  10  -1  -3 146.949 10.4907   3
 -10  -1   3 124.585 10.0356   2
  10  -1  -3 131.703 11.0669   6
 -10  -1   3 125.364 8.81385   4
 -10  -1   3 120.898 8.53902   8
  10   1  -3 117.140 23.4766   6
 -10   1   3 110.549 10.6072   1
  10   1  -3 125.966 9.72395   3
  -9  -1   3 5.17197 4.18697   2
  -9  -1   3 3.05968 7.62329   1
  -9  -1   3 1.56592 3.72150   8
   9  -1  -3 4.47165 7.62191   6
   9  -1  -3 6.32812 5.23154   3
  -9  -1   3 -1.3829 5.12365   4
   9   1  -3 -0.8143 4.26273   3
  -9   1   3 -0.5509 3.79681   8
  -9   1   3 2.23668 7.36358   1
   9   1  -3 -2.3884 5.04049   6
  -8  -1   3 3.52950 4.42725   4
  -8  -1   3 13.3166 4.79524   8
   8  -1  -3 13.0530 3.51666   3
  -8  -1   3 8.75002 4.09113   5
   8  -1  -3 11.9192 6.57080   6
  -8  -1   3 10.8954 4.81327   1
   8  -1  -3 16.0425 6.53784   4
  -8  -1   3 12.5830 3.84847   2
  -8   1   3 10.8391 2.67870   4
  -8   1   3 5.22721 2.45829   8
   8   1  -3 17.4385 6.13739   3
  -8   1   3 9.53614 6.33511   1
   8   1  -3 13.7048 5.02485   6
  -7  -1   3 85.0859 5.10699   2
   7  -1  -3 80.4220 5.66403   3
   7  -1  -3 89.9812 6.84347   6
  -7  -1   3 85.8271 6.05957   8
  -7  -1   3 77.2382 6.59554   1
   7  -1  -3 80.4614 5.86180   4
  -7  -1   3 84.7462 5.15671   5
  -7  -1   3 84.3597 5.49194   4
   7   1  -3 92.8399 7.02185   6
  -7   1   3 66.9601 5.73257   3
  -7   1   3 94.5651 8.12427   1
   7   1  -3 116.148 25.6653   3
  -7   1   3 72.1127 4.82926   4
  -7   1   3 71.8272 4.95523   8
  -6  -1   3 155.380 6.39951   5
  -6  -1   3 148.038 7.71822   1
  -6  -1   3 145.082 8.10982   8
   6  -1  -3 142.967 7.61664   6
  -6  -1   3 144.637 5.69852   2
  -6  -1   3 161.630 8.50633   3
   6  -1  -3 153.137 6.76769   4
   6  -1  -3 153.768 6.66514   3
  -6  -1   3 157.191 7.56111   4
  -6   1   3 147.239 6.47558   8
  -6   1   3 136.897 8.06060   3
   6   1  -3 158.565 8.56523   6
  -6   1   3 172.860 9.29748   9
   6   1  -3 145.617 8.63685   4
  -6   1   3 151.811 6.06337   4
  -6   1   3 160.804 9.37136   5
  -6   1   3 161.548 8.07163   1
   6   1  -3 158.008 8.11589   3
  -5  -1   3 34.1815 3.91198   8
  -5  -1   3 32.0609 2.62574   5
   5  -1  -3 37.3745 4.00214   6
   5  -1  -3 34.6082 5.57015   1
   5  -1  -3 44.1386 3.81289   4
   5  -1  -3 46.2649 2.96164   3
  -5  -1   3 35.1199 3.87032   3
  -5  -1   3 41.6686 4.07398   1
  -5  -1   3 38.3805 4.00763   4
  -5   1   3 39.7982 4.97845   6
   5   1  -3 34.5149 4.06749   4
   5   1  -3 35.5434 4.42377   3
  -5   1   3 46.7672 5.11025   1
   5   1  -3 44.1386 4.55108   1
  -5   1   3 37.0695 3.18195   8
   5   1  -3 42.6623 4.94332   6
  -5   1   3 32.1850 3.23923   3
  -5   1   3 37.7082 4.26195   5
   5   1  -3 38.3367 4.30202   8
  -5   1   3 39.3060 3.25801   4
  -5   1   3 44.9091 3.31758   9
  -4  -1   3 244.512 9.08906   1
   4  -1  -3 252.666 7.76217   4
  -4  -1   3 241.938 6.77062   5
  -4  -1   3 253.529 8.99225   4
   4  -1  -3 235.384 11.8819   1
   4  -1  -3 248.635 8.80524   3
  -4  -1   3 253.386 14.6121   3
   4  -1  -3 257.412 8.41848   6
  -4  -1   3 267.724 9.95532   8
  -4   1   3 264.805 9.36149   9
  -4   1   3 255.058 8.84599   8
   4   1  -3 252.691 8.06157   3
   4   1  -3 247.940 10.8297   5
  -4   1   3 270.157 9.31118   5
   4   1  -3 246.619 50.1568   6
  -4   1   3 258.706 9.06826   3
  -4   1   3 250.221 11.7204   6
  -4   1   3 278.481 10.9404   4
   4   1  -3 259.084 10.4446   4
   4   1  -3 266.989 10.2161   8
   4   1  -3 257.754 13.4873   1
  -4   1   3 289.210 54.0321   1
   3  -1  -3 0.13881 2.25356   1
  -3  -1   3 -0.2883 2.16480   1
   3  -1  -3 2.64673 0.96012   3
  -3  -1   3 1.01832 1.55556   4
   3  -1  -3 3.53354 2.22026   6
  -3  -1   3 1.93426 2.10425   8
  -3  -1   3 3.03641 2.18538   3
  -3  -1   3 0.49752 1.93151   5
   3  -1  -3 5.42378 2.92225   4
   3   1  -3 3.02112 1.60387   4
  -3   1   3 1.72820 1.59091   4
  -3   1   3 2.83447 1.67437   9
   3   1  -3 3.65018 1.61796   8
   3   1  -3 1.14812 1.13628   5
   3   1  -3 1.60574 2.35843   3
  -3   1   3 1.48949 1.23032   3
  -3   1   3 1.75762 2.19773   5
  -3   1   3 -0.3389 2.56129   1
   3   1  -3 2.63535 2.39741   1
  -3   1   3 2.35533 2.25358   6
  -2  -1   3 4448.35 150.603   5
   2  -1  -3 4795.55 151.419   9
   2  -1  -3 4677.07 182.332   1
   2  -1  -3 4525.88 185.575   3
   2  -1  -3 4645.60 150.493   6
  -2  -1   3 4778.49 189.505   4
  -2  -1   3 4780.64 174.376   1
  -2  -1   3 4797.07 178.884   8
  -2   1   3 4728.58 177.360   1
   2   1  -3 4725.81 193.959   8
  -2   1   3 4770.72 180.751   4
   2   1  -3 4742.04 175.320   4
  -2   1   3 4794.81 149.307   6
   2   1  -3 4562.22 142.235   3
   2   1  -3 4750.64 147.061   1
  -2   1   3 4613.41 157.912   5
   2   1  -3 4659.13 158.476   5
  -2   1   3 4590.36 161.324   9
  -2   1   3 4796.22 188.771   2
  -1  -1   3 8543.22 286.288   5
   1  -1  -3 8663.17 283.356   1
   1  -1  -3 8620.22 280.957   9
  -1  -1   3 8590.10 223.221   4
  -1  -1   3 8633.53 276.712   1
   1  -1  -3 8718.36 532.453   2
  -1  -1   3 8479.32 256.016   8
   1  -1  -3 8758.06 319.984   6
   1   1  -3 8813.39 312.632   4
   1   1  -3 8840.42 248.025   1
  -1   1   3 8781.83 403.372   1
  -1   1   3 8511.55 267.058   9
  -1   1   3 8574.42 291.133   2
  -1   1   3 8822.41 342.521   5
   1   1  -3 8855.11 344.866   5
  -1   1   3 8833.62 212.241   6
   0  -1  -3 1385.70 42.0115   9
   0  -1  -3 1373.02 50.3315   5
   0  -1   3 1385.10 40.7604   4
   0  -1   3 1349.41 34.0406   5
   0  -1  -3 1377.85 60.2486   2
   0  -1   3 1386.93 56.1954   7
   0  -1  -3 1340.18 43.6269   3
   0   1  -3 1311.54 42.8412   1
   0   1   3 1374.64 35.3442   1
   0   1   3 1379.07 41.7126   3
   0   1  -3 1362.75 36.8814   7
   0   1  -3 1390.55 51.1103   5
   0   1   3 1351.35 51.2804   5
   0   1  -3 1381.48 42.1486   6
   0   1  -3 1276.34 45.7283   1
   0   1   3 1395.51 53.1052   2
   0   1  -3 1387.35 48.9812   4
   0   1   3 1391.56 49.0751   9
   0   1   3 1359.64 30.0628   6
   1  -1   3 1460.49 49.3848   4
   1  -1   3 1380.59 46.7346   1
   1  -1   3 1543.02 59.8351   6
  -1  -1  -3 1542.23 44.8879   2
   1  -1   3 1541.39 54.2417   3
  -1  -1  -3 1543.73 60.9821   3
   1  -1   3 1543.78 123.073   5
  -1  -1  -3 1431.04 55.6668   5
   1  -1   3 1535.38 43.4200   7
   1   1   3 1556.91 50.9514   6
  -1   1  -3 1525.59 51.5295   3
   1   1   3 1533.06 50.3070   8
   1   1   3 1598.84 52.3473   2
   1   1   3 1523.99 70.6114   5
   1   1   3 1558.91 45.4618   3
  -1   1  -3 1523.75 54.3465   5
  -1   1  -3 1534.16 57.2110   6
  -1   1  -3 1518.65 89.7025   7
  -1   1  -3 1491.12 55.2927   1
  -2  -1  -3 140.103 4.90489   2
  -2  -1  -3 135.203 8.42361   3
   2  -1   3 117.286 8.36178   5
  -2  -1  -3 136.165 4.41285   5
  -2  -1  -3 128.853 5.19095   6
   2  -1   3 124.250 7.40240   1
   2  -1   3 141.501 6.30136   7
   2  -1   3 136.217 5.32628   6
  -2  -1  -3 140.813 5.48685   8
   2  -1   3 148.243 5.09489   3
  -2   1  -3 140.078 6.70074   7
  -2   1  -3 129.181 5.87456   3
   2   1   3 140.018 5.17913   3
  -2   1  -3 124.543 4.77773   1
  -2   1  -3 131.610 5.83507   5
   2   1   3 137.722 5.11945   5
   2   1   3 142.462 4.67619   6
   2   1   3 133.319 4.68052   2
  -2   1  -3 141.053 6.04568   6
   2   1   3 142.304 7.89235   8
  -3  -1  -3 219.777 6.64010   2
  -3  -1  -3 212.852 6.23424   5
  -3  -1  -3 208.100 12.6330   3
  -3  -1  -3 227.383 13.9643   6
  -3  -1  -3 216.397 9.29048   8
   3  -1   3 216.213 7.60940   7
   3  -1   3 223.356 7.23801   4
   3  -1   3 215.866 6.81938   1
   3  -1   3 225.861 8.40331   8
   3  -1   3 246.191 7.34526   3
   3  -1   3 240.700 8.30001   6
  -3   1  -3 208.245 9.44314   3
   3   1   3 227.946 6.63452   6
   3   1   3 237.518 7.88826   4
  -3   1  -3 214.660 8.23170   6
   3   1   3 226.975 7.49638   2
   3   1   3 233.422 8.74476   8
   3   1   3 225.868 7.72990   1
  -3   1  -3 223.676 9.82606   1
  -3   1  -3 222.857 7.62657   5
   3   1   3 220.914 9.84634   3
   4  -1   3 283.203 9.62327   7
  -4  -1  -3 293.850 10.4336   3
   4  -1   3 293.247 8.91360   3
   4  -1   3 293.456 10.7856   1
   4  -1   3 271.696 9.60778   6
   4  -1   3 291.099 10.7768   4
  -4  -1  -3 290.019 8.39223   8
  -4  -1  -3 290.694 8.52484   6
   4  -1   3 294.546 17.3171   8
  -4  -1  -3 292.918 10.5622   2
  -4  -1  -3 286.599 9.11566   5
  -4   1  -3 289.890 10.6608   1
  -4   1  -3 273.788 17.0190   3
  -4   1  -3 279.166 15.2931   5
   4   1   3 293.787 10.3242   1
   4   1   3 313.082 8.23461   4
  -4   1  -3 277.515 10.9420   6
   4   1   3 303.538 11.8865   8
   4   1   3 275.800 9.63340   3
   4   1   3 287.834 8.56668   6
   5  -1   3 131.528 7.24328   7
  -5  -1  -3 126.107 5.53100   8
   5  -1   3 133.423 5.23254   4
  -5  -1  -3 119.599 5.50200   5
   5  -1   3 125.118 7.29911   6
  -5  -1  -3 122.030 5.90220   2
  -5  -1  -3 118.112 6.02141   6
   5  -1   3 129.721 5.12469   8
   5  -1   3 125.331 6.89224   3
   5  -1   3 109.699 6.41413   1
   5   1   3 127.577 5.99981   4
   5   1   3 134.123 6.04985   8
  -5   1  -3 124.243 7.67088   5
  -5   1  -3 123.281 6.85484   3
   5   1   3 125.752 7.49153   3
  -5   1  -3 123.288 6.58392   1
   5   1   3 116.167 6.59876   6
   6  -1   3 336.514 13.2036   6
  -6  -1  -3 328.399 15.9610   2
  -6  -1  -3 346.509 13.2187   8
   6  -1   3 323.183 12.0567   3
   6  -1   3 327.953 16.2897   7
   6  -1   3 358.454 11.6560   4
  -6  -1  -3 323.723 16.7160   5
   6  -1   3 355.765 10.6456   8
  -6  -1  -3 290.222 14.1672   5
   6   1   3 359.625 18.0674   8
  -6   1  -3 338.848 12.4367   5
   6   1   3 299.077 12.4863   6
   6   1   3 349.584 12.7586   3
   6   1   3 355.450 17.0268   4
  -6   1  -3 334.493 11.5988   1
  -7  -1  -3 1.26627 2.03027   5
  -7  -1  -3 3.52424 1.99753   5
   7  -1   3 4.02509 6.08628   6
   7  -1   3 4.47561 7.27327   3
  -7  -1  -3 -0.6697 2.46058   8
  -7  -1  -3 1.84122 4.48923   2
   7  -1   3 2.39218 4.18401   7
   7  -1   3 4.06851 2.60377   8
   7  -1   3 2.63880 2.51325   4
   7   1   3 -0.5373 3.51320   6
  -7   1  -3 5.15842 4.62067   5
   7   1   3 2.81845 3.89221   3
  -7   1  -3 0.96725 5.07149   1
   8  -1   3 419.482 17.6330   3
  -8  -1  -3 424.464 26.7643   8
   8  -1   3 429.062 18.8062   6
   8  -1   3 414.346 16.7733   7
  -8  -1  -3 430.589 15.7055   2
  -8   1  -3 432.950 18.9524   2
   8   1   3 397.778 15.6260   3
   8   1   3 416.832 18.6092   6
  -8   1  -3 389.469 16.1118   1
  -8   1  -3 454.782 18.4135   5
  -9  -1  -3 5.31723 4.99598   8
  -9  -1  -3 3.73307 4.91327   2
   9  -1   3 3.79396 8.25678   6
   9  -1   3 7.61929 9.05077   3
   9  -1   3 1.71589 6.07337   7
   9   1   3 0.17535 7.80013   3
   9   1   3 2.23250 7.79467   6
  -9   1  -3 4.43004 6.94809   2
  -9   1  -3 3.36896 4.45838   5
  -9   1  -3 -1.9473 5.16253   1
  10  -1   3 13.1068 10.1344   6
  10  -1   3 19.9889 10.2597   7
  10  -1   3 17.2825 6.77362   3
 -10  -1  -3 18.8036 5.72791   2
  10   1   3 14.7833 6.69050   3
 -10   1  -3 17.7674 6.63460   2
 -10   1  -3 15.4557 6.92292   1
  10   1   3 6.94796 6.68141   6
  11  -2  -3 0.98167 10.7408   6
  11  -2  -3 6.27472 8.38458   7
  11   2  -3 0.25455 7.73982   6
  11   2  -3 3.79403 9.75618   3
 -11   2   3 1.43010 7.23803   1
  10  -2  -3 -6.2834 9.13871   6
  10  -2  -3 -2.2203 6.57027   7
 -10  -2   3 -0.7277 4.85800   8
 -10  -2   3 4.49814 6.52015   1
 -10  -2   3 -3.0462 4.96324   4
 -10   2   3 2.63265 6.49084   1
  10   2  -3 -0.6043 9.19743   6
  10   2  -3 -1.3258 8.47699   3
  -9  -2   3 564.651 29.9440   4
   9  -2  -3 545.450 34.6570   3
  -9  -2   3 536.405 20.2543   1
   9  -2  -3 530.746 26.0601   6
  -9  -2   3 524.956 26.1482   2
  -9  -2   3 555.045 31.4688   8
   9   2  -3 549.097 23.0059   6
   9   2  -3 556.135 28.2469   3
  -9   2   3 591.321 27.0850   1
  -8  -2   3 3.16180 3.25637   2
  -8  -2   3 4.61188 3.80387   4
  -8  -2   3 1.10994 3.63889   8
   8  -2  -3 4.88657 2.86864   3
  -8  -2   3 4.88257 4.65182   1
   8  -2  -3 3.60268 4.73282   6
   8   2  -3 5.85431 4.53262   3
  -8   2   3 0.79046 4.64111   1
  -8   2   3 2.33407 2.65014   4
   8   2  -3 4.82927 4.79342   6
  -8   2   3 3.94571 2.69170   8
   7  -2  -3 28.6678 6.14872   6
   7  -2  -3 28.1650 3.88039   3
   7  -2  -3 28.1905 4.11139   4
  -7  -2   3 27.7434 3.47754   5
  -7  -2   3 34.0440 3.49342   2
  -7  -2   3 27.0044 4.16688   4
  -7  -2   3 25.9475 4.20532   8
  -7  -2   3 25.0730 4.83884   1
   7   2  -3 36.9462 6.41094   3
  -7   2   3 20.7264 3.03452   8
   7   2  -3 27.2518 6.57372   6
  -7   2   3 21.3762 5.00754   1
  -7   2   3 14.9850 3.79354   3
  -7   2   3 22.5593 3.08827   4
   6  -2  -3 0.57213 2.31477   3
  -6  -2   3 -0.6262 3.47884   8
  -6  -2   3 3.35482 1.90521   2
  -6  -2   3 3.88297 2.62882   4
  -6  -2   3 1.71610 3.08405   1
   6  -2  -3 -0.1745 2.87627   4
  -6  -2   3 2.06639 2.18680   5
   6  -2  -3 2.36034 3.22978   6
   6   2  -3 2.16587 4.67867   3
  -6   2   3 0.66125 2.11691   4
  -6   2   3 0.62000 2.47067   3
   6   2  -3 -2.3039 4.57518   6
  -6   2   3 4.28434 4.77679   1
  -6   2   3 0.04041 1.35166   8
  -5  -2   3 300.395 10.2338   1
  -5  -2   3 290.110 13.6360   5
   5  -2  -3 304.362 14.2209   3
  -5  -2   3 308.485 9.61388   2
   5  -2  -3 312.385 10.4094   6
  -5  -2   3 313.785 12.6392   3
  -5  -2   3 303.715 10.5690   4
  -5  -2   3 294.277 10.1673   8
  -5   2   3 311.651 12.0578   3
  -5   2   3 328.798 11.6788   8
   5   2  -3 321.160 10.8246   3
  -5   2   3 310.018 17.9134   9
   5   2  -3 317.236 16.9035   8
  -5   2   3 328.738 12.4447   1
   5   2  -3 319.607 11.0853   5
   5   2  -3 295.829 16.3399   4
  -5   2   3 326.740 14.1644   4
  -4  -2   3 285.549 10.2134   4
  -4  -2   3 273.519 10.5367   8
  -4  -2   3 271.768 9.79518   5
   4  -2  -3 263.507 10.5450   3
  -4  -2   3 282.604 8.86651   1
   4  -2  -3 282.820 8.92559   6
   4  -2  -3 260.719 11.8566   1
  -4  -2   3 269.969 10.2104   3
  -4  -2   3 257.268 8.39379   2
  -4   2   3 299.883 11.5129   1
   4   2  -3 281.912 12.3133   4
  -4   2   3 287.276 10.7056   3
  -4   2   3 277.800 8.69184   4
  -4   2   3 278.668 12.3972   6
   4   2  -3 278.592 9.40635   3
   4   2  -3 279.940 8.51290   5
   4   2  -3 257.805 11.7789   1
   4   2  -3 270.361 10.8380   8
  -4   2   3 286.421 8.96999   9
   3  -2  -3 1833.93 78.5855   1
  -3  -2   3 1881.19 61.5381   8
   3  -2  -3 1859.99 48.5652   6
  -3  -2   3 1709.54 45.1309   9
  -3  -2   3 1671.36 57.6718   2
  -3  -2   3 1864.92 53.6719   4
  -3  -2   3 1845.92 45.2498   1
  -3  -2   3 1753.78 50.3673   5
  -3   2   3 1826.45 58.5953   4
   3   2  -3 1906.54 68.9950   1
  -3   2   3 1862.79 68.1916   1
   3   2  -3 1856.80 57.9578   5
  -3   2   3 1864.89 61.5714   6
  -3   2   3 1864.50 50.2847   9
  -3   2   3 1901.34 62.1210   3
   3   2  -3 1893.10 44.0744   4
   3   2  -3 1821.43 57.5458   3
   3   2  -3 1923.84 62.9071   8
   2  -2  -3 48.6013 2.98655   7
   2  -2  -3 43.5504 2.95528   6
  -2  -2   3 45.8868 5.31911   5
  -2  -2   3 46.8540 1.41976   9
   2  -2  -3 44.5714 3.41184   9
   2  -2  -3 41.1512 3.44134   1
  -2  -2   3 45.7793 2.99700   4
  -2  -2   3 45.4692 2.99928   8
   2   2  -3 39.8508 3.02797   5
   2   2  -3 46.3709 3.97503   3
  -2   2   3 41.9278 2.74212   6
  -2   2   3 43.5936 1.52368   3
  -2   2   3 43.7490 2.87538   9
   2   2  -3 49.1071 3.52818   8
  -2   2   3 45.1759 1.57351   3
  -2   2   3 49.6774 4.41005   1
   2   2  -3 42.5982 3.44569   4
   2   2  -3 47.1717 1.96129   2
  -2   2   3 46.6051 2.98506   2
   2   2  -3 40.1144 3.01862   1
  -1  -2   3 2811.47 78.7110   5
  -1  -2   3 2871.98 80.9599   8
   1  -2  -3 2797.08 117.261   3
   1  -2  -3 2784.09 154.363   1
   1  -2  -3 2881.01 100.657   2
   1  -2  -3 2848.42 76.9646   6
   1  -2  -3 2789.73 60.3467   7
   1  -2  -3 2869.85 100.252   9
  -1  -2   3 2786.48 105.187   4
  -1   2   3 2939.33 147.141   2
  -1   2   3 2867.97 86.7324   1
   1   2  -3 2873.67 64.8015   4
  -1   2   3 2940.91 88.0640   9
  -1   2   3 2934.02 71.9494   6
   1   2  -3 2912.36 75.3697   9
  -1   2   3 2868.47 80.9837   3
   1   2  -3 2879.15 90.8372   5
   1   2  -3 2942.51 105.279   8
   1   2  -3 2916.53 112.048   7
   0  -2   3 48.0436 3.17961   7
   0  -2  -3 52.5247 3.13666   2
   0  -2  -3 54.4093 2.65297   3
   0  -2  -3 57.4826 2.79819   9
   0  -2   3 54.5857 2.66453   8
   0  -2   3 49.1415 4.23827   5
   0  -2  -3 52.2702 2.00886   7
   0  -2   3 58.1507 2.53229   4
   0   2   3 62.2282 3.16227   3
   0   2  -3 49.3786 3.58387   7
   0   2  -3 57.5938 2.82871   8
   0   2   3 46.6727 2.78398   8
   0   2   3 54.5673 2.99142   9
   0   2  -3 54.4286 2.26479   1
   0   2   3 49.1950 4.03032   1
   0   2  -3 55.3761 3.55106   5
   0   2   3 53.1883 2.89781   2
   0   2   3 54.9893 2.92047   6
   0   2  -3 55.1931 3.57226   4
   0   2   3 57.6403 2.77224   7
   0   2  -3 55.2995 3.56071   6
   1  -2   3 1578.94 66.0994   1
   1  -2   3 1625.00 66.1357   5
  -1  -2  -3 1642.68 62.2665   3
   1  -2   3 1672.55 65.5169   7
   1  -2   3 1642.71 44.8831   6
   1  -2   3 1631.27 54.1030   8
  -1  -2  -3 1621.96 62.5072   9
   1  -2   3 1638.05 58.4798   4
  -1  -2  -3 1643.68 53.1337   2
  -1   2  -3 1623.34 68.3242   5
  -1   2  -3 1717.83 55.0214   1
   1   2   3 1681.86 77.0630   8
   1   2   3 1663.80 37.4626   9
  -1   2  -3 1694.14 82.7945   7
  -1   2  -3 1683.77 107.195   6
   1   2   3 1643.47 50.3041   5
  -1   2  -3 1671.36 46.0365   4
   1   2   3 1638.72 48.4854   3
   1   2   3 1705.15 64.1400   2
  -1   2  -3 1738.57 55.0318   3
   2  -2   3 11.6266 2.84463   6
  -2  -2  -3 7.90985 2.76024   3
  -2  -2  -3 8.98157 1.72399   2
  -2  -2  -3 6.60665 1.55927   9
   2  -2   3 9.31224 0.69993   4
   2  -2   3 9.96416 1.83807   1
   2  -2   3 10.0032 1.95821   3
   2  -2   3 9.68711 0.67579   8
   2  -2   3 12.4939 3.09816   7
  -2  -2  -3 6.00022 2.33552   8
  -2   2  -3 9.18462 2.51529   5
  -2   2  -3 6.28848 1.85455   3
   2   2   3 4.66993 12.3288   3
  -2   2  -3 11.1396 1.92100   1
   2   2   3 8.93221 0.86208   5
   2   2   3 7.65821 1.94670   8
  -2   2  -3 6.88617 2.09096   6
  -2   2  -3 11.2498 3.05396   7
   2   2   3 8.03286 1.85861   2
   3  -2   3 19.9828 3.24449   7
  -3  -2  -3 22.9943 3.21044   3
   3  -2   3 24.8287 2.74231   1
  -3  -2  -3 22.2814 3.19034   8
   3  -2   3 25.8474 2.87577   3
   3  -2   3 24.1368 3.23315   6
  -3  -2  -3 20.4300 2.40535   2
   3   2   3 26.7461 3.40032   1
  -3   2  -3 23.6813 2.85809   3
   3   2   3 19.3078 2.55365   2
   3   2   3 24.2206 29.5849   3
  -3   2  -3 24.2091 2.94059   1
   3   2   3 19.8875 2.22124   6
  -3   2  -3 19.9680 2.97199   6
   3   2   3 26.2882 2.82076   4
   3   2   3 26.7550 2.87880   8
  -3   2  -3 19.8010 4.14421   5
  -4  -2  -3 5.22055 3.86808   3
   4  -2   3 1.61628 2.12397   3
   4  -2   3 -0.4642 3.76815   7
  -4  -2  -3 -0.5356 1.86629   2
   4  -2   3 0.95802 2.36374   1
   4  -2   3 -2.3134 3.57012   6
  -4  -2  -3 0.47581 2.05405   8
   4   2   3 2.24221 2.15249   2
   4   2   3 1.33057 2.58565   6
   4   2   3 1.52229 2.94663   8
  -4   2  -3 1.42637 3.38193   6
   4   2   3 1.85822 2.69010   3
  -4   2  -3 0.69836 1.98515   1
  -4   2  -3 1.07830 2.66105   5
   4   2   3 -1.5041 3.74504   1
  -4   2  -3 1.78541 2.05909   3
   4   2   3 0.92299 2.84689   4
   5  -2   3 177.470 13.6169   1
   5  -2   3 174.378 8.81229   7
  -5  -2  -3 183.632 7.83444   8
   5  -2   3 192.788 7.64707   3
   5  -2   3 196.414 8.75810   6
  -5  -2  -3 183.536 7.40584   2
  -5   2  -3 195.784 9.81858   5
  -5   2  -3 190.258 8.25732   1
   5   2   3 201.710 9.64584   8
   5   2   3 215.602 9.84529   3
  -5   2  -3 162.473 12.2575   3
   5   2   3 195.654 11.2461   4
   5   2   3 183.306 7.55293   6
  -6  -2  -3 193.799 8.19058   2
   6  -2   3 206.814 9.81315   6
   6  -2   3 200.901 6.19485   4
   6  -2   3 187.815 8.93397   3
  -6  -2  -3 197.607 8.20400   8
   6  -2   3 194.851 11.6677   7
   6   2   3 198.194 8.81829   6
  -6   2  -3 230.015 15.0122   1
  -6   2  -3 197.354 9.67519   5
   6   2   3 193.866 9.64526   3
   7  -2   3 9.63342 4.64412   6
   7  -2   3 2.87570 4.71256   7
   7  -2   3 6.52041 1.55024   4
  -7  -2  -3 6.00330 4.57782   8
   7  -2   3 3.27169 3.53517   3
  -7  -2  -3 6.62658 3.17387   2
   7   2   3 11.1954 5.31032   6
  -7   2  -3 2.84223 3.72408   1
  -7   2  -3 9.44240 6.71708   5
   7   2   3 7.72075 4.66587   3
   8  -2   3 23.1139 6.08667   6
   8  -2   3 20.4886 6.49427   7
   8  -2   3 32.6816 5.31844   3
  -8  -2  -3 27.4722 6.03266   8
   8   2   3 29.1851 6.50634   3
   8   2   3 17.6619 6.76310   6
  -8   2  -3 26.0355 5.79922   1
  -8   2  -3 41.1861 7.86805   5
   9  -2   3 165.570 14.4474   7
  -9  -2  -3 153.735 10.2114   8
   9  -2   3 175.579 12.0087   6
  -9  -2  -3 191.279 11.5676   2
   9  -2   3 179.041 10.3001   3
  -9   2  -3 151.833 10.9752   2
  -9   2  -3 178.145 12.9093   1
  -9   2  -3 197.782 11.7652   5
   9   2   3 173.949 11.4006   6
   9   2   3 178.985 11.8424   3
  10  -2   3 4.61912 6.94725   6
  10  -2   3 4.12195 7.56909   7
 -10  -2  -3 16.9518 7.26540   2
  10  -2   3 3.79585 6.04190   3
 -10   2  -3 10.9596 7.14823   1
  10   2   3 14.5930 10.3341   3
  10   2   3 1.30324 9.10285   6
 -10   2  -3 14.1717 6.79693   2
 -10  -3   3 0.34576 5.61037   8
  10  -3  -3 0.75692 7.12501   7
  10  -3  -3 8.93213 10.1509   6
  10   3  -3 -3.3456 6.92952   3
  10   3  -3 8.87147 9.65667   6
 -10   3   3 5.13811 6.78678   1
  -9  -3   3 22.8571 5.75430   8
  -9  -3   3 18.3836 5.68959   4
   9  -3  -3 15.7539 6.88402   7
   9  -3  -3 27.8248 7.07384   6
  -9   3   3 23.3758 6.99496   1
   9   3  -3 20.7709 6.94448   3
   9   3  -3 20.7074 6.94562   6
  -8  -3   3 39.3901 7.03815   8
   8  -3  -3 61.0902 4.88877   3
   8  -3  -3 48.6161 7.38776   7
  -8  -3   3 46.2292 7.26553   4
   8  -3  -3 66.3684 8.97247   6
  -8  -3   3 70.2701 4.50162   2
   8   3  -3 63.5269 7.55329   3
   8   3  -3 48.9766 8.65206   6
  -8   3   3 55.7025 7.43242   1
  -7  -3   3 144.819 6.23530   5
  -7  -3   3 143.960 8.18044   4
  -7  -3   3 140.617 8.22429   8
   7  -3  -3 144.787 8.60155   3
  -7  -3   3 130.899 5.60048   2
   7  -3  -3 140.479 10.7961   7
   7  -3  -3 153.709 10.0077   6
  -7   3   3 136.062 5.60803   4
  -7   3   3 138.758 10.3457   1
  -7   3   3 142.029 7.30953   8
   7   3  -3 137.785 9.09904   6
   7   3  -3 141.692 10.4492   3
  -6  -3   3 241.010 10.2979   4
   6  -3  -3 245.051 12.0091   6
   6  -3  -3 241.784 12.0300   7
  -6  -3   3 242.187 10.2771   8
   6  -3  -3 252.803 9.48095   3
  -6  -3   3 247.809 8.08607   9
  -6  -3   3 255.454 7.92258   5
  -6  -3   3 245.132 6.79282   2
  -6   3   3 243.359 12.9067   3
  -6   3   3 277.738 13.7517   1
   6   3  -3 258.951 13.7067   3
  -6   3   3 268.417 7.74345   8
  -6   3   3 280.400 9.93104   4
  -5  -3   3 694.996 19.7247   4
  -5  -3   3 697.424 21.7762   2
  -5  -3   3 694.868 25.3768   8
  -5  -3   3 711.390 19.3762   5
   5  -3  -3 721.572 17.9730   6
   5  -3  -3 711.421 24.4891   7
  -5  -3   3 703.337 20.0594   9
  -5   3   3 749.248 26.0979   1
   5   3  -3 713.605 22.8577   5
   5   3  -3 721.787 36.7246   3
  -5   3   3 746.326 33.6464   3
  -5   3   3 763.528 26.9967   4
   4  -3  -3 1.53354 3.59982   7
  -4  -3   3 -2.7072 7.87379   3
  -4  -3   3 2.62471 3.25128   8
  -4  -3   3 0.01802 0.85567   2
  -4  -3   3 -1.1156 2.16440   4
  -4  -3   3 -0.2932 0.98805   9
  -4  -3   3 -0.6356 2.00967   5
   4  -3  -3 -3.5297 4.64508   1
   4  -3  -3 0.86029 3.43964   6
   4   3  -3 -1.9866 2.88540   3
   4   3  -3 -1.6267 1.80404   5
  -4   3   3 -2.2714 2.92927   1
  -4   3   3 -2.1101 2.00520   4
   4   3  -3 0.17401 2.61900   1
  -4   3   3 -4.3111 2.94109   9
  -4   3   3 -2.7292 2.42443   6
  -4   3   3 0.03292 1.23845   3
  -3  -3   3 53.1201 4.38747   8
   3  -3  -3 58.9557 4.02680   6
   3  -3  -3 50.5504 3.96085   9
  -3  -3   3 55.8802 5.94230   5
  -3  -3   3 56.0200 2.58524   2
   3  -3  -3 38.6131 5.13073   1
  -3  -3   3 56.8148 2.62424   9
   3  -3  -3 54.0715 4.09786   7
  -3  -3   3 48.9688 4.39247   4
   3   3  -3 49.5092 4.39952   1
   3   3  -3 54.7090 2.61591   2
  -3   3   3 53.4863 3.92858   6
  -3   3   3 62.6607 5.23144   1
  -3   3   3 59.9537 2.44709   3
   3   3  -3 47.0622 4.52109   4
  -3   3   3 64.7370 4.14760   9
   3   3  -3 49.4856 3.63102   5
   3   3  -3 50.8546 4.02329   8
   3   3  -3 58.6970 5.62593   3
   2  -3  -3 22.5836 2.89673   6
   2  -3  -3 21.0859 3.35990   9
  -2  -3   3 19.3552 2.58465   4
   2  -3  -3 19.0665 2.80661   7
   2  -3  -3 12.7597 3.73458   1
  -2  -3   3 19.5981 3.10371   5
  -2  -3   3 19.6068 2.60381   8
   2   3  -3 15.2093 3.19216   8
   2   3  -3 21.0334 3.01776   1
   2   3  -3 17.8298 1.42852   9
   2   3  -3 50.7622 18.3393   3
   2   3  -3 18.1755 2.68054   4
  -2   3   3 15.7650 3.22202   1
   2   3  -3 19.0535 1.56558   2
  -2   3   3 14.7750 2.24338   6
   2   3  -3 18.1481 3.40371   7
   2   3  -3 18.1882 2.98068   5
  -2   3   3 21.5897 3.04055   9
  -2   3   3 24.6534 3.25669   2
   1  -3  -3 0.46294 1.68965   6
  -1  -3   3 0.62998 1.51010   4
   1  -3  -3 -1.6567 2.07914   9
   1  -3  -3 0.33092 1.30340   7
  -1  -3   3 -1.0137 1.86894   5
  -1  -3   3 -0.9977 1.38855   8
   1  -3  -3 -4.7408 3.37642   1
   1   3  -3 1.48292 1.63450   4
   1   3  -3 0.74641 1.84169   7
  -1   3   3 1.17706 1.49871   3
   1   3  -3 -0.7082 1.20788   9
  -1   3   3 -0.4042 3.00619   1
   1   3  -3 -2.6878 2.23848   8
  -1   3   3 -0.6346 1.19065   6
  -1   3   3 -0.5067 1.26370   7
  -1   3   3 -1.0100 1.32235   8
   1   3  -3 1.34642 2.70735   5
  -1   3   3 1.66594 2.30005   2
   1   3  -3 0.36610 1.28846   2
  -1   3   3 1.31577 1.62464   9
   0  -3  -3 103.089 4.64047   3
   0  -3   3 96.6356 3.88252   4
   0  -3   3 98.6941 5.48347   5
   0  -3  -3 107.978 4.78905   2
   0  -3   3 103.788 5.06995   7
   0  -3  -3 95.4050 4.43164   9
   0  -3   3 99.2341 4.09817   8
   0  -3  -3 103.732 3.87885   7
   0   3  -3 92.2858 4.90149   7
   0   3   3 100.629 5.35927   9
   0   3   3 99.1482 4.49931   8
   0   3  -3 100.239 4.15062   1
   0   3  -3 104.834 4.14908   4
   0   3   3 107.930 6.04196   1
   0   3  -3 96.5413 6.23765   5
   0   3   3 94.6795 5.11401   7
   0   3   3 97.8451 4.41635   6
   0   3  -3 111.521 4.18483   9
   0   3  -3 102.376 4.93449   6
   0   3   3 92.5402 4.38560   2
   0   3  -3 106.732 4.67451   8
   0   3   3 102.549 4.58757   3
   1  -3   3 15.2265 3.36301   7
   1  -3   3 13.0188 2.29738   1
  -1  -3  -3 13.9894 2.45049   9
   1  -3   3 13.5586 1.42167   4
   1  -3   3 13.1369 3.10163   6
  -1  -3  -3 12.9368 2.44546   3
  -1  -3  -3 14.6684 2.56097   2
   1  -3   3 10.6899 1.39999   8
   1   3   3 9.24734 2.27405   3
  -1   3  -3 10.3135 3.24288   7
  -1   3  -3 10.6149 2.06844   9
   1   3   3 11.5891 1.85099   7
  -1   3  -3 15.8037 4.97994   5
  -1   3  -3 11.9646 1.93779   1
  -1   3  -3 12.6285 2.51237   6
   1   3   3 13.4311 2.09530   9
  -1   3  -3 12.4184 1.80452   8
   1   3   3 11.6244 2.91090   8
   1   3   3 14.4799 2.11028   2
  -1   3  -3 12.2378 1.82687   4
   2  -3   3 3855.75 121.351   6
   2  -3   3 3904.08 138.579   1
   2  -3   3 3998.40 114.976   7
   2  -3   3 3916.26 121.366   8
  -2  -3  -3 3931.33 105.703   8
  -2  -3  -3 3897.99 118.043   2
  -2  -3  -3 3898.51 120.498   9
  -2  -3  -3 4002.75 150.781   3
  -2   3  -3 4319.42 125.329   1
   2   3   3 4164.16 125.282   8
  -2   3  -3 4223.09 140.179   3
   2   3   3 4156.18 91.9009   3
  -2   3  -3 4256.62 141.752   4
  -2   3  -3 4127.14 123.858   5
  -2   3  -3 4200.36 126.517   6
   2   3   3 4285.85 133.610   2
  -2   3  -3 4045.76 180.210   7
   2   3   3 3953.77 153.202   5
   2   3   3 4401.98 144.295   4
   3  -3   3 82.2608 5.14686   1
  -3  -3  -3 80.4225 4.85628   8
  -3  -3  -3 79.8232 4.34416   9
  -3  -3  -3 94.2599 4.41573   2
   3  -3   3 85.4141 5.98375   6
  -3  -3  -3 88.2744 6.14604   3
   3  -3   3 84.7163 5.71153   7
  -3   3  -3 95.4472 5.41403   1
  -3   3  -3 86.9581 7.32741   5
   3   3   3 86.7802 5.18170   8
  -3   3  -3 84.7035 6.02887   7
   3   3   3 93.4127 6.15860   3
   3   3   3 80.0971 4.99812   4
  -3   3  -3 76.8133 5.48915   3
   3   3   3 78.4152 5.07453   2
  -3   3  -3 71.0609 5.19476   6
   4  -3   3 152.474 10.1595   6
   4  -3   3 149.711 6.91568   3
  -4  -3  -3 144.092 5.85204   2
   4  -3   3 160.537 12.4226   7
  -4  -3  -3 147.107 6.76359   8
  -4  -3  -3 146.747 5.59579   9
   4  -3   3 135.632 7.81120   1
  -4   3  -3 136.587 6.42747   3
   4   3   3 156.878 7.80157   3
  -4   3  -3 162.743 8.05090   1
   4   3   3 137.852 6.78986   2
   4   3   3 136.934 6.32956   6
  -4   3  -3 147.687 8.33830   5
   5  -3   3 45.5890 5.58547   1
  -5  -3  -3 47.7217 4.55266   2
   5  -3   3 57.0345 6.06045   7
   5  -3   3 57.3838 5.79398   6
  -5  -3  -3 51.7895 4.83663   8
   5  -3   3 64.7952 4.79833   3
   5   3   3 47.6242 5.25560   2
  -5   3  -3 44.0193 5.20249   3
   5   3   3 51.3601 4.56701   6
   5   3   3 62.7822 5.95539   3
  -5   3  -3 46.9936 5.28506   1
  -5   3  -3 67.7285 7.56957   5
   6  -3   3 413.510 13.0179   3
   6  -3   3 424.453 17.2173   7
   6  -3   3 456.156 15.4243   6
  -6  -3  -3 394.784 14.2357   2
  -6  -3  -3 396.231 13.5525   8
   6   3   3 399.801 14.7347   3
  -6   3  -3 412.927 16.6578   1
   6   3   3 385.546 14.9558   6
  -6   3  -3 420.553 15.5061   5
   7  -3   3 394.105 18.3058   6
   7  -3   3 406.576 16.4102   3
  -7  -3  -3 401.499 14.0073   8
   7  -3   3 353.462 17.8750   7
  -7  -3  -3 356.159 14.7666   2
  -7   3  -3 426.793 17.4452   5
   7   3   3 376.228 21.2009   6
  -7   3  -3 365.782 14.6792   1
   7   3   3 385.475 16.9334   3
   8  -3   3 0.20746 5.72664   7
   8  -3   3 2.87682 5.49160   6
  -8  -3  -3 -2.6990 5.68544   8
  -8  -3  -3 4.04114 4.74903   2
   8  -3   3 4.47432 4.43742   3
  -8   3  -3 5.29201 6.74680   1
  -8   3  -3 0.68917 7.85912   5
   8   3   3 8.48137 6.04065   3
   8   3   3 1.71711 4.55208   6
   9  -3   3 12.3700 7.00434   6
   9  -3   3 15.2121 5.49307   3
   9  -3   3 17.3026 7.50040   7
  -9  -3  -3 22.3732 6.47729   2
  -9  -3  -3 19.5046 7.55959   8
   9   3   3 11.9699 6.04814   6
  -9   3  -3 22.6330 9.84433   5
   9   3   3 17.4703 7.28467   3
  -9   3  -3 13.3932 8.25498   1
 -10  -3  -3 25.9084 8.56526   8
  10  -3   3 29.6342 12.1968   7
  10  -3   3 32.1501 11.5832   6
 -10   3  -3 46.3774 9.11991   5
  10   3   3 27.4112 8.01572   6
  10   3   3 42.4945 9.83241   3
 -10   3  -3 20.2890 7.97303   1
  10  -4  -3 0.76831 8.90044   7
  10  -4  -3 9.26499 11.1176   6
 -10  -4   3 15.4883 7.29956   8
  10   4  -3 3.36725 11.1867   3
  10   4  -3 0.33613 10.5726   6
 -10   4   3 -0.7131 7.40656   1
   9  -4  -3 137.782 13.2900   7
  -9  -4   3 102.210 10.8408   8
   9  -4  -3 115.048 10.3521   6
  -9   4   3 110.528 10.5023   1
   9   4  -3 110.312 10.9175   3
   9   4  -3 120.179 10.6693   6
  -8  -4   3 14.0549 5.38057   4
   8  -4  -3 19.6502 6.08035   6
  -8  -4   3 12.0065 4.99087   8
   8  -4  -3 20.1749 6.43271   7
   8   4  -3 10.2104 7.81554   6
   8   4  -3 4.77607 5.78104   3
  -8   4   3 4.49249 5.54574   1
   7  -4  -3 109.759 9.46133   6
   7  -4  -3 121.289 10.3611   7
  -7  -4   3 106.844 7.84078   4
  -7  -4   3 118.697 8.11695   8
  -7   4   3 104.642 8.72692   1
   7   4  -3 114.603 9.54706   3
  -6  -4   3 63.7231 3.90073   5
   6  -4  -3 62.5115 6.31894   6
  -6  -4   3 64.7936 6.06259   4
   6  -4  -3 61.9898 6.63509   7
  -6  -4   3 61.6269 3.23657   2
  -6  -4   3 57.7546 3.00614   9
  -6  -4   3 61.8838 5.99472   8
   6   4  -3 54.1193 8.31077   3
  -6   4   3 60.0166 3.78344   4
  -6   4   3 63.2156 7.13894   1
   6   4  -3 62.7687 4.03649   5
  -6   4   3 58.3748 4.05345   8
  -5  -4   3 400.791 11.1194   9
   5  -4  -3 415.985 13.2429   6
   5  -4  -3 410.692 16.0166   7
  -5  -4   3 389.177 14.0531   4
  -5  -4   3 403.865 12.6182   2
  -5  -4   3 394.826 21.4802   5
  -5  -4   3 401.196 18.0609   8
  -5   4   3 394.468 17.3143   4
  -5   4   3 426.617 22.0484   3
   5   4  -3 398.527 15.4386   3
   5   4  -3 409.046 18.0054   5
  -5   4   3 410.628 14.3020   1
  -4  -4   3 241.197 7.09369   9
  -4  -4   3 246.890 14.9559   5
   4  -4  -3 249.754 9.69405   7
  -4  -4   3 227.037 7.76784   2
  -4  -4   3 235.501 10.9438   8
   4  -4  -3 238.125 9.20509   6
  -4  -4   3 235.536 9.13952   4
   4   4  -3 248.812 9.03392   2
  -4   4   3 241.835 10.1487   4
   4   4  -3 229.802 8.18322   5
  -4   4   3 226.805 7.96053   3
   4   4  -3 236.149 11.0943   3
  -4   4   3 244.796 10.6063   1
  -3  -4   3 34.7579 3.94471   4
  -3  -4   3 44.6787 3.68788   5
   3  -4  -3 32.8756 3.83324   9
   3  -4  -3 34.5759 3.80586   7
   3  -4  -3 38.4912 3.79750   6
  -3  -4   3 39.1294 2.24939   9
  -3  -4   3 43.2031 4.18192   8
   3  -4  -3 25.8729 11.5117   1
   3   4  -3 38.1594 4.96660   1
  -3   4   3 38.4382 2.71728   3
  -3   4   3 44.7244 6.16710   1
  -3   4   3 37.3114 5.34264   6
  -3   4   3 36.3903 3.33215   8
   3   4  -3 36.4950 4.17447   7
   3   4  -3 41.6460 5.13937   3
   3   4  -3 41.2854 2.60751   2
   3   4  -3 42.8984 3.97568   5
  -3   4   3 35.4026 2.34380   3
  -2  -4   3 78.2126 4.85724   8
  -2  -4   3 88.6084 3.54901   9
   2  -4  -3 74.4244 6.13775   1
   2  -4  -3 76.0548 4.46682   6
  -2  -4   3 86.3814 4.93702   4
   2  -4  -3 81.6318 4.72809   7
   2  -4  -3 75.6970 5.17985   9
  -2  -4   3 73.7881 4.83092   5
  -2   4   3 84.4329 5.54619   6
  -2   4   3 78.8574 5.94196   1
  -2   4   3 79.6887 5.04784   2
   2   4  -3 77.5589 4.82697   5
  -2   4   3 81.3858 5.75097   7
   2   4  -3 77.6914 5.88084   3
   2   4  -3 80.5158 5.72014   8
   2   4  -3 78.8409 5.60721   4
   2   4  -3 79.1893 3.62699   9
   2   4  -3 75.7495 5.38699   7
  -2   4   3 66.9633 4.22123   8
  -2   4   3 86.5149 4.96458   9
  -2   4   3 84.8995 4.05671   3
   2   4  -3 83.5549 3.64564   2
  -1  -4   3 0.54624 2.64711   7
  -1  -4   3 2.79234 3.69338   5
  -1  -4   3 1.16421 2.77522   8
  -1  -4   3 5.57377 2.75795   4
   1  -4  -3 3.12609 1.80547   7
   1  -4  -3 0.87474 1.93197   9
   1  -4  -3 4.57785 1.73269   6
  -1   4   3 2.27842 1.61528   3
   1   4  -3 1.11420 2.20680   6
   1   4  -3 6.77016 3.16567   8
   1   4  -3 3.27750 1.45302   2
  -1   4   3 2.58488 2.12996   2
  -1   4   3 5.73658 2.19674   9
  -1   4   3 2.22828 1.76610   6
  -1   4   3 4.62719 2.62421   7
   1   4  -3 4.13750 1.78938   9
   1   4  -3 3.63766 3.45568   5
   1   4  -3 1.95618 2.99016   4
   1   4  -3 1.88937 3.30627   7
  -1   4   3 1.51218 3.78166   1
  -1   4   3 1.02912 1.75438   8
   0  -4  -3 240.144 8.01165   7
   0  -4  -3 250.693 7.88659   2
   0  -4   3 239.838 7.15778   4
   0  -4   3 240.478 9.33238   8
   0  -4  -3 239.576 7.52530   9
   0  -4   3 247.746 8.82567   7
   0   4  -3 256.261 16.9729   7
   0   4  -3 223.686 9.16977   5
   0   4  -3 259.252 7.74697   8
   0   4  -3 246.133 7.90089   1
   0   4   3 249.733 13.0732   9
   0   4   3 245.087 10.6502   8
   0   4  -3 243.830 14.6220   6
   0   4   3 240.472 10.0189   3
   0   4   3 250.444 15.1066   7
   0   4   3 249.463 10.4346   6
   0   4   3 240.986 9.34402   1
   0   4   3 253.442 12.3015   2
   0   4  -3 256.129 9.40221   4
   0   4  -3 251.934 9.68469   9
   1  -4   3 1940.30 74.2196   8
   1  -4   3 2006.99 83.2786   7
   1  -4   3 1948.53 60.8049   6
  -1  -4  -3 1981.96 49.0230   2
  -1  -4  -3 1978.28 88.9407   9
  -1  -4  -3 1937.21 75.2406   3
   1   4   3 2003.72 75.3650   6
  -1   4  -3 2088.76 48.2831   5
   1   4   3 2068.06 84.9249   2
  -1   4  -3 2035.19 74.8415   1
   1   4   3 2063.61 88.5493   7
  -1   4  -3 2074.93 99.5524   7
   1   4   3 2081.66 81.9919   9
  -1   4  -3 2133.88 81.9221   8
  -1   4  -3 2086.92 90.5995   6
  -1   4  -3 2132.29 77.7628   4
   1   4   3 2012.29 53.9868   3
  -1   4  -3 2101.74 93.5260   9
   1   4   3 2138.00 75.3229   8
  -2  -4  -3 146.000 5.81695   2
   2  -4   3 139.268 6.88189   6
   2  -4   3 139.919 7.62118   7
  -2  -4  -3 136.153 6.46966   8
  -2  -4  -3 139.552 7.41460   3
   2  -4   3 136.568 4.75947   8
  -2  -4  -3 138.179 5.47424   9
   2  -4   3 138.781 7.97897   1
  -2   4  -3 145.374 5.87561   8
  -2   4  -3 143.603 6.81697   4
   2   4   3 134.448 6.10688   5
   2   4   3 145.818 7.24872   3
   2   4   3 143.832 7.77705   7
  -2   4  -3 124.382 7.48186   7
   2   4   3 134.806 6.64490   2
  -2   4  -3 131.044 7.74702   6
  -2   4  -3 152.887 8.48600   5
  -2   4  -3 154.298 6.48681   1
  -2   4  -3 133.885 7.12351   3
  -2   4  -3 155.649 6.43685   9
   2   4   3 135.018 6.08048   9
  -3  -4  -3 32.0315 3.19805   2
   3  -4   3 41.3431 5.58897   6
   3  -4   3 40.3248 5.74722   7
  -3  -4  -3 39.2754 4.92362   8
   3  -4   3 30.5600 4.38559   1
  -3  -4  -3 29.5109 2.99484   9
   3   4   3 31.9291 3.47566   2
  -3   4  -3 40.5054 3.93331   1
  -3   4  -3 42.8172 5.80283   5
   3   4   3 28.8005 5.40857   3
   3   4   3 36.0255 2.42677   5
   3   4   3 36.4595 2.38297   5
  -3   4  -3 35.7830 3.78377   3
  -3   4  -3 40.8642 1.88177   4
  -4  -4  -3 149.422 7.52189   8
  -4  -4  -3 144.216 5.82435   9
   4  -4   3 136.731 8.94024   1
   4  -4   3 159.000 8.85283   6
  -4  -4  -3 142.624 6.44200   2
   4  -4   3 134.847 8.23649   7
  -4   4  -3 130.129 8.40892   3
   4   4   3 153.835 9.15974   3
  -4   4  -3 142.211 6.96642   1
   4   4   3 151.414 10.2970   2
  -4   4  -3 132.019 9.95133   5
  -5  -4  -3 397.862 12.6696   9
  -5  -4  -3 407.440 13.3650   2
   5  -4   3 380.014 17.7435   7
   5  -4   3 435.606 15.0788   6
  -5  -4  -3 408.481 14.9701   8
   5   4   3 397.071 14.4547   3
  -5   4  -3 411.551 24.0005   3
   5   4   3 384.718 14.2560   6
  -5   4  -3 414.067 16.0336   5
   5   4   3 411.286 16.8481   2
  -5   4  -3 429.864 14.8300   1
  -6  -4  -3 46.6996 4.85270   9
   6  -4   3 32.4250 5.86223   6
  -6  -4  -3 40.3380 4.94318   2
  -6  -4  -3 46.1538 6.72787   8
   6  -4   3 35.8151 7.55677   7
   6   4   3 35.7649 5.94081   6
  -6   4  -3 33.8590 5.18675   1
   6   4   3 39.3816 6.42546   3
  -6   4  -3 40.2762 8.83656   5
  -7  -4  -3 41.7854 5.17576   9
  -7  -4  -3 40.2738 5.94818   8
   7  -4   3 47.0609 8.78942   6
  -7  -4  -3 41.5621 4.69803   2
   7  -4   3 41.6583 8.90269   7
   7   4   3 38.4610 7.01068   6
   7   4   3 32.3937 7.06835   3
  -7   4  -3 41.5709 6.16695   1
  -7   4  -3 47.4257 8.22673   5
  -8  -4  -3 68.5720 6.80018   2
  -8  -4  -3 65.8269 6.28785   9
   8  -4   3 52.4973 6.05073   3
   8  -4   3 60.9249 8.71078   6
  -8  -4  -3 45.2603 6.75399   8
   8  -4   3 70.0752 9.23678   7
   8   4   3 52.6924 10.9352   3
  -8   4  -3 44.2046 6.96438   1
  -8   4  -3 67.3256 9.74706   5
   8   4   3 46.0820 6.82260   6
   9  -4   3 171.796 13.6668   6
  -9  -4  -3 172.529 14.3437   8
   9  -4   3 161.572 13.7566   7
   9   4   3 166.949 11.3578   6
  -9   4  -3 203.354 16.2528   5
   9   4   3 160.869 13.0885   3
  -9   4  -3 157.421 13.3332   1
  10  -4   3 50.5960 13.3780   7
  10  -4   3 54.5643 14.2950   6
 -10  -4  -3 10.8267 6.50513   8
 -10   4  -3 25.4235 9.24708   5
  10   4   3 23.2191 9.07987   3
 -10   4  -3 16.4817 10.3410   1
  10   4   3 17.4267 7.42474   6
   9  -5  -3 84.7732 12.0275   6
  -9  -5   3 95.0782 9.55581   8
   9  -5  -3 83.9152 12.7566   7
  -9   5   3 91.9627 10.8036   1
   9   5  -3 81.8700 12.3399   6
   8  -5  -3 220.343 14.7610   6
   8  -5  -3 221.404 14.2554   7
  -8  -5   3 202.834 11.8070   8
  -8   5   3 201.856 14.5645   1
   8   5  -3 220.318 13.7381   6
   8   5  -3 218.128 13.8924   3
   7  -5  -3 30.0229 8.42420   7
   7  -5  -3 22.6208 6.01050   6
  -7  -5   3 32.5177 6.07224   8
   7   5  -3 21.1293 7.22556   3
  -7   5   3 35.1290 8.82314   1
   6  -5  -3 996.465 39.5054   7
   6  -5  -3 1010.77 41.0826   6
  -6  -5   3 1071.23 38.6770   4
  -6  -5   3 992.181 34.9581   8
  -6   5   3 1063.21 35.7617   1
   6   5  -3 1047.24 44.4163   3
  -5  -5   3 611.450 20.2642   4
   5  -5  -3 589.627 21.9763   7
  -5  -5   3 605.381 19.8608   8
  -5  -5   3 612.059 24.4478   5
   5  -5  -3 604.849 20.4076   6
  -5  -5   3 637.854 17.2303   9
   5   5  -3 594.600 21.7609   3
  -5   5   3 611.619 24.8527   1
   5   5  -3 610.321 40.4951   5
  -5   5   3 619.254 40.5010   4
  -4  -5   3 145.776 6.94515   5
   4  -5  -3 129.809 7.77692   7
  -4  -5   3 124.147 7.33014   4
  -4  -5   3 131.284 7.46622   8
   4  -5  -3 145.686 7.56885   6
  -4  -5   3 139.014 4.59317   9
  -4   5   3 123.231 7.01845   3
   4   5  -3 138.689 7.05256   2
   4   5  -3 125.622 7.03869   5
   4   5  -3 133.065 10.0631   3
  -4   5   3 122.365 8.06912   3
  -4   5   3 130.917 6.45312   8
  -4   5   3 129.812 8.71262   1
  -3  -5   3 2.04736 2.79887   4
   3  -5  -3 0.43866 3.02300   9
  -3  -5   3 2.80580 2.86134   8
  -3  -5   3 0.62348 1.82977   9
   3  -5  -3 -0.4852 2.70246   6
   3  -5  -3 -0.8709 2.78578   7
   3   5  -3 0.08111 2.04077   2
  -3   5   3 0.75789 2.05700   3
  -3   5   3 3.11677 5.42243   1
   3   5  -3 -0.0404 2.04633   9
  -3   5   3 0.67259 2.06416   3
   3   5  -3 1.51568 3.35108   5
  -3   5   3 -0.3452 2.72818   8
   3   5  -3 3.26586 5.79307   3
   2  -5  -3 102.789 6.03390   9
   2  -5  -3 111.533 6.35593   6
  -2  -5   3 104.603 6.48208   8
  -2  -5   3 119.563 4.77899   9
   2  -5  -3 104.899 6.02557   7
  -2  -5   3 113.795 6.15278   4
  -2   5   3 119.547 7.66130   1
   2   5  -3 107.362 5.82212   2
   2   5  -3 108.698 5.86931   9
  -2   5   3 100.122 6.41176   6
  -2   5   3 98.2667 6.10002   8
  -2   5   3 115.540 7.67418   3
   2   5  -3 95.3907 6.76171   5
   2   5  -3 110.501 7.59894   3
  -2   5   3 94.0720 6.62169   7
   1  -5  -3 102.600 5.43899   7
  -1  -5   3 107.658 6.13399   8
   1  -5  -3 113.200 6.26388   9
  -1  -5   3 126.355 6.08658   4
  -1   5   3 102.364 5.56390   8
   1   5  -3 105.990 7.88813   3
   1   5  -3 111.896 6.23019   2
  -1   5   3 106.233 7.54758   7
  -1   5   3 104.384 6.67807   6
   1   5  -3 111.182 6.29278   9
  -1   5   3 105.992 5.87993   3
  -1   5   3 119.986 7.55346   1
   1   5  -3 111.472 7.53538   8
   1   5  -3 107.151 6.35874   4
   1   5  -3 118.354 7.40073   5
   1   5  -3 106.532 6.67524   1
   0  -5  -3 8.17602 2.44336   7
   0  -5   3 6.52201 4.19603   7
   0  -5   3 6.32314 2.34392   8
   0  -5  -3 8.74875 2.51900   9
   0   5  -3 3.32178 3.23753   8
   0   5   3 3.82535 3.59934   3
   0   5  -3 2.38141 2.02360   9
   0   5   3 4.49178 2.80342   8
   0   5  -3 4.19656 2.21066   2
   0   5   3 4.57264 2.31677   7
   0   5   3 2.03914 2.04438   6
   0   5  -3 3.62035 3.30488   4
   0   5  -3 4.17773 2.43045   1
   0   5   3 4.71750 5.00959   1
   0   5  -3 2.56167 3.46663   5
   0   5   3 3.71067 2.78224   4
   1  -5   3 16.4363 4.65746   7
  -1  -5  -3 13.8829 3.44890   9
  -1  -5  -3 15.9503 2.91766   2
   1  -5   3 16.7043 2.93607   8
  -1   5  -3 12.5859 3.07997   4
   1   5   3 8.53092 3.25546   3
  -1   5  -3 12.1616 3.78484   1
   1   5   3 10.6420 3.04649   6
   1   5   3 11.9770 3.13453   2
  -1   5  -3 13.6793 2.94297   9
   1   5   3 16.7329 5.64870   1
  -1   5  -3 23.1860 6.28503   5
   1   5   3 9.77901 2.75846   9
   1   5   3 15.2606 2.65442   7
  -1   5  -3 7.58254 2.93974   8
   1   5   3 12.0204 4.07565   5
   2  -5   3 37.1688 4.16434   1
   2  -5   3 35.4629 3.01986   8
  -2  -5  -3 43.9881 6.37472   2
   2  -5   3 30.1828 4.68679   7
  -2  -5  -3 42.8052 5.50425   9
  -2  -5  -3 35.0137 5.21384   8
   2  -5   3 37.3785 4.74519   6
   2   5   3 35.9247 4.16222   5
  -2   5  -3 34.9515 2.85366   8
  -2   5  -3 33.8943 3.15188   4
   2   5   3 33.9738 3.97381   7
   2   5   3 36.4022 4.75803   2
  -2   5  -3 36.4787 4.32673   1
   2   5   3 25.8617 4.19511   9
  -2   5  -3 31.8474 4.22904   3
   2   5   3 36.7658 4.87718   3
  -2   5  -3 33.0616 5.87987   5
  -3  -5  -3 9.36631 4.68644   8
   3  -5   3 7.47970 4.00930   7
  -3  -5  -3 4.19720 3.16546   9
  -3  -5  -3 9.60437 3.51151   2
   3  -5   3 4.86456 5.03350   6
   3  -5   3 3.36257 4.40775   1
  -3   5  -3 3.85924 1.75329   8
   3   5   3 3.23397 2.62787   7
  -3   5  -3 3.46839 1.60280   4
  -3   5  -3 7.50045 4.82402   5
   3   5   3 0.62276 1.30319   5
  -3   5  -3 5.70046 3.17808   1
   3   5   3 6.43421 4.01542   3
   3   5   3 5.02501 2.25848   5
  -3   5  -3 6.20740 3.19256   3
   3   5   3 0.24394 3.67489   2
   4  -5   3 33.1530 5.53833   7
  -4  -5  -3 37.3169 4.19217   9
  -4  -5  -3 45.2167 6.92328   8
   4  -5   3 36.6141 5.47171   6
  -4  -5  -3 32.3434 4.36914   2
  -4   5  -3 12.4117 11.7642   3
   4   5   3 28.3779 5.53554   3
  -4   5  -3 34.4966 5.67417   1
  -4   5  -3 35.6514 6.88697   5
   4   5   3 30.0895 1.91656   5
   4   5   3 21.1023 4.76430   7
   4   5   3 26.8292 1.42248   5
  -5  -5  -3 14.0339 5.83932   8
   5  -5   3 13.0573 5.15437   7
   5  -5   3 13.3988 4.96166   6
  -5  -5  -3 18.2676 3.39762   2
  -5   5  -3 9.21428 5.25002   1
   5   5   3 7.34788 4.45248   6
   5   5   3 5.21453 4.89037   3
  -5   5  -3 6.32179 5.95249   5
  -6  -5  -3 12.7055 4.17849   9
  -6  -5  -3 5.98323 4.25637   2
   6  -5   3 5.53434 6.81056   6
  -6  -5  -3 4.58234 6.10419   8
   6  -5   3 5.55144 7.43878   7
   6   5   3 9.86211 5.50954   6
  -6   5  -3 0.75910 4.03770   1
  -6   5  -3 10.6914 6.68829   5
   6   5   3 4.12254 5.44104   3
  -7  -5  -3 224.169 10.9925   9
   7  -5   3 244.391 14.5187   6
  -7  -5  -3 249.385 13.9002   2
   7  -5   3 243.494 15.6092   7
  -7  -5  -3 216.897 11.5677   8
   7   5   3 250.510 17.1652   3
  -7   5  -3 266.767 17.5005   5
  -7   5  -3 222.977 11.8790   1
   7   5   3 228.991 12.2957   6
  -8  -5  -3 44.0722 9.30871   2
   8  -5   3 49.1365 9.44184   7
  -8  -5  -3 61.3005 15.5465   9
   8  -5   3 51.5471 8.87429   6
  -8  -5  -3 39.1435 9.06965   8
  -8   5  -3 65.6118 10.6178   5
   8   5   3 57.4357 9.87087   3
   8   5   3 36.7156 6.75522   6
  -8   5  -3 37.8422 9.04924   1
   9  -5   3 0.44807 10.2225   6
   9  -5   3 1.83237 10.5499   7
  -9  -5  -3 -0.3891 5.94537   8
  -9   5  -3 4.04981 8.93780   5
   9   5   3 0.79852 7.77832   3
   9   5   3 -1.8575 8.63490   6
  -9   5  -3 -1.6159 6.20056   1
   9  -6  -3 1.25968 9.78090   6
  -9  -6   3 1.10607 6.47698   8
   9  -6  -3 -1.3187 7.05224   7
  -9   6   3 -7.4598 9.69147   5
   9   6  -3 2.07075 10.7638   6
   9   6  -3 5.25453 9.05580   3
  -9   6   3 5.09143 8.18310   1
   8  -6  -3 15.0682 7.19182   6
   8  -6  -3 20.2849 7.27457   7
  -8  -6   3 19.6875 9.00496   8
  -8   6   3 10.5886 10.2348   1
   8   6  -3 18.5774 8.76986   3
   8   6  -3 2.93252 9.41930   6
   7  -6  -3 9.06749 6.50418   7
   7  -6  -3 0.58624 5.65710   6
  -7  -6   3 8.57342 5.66084   8
  -7   6   3 5.97314 6.59658   1
   7   6  -3 8.74605 7.69920   3
   6  -6  -3 3.89594 4.99381   6
   6  -6  -3 6.49214 5.68789   7
  -6  -6   3 -1.2694 4.56703   8
  -6   6   3 5.44757 6.03572   1
   6   6  -3 3.25840 6.44686   3
  -5  -6   3 26.7842 6.94750   8
   5  -6  -3 35.0762 6.02373   7
  -5  -6   3 24.2938 2.82754   9
   5  -6  -3 45.5925 7.33249   6
  -5   6   3 32.5257 6.63590   1
   5   6  -3 29.8110 9.21127   3
  -4  -6   3 8.40486 5.52935   8
   4  -6  -3 4.72384 3.94119   7
  -4  -6   3 3.74940 1.77688   9
   4  -6  -3 8.66965 3.98577   6
   4   6  -3 0.53394 2.59121   5
  -4   6   3 1.77611 2.81380   3
   4   6  -3 6.68819 5.46161   3
  -4   6   3 0.15075 4.90603   1
   3  -6  -3 724.467 23.6541   6
   3  -6  -3 740.953 24.8532   7
  -3  -6   3 730.653 30.1967   9
  -3  -6   3 713.948 24.7666   8
  -3   6   3 747.238 32.8122   8
   3   6  -3 744.402 34.5079   2
   3   6  -3 706.713 24.4969   3
  -3   6   3 744.938 32.8333   3
  -3   6   3 760.081 38.1792   3
   3   6  -3 721.297 37.3794   5
  -3   6   3 739.957 39.6739   4
  -3   6   3 753.824 25.0815   1
   3   6  -3 774.374 28.7576   9
  -2  -6   3 183.406 8.32420   8
   2  -6  -3 175.384 10.2612   9
   2  -6  -3 172.977 8.54056   6
   2  -6  -3 164.769 8.68234   7
   2   6  -3 170.315 8.73443   5
   2   6  -3 146.523 7.41769   9
   2   6  -3 165.772 10.9307   3
  -2   6   3 149.145 8.76574   8
   2   6  -3 158.704 10.1771   2
  -2   6   3 165.642 9.79424   1
  -2   6   3 155.137 10.7936   3
  -2   6   3 142.517 8.45864   4
   1  -6  -3 530.227 17.7835   9
  -1  -6   3 498.916 23.9343   8
   1  -6  -3 499.652 23.8736   7
  -1   6   3 531.231 30.3884   3
   1   6  -3 540.423 20.3625   9
   1   6  -3 524.385 17.9074   5
  -1   6   3 517.953 19.0924   1
  -1   6   3 542.139 16.8699   6
   1   6  -3 527.344 24.5569   2
  -1   6   3 529.136 20.2490   7
   1   6  -3 536.664 20.0734   3
   1   6  -3 538.793 18.9800   1
   0  -6   3 36.1966 4.95927   7
   0  -6  -3 34.0112 4.19135   7
   0  -6  -3 44.9941 5.00894   9
   0  -6   3 31.1073 3.77589   8
   0   6   3 37.4292 5.17346   7
   0   6   3 35.4093 5.70548   1
   0   6   3 30.6009 4.38724   3
   0   6  -3 42.3601 6.49641   3
   0   6  -3 28.5424 6.79267   5
   0   6   3 36.9674 5.41399   5
   0   6   3 40.2960 5.03191   6
   0   6  -3 29.3595 5.36409   1
   1  -6   3 23.9875 4.56923   7
  -1  -6  -3 21.5546 4.10867   9
   1  -6   3 26.3942 3.22721   8
   1   6   3 22.1810 6.88070   1
   1   6   3 14.4337 5.14088   5
   1   6   3 17.7548 3.56177   7
   1   6   3 22.1495 3.62511   6
  -1   6  -3 19.7074 3.90541   1
  -1   6  -3 13.2136 3.92626   8
   1   6   3 16.2573 4.26971   3
  -1   6  -3 12.1769 2.95868   4
  -1   6  -3 20.4371 5.67827   5
  -2  -6  -3 114.683 6.84699   2
  -2  -6  -3 121.847 6.20763   9
   2  -6   3 115.829 7.81750   7
   2   6   3 95.2421 6.87767   5
  -2   6  -3 115.557 7.77868   4
  -2   6  -3 104.879 9.38784   5
   2   6   3 103.670 7.41936   7
   2   6   3 118.099 8.14710   3
   2   6   3 104.007 8.54096   6
  -2   6  -3 98.2804 6.00839   8
  -2   6  -3 125.773 7.76102   1
   3  -6   3 120.112 8.59814   7
  -3  -6  -3 119.992 6.15936   9
   3  -6   3 117.773 9.14569   6
  -3  -6  -3 127.762 6.54792   2
  -3  -6  -3 90.8279 8.07660   8
   3   6   3 103.042 8.25680   5
  -3   6  -3 117.176 10.3532   5
   3   6   3 117.040 8.77905   3
  -3   6  -3 109.765 8.19734   1
  -4  -6  -3 21.4073 4.55602   2
  -4  -6  -3 13.6697 4.69093   8
   4  -6   3 13.8017 5.19515   6
  -4  -6  -3 17.0904 3.47188   9
   4  -6   3 12.4758 5.34088   7
  -4   6  -3 14.9734 6.02722   1
   4   6   3 19.6053 7.55445   3
  -4   6  -3 22.2735 6.96725   5
   5  -6   3 658.074 33.0531   7
  -5  -6  -3 620.945 22.9600   8
  -5  -6  -3 650.081 21.2857   2
  -5  -6  -3 687.841 22.5633   9
   5  -6   3 623.340 34.2717   6
  -5   6  -3 659.280 35.3325   1
   5   6   3 626.811 30.2302   3
  -5   6  -3 691.814 33.3047   5
  -6  -6  -3 0.35709 6.86090   8
   6  -6   3 0.71212 13.1306   7
  -6  -6  -3 3.64997 3.34237   2
   6  -6   3 5.53390 10.5270   6
  -6  -6  -3 -0.7848 2.94196   9
   6   6   3 2.49596 6.21625   3
  -6   6  -3 -0.3513 4.59454   1
   6   6   3 2.26152 6.03031   6
  -6   6  -3 -0.2447 7.08859   5
   7  -6   3 38.2197 11.1528   7
   7  -6   3 51.7918 10.7974   6
  -7  -6  -3 28.7011 6.90156   8
  -7  -6  -3 43.2015 9.75124   9
  -7   6  -3 41.7344 10.8498   1
  -7   6  -3 30.6829 13.0306   5
   7   6   3 27.0447 6.24852   6
   7   6   3 44.0406 9.02425   3
   8  -6   3 -3.8121 7.54134   7
   8  -6   3 -1.3382 10.1335   6
  -8  -6  -3 5.39449 6.23356   8
  -8   6  -3 0.30757 6.20370   1
   8   6   3 7.03667 8.58465   3
   8   6   3 4.63199 7.99842   6
  -8   6  -3 1.46712 9.47327   5
   8  -7  -3 1.75926 11.3817   7
   8  -7  -3 6.47657 10.1409   6
  -8  -7   3 -2.4770 6.54818   8
   8   7  -3 -4.1326 7.06250   6
  -8   7   3 -1.2927 10.5259   1
  -8   7   3 2.40700 9.88922   5
   7  -7  -3 243.663 15.7665   7
   7  -7  -3 210.157 14.5956   6
  -7   7   3 185.861 15.8316   1
  -7   7   3 234.178 17.4892   5
  -6  -7   3 16.6605 6.28722   8
   6  -7  -3 28.6520 7.08068   7
   6  -7  -3 40.4364 9.11842   6
  -6   7   3 3.81385 8.66354   5
  -6   7   3 19.9563 7.37556   1
   6   7  -3 24.7245 8.64109   3
   5  -7  -3 16.2847 7.98751   7
  -5  -7   3 20.2480 5.76611   8
   5  -7  -3 15.3001 7.55305   6
   5   7  -3 9.59501 7.62467   3
  -5   7   3 9.65746 8.73667   1
   4  -7  -3 396.108 17.7015   6
  -4  -7   3 410.373 16.9444   8
   4  -7  -3 386.339 20.0750   7
  -4  -7   3 399.315 19.5112   9
   4   7  -3 413.192 21.7584   5
  -4   7   3 410.206 23.3559   1
   4   7  -3 361.673 19.6705   3
   3  -7  -3 44.1240 5.77071   6
  -3  -7   3 56.0592 6.39766   8
   3  -7  -3 43.6689 5.95254   7
  -3   7   3 36.5865 5.29801   3
   3   7  -3 32.5653 7.51026   3
   3   7  -3 34.5665 6.95405   5
  -3   7   3 38.5927 7.35049   1
   2  -7  -3 539.556 21.9825   7
  -2  -7   3 528.771 23.2714   8
   2  -7  -3 531.746 22.9500   9
   2   7  -3 550.954 24.2539   3
  -2   7   3 522.391 20.1249   3
  -2   7   3 556.836 23.7827   1
  -2   7   3 527.433 24.9625   5
   2   7  -3 494.382 24.1143   5
   2   7  -3 549.845 23.6679   1
  -1  -7   3 44.6275 5.11068   8
   1  -7  -3 44.8452 6.44516   7
   1  -7  -3 47.2434 6.63304   9
   1   7  -3 26.5696 5.42185   1
  -1   7   3 34.2909 6.80619   5
  -1   7   3 31.7253 6.27776   3
  -1   7   3 42.9792 8.60777   1
   1   7  -3 31.3092 6.08937   5
   1   7  -3 37.3886 8.72928   3
   0  -7  -3 1.40809 4.00286   7
   0  -7   3 4.95894 5.77022   7
   0  -7   3 4.44838 3.23594   8
   0  -7  -3 0.00000 3.36273   9
   0   7   3 3.56050 6.46995   5
   0   7  -3 -1.4507 4.96353   5
   0   7   3 67.5995 76.5568   1
   0   7   3 1.16518 3.88870   3
   0   7  -3 0.99849 4.16174   1
   0   7  -3 1.14081 4.79637   3
  -1  -7  -3 79.7693 6.77599   9
   1  -7   3 75.4335 5.89990   8
   1  -7   3 75.0672 7.42208   7
   1   7   3 64.4025 8.19542   3
  -1   7  -3 56.5481 8.36849   3
  -1   7  -3 64.7764 7.79873   1
  -1   7  -3 74.5678 10.5608   5
   1   7   3 69.6287 8.19747   1
   1   7   3 64.6123 7.87231   5
  -2  -7  -3 228.703 10.1853   9
   2  -7   3 224.905 12.3986   7
  -2   7  -3 220.102 12.6678   1
   2   7   3 224.996 13.9614   3
   2   7   3 232.772 10.9462   5
  -2   7  -3 249.763 14.2185   5
   2   7   3 215.598 13.9009   1
   3  -7   3 -2.9223 4.60141   6
   3  -7   3 7.39310 6.99266   7
  -3  -7  -3 1.88159 3.14083   9
  -3  -7  -3 0.57538 3.35991   2
  -3   7  -3 0.85688 4.20062   1
  -3   7  -3 0.80291 6.74968   5
   3   7   3 6.11115 5.32364   3
  -4  -7  -3 69.0107 7.60022   8
   4  -7   3 67.3563 8.21406   7
   4  -7   3 71.8048 7.86782   6
  -4  -7  -3 76.9221 5.99703   2
  -4  -7  -3 90.3899 5.99576   9
  -4   7  -3 64.4984 8.71493   1
  -4   7  -3 61.3586 12.5076   5
   4   7   3 70.9393 10.8300   3
  -5  -7  -3 165.168 9.76064   2
   5  -7   3 172.863 11.4210   6
   5  -7   3 146.297 11.2239   7
  -5  -7  -3 162.275 8.26299   9
  -5  -7  -3 139.259 10.2312   8
  -5   7  -3 126.816 11.0061   1
   5   7   3 152.014 11.9267   3
  -5   7  -3 162.955 14.1388   5
   6  -7   3 201.594 15.0180   7
   6  -7   3 195.121 14.3776   6
  -6  -7  -3 178.786 11.8494   8
   6   7   3 199.311 13.9419   3
  -6   7  -3 190.469 12.1932   1
  -6   7  -3 218.083 16.5371   5
   7  -7   3 -1.1616 10.6963   7
  -7  -7  -3 -2.0848 6.20851   8
   7  -7   3 -4.7028 6.95075   6
  -7   7  -3 34.6969 14.4602   5
   7   7   3 -1.8806 11.5332   3
   6  -8  -3 3.70465 6.37140   7
   6  -8  -3 -1.8400 5.95904   6
  -6  -8   3 -3.6781 5.98071   8
  -6   8   3 -7.3063 7.03759   1
   6   8  -3 -4.0234 8.94214   3
   5  -8  -3 164.673 11.2953   7
   5  -8  -3 174.265 10.9732   6
  -5  -8   3 154.267 10.7625   8
  -5   8   3 131.509 14.1729   1
  -5   8   3 149.638 14.4899   5
   5   8  -3 138.085 13.4565   3
   4  -8  -3 29.2107 7.96987   6
   4  -8  -3 31.4363 8.37813   7
  -4  -8   3 23.1401 6.29797   8
  -4   8   3 12.5171 7.46154   1
   4   8  -3 16.6890 8.76943   3
  -4   8   3 23.0294 9.32931   5
   3  -8  -3 14.9826 7.04646   7
  -3  -8   3 7.60124 5.33656   8
   3   8  -3 11.4800 10.4352   3
  -3   8   3 6.79269 9.61364   1
   3   8  -3 5.77005 5.92025   1
  -3   8   3 11.0054 8.22206   5
   3   8  -3 2.12834 7.18591   5
   2  -8  -3 52.7613 6.62833   7
  -2  -8   3 43.5822 8.05086   8
   2   8  -3 40.8792 8.77204   5
   2   8  -3 46.7574 11.2075   3
   2   8  -3 43.2086 8.80106   1
  -2   8   3 41.4930 10.3842   1
  -2   8   3 38.6817 8.76163   5
  -1  -8   3 16.1411 6.30803   8
   1   8  -3 4.95048 6.69992   3
   1   8  -3 4.45598 5.94987   5
   1   8  -3 4.42989 7.12790   1
  -1   8   3 10.7170 8.78286   5
  -1   8   3 8.16810 6.61108   3
  -1   8   3 4.44971 6.35213   1
   0  -8  -3 18.6310 5.20930   9
   0  -8   3 21.3020 6.03592   8
   0  -8   3 21.0277 6.57388   7
   0   8   3 7.34574 6.10913   5
   0   8  -3 12.3601 6.54276   3
   0   8   3 7.54267 6.64451   1
   0   8  -3 17.0977 5.88131   1
   0   8  -3 17.6268 7.19286   5
   0   8   3 12.8147 5.61065   3
  -1  -8  -3 318.159 14.7931   9
   1  -8   3 309.405 16.6762   7
  -1   8  -3 337.617 19.2635   5
   1   8   3 341.950 16.9798   1
   1   8   3 331.319 15.3980   3
  -1   8  -3 302.041 20.6098   3
  -1   8  -3 318.274 15.5486   1
   1   8   3 311.670 18.9190   5
   2  -8   3 3.36428 5.83882   7
  -2  -8  -3 5.50154 5.53465   9
  -2   8  -3 3.27046 5.25663   3
   2   8   3 -0.4619 30.5568   3
  -2   8  -3 0.58800 7.46134   5
   2   8   3 -4.7452 6.16535   1
  -2   8  -3 0.94795 7.30724   1
   3  -8   3 -4.4843 5.88532   7
  -3  -8  -3 -1.1939 4.96572   9
   3   8   3 0.32384 9.02487   3
  -3   8  -3 -1.7221 7.85816   5
  -3   8  -3 1.57670 5.06044   1
   3   8   3 1.12876 6.64186   1
   4  -8   3 2.23776 6.11944   6
   4  -8   3 9.34726 6.53079   7
  -4  -8  -3 1.56517 3.82144   9
  -4   8  -3 7.62136 8.95573   5
   4   8   3 7.93649 7.18365   3
   5  -8   3 3.51021 9.76137   6
   5  -8   3 1.70684 7.16390   7
   5   8   3 5.93506 7.70721   3
  -5   8  -3 3.96988 34.4054   5
   6  -8   3 -2.0497 7.25425   7
   6  -8   3 -1.4712 7.02137   6
   6   8   3 -2.4121 8.35504   3
  -6   8  -3 -1.5797 9.71249   5
   5  -9  -3 20.0011 7.37037   7
  -5  -9   3 5.33045 6.95345   8
  -5   9   3 14.9930 8.59203   1
   4  -9  -3 -1.3895 8.11528   7
  -4  -9   3 -1.0934 6.02581   8
   4   9  -3 -2.5631 6.54134   1
   4   9  -3 3.91788 9.16539   3
  -4   9   3 -0.9987 10.5197   1
   3  -9  -3 -1.6388 7.62950   7
  -3  -9   3 -2.7116 5.69346   8
  -3   9   3 1.90154 8.27117   1
   3   9  -3 2.06962 6.74876   1
  -3   9   3 6.15273 8.33868   5
   3   9  -3 2.48817 9.13917   3
   2  -9  -3 274.156 19.8839   7
  -2  -9   3 280.359 12.7312   8
   2   9  -3 272.644 15.8310   3
   2   9  -3 253.899 19.4007   5
  -2   9   3 249.781 19.4803   1
  -2   9   3 271.514 18.1955   5
   2   9  -3 240.894 21.0812   1
  -1  -9   3 -1.9548 4.78271   8
   1  -9  -3 3.47976 5.65637   7
   1   9  -3 4.20642 6.68247   5
  -1   9   3 2.80804 6.90114   5
   1   9  -3 1.89103 7.51444   3
  -1   9   3 -0.7669 6.75501   1
   1   9  -3 3.82887 5.99342   1
   0  -9  -3 88.4741 9.44788   9
   0   9  -3 72.5873 12.7833   3
   0   9  -3 67.7427 12.4222   5
   0   9   3 76.2535 12.5148   5
   0   9   3 63.6979 10.3090   3
   0   9   3 76.4394 10.8974   1
   1  -9   3 2.37097 6.33637   7
  -1  -9  -3 3.47359 4.72004   9
   1   9   3 10.2045 7.46688   1
  -1   9  -3 0.44154 9.49054   3
  -1   9  -3 0.57667 8.03550   5
   1   9   3 6.10593 9.32095   3
   2  -9   3 64.2734 8.66008   7
  -2  -9  -3 62.6344 6.41280   9
  -2   9  -3 55.1835 8.36798   3
   2   9   3 42.8630 9.87614   1
  -2   9  -3 44.3743 10.7413   5
   2   9   3 42.9766 11.4810   3
   3  -9   3 40.7163 10.4930   7
  -3  -9  -3 37.8329 6.10699   9
   3   9   3 17.2023 12.0438   1
  -3   9  -3 35.4938 11.4272   5
   3   9   3 23.3500 9.12216   3
   4  -9   3 17.8080 10.5870   7
  -4   9  -3 0.88443 10.7165   5
   4   9   3 1.69448 13.0028   1
   4   9   3 -3.2135 11.0233   3
  11   0  -4 3.01155 7.37760   6
 -11   0   4 -0.6327 10.2641   1
 -10   0   4 113.515 10.4647   1
 -10   0   4 111.419 8.55424   2
  10   0  -4 112.644 10.3540   6
  10   0  -4 131.043 9.97989   3
  -9   0   4 -1.2444 4.32447   4
  -9   0   4 2.22172 4.48185   8
   9   0  -4 1.56921 5.25814   3
  -9   0   4 4.27111 7.08509   1
   9   0  -4 3.25575 5.09806   6
  -8   0   4 7.47366 4.46788   1
   8   0  -4 3.80916 4.41863   6
  -8   0   4 5.31864 3.96449   4
  -8   0   4 3.84781 2.89245   8
   8   0  -4 4.12377 3.32274   3
  -7   0   4 0.31218 3.28037   4
   7   0  -4 1.88869 3.63487   6
  -7   0   4 1.07574 3.59921   5
   7   0  -4 0.17413 3.78708   3
  -7   0   4 -0.2347 2.42233   8
  -7   0   4 -3.8793 3.05820   9
  -7   0   4 1.84280 3.30871   3
  -7   0   4 2.66064 3.64602   1
  -6   0   4 322.859 12.5792   1
   6   0  -4 354.377 12.2390   6
  -6   0   4 372.105 15.9563   9
  -6   0   4 346.617 12.8634   3
  -6   0   4 348.787 11.0784   4
  -6   0   4 360.143 11.8063   8
   6   0  -4 335.765 13.3873   3
   6   0  -4 366.716 14.5179   4
  -6   0   4 354.452 14.9535   5
  -5   0   4 -0.0470 2.28701   1
   5   0  -4 -2.2728 3.32221   6
  -5   0   4 2.35267 2.60869   5
  -5   0   4 -1.4608 1.62310   8
   5   0  -4 0.11434 2.82601   4
  -5   0   4 4.04975 2.20050   9
   5   0  -4 0.21204 2.36293   3
   5   0  -4 -0.4996 2.95221   1
  -5   0   4 0.15052 1.62788   4
  -5   0   4 -1.0234 1.91157   3
  -4   0   4 274.914 11.3175   8
  -4   0   4 265.513 8.92486   3
  -4   0   4 262.709 7.77255   5
   4   0  -4 241.939 8.27597   6
  -4   0   4 288.685 8.84254   4
   4   0  -4 257.591 10.6525   1
   4   0  -4 278.951 8.94702   3
  -4   0   4 289.762 10.5977   1
   4   0  -4 273.199 8.82840   4
  -4   0   4 284.740 11.1600   9
   3   0  -4 -0.5044 1.34190   5
   3   0  -4 -1.0920 1.45799   4
   3   0  -4 0.55332 1.57954   3
   3   0  -4 -0.7948 2.68260   1
  -3   0   4 0.28947 1.30930   5
  -3   0   4 1.50484 1.40453   4
  -3   0   4 -1.2009 2.21328   1
   3   0  -4 2.25740 2.16559   6
  -3   0   4 -0.8425 0.71150   9
   2   0  -4 132.591 6.65303   9
  -2   0   4 123.443 4.94017   4
   2   0  -4 120.595 4.95146   1
  -2   0   4 120.240 5.69375   9
   2   0  -4 123.469 5.19997   4
  -2   0   4 118.993 4.56827   1
   2   0  -4 121.332 4.95746   5
  -2   0   4 120.978 5.23762   5
  -2   0   4 118.988 5.60912   2
   1   0  -4 0.47748 0.85424   2
  -1   0   4 -0.8794 1.38349   1
   1   0  -4 -0.0220 0.95751   5
   1   0  -4 0.62395 0.97078   1
   1   0  -4 0.63544 0.81767   9
  -1   0   4 -1.4714 1.02744   5
   1   0  -4 -2.2783 1.81739   4
  -1   0   4 -0.4437 1.27734   4
   0   0  -4 14.8236 1.19112   7
   0   0  -4 12.7464 1.61889   3
   0   0  -4 13.3742 1.65318   5
   0   0   4 14.5113 1.58489   3
   0   0   4 15.5941 1.55822   2
   0   0   4 13.7612 1.90214   5
   0   0  -4 12.6271 1.41406   2
   0   0  -4 13.8141 1.22307   6
   0   0   4 12.2008 1.40867   1
   0   0   4 12.6335 1.28217   7
   1   0   4 0.13469 1.10682   7
   1   0   4 -0.1946 1.15193   2
   1   0   4 0.83351 1.07223   5
   1   0   4 -2.8715 1.85371   3
  -1   0  -4 0.17881 1.16289   7
  -1   0  -4 -0.4952 1.18286   3
  -1   0  -4 0.52708 0.95317   5
   1   0   4 -0.1940 0.74484   6
  -1   0  -4 -0.2764 0.68431   6
  -1   0  -4 -0.6912 1.08056   2
   2   0   4 619.438 26.4775   8
   2   0   4 618.110 34.8575   1
   2   0   4 618.388 22.3944   3
   2   0   4 612.736 24.3757   7
   2   0   4 606.833 16.2392   5
  -2   0  -4 580.856 31.6778   3
  -2   0  -4 599.111 23.6161   5
  -2   0  -4 581.547 26.6037   2
   2   0   4 599.104 17.8109   6
  -2   0  -4 575.168 20.8101   6
  -3   0  -4 -4.8622 1.73865   5
   3   0   4 -2.7862 2.79682   3
   3   0   4 -5.3748 2.28980   1
   3   0   4 -3.4323 1.65184   6
  -3   0  -4 -5.3420 2.45875   3
   3   0   4 -5.1658 1.03525   8
  -3   0  -4 -4.5030 1.83366   2
  -3   0  -4 -5.2510 1.61532   1
   3   0   4 -4.2733 1.69323   7
  -3   0  -4 -2.5622 1.61930   6
   4   0   4 3062.20 86.1232   3
  -4   0  -4 3036.32 119.787   3
  -4   0  -4 3165.01 109.524   2
   4   0   4 3152.94 92.5437   8
   4   0   4 3179.85 100.550   6
  -4   0  -4 2900.53 150.822   5
  -4   0  -4 3082.84 79.2236   1
  -4   0  -4 3099.72 95.8996   6
   4   0   4 3070.28 120.567   4
   4   0   4 3318.53 109.606   1
  -5   0  -4 1.14874 2.55555   6
   5   0   4 -1.3149 2.62269   3
  -5   0  -4 -0.4461 2.42796   5
   5   0   4 -1.5141 2.79552   1
   5   0   4 1.07060 2.48143   6
   5   0   4 -0.4200 2.19179   4
  -5   0  -4 0.54456 3.51793   1
   5   0   4 1.01694 1.56975   8
  -5   0  -4 -0.9874 3.48723   2
   6   0   4 359.593 13.6039   4
  -6   0  -4 314.995 16.4838   5
  -6   0  -4 334.904 11.9899   2
   6   0   4 309.935 12.0296   3
   6   0   4 329.920 11.6888   6
   6   0   4 337.357 18.8577   8
  -6   0  -4 331.413 13.8328   1
   7   0   4 0.74856 5.36614   6
  -7   0  -4 0.08039 3.29888   2
  -7   0  -4 -0.8862 3.27598   5
   7   0   4 -4.2593 3.92164   3
  -7   0  -4 -0.6340 3.69241   1
   7   0   4 0.57428 3.33198   4
   7   0   4 -2.8635 3.27655   8
   8   0   4 74.8273 7.53082   3
  -8   0  -4 63.9092 7.33353   1
   8   0   4 60.3339 8.68603   6
  -8   0  -4 70.2292 6.38653   5
  -8   0  -4 70.5511 7.63022   2
  -9   0  -4 3.56164 5.79927   1
   9   0   4 -2.9562 5.60029   6
   9   0   4 -0.1246 8.03932   7
  -9   0  -4 -4.8292 4.29896   2
   9   0   4 -0.6683 5.13235   3
  10   0   4 126.454 11.9787   7
 -10   0  -4 140.240 11.3556   2
  10   0   4 118.794 11.1916   6
  10   0   4 120.220 13.1763   3
  11  -1  -4 78.3848 12.9918   6
 -11  -1   4 73.0478 10.2772   1
  11   1  -4 46.5244 12.3099   6
 -11   1   4 74.0579 10.5769   1
  11   1  -4 85.6446 11.2263   3
 -10  -1   4 17.9036 6.91154   1
 -10  -1   4 15.6526 5.04590   4
  10  -1  -4 23.9285 7.47734   6
 -10  -1   4 12.1840 6.48834   8
 -10   1   4 22.9201 9.45349   1
  10   1  -4 11.6672 6.86736   6
  10   1  -4 26.8416 6.57537   3
  -9  -1   4 99.2492 31.2066   4
   9  -1  -4 95.2074 9.12882   6
  -9  -1   4 101.704 10.5557   1
  -9  -1   4 92.9518 26.1305   8
  -9  -1   4 90.4852 7.30983   2
   9  -1  -4 91.2679 7.39946   3
  -9   1   4 96.6817 10.6765   1
  -9   1   4 78.6332 6.26075   4
  -9   1   4 89.6764 7.30315   8
   9   1  -4 86.9927 10.4745   3
   9   1  -4 92.1740 9.09135   6
   8  -1  -4 25.8241 6.93944   6
  -8  -1   4 35.7227 5.65204   8
  -8  -1   4 38.8000 5.68450   4
  -8  -1   4 50.4409 4.73417   2
   8  -1  -4 41.0253 5.16944   3
  -8  -1   4 43.9807 7.54596   1
  -8  -1   4 53.0906 6.77095   5
  -8   1   4 49.2024 4.96896   8
  -8   1   4 42.0457 4.09287   4
  -8   1   4 58.4786 8.05632   1
   8   1  -4 36.1710 6.20232   6
   8   1  -4 46.6951 5.66799   3
   7  -1  -4 131.045 9.28111   4
  -7  -1   4 140.925 7.30864   9
  -7  -1   4 138.417 6.97057   5
   7  -1  -4 161.557 8.75693   6
  -7  -1   4 130.128 8.11188   1
  -7  -1   4 155.255 7.33610   8
   7  -1  -4 143.607 6.72559   3
  -7  -1   4 134.075 7.01076   4
  -7  -1   4 138.451 5.99694   2
  -7   1   4 140.198 6.54893   4
  -7   1   4 131.921 7.72438   3
   7   1  -4 142.885 9.40168   6
  -7   1   4 158.036 9.69800   1
  -7   1   4 137.091 7.83384   8
   7   1  -4 140.716 7.58815   3
   6  -1  -4 278.858 12.9861   4
  -6  -1   4 275.455 12.8864   3
  -6  -1   4 286.035 10.9267   1
   6  -1  -4 302.350 10.7243   6
   6  -1  -4 281.886 13.6725   3
  -6  -1   4 280.619 10.0722   8
  -6  -1   4 285.749 9.95696   5
  -6  -1   4 296.378 11.5418   4
  -6   1   4 283.232 10.7780   1
  -6   1   4 297.015 12.6703   9
   6   1  -4 294.632 10.9567   6
  -6   1   4 304.364 9.69081   4
   6   1  -4 280.901 10.2932   3
  -6   1   4 299.382 14.6623   5
  -6   1   4 271.633 16.7092   3
  -6   1   4 281.102 9.68084   8
  -5  -1   4 235.905 13.9262   9
   5  -1  -4 234.904 8.70577   4
  -5  -1   4 242.884 12.7692   3
  -5  -1   4 232.640 9.77972   5
   5  -1  -4 211.009 9.47594   6
   5  -1  -4 218.434 25.5284   1
  -5  -1   4 231.889 8.63047   1
   5  -1  -4 242.459 8.78674   3
  -5  -1   4 231.297 8.84749   8
  -5  -1   4 230.658 8.29439   4
   5   1  -4 220.399 12.3846   1
   5   1  -4 235.488 8.35108   3
  -5   1   4 235.279 12.3831   3
  -5   1   4 235.488 9.41195   1
  -5   1   4 253.159 10.1737   8
  -5   1   4 243.352 9.61557   6
  -5   1   4 244.325 10.7552   5
  -5   1   4 251.986 12.9423   9
   5   1  -4 223.598 9.02020   6
   5   1  -4 223.899 10.5483   4
  -5   1   4 249.144 9.54538   4
   4  -1  -4 215.267 7.60159   6
   4  -1  -4 227.211 10.0546   4
  -4  -1   4 242.583 8.97659   4
   4  -1  -4 205.457 10.3888   1
  -4  -1   4 241.508 8.23742   8
  -4  -1   4 221.905 8.25072   1
   4  -1  -4 225.683 8.45198   3
  -4  -1   4 232.618 9.11074   5
  -4  -1   4 235.191 8.95396   9
  -4  -1   4 224.528 8.54494   3
   4   1  -4 237.245 7.06550   5
  -4   1   4 227.591 8.96706   5
   4   1  -4 232.795 9.62803   1
  -4   1   4 225.695 10.6403   1
  -4   1   4 235.651 7.32738   4
   4   1  -4 241.466 9.04764   4
  -4   1   4 236.073 8.51944   9
  -4   1   4 229.982 11.5698   3
   4   1  -4 231.316 7.64342   3
  -4   1   4 216.130 9.96139   6
  -3  -1   4 38.3290 17.9256   4
   3  -1  -4 35.6818 1.82320   3
   3  -1  -4 34.9914 3.15332   6
   3  -1  -4 34.7368 4.28160   1
  -3  -1   4 34.8579 1.75402   9
   3  -1  -4 35.9567 2.48275   9
  -3  -1   4 33.1615 2.47538   5
  -3  -1   4 37.2311 18.5994   8
   3  -1  -4 33.3893 3.25573   4
  -3  -1   4 34.2451 3.14257   1
  -3   1   4 36.2003 2.39251   9
   3   1  -4 34.4535 2.79711   5
   3   1  -4 31.5246 2.81337   3
  -3   1   4 37.7154 3.03335   4
   3   1  -4 36.4471 3.32245   4
  -3   1   4 29.6593 2.79226   5
  -3   1   4 38.8886 3.41091   1
  -3   1   4 27.0007 3.03386   6
   3   1  -4 28.7246 3.22497   1
  -2  -1   4 -0.0088 1.17313   5
  -2  -1   4 1.36053 0.35645   2
  -2  -1   4 1.25799 1.84900   4
   2  -1  -4 2.17449 0.55616   3
  -2  -1   4 0.24432 1.46785   1
  -2  -1   4 1.90496 1.90038   8
   2  -1  -4 1.12012 1.54721   6
   2  -1  -4 2.12359 1.46453   9
   2  -1  -4 1.73338 1.87941   1
   2   1  -4 0.53346 1.34562   5
   2   1  -4 1.55824 0.37283   9
  -2   1   4 1.34207 1.05120   9
  -2   1   4 1.33598 1.12512   6
   2   1  -4 2.17297 1.47232   4
  -2   1   4 1.79888 1.83246   4
  -2   1   4 1.34846 1.95938   1
  -2   1   4 2.34466 1.10986   2
  -2   1   4 0.20629 1.93567   5
   2   1  -4 1.51459 1.23848   1
  -1  -1   4 3058.84 172.057   5
  -1  -1   4 3055.61 127.839   1
   1  -1  -4 3185.97 156.383   9
   1  -1  -4 2861.59 100.217   3
   1  -1  -4 3019.15 93.4752   6
   1  -1  -4 3043.35 104.808   5
   1  -1  -4 3061.47 97.6641   1
  -1  -1   4 3135.58 122.824   4
   1  -1  -4 3190.01 112.799   2
  -1   1   4 3090.42 99.6456   9
   1   1  -4 3179.76 90.9774   4
  -1   1   4 3107.72 116.777   1
   1   1  -4 3101.03 92.4039   1
   1   1  -4 3146.92 158.312   5
  -1   1   4 3117.06 104.083   5
   1   1  -4 3124.20 96.2788   2
  -1   1   4 3017.40 104.960   2
  -1   1   4 3103.33 93.5188   3
   0  -1   4 633.779 14.7891   5
   0  -1  -4 626.445 25.4531   5
   0  -1  -4 647.617 30.0280   9
   0  -1  -4 613.021 21.5473   2
   0  -1   4 641.794 19.3647   4
   0  -1   4 646.928 26.0766   7
   0  -1  -4 641.506 31.9370   3
   0   1  -4 645.973 24.7827   3
   0   1   4 644.438 18.5108   1
   0   1  -4 634.335 17.4983   5
   0   1  -4 630.362 17.7186   7
   0   1  -4 646.174 21.9720   4
   0   1  -4 640.239 20.5432   2
   0   1   4 624.155 18.4922   2
   0   1   4 640.980 21.1559   9
   0   1  -4 626.882 17.1332   6
   0   1   4 636.163 26.4667   5
   0   1   4 645.462 21.4123   3
   1  -1   4 252.329 7.41612   4
  -1  -1  -4 250.415 11.6165   3
   1  -1   4 264.190 10.5886   7
   1  -1   4 256.509 11.4963   1
   1  -1   4 276.916 9.03925   6
  -1  -1  -4 256.166 11.6083   6
   1  -1   4 267.356 8.99249   3
   1  -1   4 257.551 7.63778   5
  -1  -1  -4 256.436 7.14760   2
  -1  -1  -4 260.861 7.14958   5
   1   1   4 253.903 8.14121   5
  -1   1  -4 261.628 9.71991   1
  -1   1  -4 264.565 11.8895   3
   1   1   4 273.744 11.6276   2
   1   1   4 268.395 9.85964   3
  -1   1  -4 255.298 16.1201   6
  -1   1  -4 272.104 7.91390   5
   1   1   4 275.642 8.01329   6
  -1   1  -4 252.350 13.2726   7
   2  -1   4 959.251 30.4107   6
  -2  -1  -4 950.614 23.0630   2
  -2  -1  -4 943.397 25.9938   6
   2  -1   4 982.737 31.9955   7
  -2  -1  -4 891.326 25.5653   5
   2  -1   4 921.530 41.4111   1
  -2  -1  -4 945.317 45.4812   3
   2  -1   4 922.291 31.6668   3
   2  -1   4 945.933 31.9612   5
  -2   1  -4 962.937 29.9686   1
  -2   1  -4 944.688 23.8710   3
   2   1   4 959.141 27.3954   3
   2   1   4 955.015 39.4352   8
  -2   1  -4 931.425 64.1442   5
  -2   1  -4 952.906 30.3640   7
   2   1   4 966.770 21.4977   5
   2   1   4 957.181 38.9095   2
   2   1   4 957.180 25.1667   6
  -2   1  -4 934.608 27.6034   6
  -3  -1  -4 270.945 8.77277   2
  -3  -1  -4 285.224 9.44523   6
   3  -1   4 269.406 9.71262   1
   3  -1   4 300.473 10.5364   7
   3  -1   4 283.949 8.87600   6
   3  -1   4 283.852 10.2330   8
  -3  -1  -4 266.891 7.51042   5
   3  -1   4 269.404 8.30379   3
  -3  -1  -4 263.395 14.2060   3
  -3   1  -4 278.589 10.2288   3
  -3   1  -4 273.859 10.2567   6
   3   1   4 274.050 9.53011   6
   3   1   4 270.393 8.95464   5
  -3   1  -4 285.583 13.3744   5
  -3   1  -4 281.025 12.3029   1
   3   1   4 279.878 12.7443   3
   3   1   4 292.305 10.6066   2
   3   1   4 303.334 13.1699   1
   3   1   4 293.321 13.6416   8
   4  -1   4 170.297 6.23566   8
  -4  -1  -4 181.353 7.60378   3
   4  -1   4 188.771 7.82175   7
   4  -1   4 175.812 7.53797   3
   4  -1   4 181.499 9.36236   4
  -4  -1  -4 174.153 8.04224   5
  -4  -1  -4 177.637 6.18618   8
  -4  -1  -4 181.340 7.29442   2
   4  -1   4 191.295 7.94905   6
   4  -1   4 184.403 6.81478   1
  -4  -1  -4 180.701 7.83716   6
   4   1   4 182.324 7.75176   8
   4   1   4 172.378 7.86231   4
   4   1   4 164.501 6.39485   6
  -4   1  -4 183.866 9.75271   6
   4   1   4 174.220 7.26580   1
  -4   1  -4 168.981 6.74724   1
  -4   1  -4 159.751 8.77240   3
  -4   1  -4 165.814 6.98619   5
   4   1   4 178.572 8.13221   3
  -5  -1  -4 153.506 7.18454   2
  -5  -1  -4 149.118 7.70968   6
  -5  -1  -4 157.522 5.35029   5
   5  -1   4 144.239 8.67159   1
   5  -1   4 155.961 7.84039   3
  -5  -1  -4 141.602 6.02858   8
   5  -1   4 153.808 8.10835   6
   5  -1   4 141.014 8.36587   7
   5  -1   4 159.579 5.52764   8
   5  -1   4 159.695 6.64966   4
  -5   1  -4 144.968 7.97081   3
  -5   1  -4 157.607 9.22809   5
   5   1   4 165.316 7.14660   4
  -5   1  -4 153.698 6.98283   1
   5   1   4 152.414 7.79024   3
   5   1   4 156.453 7.53444   8
   5   1   4 146.077 7.44741   6
  -6  -1  -4 370.293 16.1014   8
   6  -1   4 383.593 13.5228   7
  -6  -1  -4 359.307 11.6449   2
   6  -1   4 389.266 15.2247   6
   6  -1   4 371.871 12.6200   3
  -6  -1  -4 364.756 17.5879   5
   6  -1   4 375.061 16.0800   8
   6  -1   4 371.467 17.8554   4
   6   1   4 369.288 28.9751   6
   6   1   4 404.123 23.6215   4
  -6   1  -4 373.180 17.3673   1
   6   1   4 375.936 22.5365   8
   6   1   4 370.526 14.4024   3
  -6   1  -4 383.112 13.8065   5
  -7  -1  -4 518.814 23.8579   5
  -7  -1  -4 517.638 28.3082   5
   7  -1   4 507.478 16.4580   3
   7  -1   4 536.891 22.1371   8
  -7  -1  -4 496.348 15.5195   2
   7  -1   4 510.526 18.6192   6
   7  -1   4 556.600 23.7974   4
   7  -1   4 536.044 21.4762   7
  -7  -1  -4 521.139 20.2075   8
  -7   1  -4 519.384 19.4744   5
   7   1   4 532.298 20.4943   6
   7   1   4 537.875 21.8541   3
  -7   1  -4 509.701 22.4123   2
  -7   1  -4 521.795 16.2780   1
   8  -1   4 130.007 9.17762   3
   8  -1   4 122.413 11.0165   7
   8  -1   4 109.094 9.05494   6
  -8  -1  -4 131.979 8.03095   2
  -8   1  -4 109.231 8.62239   1
   8   1   4 91.6482 8.50054   3
   8   1   4 108.302 9.82481   6
  -9  -1  -4 41.2622 13.2373   2
   9  -1   4 30.8408 7.63403   7
   9  -1   4 35.9858 8.70005   3
   9  -1   4 23.8308 7.23380   6
  -9   1  -4 38.5537 7.18842   5
  -9   1  -4 40.3085 8.55622   2
   9   1   4 23.4336 8.71033   6
   9   1   4 36.2608 7.20561   3
  -9   1  -4 29.3221 6.85231   1
  10  -1   4 8.58335 10.2826   7
 -10  -1  -4 18.9082 7.93905   2
  10  -1   4 13.7182 9.98184   6
  10  -1   4 10.3521 9.45450   3
  10   1   4 15.2562 7.10442   3
 -10   1  -4 16.3378 9.38221   1
  10   1   4 14.3165 7.17016   6
 -10   1  -4 13.7038 6.65018   2
 -11  -2   4 -8.0679 8.19616   8
  11  -2  -4 -5.2795 7.89654   6
  11  -2  -4 0.33424 8.45455   7
 -11   2   4 -5.5907 7.49711   1
  11   2  -4 9.45024 10.9505   6
  11   2  -4 1.28194 9.77206   3
 -10  -2   4 -2.4691 4.62264   4
 -10  -2   4 0.23275 6.83042   8
 -10  -2   4 -0.9504 6.00956   1
  10  -2  -4 7.03124 6.72753   6
  10   2  -4 -6.8666 9.03862   6
 -10   2   4 2.84967 10.0896   1
  10   2  -4 3.66620 6.52656   3
  -9  -2   4 2.21486 4.39017   8
   9  -2  -4 5.25567 5.63967   6
   9  -2  -4 1.23558 4.38358   3
  -9  -2   4 3.46931 2.74543   2
  -9  -2   4 4.12679 5.49734   1
  -9  -2   4 3.94377 4.49246   4
  -9   2   4 2.23458 5.41980   1
   9   2  -4 7.64916 7.08994   3
   9   2  -4 8.19591 7.86910   6
  -8  -2   4 490.683 21.1769   2
  -8  -2   4 505.769 24.2863   8
  -8  -2   4 505.779 19.0080   1
   8  -2  -4 504.841 19.9419   3
   8  -2  -4 486.941 17.8813   6
  -8  -2   4 493.538 21.9286   4
   8   2  -4 492.476 27.5042   3
   8   2  -4 516.583 20.4938   6
  -8   2   4 494.475 28.3526   4
  -8   2   4 511.028 19.9468   1
  -8   2   4 501.631 36.1028   8
  -7  -2   4 130.931 7.33268   8
  -7  -2   4 135.292 6.45437   5
   7  -2  -4 131.789 7.08386   4
   7  -2  -4 126.044 8.97627   6
   7  -2  -4 128.878 6.46438   3
  -7  -2   4 134.790 7.37306   4
  -7  -2   4 137.022 5.33498   2
  -7  -2   4 136.281 8.26850   1
   7   2  -4 143.209 8.42900   3
  -7   2   4 135.572 6.40595   4
   7   2  -4 138.503 9.68045   6
  -7   2   4 145.026 8.80009   1
  -7   2   4 127.164 6.81053   8
   6  -2  -4 380.469 27.2727   3
  -6  -2   4 382.110 12.1112   4
   6  -2  -4 359.570 18.1226   4
  -6  -2   4 367.516 12.3628   2
   6  -2  -4 377.265 14.6477   6
  -6  -2   4 370.874 13.7790   5
  -6  -2   4 380.850 14.6596   1
  -6  -2   4 381.062 13.7170   8
  -6   2   4 398.603 12.8329   4
   6   2  -4 381.857 12.7766   3
  -6   2   4 385.941 14.4380   8
   6   2  -4 346.581 20.3677   6
  -6   2   4 380.109 15.0392   1
  -6   2   4 372.273 20.7832   3
  -5  -2   4 586.129 20.4130   2
   5  -2  -4 585.720 25.8111   6
  -5  -2   4 590.326 23.6816   5
   5  -2  -4 578.534 21.1872   3
  -5  -2   4 582.484 19.2202   1
  -5  -2   4 613.725 24.9583   8
  -5  -2   4 625.849 22.1552   4
  -5  -2   4 601.271 22.0889   3
  -5   2   4 634.462 33.1722   9
  -5   2   4 612.222 20.9775   3
   5   2  -4 601.824 21.6735   5
  -5   2   4 641.710 56.5001   5
  -5   2   4 593.947 19.5003   4
   5   2  -4 606.070 16.9333   3
  -5   2   4 638.916 25.0469   1
   4  -2  -4 821.356 35.2080   1
  -4  -2   4 811.790 20.3110   5
   4  -2  -4 816.106 23.5844   3
   4  -2  -4 811.983 25.6351   6
  -4  -2   4 885.753 33.7087   8
  -4  -2   4 856.251 28.9605   4
  -4  -2   4 845.183 22.8625   1
  -4  -2   4 794.683 26.4995   2
   4   2  -4 850.895 36.4591   1
   4   2  -4 795.212 21.6545   3
  -4   2   4 870.402 34.8273   9
   4   2  -4 852.409 30.2684   5
  -4   2   4 859.185 24.8629   4
  -4   2   4 900.020 33.8251   6
  -4   2   4 865.277 22.4324   1
   4   2  -4 863.256 38.1166   4
   4   2  -4 874.026 36.9734   8
  -4   2   4 858.528 20.8739   3
  -3  -2   4 26.3079 16.7899   8
   3  -2  -4 11.2357 3.16401   1
  -3  -2   4 32.1039 22.1389   4
  -3  -2   4 9.66622 2.05331   1
   3  -2  -4 10.4208 2.11873   6
  -3  -2   4 11.1100 1.97326   5
   3  -2  -4 9.86244 2.10149   9
   3   2  -4 7.26810 2.66371   1
   3   2  -4 9.38595 3.44025   3
  -3   2   4 8.00959 2.67880   6
  -3   2   4 15.6849 2.76610   2
   3   2  -4 8.50970 2.32761   5
   3   2  -4 10.4803 3.00579   8
  -3   2   4 12.2560 2.05566   9
  -3   2   4 10.3183 2.16556   4
   3   2  -4 9.97660 2.29738   4
  -3   2   4 34.2184 27.0123   1
   2  -2  -4 604.007 20.6416   6
  -2  -2   4 572.340 26.0090   5
   2  -2  -4 624.792 26.5727   9
  -2  -2   4 600.825 19.3402   8
  -2  -2   4 572.524 16.0754   4
   2  -2  -4 586.240 34.0308   1
   2   2  -4 589.033 19.8317   2
  -2   2   4 605.631 31.7064   2
   2   2  -4 619.077 20.7923   8
  -2   2   4 613.892 15.6815   6
  -2   2   4 576.051 28.8576   9
   2   2  -4 596.061 19.9858   9
   2   2  -4 604.006 21.7618   1
   2   2  -4 590.744 18.7427   4
   2   2  -4 619.263 30.2474   5
  -2   2   4 583.292 19.0716   1
  -1  -2   4 336.314 9.95527   4
   1  -2  -4 330.912 16.5187   1
  -1  -2   4 331.961 8.82710   8
   1  -2  -4 321.263 14.1034   3
  -1  -2   4 339.062 12.6578   5
   1  -2  -4 338.162 9.11702   9
   1  -2  -4 337.816 10.1554   6
   1  -2  -4 322.516 8.19736   2
   1  -2  -4 344.410 13.2989   7
  -1   2   4 346.212 10.3798   1
  -1   2   4 331.640 13.3166   2
   1   2  -4 344.915 14.8773   8
   1   2  -4 363.771 8.49962   4
  -1   2   4 338.075 9.10054   6
   1   2  -4 341.848 13.4959   7
  -1   2   4 332.528 9.78395   5
   1   2  -4 330.354 10.2101   5
  -1   2   4 346.636 8.32934   3
  -1   2   4 336.328 11.7071   9
   1   2  -4 333.580 8.45571   1
   0  -2  -4 2606.31 81.8972   3
   0  -2   4 2634.29 76.5803   5
   0  -2  -4 2612.14 70.4867   2
   0  -2  -4 2565.39 89.3679   9
   0  -2   4 2616.62 67.6747   4
   0  -2   4 2656.59 109.927   7
   0  -2  -4 2593.19 100.480   7
   0  -2   4 2639.40 82.0957   8
   0   2   4 2596.04 68.7037   9
   0   2   4 2629.04 86.6470   2
   0   2  -4 2603.17 123.193   1
   0   2   4 2693.84 87.7272   6
   0   2   4 2663.79 100.293   7
   0   2  -4 2669.29 73.0197   6
   0   2   4 2642.21 70.6303   1
   0   2  -4 2726.81 105.694   7
   0   2   4 2627.52 80.6668   5
   0   2   4 2709.90 71.2371   3
   0   2  -4 2753.14 74.5007   4
   0   2  -4 2696.38 86.1350   5
   1  -2   4 116.900 4.64351   4
   1  -2   4 119.608 4.25638   8
  -1  -2  -4 113.979 4.32628   9
   1  -2   4 129.845 5.65494   6
  -1  -2  -4 116.550 4.74157   3
  -1  -2  -4 119.742 4.48622   2
   1  -2   4 119.703 5.15432   7
   1  -2   4 109.351 6.15628   5
   1  -2   4 114.871 5.73677   1
  -1   2  -4 117.591 8.18686   6
  -1   2  -4 123.749 4.35751   4
  -1   2  -4 120.269 6.33393   3
   1   2   4 123.182 4.67164   2
  -1   2  -4 120.006 3.65545   1
   1   2   4 119.674 6.19983   8
   1   2   4 121.106 5.04975   3
  -1   2  -4 111.438 9.17262   7
   1   2   4 122.058 3.99697   5
  -1   2  -4 119.274 5.58001   5
   2  -2   4 36.3030 3.56985   3
   2  -2   4 27.5599 4.25914   5
   2  -2   4 32.2214 5.73981   7
   2  -2   4 35.4187 1.97297   8
  -2  -2  -4 32.3690 2.75365   2
   2  -2   4 36.9947 2.41465   1
  -2  -2  -4 32.3779 3.23675   3
   2  -2   4 35.4427 1.57560   4
  -2  -2  -4 36.4960 3.09050   9
   2  -2   4 36.4915 5.65286   6
  -2   2  -4 35.6125 3.10720   3
  -2   2  -4 37.1112 2.48397   1
   2   2   4 41.0084 2.36603   6
   2   2   4 34.9054 3.01847   8
   2   2   4 37.8826 1.93960   5
   2   2   4 39.6014 4.00755   2
  -2   2  -4 42.8911 3.45247   6
   2   2   4 34.7789 3.26163   3
  -2   2  -4 34.3808 4.35101   5
  -2   2  -4 41.7610 4.09341   7
   3  -2   4 96.5868 5.25298   6
  -3  -2  -4 82.5016 4.29277   2
   3  -2   4 87.8438 4.74977   3
   3  -2   4 86.1581 2.90355   4
   3  -2   4 89.0619 3.11896   8
   3  -2   4 96.9132 4.75058   1
  -3  -2  -4 86.2311 5.22058   3
   3  -2   4 82.4048 5.12202   7
  -3  -2  -4 78.7751 4.41983   8
  -3   2  -4 83.3473 5.11102   6
   3   2   4 90.3413 5.33694   3
  -3   2  -4 80.8378 5.71652   7
  -3   2  -4 88.3498 5.64012   5
   3   2   4 91.0899 5.22042   8
   3   2   4 97.2769 4.10178   6
   3   2   4 85.8493 4.65726   2
  -3   2  -4 84.0232 4.03375   1
  -3   2  -4 88.4220 4.88804   3
  -4  -2  -4 17.3735 3.53889   8
   4  -2   4 21.7245 3.89142   3
   4  -2   4 18.8780 3.48895   6
  -4  -2  -4 14.3628 3.31788   2
   4  -2   4 20.4633 3.09138   1
   4  -2   4 19.4889 3.68799   7
  -4   2  -4 19.6962 3.34348   1
   4   2   4 16.7644 3.65090   4
   4   2   4 12.1288 2.83024   8
   4   2   4 13.2208 4.45943   3
  -4   2  -4 15.2394 4.13908   6
   4   2   4 15.7354 2.60811   6
  -4   2  -4 14.0854 2.95932   3
   4   2   4 21.2749 3.93508   2
   4   2   4 15.9305 3.65062   1
  -4   2  -4 17.1057 4.63562   5
   5  -2   4 -0.4998 0.41186   4
   5  -2   4 4.48522 4.35589   1
  -5  -2  -4 -0.7390 2.29077   8
   5  -2   4 0.33681 0.38105   4
   5  -2   4 -2.1611 4.61024   7
   5  -2   4 -1.0382 2.58069   3
  -5  -2  -4 0.03805 2.32021   2
   5  -2   4 -2.1327 4.31904   6
  -5   2  -4 -5.3054 4.46816   5
   5   2   4 -1.0091 4.41437   3
  -5   2  -4 2.03401 4.05690   3
  -5   2  -4 -0.5395 3.31270   1
   5   2   4 -0.8607 2.33914   6
   6  -2   4 364.705 14.3756   7
   6  -2   4 344.558 12.3047   4
  -6  -2  -4 350.472 14.4896   8
   6  -2   4 373.839 40.3820   3
  -6  -2  -4 383.367 41.5650   2
   6  -2   4 370.187 14.1640   6
  -6   2  -4 358.605 12.0994   1
   6   2   4 389.866 13.7926   3
   6   2   4 334.607 11.9255   6
  -6   2  -4 368.165 25.3746   5
  -7  -2  -4 71.6646 6.64493   2
   7  -2   4 59.0331 3.63932   4
   7  -2   4 49.5718 6.54134   6
   7  -2   4 68.3545 7.58665   7
  -7  -2  -4 57.9313 5.45669   8
   7  -2   4 80.2578 7.60614   3
  -7   2  -4 77.4925 7.20513   5
   7   2   4 69.8282 7.26580   6
  -7   2  -4 55.2545 6.09041   1
   7   2   4 52.3058 6.69218   3
   8  -2   4 48.3538 7.51724   3
  -8  -2  -4 45.7120 6.62452   2
  -8  -2  -4 25.7050 6.14606   8
   8  -2   4 37.3313 7.21125   7
   8  -2   4 40.0585 6.99227   6
   8   2   4 33.2176 6.04188   6
  -8   2  -4 33.7045 7.67614   1
  -8   2  -4 36.5797 6.46684   5
   8   2   4 30.8272 6.67134   3
  -9  -2  -4 -1.4778 4.29381   8
  -9  -2  -4 0.03823 4.29127   2
   9  -2   4 3.46566 8.96194   7
   9  -2   4 0.00000 8.40766   6
   9  -2   4 1.79581 5.13350   3
   9   2   4 -2.5307 6.10093   3
  -9   2  -4 4.85359 5.80781   1
  -9   2  -4 0.80054 5.27356   5
  -9   2  -4 -10.361 7.61765   2
   9   2   4 4.56043 7.56272   6
  10  -2   4 24.4870 8.20162   6
 -10  -2  -4 48.9181 6.93765   2
  10  -2   4 21.1079 8.42595   7
  10  -2   4 45.6301 9.80056   3
 -10   2  -4 34.9133 10.1558   1
  10   2   4 35.5276 7.91908   6
 -10   2  -4 37.0501 8.22932   2
  10   2   4 40.0731 11.0218   3
 -10  -3   4 27.0920 8.88504   8
  10  -3  -4 33.5928 8.66469   7
  10  -3  -4 29.6518 8.20634   6
 -10  -3   4 33.8497 7.25551   4
 -10   3   4 44.3862 8.91241   1
  10   3  -4 51.8597 9.06612   3
  10   3  -4 35.2521 11.0903   6
  -9  -3   4 53.7319 8.50816   8
  -9  -3   4 70.9407 8.94825   4
   9  -3  -4 71.7995 8.61783   6
   9  -3  -4 76.0478 10.9439   7
   9   3  -4 71.1259 8.92489   6
  -9   3   4 81.9858 9.14509   1
   9   3  -4 84.0883 10.9614   3
   8  -3  -4 2.99438 5.04252   7
   8  -3  -4 2.23897 4.78451   6
  -8  -3   4 -1.0131 4.08404   8
  -8  -3   4 0.75594 2.41862   2
  -8  -3   4 3.10309 4.14077   4
   8  -3  -4 -0.1977 2.89566   3
   8   3  -4 -0.7590 4.68390   3
  -8   3   4 -1.6241 4.52726   1
   8   3  -4 2.63841 6.88283   6
   7  -3  -4 536.869 19.6974   6
   7  -3  -4 498.629 25.6281   7
  -7  -3   4 503.814 34.9759   5
  -7  -3   4 508.094 18.9783   2
  -7  -3   4 538.000 13.6412   9
   7  -3  -4 529.388 15.4101   3
  -7  -3   4 543.391 18.0656   8
  -7  -3   4 523.121 18.9489   4
  -7   3   4 537.763 25.9381   8
  -7   3   4 565.573 25.5083   1
   7   3  -4 527.679 19.5759   3
   7   3  -4 562.086 18.6726   6
  -7   3   4 541.141 20.7164   4
   6  -3  -4 151.008 6.05461   3
  -6  -3   4 147.628 6.94963   2
  -6  -3   4 151.257 4.41388   9
  -6  -3   4 142.407 9.60206   8
   6  -3  -4 142.131 8.50238   7
  -6  -3   4 149.521 7.68678   5
   6  -3  -4 140.417 8.88901   6
  -6  -3   4 139.784 8.10933   4
   6   3  -4 142.295 6.55467   5
  -6   3   4 149.041 8.87098   1
   6   3  -4 158.139 9.00844   3
  -6   3   4 155.308 6.02650   8
  -6   3   4 131.011 8.11332   3
  -6   3   4 151.114 5.88450   4
  -5  -3   4 243.365 9.28318   2
  -5  -3   4 249.444 7.55499   9
  -5  -3   4 249.062 10.5965   8
   5  -3  -4 247.871 9.92604   7
  -5  -3   4 259.249 8.85888   5
  -5  -3   4 248.518 9.65750   4
   5  -3  -4 231.744 9.29776   6
   5   3  -4 241.424 11.0721   3
  -5   3   4 251.952 8.09290   4
  -5   3   4 253.678 11.7597   1
   5   3  -4 245.301 7.41763   5
  -5   3   4 248.162 9.19842   3
  -4  -3   4 646.148 24.6605   8
  -4  -3   4 667.579 20.1627   4
  -4  -3   4 649.533 19.9290   9
  -4  -3   4 637.599 19.3749   2
   4  -3  -4 660.174 23.0786   7
  -4  -3   4 656.035 26.7443   5
   4  -3  -4 655.044 20.8919   6
   4   3  -4 681.921 38.1825   5
  -4   3   4 683.343 44.7945   9
  -4   3   4 690.050 18.2160   3
  -4   3   4 682.173 31.4186   6
   4   3  -4 691.732 31.5747   1
   4   3  -4 662.725 17.5162   3
  -4   3   4 681.034 22.6323   1
  -4   3   4 694.839 19.5415   4
  -3  -3   4 2821.86 71.2042   4
   3  -3  -4 2712.71 67.3904   6
  -3  -3   4 2818.28 66.9491   8
  -3  -3   4 2797.01 151.035   5
   3  -3  -4 2889.01 128.274   9
   3  -3  -4 2881.83 69.2588   7
   3  -3  -4 2784.28 169.910   1
  -3   3   4 2984.70 140.895   9
   3   3  -4 3027.30 128.532   8
   3   3  -4 2945.76 124.823   2
   3   3  -4 2986.51 118.156   4
  -3   3   4 2916.66 120.880   6
  -3   3   4 2947.85 81.2515   1
  -3   3   4 2795.12 70.0632   3
   3   3  -4 2921.93 114.023   1
   3   3  -4 2938.90 83.3506   3
   3   3  -4 2869.15 82.0720   5
  -3   3   4 2640.05 84.1040   3
  -3   3   4 2962.21 123.250   2
   2  -3  -4 268.296 13.4732   1
  -2  -3   4 296.344 8.66545   4
  -2  -3   4 299.883 9.55372   8
   2  -3  -4 300.332 14.5005   9
  -2  -3   4 294.162 15.8539   5
   2  -3  -4 308.521 8.54093   6
   2  -3  -4 309.498 14.1202   7
   2   3  -4 301.737 11.4478   7
   2   3  -4 310.957 16.8028   5
   2   3  -4 306.587 11.4981   8
   2   3  -4 293.232 11.6081   9
  -2   3   4 305.298 16.8083   9
   2   3  -4 310.612 9.03462   4
  -2   3   4 302.268 11.2556   3
  -2   3   4 321.347 10.9787   1
   2   3  -4 307.706 12.2600   3
   2   3  -4 299.180 8.92818   2
   2   3  -4 315.014 13.5261   1
  -2   3   4 318.993 15.7651   6
  -2   3   4 307.410 11.9106   2
   1  -3  -4 0.45642 1.15551   6
   1  -3  -4 -0.3308 1.66650   2
   1  -3  -4 2.30389 1.74698   9
  -1  -3   4 -1.4282 2.92000   5
   1  -3  -4 0.12052 1.62147   7
  -1  -3   4 2.01880 1.61382   4
  -1  -3   4 1.27789 1.65375   8
  -1  -3   4 -0.7355 2.28428   7
   1  -3  -4 0.31985 1.38209   3
   1  -3  -4 1.52056 2.61681   1
  -1   3   4 -0.2584 1.60453   7
  -1   3   4 0.58947 1.43746   3
   1   3  -4 -2.3862 2.07539   7
   1   3  -4 0.37101 2.32972   8
  -1   3   4 3.18467 2.46786   2
   1   3  -4 0.69328 2.48490   4
  -1   3   4 0.00000 4.57167   1
   1   3  -4 0.04670 2.04102   5
  -1   3   4 1.79708 1.55809   6
   1   3  -4 -0.7833 1.22970   9
  -1   3   4 0.62144 1.62464   9
   0  -3   4 14.1220 2.29998   8
   0  -3  -4 12.5989 2.17905   9
   0  -3   4 17.6515 3.17350   5
   0  -3  -4 16.2562 2.36668   2
   0  -3  -4 18.0502 1.76724   7
   0  -3   4 12.8858 2.63476   7
   0  -3  -4 18.2778 2.68018   3
   0  -3   4 17.4811 1.97373   4
   0   3   4 17.2627 1.79224   7
   0   3  -4 17.5509 2.34972   9
   0   3   4 16.4244 2.17864   3
   0   3   4 13.9198 2.34635   2
   0   3  -4 14.0314 3.74695   5
   0   3   4 18.3838 3.21362   1
   0   3  -4 14.0830 2.36822   4
   0   3   4 14.6891 2.22595   9
   0   3  -4 13.5957 2.69288   7
   0   3  -4 15.7337 1.97069   1
   0   3  -4 16.1792 2.69390   6
   0   3   4 16.4596 1.71219   6
   0   3  -4 15.0165 2.41645   8
   0   3   4 51.2713 19.5940   8
   1  -3   4 237.645 10.0068   6
  -1  -3  -4 236.895 9.39655   3
   1  -3   4 246.201 7.19956   4
   1  -3   4 239.426 9.71316   1
   1  -3   4 220.212 10.9349   5
  -1  -3  -4 229.961 8.56898   2
  -1  -3  -4 226.580 7.03315   9
   1  -3   4 247.461 13.0544   7
   1  -3   4 222.199 6.72707   8
  -1   3  -4 232.211 10.3203   6
   1   3   4 239.195 7.42003   5
   1   3   4 220.837 7.45390   2
  -1   3  -4 246.801 61.3311   5
  -1   3  -4 246.922 9.67401   4
   1   3   4 233.397 10.9429   8
   1   3   4 238.718 8.15005   3
  -1   3  -4 238.174 10.0129   1
   1   3   4 238.589 6.97752   7
  -1   3  -4 218.359 15.1902   7
   1   3   4 235.179 8.61441   9
  -2  -3  -4 172.234 7.02934   3
  -2  -3  -4 163.359 5.97461   9
   2  -3   4 159.037 9.69665   1
   2  -3   4 154.912 6.37529   8
   2  -3   4 167.079 6.93473   6
  -2  -3  -4 160.458 6.39790   2
   2  -3   4 160.524 7.28353   7
   2  -3   4 159.926 7.65042   4
   2   3   4 159.555 6.88771   3
   2   3   4 165.206 7.02355   8
  -2   3  -4 172.062 5.68516   4
   2   3   4 165.594 6.50091   2
  -2   3  -4 168.904 7.03494   1
   2   3   4 156.760 4.54629   5
  -2   3  -4 175.425 8.60484   7
  -2   3  -4 158.079 6.88887   6
  -2   3  -4 151.788 7.02539   3
  -2   3  -4 152.424 10.3685   5
   3  -3   4 1850.63 45.2081   6
  -3  -3  -4 1907.44 46.9048   8
   3  -3   4 1946.53 46.4437   7
  -3  -3  -4 1851.76 96.9112   3
   3  -3   4 1736.01 68.6475   1
  -3  -3  -4 1837.71 45.7341   9
  -3  -3  -4 1808.15 55.9025   2
   3   3   4 1979.30 61.1509   2
  -3   3  -4 1838.65 78.5750   5
   3   3   4 1957.99 97.6489   8
  -3   3  -4 1882.22 90.5117   3
   3   3   4 1877.72 51.1792   5
   3   3   4 1959.55 61.2523   3
  -3   3  -4 1958.40 55.5027   1
   3   3   4 1986.17 107.143   4
   3   3   4 1847.71 52.5422   5
   3   3   4 1814.74 49.1129   6
  -3   3  -4 1904.93 110.105   6
  -3   3  -4 1939.31 112.914   7
   4  -3   4 21.6345 3.93403   6
  -4  -3  -4 18.7649 3.53596   2
   4  -3   4 18.6927 4.08294   3
  -4  -3  -4 11.0219 3.95608   8
   4  -3   4 19.2603 3.97136   7
  -4  -3  -4 16.4144 3.31362   9
   4  -3   4 13.0859 3.28101   1
  -4   3  -4 18.8889 4.41923   5
   4   3   4 10.0721 2.85698   2
   4   3   4 19.0828 5.01323   3
   4   3   4 12.4231 2.53883   6
  -4   3  -4 9.52923 2.93339   3
  -4   3  -4 15.2481 3.50105   1
  -5  -3  -4 1.57969 2.93609   8
  -5  -3  -4 2.75465 3.46439   2
   5  -3   4 -0.0410 16.4795   6
   5  -3   4 1.14881 2.77687   3
   5  -3   4 -1.4215 4.74618   1
   5  -3   4 6.34691 17.9529   7
  -5   3  -4 -1.7820 8.37697   3
   5   3   4 -0.0416 2.44177   6
  -5   3  -4 3.07755 3.70400   1
   5   3   4 -4.9612 9.48135   2
   5   3   4 1.17069 3.73017   3
  -5   3  -4 4.03562 4.06700   5
   6  -3   4 281.084 13.8182   7
   6  -3   4 260.552 11.0430   3
  -6  -3  -4 277.419 9.73677   2
  -6  -3  -4 267.784 10.4536   8
   6  -3   4 273.255 13.2652   6
  -6   3  -4 282.475 15.2925   5
   6   3   4 259.919 12.8848   3
   6   3   4 253.488 11.1394   6
  -6   3  -4 291.965 10.9077   1
   7  -3   4 46.8092 6.90871   6
   7  -3   4 60.6279 6.08003   3
  -7  -3  -4 54.8019 5.21299   2
   7  -3   4 61.6124 9.22097   7
  -7  -3  -4 54.1228 7.00285   8
   7   3   4 48.9490 6.97573   6
  -7   3  -4 56.2666 8.96120   5
  -7   3  -4 52.0772 6.21059   1
   7   3   4 48.4590 7.14119   3
   8  -3   4 5.96648 6.28149   7
  -8  -3  -4 -0.8601 5.97788   8
   8  -3   4 8.41676 6.62353   3
  -8  -3  -4 4.23665 3.74825   2
   8  -3   4 -0.9986 5.33613   6
  -8   3  -4 3.78639 4.59092   1
  -8   3  -4 14.1235 8.59118   5
   8   3   4 -4.1850 8.04798   3
   8   3   4 1.01209 6.30585   6
  -9  -3  -4 153.355 9.24207   2
  -9  -3  -4 137.889 10.3228   8
   9  -3   4 142.509 12.4073   7
   9  -3   4 133.820 11.4946   6
   9  -3   4 157.315 11.3600   3
   9   3   4 142.186 12.3008   3
   9   3   4 144.735 11.7655   6
  -9   3  -4 130.868 11.7583   1
  -9   3  -4 169.415 14.3177   5
  10  -3   4 5.39905 11.0356   7
  10  -3   4 1.59270 7.28324   6
  10  -3   4 0.00000 6.01231   3
 -10   3  -4 4.47577 7.02467   5
 -10   3  -4 -4.4679 6.91022   2
  10   3   4 -1.0633 6.35912   6
 -10   3  -4 0.38113 9.89210   1
  10   3   4 4.16417 10.9897   3
  10  -4  -4 187.745 15.3268   6
  10  -4  -4 214.561 17.2854   7
 -10  -4   4 157.669 13.3070   8
 -10   4   4 174.399 15.7598   1
  10   4  -4 178.463 14.8859   6
  10   4  -4 196.887 17.5892   3
  -9  -4   4 -0.1139 5.22529   4
   9  -4  -4 -6.1390 6.19532   7
   9  -4  -4 0.51254 8.27298   6
  -9  -4   4 1.53774 5.14367   8
   9   4  -4 3.30290 6.87357   3
   9   4  -4 -0.8890 6.42335   6
  -9   4   4 3.67957 6.43611   1
  -8  -4   4 43.6189 7.90579   4
   8  -4  -4 57.0464 9.76214   7
  -8  -4   4 40.4190 7.87730   8
   8  -4  -4 55.6672 9.05836   6
   8   4  -4 41.3962 9.25986   6
  -8   4   4 49.3423 7.90374   1
   8   4  -4 38.5146 7.72211   3
  -7  -4   4 14.7528 6.24099   8
  -7  -4   4 6.84385 1.94972   9
   7  -4  -4 15.0668 12.7416   7
  -7  -4   4 18.0573 4.87828   4
   7  -4  -4 15.7998 14.6622   6
  -7  -4   4 8.01804 1.55011   2
   7   4  -4 16.6195 6.16066   3
  -7   4   4 13.6747 5.55337   1
  -6  -4   4 922.471 38.4116   9
   6  -4  -4 1019.88 31.3315   6
  -6  -4   4 963.535 45.8247   5
  -6  -4   4 983.453 26.4807   8
  -6  -4   4 998.685 30.1852   4
   6  -4  -4 963.671 30.7487   7
  -6  -4   4 919.991 38.3685   2
   6   4  -4 1012.57 30.2465   3
  -6   4   4 1043.05 25.9838   1
   6   4  -4 1003.63 60.9064   5
  -6   4   4 1038.03 52.6085   4
  -5  -4   4 120.433 7.18411   8
   5  -4  -4 119.300 8.25655   7
  -5  -4   4 127.391 4.43532   9
  -5  -4   4 122.835 5.81021   5
  -5  -4   4 121.323 7.07408   4
   5  -4  -4 122.531 7.17915   6
   5   4  -4 112.332 5.54219   5
  -5   4   4 123.982 8.37138   1
  -5   4   4 116.843 3.83349   3
  -5   4   4 112.539 6.34633   4
   5   4  -4 115.793 8.40333   3
  -4  -4   4 627.935 20.3110   4
   4  -4  -4 605.562 15.7423   6
   4  -4  -4 624.024 22.7302   7
  -4  -4   4 623.992 16.7723   9
  -4  -4   4 633.052 22.9740   8
  -4  -4   4 614.781 36.2974   5
  -4   4   4 623.998 16.6585   4
   4   4  -4 613.743 31.1091   1
  -4   4   4 628.959 20.1439   1
   4   4  -4 621.257 27.1261   3
  -4   4   4 624.123 21.2538   3
  -4   4   4 628.844 22.4867   3
   4   4  -4 639.731 18.8163   5
   4   4  -4 637.306 28.1896   2
   3  -4  -4 13.4571 3.47909   7
  -3  -4   4 14.2286 3.69933   5
   3  -4  -4 9.97703 2.96108   9
   3  -4  -4 12.9533 3.49418   6
  -3  -4   4 14.0710 3.03873   4
  -3  -4   4 17.5131 3.25890   8
   3   4  -4 11.1229 1.53177   9
   3   4  -4 8.56047 3.26232   5
  -3   4   4 11.1929 1.64587   3
  -3   4   4 12.0940 1.40999   3
   3   4  -4 7.21702 3.64154   1
   3   4  -4 10.9140 3.88269   3
  -3   4   4 9.71567 3.38983   6
   3   4  -4 11.1400 1.55889   2
  -3   4   4 11.4050 4.03734   1
  -2  -4   4 109.840 5.54312   8
   2  -4  -4 114.354 5.68354   7
  -2  -4   4 118.106 6.10058   4
  -2  -4   4 103.019 7.32348   5
   2  -4  -4 106.788 5.45429   9
   2  -4  -4 114.380 5.37857   6
   2  -4  -4 105.700 7.86943   1
   2   4  -4 105.282 4.53190   2
  -2   4   4 114.545 6.40700   6
  -2   4   4 99.1974 6.55491   1
   2   4  -4 108.586 5.04031   9
   2   4  -4 108.732 6.80114   3
  -2   4   4 103.625 4.32095   3
   2   4  -4 92.1881 5.99597   4
   2   4  -4 106.256 6.82163   7
   2   4  -4 104.986 5.19491   1
  -2   4   4 106.272 5.53641   8
   2   4  -4 109.219 5.88518   8
   2   4  -4 109.042 6.01988   5
  -2   4   4 99.0834 10.3143   2
  -2   4   4 115.179 6.29102   9
   1  -4  -4 96.4088 4.36005   7
  -1  -4   4 83.6415 4.63687   8
  -1  -4   4 105.244 6.18786   7
   1  -4  -4 97.0982 5.28434   9
  -1  -4   4 93.4719 4.79189   4
   1  -4  -4 97.1817 4.13468   6
  -1  -4   4 91.6771 5.77401   5
   1   4  -4 90.0110 6.40559   7
  -1   4   4 88.1413 4.20156   3
  -1   4   4 87.4305 4.90002   9
   1   4  -4 89.8909 5.45721   6
  -1   4   4 89.2755 6.10127   1
  -1   4   4 95.5259 4.89331   7
   1   4  -4 90.5534 5.39508   4
  -1   4   4 97.8159 4.58928   6
  -1   4   4 86.1289 5.57183   2
   1   4  -4 97.6442 6.09140   2
   1   4  -4 83.7328 5.34405   8
   1   4  -4 83.7856 4.10773   9
  -1   4   4 85.4964 4.65820   8
   1   4  -4 90.8596 6.07100   5
   0  -4   4 305.490 10.9311   7
   0  -4  -4 324.902 11.6706   7
   0  -4   4 289.026 16.7628   5
   0  -4   4 304.521 10.7941   8
   0  -4  -4 302.868 14.1972   3
   0  -4  -4 291.516 8.67426   9
   0  -4   4 314.804 12.6439   4
   0  -4  -4 304.383 11.4916   2
   0   4  -4 302.350 14.9011   8
   0   4   4 309.781 13.5425   2
   0   4  -4 316.907 16.5870   1
   0   4   4 302.700 10.8602   1
   0   4  -4 300.962 13.9755   7
   0   4   4 293.580 11.7534   6
   0   4   4 301.533 17.0989   7
   0   4  -4 307.896 9.75158   9
   0   4  -4 318.180 11.0743   5
   0   4  -4 307.303 10.8191   4
   0   4  -4 315.882 14.0689   6
   0   4   4 307.118 10.8795   3
   0   4   4 293.302 12.4239   8
   0   4   4 307.683 13.2276   9
  -1  -4  -4 6.63172 3.36444   3
   1  -4   4 12.4243 3.17975   4
   1  -4   4 6.00551 2.90386   7
   1  -4   4 11.4879 3.16123   8
  -1  -4  -4 9.01522 3.09697   9
   1  -4   4 1.50898 2.69240   6
  -1  -4  -4 5.65834 3.01507   2
  -1   4  -4 9.44260 4.85481   5
   1   4   4 6.79350 2.68994   8
   1   4   4 7.39006 2.34578   2
  -1   4  -4 5.88860 3.85071   6
   1   4   4 10.1993 2.80729   3
   1   4   4 6.41994 1.98812   6
  -1   4  -4 5.15715 3.11775   7
  -1   4  -4 5.36390 1.63526   8
   1   4   4 4.93216 1.57373   7
   1   4   4 7.62569 2.99154   9
  -1   4  -4 5.29670 2.52496   1
  -1   4  -4 8.60250 2.27613   4
  -1   4  -4 4.76275 2.97989   9
  -2  -4  -4 2.95481 2.78869   3
  -2  -4  -4 3.05582 2.82855   2
   2  -4   4 -1.7609 2.72668   7
  -2  -4  -4 1.18810 2.62232   9
   2  -4   4 -1.0168 2.66232   1
   2  -4   4 1.24182 2.83614   6
   2  -4   4 1.32155 1.35466   8
   2   4   4 -0.7832 3.04103   2
   2   4   4 0.04637 1.12719   5
  -2   4  -4 -2.3891 4.89831   5
   2   4   4 0.97846 2.07432   7
   2   4   4 -0.0026 2.56315   3
  -2   4  -4 1.94153 2.37060   9
  -2   4  -4 2.52089 3.92474   3
  -2   4  -4 -0.0572 1.42029   4
  -2   4  -4 0.65878 1.91400   1
   3  -4   4 19.2865 4.02889   6
  -3  -4  -4 22.3336 4.63134   8
  -3  -4  -4 17.8731 2.70308   9
   3  -4   4 14.4611 5.04887   7
  -3  -4  -4 19.6505 2.99203   2
   3  -4   4 18.6323 3.03877   1
  -3   4  -4 19.3940 3.59364   1
   3   4   4 20.6308 5.06305   3
   3   4   4 18.6815 1.91125   5
  -3   4  -4 22.1537 1.49857   4
   3   4   4 19.3028 4.15472   2
   3   4   4 17.7538 1.65443   5
  -3   4  -4 23.0273 5.15088   5
  -3   4  -4 16.7772 3.34921   3
   4  -4   4 587.869 20.6024   7
  -4  -4  -4 603.839 22.6105   2
   4  -4   4 599.277 29.0729   1
  -4  -4  -4 610.859 20.4111   8
  -4  -4  -4 606.371 23.3924   9
   4  -4   4 638.015 18.0015   6
  -4   4  -4 642.300 16.5414   1
   4   4   4 660.757 30.2149   2
  -4   4  -4 608.382 33.5692   3
   4   4   4 603.337 23.2463   3
   4   4   4 612.895 20.4353   6
  -4   4  -4 639.619 40.6171   5
   5  -4   4 5.20978 5.64391   6
  -5  -4  -4 0.14275 3.33694   9
  -5  -4  -4 -0.3178 3.46440   2
  -5  -4  -4 2.12184 4.74006   8
   5  -4   4 1.07192 4.22959   7
  -5   4  -4 -0.7319 4.51838   5
   5   4   4 -1.1814 4.01511   3
  -5   4  -4 -0.9414 2.66003   1
   5   4   4 0.58469 3.69765   6
  -6  -4  -4 51.7027 4.57868   9
   6  -4   4 36.7123 6.14724   6
  -6  -4  -4 47.1007 4.67207   2
  -6  -4  -4 38.8532 6.71703   8
   6  -4   4 51.6884 8.39234   7
  -6   4  -4 49.4976 5.61863   1
  -6   4  -4 60.5302 9.68082   5
   6   4   4 44.5160 8.41024   3
   6   4   4 38.2966 5.94362   6
  -7  -4  -4 2.13864 4.26644   8
  -7  -4  -4 0.63510 2.90383   9
  -7  -4  -4 0.63186 3.18232   2
   7  -4   4 -0.3142 7.33215   7
   7  -4   4 2.50868 5.15469   6
   7  -4   4 1.38976 4.00837   3
   7   4   4 2.17723 5.70119   3
   7   4   4 -0.8594 3.81709   6
  -7   4  -4 -4.7362 6.00347   5
  -7   4  -4 1.06325 5.56112   1
  -8  -4  -4 82.0963 6.54623   2
   8  -4   4 68.3073 9.10756   7
   8  -4   4 67.1844 6.95420   3
  -8  -4  -4 78.1313 7.03582   9
  -8  -4  -4 80.8670 9.36758   8
   8  -4   4 68.1076 8.77794   6
  -8   4  -4 74.3638 8.04557   1
  -8   4  -4 85.3219 12.3628   5
   8   4   4 53.4937 8.52623   6
   8   4   4 80.3485 9.61449   3
   9  -4   4 -3.2710 6.65179   3
  -9  -4  -4 3.91909 4.39216   2
   9  -4   4 22.9485 23.2041   6
   9  -4   4 26.8286 17.4560   7
  -9  -4  -4 3.90966 5.80181   8
   9   4   4 6.35089 8.09448   6
   9   4   4 3.29595 7.44768   3
  -9   4  -4 23.3746 11.2469   5
  -9   4  -4 4.15044 5.74511   1
   9  -5  -4 33.0472 7.91342   6
  -9  -5   4 31.1267 7.46880   8
   9  -5  -4 34.4329 8.47413   7
   9   5  -4 32.1660 8.26946   6
  -9   5   4 31.5033 11.0630   1
   9   5  -4 35.6456 9.43167   3
   8  -5  -4 -1.2586 5.41669   6
  -8  -5   4 4.27119 5.52628   4
   8  -5  -4 -2.1066 5.84052   7
  -8  -5   4 -3.8986 7.31785   8
   8   5  -4 4.15749 6.19515   6
   8   5  -4 3.14465 7.06360   3
  -8   5   4 0.98580 8.55811   1
  -7  -5   4 8.94316 6.58178   8
   7  -5  -4 18.3331 7.24347   6
   7  -5  -4 22.6840 6.14003   7
  -7  -5   4 12.4380 5.14177   4
   7   5  -4 17.5626 6.98870   3
  -7   5   4 19.3773 8.54101   1
   6  -5  -4 7.50690 6.24313   6
  -6  -5   4 3.42275 5.73867   4
   6  -5  -4 3.05714 6.38321   7
  -6  -5   4 3.22669 5.68964   8
   6   5  -4 6.54123 5.79803   3
  -6   5   4 1.85539 5.17407   1
  -5  -5   4 -2.0283 5.00537   4
   5  -5  -4 0.30592 3.53222   7
  -5  -5   4 -1.8107 3.41645   5
   5  -5  -4 -0.6996 3.35599   6
  -5  -5   4 0.72312 3.58605   8
  -5  -5   4 2.69164 1.46273   9
   5   5  -4 0.33175 2.04548   5
  -5   5   4 0.33728 2.04108   4
  -5   5   4 -1.6126 6.39759   1
   5   5  -4 1.16495 5.02808   3
   4  -5  -4 889.822 74.7723   7
  -4  -5   4 836.149 26.2485   8
  -4  -5   4 842.760 28.4260   4
  -4  -5   4 861.305 26.9246   5
   4  -5  -4 841.497 69.6948   6
  -4  -5   4 840.715 29.8879   9
  -4   5   4 807.811 40.0624   3
   4   5  -4 880.258 46.3490   2
   4   5  -4 856.716 31.2853   5
  -4   5   4 857.849 34.4185   3
   4   5  -4 886.254 27.2508   3
  -4   5   4 843.619 20.7492   8
  -4   5   4 846.350 39.7513   1
  -3  -5   4 13.6928 3.61565   8
   3  -5  -4 18.1620 3.75667   9
  -3  -5   4 18.9491 3.70651   4
   3  -5  -4 13.5570 3.37680   7
  -3  -5   4 17.3216 3.92084   5
   3  -5  -4 14.9404 4.14615   6
  -3   5   4 8.44673 4.24597   6
   3   5  -4 10.2707 2.28497   2
   3   5  -4 10.5479 3.42144   1
   3   5  -4 11.7536 4.17074   5
  -3   5   4 19.1301 4.83280   1
  -3   5   4 11.7512 2.21093   3
  -3   5   4 12.5344 3.54838   8
   3   5  -4 14.7297 6.20637   3
  -3   5   4 12.4962 2.15358   3
   3   5  -4 15.1992 2.37233   9
  -2  -5   4 243.728 10.1294   4
  -2  -5   4 226.339 9.31527   8
   2  -5  -4 226.372 8.70242   6
   2  -5  -4 238.150 9.18166   7
   2  -5  -4 223.984 9.28827   9
  -2  -5   4 233.867 17.8530   5
  -2   5   4 228.401 9.30937   8
   2   5  -4 219.795 10.4365   2
   2   5  -4 232.599 9.91045   9
  -2   5   4 233.734 13.1940   1
  -2   5   4 233.598 13.2928   3
  -2   5   4 231.730 16.2495   7
  -2   5   4 224.383 11.9913   6
   2   5  -4 248.217 9.65013   5
   2   5  -4 220.390 12.8202   3
  -1  -5   4 438.188 16.9521   4
  -1  -5   4 461.454 17.3948   8
   1  -5  -4 421.164 16.2968   9
   1  -5  -4 433.944 17.6986   7
   1   5  -4 465.762 15.3326   5
   1   5  -4 473.603 23.7987   4
   1   5  -4 453.474 22.1694   8
   1   5  -4 453.865 24.3749   2
  -1   5   4 479.489 16.9282   8
  -1   5   4 445.696 22.6569   6
   1   5  -4 437.557 23.6197   1
  -1   5   4 465.998 17.8533   1
   1   5  -4 423.863 22.7700   9
  -1   5   4 455.267 20.1290   3
  -1   5   4 470.948 28.0534   7
   0  -5  -4 446.885 15.9773   2
   0  -5   4 430.688 13.8831   7
   0  -5   4 431.781 18.1499   4
   0  -5  -4 419.185 14.0329   9
   0  -5  -4 426.920 12.3754   7
   0  -5   4 423.872 18.7483   8
   0   5  -4 446.245 22.1859   1
   0   5  -4 447.570 17.6139   9
   0   5  -4 450.324 16.8315   5
   0   5   4 435.366 24.8349   6
   0   5  -4 442.288 17.6931   8
   0   5   4 429.408 18.8917   1
   0   5   4 446.118 19.4432   3
   0   5  -4 439.278 22.0418   4
   0   5   4 437.305 23.7301   7
  -1  -5  -4 66.4782 5.12232   3
  -1  -5  -4 64.1223 4.37515   9
  -1  -5  -4 63.5933 5.13111   2
   1  -5   4 55.2884 4.66622   8
   1  -5   4 50.4751 5.19269   7
  -1   5  -4 50.6255 4.24738   4
  -1   5  -4 38.9364 6.94305   5
   1   5   4 51.7080 4.00455   6
  -1   5  -4 52.0748 4.38382   8
   1   5   4 49.3168 4.85071   3
  -1   5  -4 58.0438 4.53487   9
   1   5   4 47.1449 4.31717   7
  -1   5  -4 47.5774 4.84338   1
   1   5   4 55.6737 6.13537   1
  -2  -5  -4 -1.0038 3.18079   9
   2  -5   4 2.22819 4.66023   6
   2  -5   4 2.15861 3.45717   7
  -2  -5  -4 2.55521 2.48613   2
   2  -5   4 2.30170 1.98603   8
  -2   5  -4 2.07634 1.62209   4
   2   5   4 -0.8900 1.69017   6
   2   5   4 3.67846 4.62008   3
  -2   5  -4 3.60485 2.52085   8
   2   5   4 0.19449 2.97118   5
   2   5   4 0.80130 2.49344   7
  -2   5  -4 0.89390 2.67342   1
  -2   5  -4 -4.3151 4.27458   5
   3  -5   4 126.726 9.14182   7
  -3  -5  -4 114.939 5.82097   9
   3  -5   4 121.795 8.93477   6
  -3  -5  -4 112.645 6.02153   2
  -3  -5  -4 129.284 7.47777   8
   3  -5   4 119.121 7.70373   1
   3   5   4 112.580 5.77156   5
  -3   5  -4 118.285 7.13401   1
   3   5   4 105.602 6.27143   5
   3   5   4 122.416 7.50605   7
   3   5   4 112.138 8.43487   3
  -3   5  -4 121.462 4.72654   4
  -3   5  -4 117.404 10.4847   5
  -4  -5  -4 20.5569 5.80849   8
  -4  -5  -4 17.3577 4.11716   9
  -4  -5  -4 27.2158 4.61412   2
   4  -5   4 19.5164 4.81869   6
   4  -5   4 19.6331 5.13982   7
   4   5   4 9.84825 4.14180   7
   4   5   4 18.2844 6.20652   3
  -4   5  -4 19.2355 6.24792   5
  -4   5  -4 21.2477 5.05937   1
   5  -5   4 8.21386 4.91672   6
  -5  -5  -4 7.74051 3.12855   2
  -5  -5  -4 10.0305 3.96136   9
   5  -5   4 1.57685 4.62474   7
  -5  -5  -4 9.30507 4.39324   8
  -5   5  -4 1.55711 4.79914   1
   5   5   4 6.55249 4.37027   6
  -5   5  -4 12.0005 6.48749   5
   5   5   4 14.5015 7.13217   3
  -6  -5  -4 0.10472 3.95005   9
   6  -5   4 0.04001 7.38832   7
   6  -5   4 1.96919 4.82297   6
  -6  -5  -4 -0.2537 4.19717   8
  -6  -5  -4 1.12988 4.29124   2
   6   5   4 -0.9424 7.53723   3
  -6   5  -4 -2.7869 6.31857   5
  -6   5  -4 -1.3304 5.23134   1
   6   5   4 -1.0469 3.49729   6
   7  -5   4 232.825 15.5572   7
   7  -5   4 244.115 13.4761   6
  -7  -5  -4 250.806 11.2594   9
  -7  -5  -4 248.822 13.3130   8
  -7  -5  -4 276.058 11.8971   2
  -7   5  -4 224.105 13.2844   1
   7   5   4 240.584 16.5731   3
  -7   5  -4 275.087 16.0782   5
   7   5   4 238.485 16.7811   6
  -8  -5  -4 2.78922 5.63980   8
  -8  -5  -4 1.52605 5.35003   9
   8  -5   4 3.04785 7.64284   7
  -8  -5  -4 13.9066 5.82832   2
   8  -5   4 0.00000 9.45458   6
   8   5   4 -1.0607 7.26760   6
   8   5   4 1.51177 7.18431   3
  -8   5  -4 7.38426 8.38451   5
  -8   5  -4 3.30837 5.40001   1
  -9  -5  -4 2.25659 6.72702   8
   9  -5   4 0.11858 7.89674   6
   9  -5   4 14.6682 20.5689   7
  -9   5  -4 8.17722 12.2382   5
  -9   5  -4 -0.9845 8.76832   1
   9   5   4 -0.6483 7.32747   6
   9   5   4 -2.5870 8.00823   3
  -9  -6   4 17.7268 7.60576   8
   9  -6  -4 28.2092 11.4654   7
   9  -6  -4 37.2304 8.51197   6
  -9   6   4 24.5925 12.7426   1
   9   6  -4 17.7363 11.9894   6
   9   6  -4 28.2179 10.1030   3
   8  -6  -4 194.978 13.8415   6
   8  -6  -4 181.907 12.8676   7
  -8  -6   4 164.652 12.0922   8
  -8   6   4 188.430 15.0787   1
   8   6  -4 190.480 12.9935   6
   7  -6  -4 47.8574 9.53472   6
  -7  -6   4 50.9764 7.64672   8
   7  -6  -4 57.3899 10.1330   7
   7   6  -4 57.4065 9.91697   3
  -7   6   4 46.0158 10.5588   1
   6  -6  -4 556.096 22.4118   6
   6  -6  -4 518.946 23.8337   7
  -6  -6   4 552.668 25.9451   8
   6   6  -4 556.067 27.4962   3
  -6   6   4 556.707 25.7113   1
   5  -6  -4 8.39257 4.59723   6
  -5  -6   4 7.05058 4.64145   4
  -5  -6   4 8.97754 4.60143   8
  -5  -6   4 4.34170 1.75120   9
   5  -6  -4 17.6488 6.74206   7
   5   6  -4 7.18473 6.29476   3
  -5   6   4 3.12810 3.63165   4
  -5   6   4 1.39260 7.29093   1
   5   6  -4 2.60446 3.57933   5
   4  -6  -4 62.5515 6.23664   7
   4  -6  -4 54.3010 5.80331   6
  -4  -6   4 66.3621 6.41705   4
  -4  -6   4 69.1999 6.45686   8
   4   6  -4 60.7370 9.62252   3
  -4   6   4 53.6606 9.02946   1
   4   6  -4 60.6270 6.23173   5
  -3  -6   4 7.37076 3.83399   8
  -3  -6   4 8.06754 3.93225   4
   3  -6  -4 7.02461 5.71889   7
   3  -6  -4 5.49817 4.34233   6
   3  -6  -4 7.03950 3.98350   9
  -3   6   4 4.82429 3.17331   3
  -3   6   4 9.88643 4.31094   8
   3   6  -4 2.21161 3.23713   5
   3   6  -4 11.5273 7.55246   3
  -3   6   4 1.15658 5.04108   1
  -2  -6   4 0.23392 3.14570   4
   2  -6  -4 2.05224 4.08173   6
   2  -6  -4 -1.0835 4.09393   7
   2  -6  -4 -0.2929 3.34485   9
  -2  -6   4 2.83112 4.52603   8
  -2   6   4 -0.1448 4.23503   1
  -2   6   4 0.14417 3.01326   3
   2   6  -4 -0.3921 2.05128   9
   2   6  -4 1.19923 4.92322   5
   2   6  -4 1.00483 4.50969   3
   2   6  -4 0.50893 2.15190   2
   1  -6  -4 2.54445 2.99567   9
  -1  -6   4 3.09994 4.06348   8
   1  -6  -4 0.78112 3.48317   7
   1   6  -4 7.71204 4.35635   3
  -1   6   4 3.91680 3.08210   7
  -1   6   4 -0.0974 6.12132   1
   1   6  -4 -2.5393 3.62756   9
  -1   6   4 1.16004 2.82597   6
  -1   6   4 3.00819 3.74254   3
   1   6  -4 0.30367 2.99709   1
   1   6  -4 -0.1882 3.92789   5
   1   6  -4 2.69596 2.77816   2
   0  -6   4 637.658 20.6203   7
   0  -6   4 636.806 22.3952   8
   0  -6  -4 692.179 24.2701   7
   0  -6  -4 638.485 32.4507   9
   0   6   4 694.959 35.3618   7
   0   6   4 636.421 31.9401   3
   0   6  -4 687.507 25.1438   1
   0   6   4 670.853 36.7759   1
   0   6  -4 673.025 22.8709   5
   0   6   4 690.130 33.3718   6
  -1  -6  -4 10.6385 3.18698   9
  -1  -6  -4 11.2198 3.54212   2
   1  -6   4 7.08500 2.49384   8
   1  -6   4 12.2728 4.17474   7
   1   6   4 4.11258 3.72052   7
  -1   6  -4 6.35178 2.89595   4
  -1   6  -4 4.56638 4.88481   5
   1   6   4 3.95944 4.98596   3
  -1   6  -4 2.37465 2.80567   8
   1   6   4 5.91419 3.59219   6
   1   6   4 4.31577 4.76766   5
  -1   6  -4 14.2005 4.75864   1
   1   6   4 6.06810 4.70615   1
  -2  -6  -4 256.212 14.1849   9
   2  -6   4 271.837 12.4426   7
  -2  -6  -4 277.609 15.6472   2
   2  -6   4 274.482 13.8664   8
   2   6   4 264.657 10.7682   5
  -2   6  -4 267.984 15.8887   4
  -2   6  -4 269.176 17.8467   5
   2   6   4 293.095 13.3909   3
   2   6   4 266.616 15.1920   7
  -2   6  -4 280.365 10.1936   8
  -2   6  -4 307.242 13.8833   1
   2   6   4 277.723 19.2052   6
   3  -6   4 5.19295 4.34709   6
   3  -6   4 6.33305 4.55414   7
  -3  -6  -4 7.11652 2.99263   9
  -3  -6  -4 5.26682 4.20817   2
   3   6   4 4.27753 4.27276   7
   3   6   4 1.58763 6.24726   3
  -3   6  -4 -1.4107 8.22645   5
  -3   6  -4 0.25051 4.60554   1
   3   6   4 2.00548 2.92772   5
  -4  -6  -4 467.301 15.6722   9
   4  -6   4 401.294 16.9717   7
  -4  -6  -4 430.607 16.8118   2
   4  -6   4 425.270 16.4995   6
  -4  -6  -4 423.146 15.0831   8
  -4   6  -4 426.923 18.6906   5
   4   6   4 442.576 17.7196   3
  -4   6  -4 421.524 16.0155   1
  -5  -6  -4 105.222 7.43617   2
  -5  -6  -4 111.596 7.21632   9
   5  -6   4 103.518 9.46125   7
  -5  -6  -4 113.952 8.58976   8
   5  -6   4 87.1730 9.97921   6
  -5   6  -4 106.793 13.2788   5
   5   6   4 91.0980 7.57759   6
  -5   6  -4 89.4606 8.29369   1
   5   6   4 109.785 9.62746   3
  -6  -6  -4 498.806 32.1624   2
  -6  -6  -4 508.500 22.9769   8
   6  -6   4 489.492 22.7496   6
   6  -6   4 503.769 26.3598   7
  -6  -6  -4 477.990 26.5760   9
  -6   6  -4 518.529 26.5347   5
  -6   6  -4 515.157 29.3199   1
   6   6   4 490.477 20.5108   6
   6   6   4 453.929 29.4006   3
  -7  -6  -4 0.06754 5.25875   2
   7  -6   4 -0.3461 7.05382   7
  -7  -6  -4 -1.2425 3.59685   9
  -7  -6  -4 -0.3237 5.74667   8
   7  -6   4 1.76892 6.89210   6
  -7   6  -4 1.06621 8.25845   5
   7   6   4 -3.3649 6.54115   6
   7   6   4 -0.0885 7.30037   3
  -7   6  -4 -1.1649 4.93654   1
   8  -6   4 140.784 15.0681   7
   8  -6   4 116.664 12.2652   6
  -8   6  -4 153.452 17.4558   5
   8   6   4 149.573 13.7343   3
   8  -7  -4 45.3107 8.56793   6
  -8  -7   4 40.3432 21.4609   8
   8  -7  -4 39.1768 9.70404   7
  -8   7   4 28.7939 9.36112   1
  -8   7   4 41.7853 12.8092   5
   7  -7  -4 480.187 35.4976   7
  -7  -7   4 429.276 20.8608   8
   7  -7  -4 467.233 26.8579   6
   7   7  -4 499.938 33.0649   3
  -7   7   4 485.338 34.6355   1
   6  -7  -4 -1.2586 7.73660   6
  -6  -7   4 1.09879 5.37081   8
   6  -7  -4 2.74898 8.04994   7
  -6   7   4 5.62523 9.15706   1
   6   7  -4 -1.5142 7.62074   3
   5  -7  -4 35.6008 6.12018   6
   5  -7  -4 41.3749 8.39280   7
  -5  -7   4 22.7786 6.00182   8
   5   7  -4 33.6541 8.54146   3
  -5   7   4 25.0806 7.39698   1
   4  -7  -4 151.354 10.1810   6
  -4  -7   4 143.969 10.6205   8
   4  -7  -4 148.460 9.69953   7
  -4   7   4 122.991 10.7944   1
   4   7  -4 142.024 11.6927   3
   4   7  -4 135.212 11.5724   5
   3  -7  -4 251.416 12.5161   6
  -3  -7   4 256.937 11.3444   8
   3  -7  -4 256.732 14.1086   7
  -3   7   4 240.815 14.6378   1
   3   7  -4 247.602 17.7763   5
   3   7  -4 256.463 14.0551   3
  -2  -7   4 55.4749 7.04924   8
   2  -7  -4 54.1772 12.2595   7
   2  -7  -4 55.6007 7.20752   9
  -2   7   4 41.6386 5.43142   3
   2   7  -4 48.0884 7.69929   1
   2   7  -4 43.5096 7.82983   5
   2   7  -4 47.5725 9.68468   3
  -2   7   4 59.3698 9.57483   1
  -1  -7   4 126.902 8.29242   8
   1  -7  -4 133.303 7.82513   9
   1  -7  -4 147.479 7.72708   7
   1   7  -4 131.052 9.92564   3
   1   7  -4 120.904 9.05769   1
  -1   7   4 114.565 7.66358   3
   1   7  -4 116.325 9.36545   5
  -1   7   4 101.728 10.8059   1
   0  -7   4 260.603 11.4288   8
   0  -7   4 261.018 12.7084   7
   0  -7  -4 238.499 11.7406   9
   0   7  -4 256.252 13.4265   3
   0   7  -4 245.915 13.0350   5
   0   7   4 217.904 13.6813   1
   0   7   4 226.813 11.9422   5
   0   7   4 238.996 11.3711   3
   0   7  -4 249.387 14.0384   1
   1  -7   4 150.844 9.67831   7
  -1  -7  -4 135.612 7.52335   9
   1  -7   4 145.027 6.77999   8
   1   7   4 124.982 10.1702   1
  -1   7  -4 128.460 10.5761   5
   1   7   4 131.225 10.7793   3
   1   7   4 112.841 9.13909   5
  -1   7  -4 121.326 8.20673   1
   2  -7   4 7.32973 7.08207   7
  -2  -7  -4 10.6723 3.82033   9
  -2  -7  -4 2.10975 3.91858   2
  -2   7  -4 16.0925 9.11467   5
   2   7   4 8.06685 5.04107   3
  -2   7  -4 5.14604 5.61721   1
   2   7   4 5.41927 4.12005   5
   2   7   4 13.6678 8.55080   1
  -3  -7  -4 26.8969 5.60649   2
   3  -7   4 23.0436 6.25314   7
  -3  -7  -4 27.3644 5.37619   9
   3   7   4 17.7991 7.88104   3
  -3   7  -4 19.0335 10.2232   5
  -3   7  -4 23.3164 6.63816   1
  -4  -7  -4 0.69978 4.85490   2
   4  -7   4 3.46070 7.40437   6
  -4  -7  -4 -1.4790 3.16035   9
   4  -7   4 -0.7628 7.43558   7
  -4   7  -4 -0.7042 4.37863   1
  -4   7  -4 -1.0437 7.02016   5
   4   7   4 0.81498 5.56681   3
  -5  -7  -4 10.6307 4.14097   2
   5  -7   4 10.4543 9.16566   7
  -5  -7  -4 10.3785 3.95305   9
   5  -7   4 8.56159 9.00992   6
  -5   7  -4 5.94496 5.06465   1
  -5   7  -4 10.8770 12.0189   5
   5   7   4 16.2515 9.70569   3
  -6  -7  -4 63.7963 8.56128   9
  -6  -7  -4 63.5171 7.18695   2
   6  -7   4 56.2492 9.20715   6
   6  -7   4 54.7599 9.58317   7
  -6   7  -4 39.4578 14.1131   5
   6   7   4 42.5364 9.46786   3
   7  -7   4 88.0707 10.9810   7
   7  -7   4 91.3357 11.0536   6
  -7   7  -4 93.2367 13.2261   5
   7   7   4 79.2616 11.5718   3
   6  -8  -4 8.95108 6.20466   6
   6  -8  -4 10.5407 6.63058   7
  -6  -8   4 3.61011 6.11507   8
  -6   8   4 -1.8012 7.08576   1
   5  -8  -4 37.8579 7.31438   6
  -5  -8   4 32.1674 7.24749   8
   5  -8  -4 41.4370 7.75654   7
  -5   8   4 30.3211 8.74560   1
  -5   8   4 47.1296 10.9108   5
  -4  -8   4 304.071 15.9199   8
   4  -8  -4 325.579 14.7836   7
   4  -8  -4 280.942 16.9476   6
  -4   8   4 255.145 16.7168   1
   4   8  -4 247.097 16.4084   3
  -4   8   4 278.213 18.1321   5
  -3  -8   4 1.45758 4.84953   8
   3  -8  -4 -0.1799 6.31287   7
   3   8  -4 -1.4725 5.09805   1
   3   8  -4 -2.3281 6.73193   5
  -3   8   4 3.08586 6.50166   1
   3   8  -4 4.24284 7.25762   3
  -2  -8   4 14.8558 5.13555   8
   2  -8  -4 20.3570 6.71876   7
   2  -8  -4 17.6090 5.67062   9
   2   8  -4 20.6725 8.11018   3
   2   8  -4 8.72152 5.72865   5
  -2   8   4 15.4925 7.62240   5
   2   8  -4 22.0291 5.74575   1
  -2   8   4 18.4163 7.58627   1
   1  -8  -4 -0.9852 4.21679   9
   1  -8  -4 -1.3051 5.64642   7
  -1  -8   4 0.83790 5.74695   8
  -1   8   4 -1.3916 6.09701   5
   1   8  -4 -2.4330 4.64720   1
  -1   8   4 1.70074 4.12500   3
   1   8  -4 1.20551 6.25906   3
   1   8  -4 2.43448 5.83458   5
  -1   8   4 -1.6819 8.77274   1
   0  -8   4 103.041 9.50321   7
   0  -8   4 103.512 7.06584   8
   0  -8  -4 103.121 7.49388   9
   0   8   4 87.7610 8.95722   5
   0   8   4 89.2431 9.89908   1
   0   8   4 78.0729 8.10350   3
   0   8  -4 67.2336 9.20176   5
   0   8  -4 74.7991 7.67052   1
   0   8  -4 90.6293 9.32400   3
   1  -8   4 79.3456 8.54859   7
  -1  -8  -4 78.1852 6.87460   9
   1  -8   4 79.7180 6.10386   8
  -1   8  -4 80.7193 10.3672   5
  -1   8  -4 68.9470 10.1020   3
  -1   8  -4 69.7411 7.63090   1
   1   8   4 63.3112 9.66949   3
   1   8   4 62.6808 9.28063   1
   1   8   4 77.1417 8.30259   5
   2  -8   4 -0.7779 5.65105   7
  -2  -8  -4 0.06928 3.96560   9
  -2   8  -4 -4.9009 6.47693   1
   2   8   4 -1.0416 6.48761   1
  -2   8  -4 4.35333 10.1214   5
   2   8   4 0.92222 8.05923   3
   3  -8   4 6.51546 8.55695   7
  -3  -8  -4 1.60786 3.79866   9
   3   8   4 0.32612 6.29746   3
  -3   8  -4 6.93769 8.08439   5
   3   8   4 2.99065 7.33839   1
  -4  -8  -4 26.2435 6.36906   9
   4  -8   4 11.0227 7.29312   7
  -4  -8  -4 15.0059 5.46765   2
  -4   8  -4 16.2239 9.47556   5
   4   8   4 4.57222 10.2617   3
   5  -8   4 102.952 11.2481   6
   5  -8   4 121.544 11.7283   7
  -5   8  -4 106.917 14.4173   5
   5   8   4 108.202 12.1907   3
   6  -8   4 -1.0150 7.38657   7
   6  -8   4 4.23703 10.6977   6
   6   8   4 0.46692 8.61300   3
  -6   8  -4 7.91309 10.2284   5
   4  -9  -4 40.5557 7.48523   7
  -4  -9   4 40.4537 7.58446   8
   4   9  -4 21.7177 14.7428   3
  -4   9   4 30.7683 10.2438   1
   3  -9  -4 2.62583 7.40356   7
  -3  -9   4 2.49270 5.73787   8
  -3   9   4 2.87504 10.6568   1
   3   9  -4 -5.5429 11.7723   3
  -3   9   4 -0.7096 8.01947   5
   2  -9  -4 7.79014 4.95365   7
  -2  -9   4 8.87143 7.60067   8
   2   9  -4 0.68180 9.07343   5
  -2   9   4 3.38851 7.60373   1
   2   9  -4 -1.4364 7.80548   3
  -2   9   4 25.2129 11.4090   5
  -1  -9   4 34.8007 6.51024   8
   1  -9  -4 34.7738 6.77401   9
   1   9  -4 37.4007 10.1597   3
   1   9  -4 22.6172 7.83764   5
  -1   9   4 33.0862 8.92029   1
  -1   9   4 18.4902 8.47882   5
   0  -9   4 0.65168 4.78773   8
   0  -9  -4 2.63740 4.63499   9
   0   9   4 5.69951 9.38149   5
   0   9   4 0.58608 7.58828   1
   0   9  -4 1.08672 7.69339   5
   0   9  -4 6.90538 7.57800   3
  -1  -9  -4 4.31437 6.43066   9
   1  -9   4 0.03799 6.55762   7
   1   9   4 2.53448 7.09319   1
   1   9   4 -0.6675 8.16943   3
  -1   9  -4 2.29922 9.24514   3
  -1   9  -4 -4.5038 7.50421   5
  -2  -9  -4 0.26025 4.54234   9
   2  -9   4 -0.1737 6.17382   7
  -2   9  -4 8.39764 8.64972   5
   2   9   4 -0.3124 7.43850   1
   2   9   4 4.55981 9.03358   3
  -2   9  -4 -4.5412 6.20996   3
   3  -9   4 310.252 23.1246   7
  -3  -9  -4 356.711 15.9711   9
   3   9   4 318.964 19.1212   3
   3   9   4 319.191 22.9961   1
  -3   9  -4 344.447 22.1217   5
   4  -9   4 0.40340 10.2862   7
   4   9   4 -1.5687 7.72627   3
  -4   9  -4 -1.2443 9.29674   5
   4   9   4 -3.7060 11.9785   1
 -11   0   5 8.79752 7.69993   1
  11   0  -5 5.84090 7.95432   6
 -10   0   5 3.02537 5.07644   2
 -10   0   5 2.31477 5.54281   8
 -10   0   5 -0.5485 5.49281   4
  10   0  -5 -3.0083 6.20003   3
  10   0  -5 -2.7188 8.34278   6
 -10   0   5 3.24843 8.44148   1
  -9   0   5 211.161 10.7560   4
   9   0  -5 239.236 12.0665   3
  -9   0   5 226.119 12.3954   1
  -9   0   5 220.197 12.0473   8
   9   0  -5 223.012 12.2765   6
   8   0  -5 0.76400 4.41922   6
   8   0  -5 0.34388 4.37051   3
  -8   0   5 1.16610 4.31609   1
  -8   0   5 -0.3507 3.95198   4
  -8   0   5 0.27426 4.12440   8
  -7   0   5 133.093 7.51853   8
  -7   0   5 146.549 7.13064   9
  -7   0   5 125.278 6.97069   4
  -7   0   5 139.008 8.21188   1
   7   0  -5 138.086 9.06206   6
  -7   0   5 124.417 8.38383   3
   7   0  -5 131.568 7.75870   3
  -6   0   5 1.10779 2.96012   1
   6   0  -5 -2.8692 4.05589   6
   6   0  -5 -0.3743 3.97776   4
   6   0  -5 1.18806 2.79211   3
  -6   0   5 0.32189 3.25304   5
  -6   0   5 0.99483 3.31039   3
  -6   0   5 0.87643 2.13951   8
  -6   0   5 -2.1906 2.28869   9
  -6   0   5 1.32982 2.24592   4
  -5   0   5 544.431 23.2608   9
   5   0  -5 527.877 26.7911   1
   5   0  -5 549.417 16.9896   3
   5   0  -5 568.650 24.0646   4
   5   0  -5 552.607 14.4979   6
  -5   0   5 542.388 17.4964   1
  -5   0   5 569.636 20.8877   4
  -5   0   5 548.975 18.6014   3
  -5   0   5 551.146 21.8632   8
  -5   0   5 553.443 20.8687   5
   4   0  -5 -0.2628 1.98127   6
  -4   0   5 -2.0815 2.27345   5
  -4   0   5 0.53710 1.43958   9
   4   0  -5 1.40627 2.53483   1
   4   0  -5 -2.9255 2.74101   4
  -4   0   5 1.73276 2.38452   8
   4   0  -5 -0.0532 2.02434   3
  -4   0   5 -0.9986 1.99770   1
  -4   0   5 -0.6345 1.58975   4
   4   0  -5 -0.6269 2.39496   5
   3   0  -5 48.7906 2.26244   9
   3   0  -5 47.8785 3.28798   5
  -3   0   5 46.3713 3.58674   5
  -3   0   5 56.4048 3.89710   1
  -3   0   5 53.0963 3.56075   9
   3   0  -5 47.0503 2.95245   3
   3   0  -5 42.0238 4.03739   1
   3   0  -5 51.8868 4.08208   4
  -3   0   5 52.5894 3.02116   2
  -3   0   5 46.0872 3.52335   4
  -2   0   5 -1.3791 1.41669   1
   2   0  -5 -3.5682 1.79342   4
   2   0  -5 -3.1978 1.60957   1
   2   0  -5 -0.5853 0.98108   9
   2   0  -5 -0.7190 0.82372   2
  -2   0   5 -2.5648 0.61456   9
  -2   0   5 -2.4316 1.52509   4
  -2   0   5 -2.8943 1.80505   5
   2   0  -5 -3.0046 1.33626   5
  -2   0   5 -2.1181 0.70939   2
   1   0  -5 491.139 20.7868   3
   1   0  -5 480.244 16.1982   1
   1   0  -5 460.791 14.3407   5
   1   0  -5 493.187 17.2618   2
  -1   0   5 470.178 18.1867   2
   1   0  -5 483.127 23.4156   4
   1   0  -5 501.646 25.0601   9
  -1   0   5 482.812 19.3373   1
  -1   0   5 451.066 16.3879   5
  -1   0   5 504.360 16.1203   4
   0   0   5 -3.7273 1.48176   2
   0   0  -5 1.54850 1.84660   5
   0   0   5 -3.3826 1.17497   5
   0   0   5 -3.3681 1.13795   1
   0   0  -5 -2.9608 1.62910   3
   0   0  -5 -4.1280 0.94926   6
   0   0   5 -1.4862 1.76189   3
   0   0  -5 -2.9205 0.76654   7
   0   0  -5 -4.8177 1.33980   2
   0   0   5 -3.0406 1.00188   7
  -1   0  -5 2689.03 138.857   7
   1   0   5 2710.71 72.1973   3
  -1   0  -5 2717.80 124.366   5
   1   0   5 2795.36 98.0269   7
  -1   0  -5 2742.03 79.5792   2
   1   0   5 2718.82 90.8640   2
   1   0   5 2802.16 104.897   5
   1   0   5 2779.27 87.7497   6
  -1   0  -5 2696.22 95.4135   3
  -1   0  -5 2680.86 77.9000   6
  -2   0  -5 1.09503 1.63377   3
  -2   0  -5 -0.0036 1.78241   5
   2   0   5 -1.3208 1.72370   1
  -2   0  -5 0.72893 1.60636   6
   2   0   5 0.09232 1.31442   5
   2   0   5 -0.8720 1.53015   2
   2   0   5 0.59116 1.30783   7
   2   0   5 0.29035 1.22894   6
   2   0   5 1.76557 2.73792   3
  -2   0  -5 0.19718 2.16989   2
   3   0   5 196.680 7.81090   5
  -3   0  -5 198.487 7.76440   5
   3   0   5 200.679 6.67697   6
   3   0   5 207.652 9.19122   3
  -3   0  -5 201.726 9.25974   2
  -3   0  -5 199.279 8.32935   6
   3   0   5 193.936 10.2230   1
  -3   0  -5 193.746 8.92155   3
   3   0   5 218.497 7.26015   8
   3   0   5 213.091 7.02440   7
   4   0   5 0.90931 1.89504   4
   4   0   5 -0.4118 1.99400   6
  -4   0  -5 -1.3777 3.64431   3
  -4   0  -5 -0.8401 2.16245   2
   4   0   5 -0.7356 1.87550   8
   4   0   5 0.48927 3.69173   3
   4   0   5 -1.2262 2.12571   7
  -4   0  -5 1.41147 2.35312   5
   4   0   5 -1.1085 3.14546   1
  -4   0  -5 2.56957 2.13916   6
  -5   0  -5 92.0415 5.87602   2
   5   0   5 88.2169 6.08121   7
   5   0   5 96.7491 4.73249   4
  -5   0  -5 105.572 5.41974   5
  -5   0  -5 93.2677 16.7502   6
   5   0   5 97.4308 6.02423   6
   5   0   5 93.1403 7.07020   3
   5   0   5 100.988 4.95112   8
  -6   0  -5 0.90314 2.37721   5
   6   0   5 -2.7672 3.20991   6
  -6   0  -5 0.45238 3.19150   1
   6   0   5 -6.3628 5.11471   3
   6   0   5 1.87584 2.93900   4
  -6   0  -5 1.51661 3.06833   2
   6   0   5 0.21129 3.22669   7
   6   0   5 1.24093 2.12330   8
  -7   0  -5 1.93809 4.10585   1
   7   0   5 -2.7301 3.48490   8
   7   0   5 0.17070 5.75287   7
   7   0   5 -2.8416 3.83926   6
   7   0   5 -1.9445 3.39078   4
   7   0   5 -2.1948 4.04046   3
  -7   0  -5 -1.9436 3.23964   5
  -7   0  -5 1.61873 3.52333   2
   8   0   5 -1.4104 4.50227   6
  -8   0  -5 -1.0081 2.61843   5
  -8   0  -5 -3.3505 5.44992   2
   8   0   5 -2.0184 4.58808   3
   8   0   5 0.58791 4.73754   7
   9   0   5 74.5633 8.65187   3
   9   0   5 61.7316 10.1773   6
  -9   0  -5 76.7206 9.05456   2
   9   0   5 65.3365 10.6832   7
  10   0   5 4.86689 6.21271   3
  10   0   5 -4.0484 6.58418   6
  10   0   5 -1.5236 9.47824   7
 -10   0  -5 0.15468 5.64204   2
  11  -1  -5 6.24352 11.1258   6
 -11  -1   5 6.21152 10.6836   1
 -11   1   5 6.19579 10.5902   1
  11   1  -5 6.69626 8.58039   3
  11   1  -5 4.93444 8.00358   6
  10  -1  -5 63.2484 9.11361   6
 -10  -1   5 66.4252 11.2378   4
 -10  -1   5 59.8172 10.9781   8
 -10  -1   5 77.2312 9.43873   1
 -10   1   5 60.0751 8.90373   1
  10   1  -5 54.4738 8.77513   6
  10   1  -5 79.2892 8.04894   3
  -9  -1   5 1.38946 5.21343   1
  -9  -1   5 5.16143 3.98843   8
  -9  -1   5 5.34623 3.89599   4
   9  -1  -5 9.57075 5.62149   6
   9  -1  -5 9.95495 4.69961   3
  -9  -1   5 12.6256 3.18844   2
   9   1  -5 8.70993 5.86201   6
  -9   1   5 2.24140 4.25637   4
   9   1  -5 9.98621 6.64082   3
  -9   1   5 7.71338 5.67913   1
  -9   1   5 0.27947 4.16589   8
  -8  -1   5 1.03799 4.49446   8
  -8  -1   5 2.38656 2.92829   2
   8  -1  -5 0.62439 3.61747   3
  -8  -1   5 -4.6970 3.17954   9
  -8  -1   5 0.58831 4.54850   4
   8  -1  -5 5.04322 6.01850   6
  -8  -1   5 -2.3176 5.90221   1
   8   1  -5 -0.4775 4.37870   6
   8   1  -5 -3.2551 5.06855   3
  -8   1   5 3.43411 3.62885   4
  -8   1   5 -0.2026 4.23569   1
  -8   1   5 2.77487 3.60656   8
  -7  -1   5 235.677 11.5831   5
  -7  -1   5 252.412 10.7297   1
  -7  -1   5 243.662 9.62462   8
   7  -1  -5 259.241 10.9759   6
   7  -1  -5 239.047 11.7007   4
   7  -1  -5 246.724 9.13721   3
  -7  -1   5 254.983 11.5537   9
  -7  -1   5 240.973 9.49755   4
  -7   1   5 256.330 8.90198   8
   7   1  -5 246.939 10.5668   3
  -7   1   5 220.994 12.5902   3
   7   1  -5 254.782 14.6246   6
  -7   1   5 239.214 11.8461   1
  -7   1   5 260.511 10.6859   4
  -6  -1   5 5.22634 3.21956   1
  -6  -1   5 5.13819 3.25680   5
  -6  -1   5 1.22948 2.89244   3
  -6  -1   5 2.07906 2.52707   4
  -6  -1   5 3.22021 3.44686   8
   6  -1  -5 2.60594 3.02315   6
  -6  -1   5 3.53888 1.41575   9
   6  -1  -5 1.73556 2.81031   4
   6  -1  -5 5.32003 2.53908   3
   6   1  -5 3.65958 3.20569   6
  -6   1   5 3.35144 2.98424   8
  -6   1   5 3.44931 2.83290   3
  -6   1   5 0.48843 2.87390   4
  -6   1   5 5.11704 2.30672   9
   6   1  -5 1.00734 3.93492   3
  -6   1   5 4.81415 3.25671   1
   5  -1  -5 44.4754 3.90089   4
  -5  -1   5 46.3091 5.02337   1
   5  -1  -5 42.3315 2.95069   3
  -5  -1   5 51.9326 2.55765   9
  -5  -1   5 40.2127 3.77627   5
   5  -1  -5 42.1237 4.85829   6
  -5  -1   5 36.8837 4.35042   4
  -5  -1   5 40.2221 4.40001   8
   5   1  -5 42.9185 5.36988   1
  -5   1   5 49.7435 4.28707   5
   5   1  -5 47.3258 4.56220   6
  -5   1   5 52.4048 4.05740   4
   5   1  -5 37.8859 3.75284   5
  -5   1   5 54.1357 3.93062   9
  -5   1   5 40.0025 2.76542   3
   5   1  -5 43.4573 4.65272   3
  -5   1   5 44.7982 3.44729   8
  -5   1   5 47.7816 4.60837   1
   5   1  -5 43.8551 4.78983   4
   4  -1  -5 2.74240 2.09031   6
  -4  -1   5 2.86472 1.08487   9
   4  -1  -5 3.13865 1.31961   3
   4  -1  -5 1.55917 2.78700   1
   4  -1  -5 2.31621 3.18083   4
  -4  -1   5 4.36854 2.07091   8
  -4  -1   5 2.08835 2.68306   4
  -4  -1   5 3.37532 2.00730   1
  -4  -1   5 3.28076 1.72234   5
   4   1  -5 2.33425 2.99090   4
  -4   1   5 5.78464 1.92298   4
  -4   1   5 -0.0559 1.47236   2
  -4   1   5 0.24177 1.93582   5
   4   1  -5 2.11610 1.71305   5
  -4   1   5 3.90091 1.59885   9
   4   1  -5 5.33539 2.19696   3
  -4   1   5 4.44975 2.58013   1
   4   1  -5 4.57532 2.48277   1
   3  -1  -5 87.2895 4.57195   3
  -3  -1   5 84.9209 4.72108   5
   3  -1  -5 87.1232 4.49275   6
  -3  -1   5 94.8377 4.51747   1
  -3  -1   5 82.8897 4.60466   8
   3  -1  -5 84.5046 5.77307   9
  -3  -1   5 85.8618 4.48836   2
  -3  -1   5 94.4589 4.45884   4
  -3  -1   5 87.7899 3.84775   9
   3  -1  -5 96.9096 4.62750   4
   3  -1  -5 91.5281 5.78105   1
  -3   1   5 88.4077 4.25056   4
  -3   1   5 99.3178 4.67408   2
  -3   1   5 89.8149 4.59756   5
   3   1  -5 86.2315 5.25905   1
   3   1  -5 81.5569 4.82693   4
   3   1  -5 97.1485 4.88025   3
  -3   1   5 88.4569 4.41921   9
  -3   1   5 90.3368 4.88461   1
   3   1  -5 86.9569 4.50046   5
   2  -1  -5 4743.56 161.749   5
  -2  -1   5 4570.43 210.162   5
   2  -1  -5 4593.36 174.141   3
   2  -1  -5 4375.87 123.329   6
  -2  -1   5 4438.70 166.983   2
   2  -1  -5 4784.16 208.628   9
  -2  -1   5 4783.48 156.562   4
   2  -1  -5 4793.89 159.651   1
  -2  -1   5 4638.32 130.783   1
  -2  -1   5 4772.26 163.584   8
   2  -1  -5 4825.91 220.506   2
  -2   1   5 4758.95 117.863   2
   2   1  -5 4778.54 117.587   1
  -2   1   5 4834.08 187.559   4
  -2   1   5 4770.96 153.390   5
   2   1  -5 4820.09 181.030   4
  -2   1   5 4655.87 108.492   9
   2   1  -5 4787.93 170.597   2
   2   1  -5 4773.20 243.984   9
  -2   1   5 4805.80 186.633   1
   2   1  -5 4758.48 286.908   5
   1  -1  -5 1023.79 31.8777   3
   1  -1  -5 1042.97 42.6659   1
  -1  -1   5 1027.86 36.1603   5
  -1  -1   5 987.760 35.4319   1
   1  -1  -5 1067.99 49.4520   9
  -1  -1   5 1029.17 31.2108   2
   1  -1  -5 1043.46 27.0989   2
   1  -1  -5 1043.93 29.9143   5
  -1  -1   5 1041.96 29.7999   4
   1  -1  -5 1015.13 28.2216   6
   1   1  -5 1040.65 34.9837   5
   1   1  -5 1031.26 26.1681   4
  -1   1   5 1045.74 33.8620   3
  -1   1   5 1039.03 33.1987   9
   1   1  -5 1054.47 31.9358   1
   1   1  -5 1078.70 57.5086   7
  -1   1   5 1042.82 34.2646   1
   1   1  -5 1069.31 49.3370   2
  -1   1   5 1007.01 38.3717   2
  -1   1   5 1031.84 22.9344   5
   0  -1   5 272.603 8.57415   4
   0  -1  -5 275.583 8.06290   9
   0  -1  -5 254.977 8.20459   5
   0  -1   5 267.362 10.9656   5
   0  -1  -5 284.095 7.80144   2
   0  -1   5 254.815 8.85674   1
   0  -1  -5 265.779 9.58061   7
   0  -1  -5 263.732 13.2040   6
   0  -1   5 276.540 12.0955   7
   0  -1  -5 254.213 14.1260   3
   0   1  -5 272.935 9.95344   5
   0   1  -5 272.484 13.7198   7
   0   1   5 269.165 8.83780   2
   0   1   5 257.315 8.83282   5
   0   1   5 270.134 11.0098   1
   0   1  -5 281.681 12.2783   4
   0   1   5 277.438 8.16592   3
   0   1  -5 272.556 11.7258   3
   0   1  -5 268.700 9.23893   2
   0   1  -5 267.109 8.52399   6
  -1  -1  -5 5.62718 2.08654   3
  -1  -1  -5 8.16212 2.15926   2
   1  -1   5 7.22407 0.93426   1
   1  -1   5 6.99299 2.14523   7
  -1  -1  -5 7.69307 0.89451   6
   1  -1   5 8.51596 2.15522   5
   1  -1   5 11.7740 2.60835   3
   1  -1   5 8.59208 1.54963   4
  -1  -1  -5 8.68064 1.53656   5
   1  -1   5 7.95727 1.69741   6
  -1   1  -5 7.03986 2.58388   5
  -1   1  -5 3.56222 1.94019   6
   1   1   5 6.97472 1.60643   5
  -1   1  -5 7.63748 2.13750   7
  -1   1  -5 9.06595 2.01051   3
  -1   1  -5 6.93445 1.73092   2
   1   1   5 8.85684 1.01394   7
   1   1   5 9.76910 1.78337   2
   1   1   5 9.41266 1.96775   3
   1   1   5 9.94779 0.94314   6
  -2  -1  -5 1181.54 36.0217   5
  -2  -1  -5 1233.01 35.9557   3
  -2  -1  -5 1238.44 32.6944   2
   2  -1   5 1279.39 41.6557   7
   2  -1   5 1229.23 45.6495   1
   2  -1   5 1242.25 34.5392   3
   2  -1   5 1284.75 41.1749   6
  -2  -1  -5 1230.07 63.7464   6
   2  -1   5 1216.64 39.1874   5
   2   1   5 1268.90 50.1766   6
  -2   1  -5 1262.55 67.6915   7
   2   1   5 1237.05 39.8256   8
   2   1   5 1286.74 42.5147   5
  -2   1  -5 1246.35 47.6289   1
  -2   1  -5 1201.64 48.6372   5
  -2   1  -5 1191.19 35.4820   3
  -2   1  -5 1261.21 35.0875   6
  -2   1  -5 1227.39 48.4598   2
   2   1   5 1315.13 38.8766   3
   2   1   5 1247.35 56.1285   2
   3  -1   5 225.792 6.69458   1
  -3  -1  -5 223.177 11.7189   3
  -3  -1  -5 224.600 6.60215   5
   3  -1   5 223.013 9.17671   8
   3  -1   5 204.262 8.17000   3
   3  -1   5 230.394 9.09158   6
   3  -1   5 241.002 8.13499   7
  -3  -1  -5 232.352 9.91312   6
   3  -1   5 229.235 8.38469   5
  -3  -1  -5 214.962 7.29141   2
   3   1   5 238.688 8.59546   1
   3   1   5 222.061 11.4608   5
   3   1   5 227.633 9.44110   3
  -3   1  -5 224.866 7.80616   3
   3   1   5 227.502 9.66434   2
   3   1   5 220.004 7.17063   6
  -3   1  -5 227.411 9.70375   6
   3   1   5 236.302 12.5536   8
  -3   1  -5 230.978 8.69828   1
  -3   1  -5 228.056 9.71908   5
  -4  -1  -5 10.3870 1.77187   5
   4  -1   5 13.4872 3.63261   1
   4  -1   5 11.2550 3.95991   7
   4  -1   5 10.3506 1.56879   4
   4  -1   5 10.4941 1.61633   8
   4  -1   5 8.85799 3.69027   6
  -4  -1  -5 8.61261 3.07558   6
  -4  -1  -5 10.5819 2.64937   2
   4  -1   5 9.38504 3.93272   3
  -4  -1  -5 10.7318 4.10996   3
  -4   1  -5 8.06140 3.44936   6
   4   1   5 7.86030 2.88940   8
   4   1   5 11.7360 4.15922   3
   4   1   5 13.8141 3.26123   1
   4   1   5 11.4110 3.00755   4
  -4   1  -5 11.9013 3.52089   5
   4   1   5 5.99211 2.87033   6
  -4   1  -5 6.92558 2.38639   1
  -4   1  -5 9.90601 3.66596   3
   5  -1   5 504.412 13.6455   4
  -5  -1  -5 492.048 16.9950   5
   5  -1   5 485.077 25.8156   1
  -5  -1  -5 501.078 23.9796   6
   5  -1   5 468.382 13.9404   6
  -5  -1  -5 490.453 13.5558   2
   5  -1   5 484.056 21.1450   3
   5  -1   5 501.754 16.4953   7
   5  -1   5 504.943 13.4062   8
  -5   1  -5 470.858 15.1456   2
  -5   1  -5 489.973 22.0281   5
   5   1   5 524.627 24.7997   4
   5   1   5 467.088 13.4456   6
  -5   1  -5 464.942 15.0853   1
   5   1   5 508.699 22.0460   8
   5   1   5 487.608 15.4706   3
   6  -1   5 838.435 30.8702   8
   6  -1   5 809.853 32.0757   4
   6  -1   5 817.562 26.7976   6
  -6  -1  -5 798.806 22.0472   5
   6  -1   5 824.294 24.1036   3
  -6  -1  -5 813.804 28.3031   2
   6  -1   5 792.235 33.0592   7
  -6   1  -5 799.921 23.9723   1
  -6   1  -5 842.545 27.0917   2
  -6   1  -5 820.117 29.9045   5
   6   1   5 869.262 42.4483   4
   6   1   5 819.837 35.4055   3
   6   1   5 858.864 44.4288   8
   6   1   5 812.036 20.7006   6
  -7  -1  -5 61.8355 5.84089   2
   7  -1   5 69.6098 4.89509   8
   7  -1   5 67.6734 7.83285   3
   7  -1   5 61.3329 4.49781   4
   7  -1   5 57.1995 8.26531   7
  -7  -1  -5 64.0797 4.12923   5
   7  -1   5 50.4351 7.81736   6
   7   1   5 60.8749 6.28953   6
   7   1   5 57.4456 8.10125   3
  -7   1  -5 55.0590 5.56243   5
  -7   1  -5 69.6697 6.71361   2
  -7   1  -5 54.1335 7.08418   1
   8  -1   5 118.217 10.9857   6
  -8  -1  -5 138.445 8.63600   2
   8  -1   5 119.684 11.2852   7
   8  -1   5 143.551 9.58622   3
   8   1   5 128.372 9.80741   3
   8   1   5 128.634 9.50433   6
  -8   1  -5 115.774 10.0632   1
  -8   1  -5 146.096 9.63067   2
  -8   1  -5 151.260 9.45732   5
   9  -1   5 -0.7507 6.11148   7
   9  -1   5 3.09704 7.84674   3
   9  -1   5 -0.8633 5.43559   6
  -9  -1  -5 -2.4107 10.2985   2
  -9   1  -5 -1.3926 7.62748   1
  -9   1  -5 -0.9842 3.87824   5
   9   1   5 2.30279 5.94842   3
   9   1   5 0.94685 5.50229   6
  -9   1  -5 2.50258 7.41212   2
  10  -1   5 0.96896 10.2634   7
  10  -1   5 9.07408 9.32860   6
  10  -1   5 5.01197 9.79117   3
  10   1   5 4.14704 6.81149   3
 -10   1  -5 6.66640 6.36028   2
  10   1   5 4.57166 9.56831   7
 -10   1  -5 1.33054 6.97118   1
  10   1   5 -4.1743 6.59878   6
 -11  -2   5 4.98138 8.64429   4
 -11  -2   5 4.77777 8.23436   1
 -11  -2   5 0.71492 5.80169   8
  11  -2  -5 21.3736 8.63375   6
 -11   2   5 43.5442 13.8342   1
  11   2  -5 9.81555 7.30908   3
  11   2  -5 6.51378 8.36427   6
  10  -2  -5 9.27953 6.99662   6
 -10  -2   5 11.6052 7.44391   4
 -10  -2   5 16.5580 6.95836   1
 -10  -2   5 13.1412 7.35073   8
 -10   2   5 8.76823 9.55555   1
  10   2  -5 12.9775 7.08061   6
  10   2  -5 15.3766 6.83866   3
  -9  -2   5 212.199 11.5786   4
  -9  -2   5 218.631 17.6696   1
  -9  -2   5 217.975 12.4814   8
   9  -2  -5 227.896 12.5326   6
   9   2  -5 237.439 13.2210   3
   9   2  -5 174.551 13.6443   6
  -9   2   5 223.985 13.0199   1
   8  -2  -5 246.296 11.8623   6
  -8  -2   5 220.359 11.3425   8
  -8  -2   5 235.031 11.5218   1
  -8  -2   5 214.140 8.80719   2
   8  -2  -5 215.952 11.2858   3
  -8  -2   5 223.184 12.6211   4
   8   2  -5 222.995 15.0444   3
  -8   2   5 226.077 13.0161   4
   8   2  -5 228.556 11.8611   6
  -8   2   5 231.274 12.4455   8
  -8   2   5 226.864 11.8761   1
  -7  -2   5 18.6742 2.38541   9
  -7  -2   5 19.6639 5.95144   1
  -7  -2   5 14.4260 3.89931   4
   7  -2  -5 15.1726 3.45515   4
  -7  -2   5 20.5941 4.01379   5
   7  -2  -5 16.9761 2.99702   3
  -7  -2   5 9.01223 4.68307   8
  -7  -2   5 20.2954 2.55648   2
   7  -2  -5 18.9193 5.98725   6
   7   2  -5 13.7184 6.36084   6
   7   2  -5 16.3790 6.13123   3
  -7   2   5 13.0669 2.68860   8
  -7   2   5 10.8826 2.62988   4
  -7   2   5 12.0621 4.72144   1
  -7   2   5 10.6381 3.21002   3
  -6  -2   5 279.598 10.0045   2
   6  -2  -5 284.612 14.9138   3
  -6  -2   5 297.218 11.8263   4
  -6  -2   5 286.443 11.5047   1
  -6  -2   5 286.945 11.5458   8
  -6  -2   5 306.389 12.4488   9
   6  -2  -5 285.621 11.5211   6
  -6  -2   5 297.533 9.94561   5
  -6   2   5 313.320 9.83634   4
  -6   2   5 321.330 28.8371   1
   6   2  -5 282.925 10.9780   3
   6   2  -5 292.835 16.0940   6
   6   2  -5 282.068 9.16217   5
  -6   2   5 308.558 9.75322   8
  -6   2   5 285.639 9.61763   3
  -5  -2   5 203.923 7.49681   2
  -5  -2   5 211.618 9.69953   5
  -5  -2   5 211.007 9.82554   4
   5  -2  -5 210.406 8.84410   6
  -5  -2   5 222.660 9.94667   9
   5  -2  -5 206.296 6.64484   3
  -5  -2   5 217.570 8.90894   8
  -5  -2   5 216.525 8.95548   1
  -5   2   5 220.528 8.69062   4
  -5   2   5 229.108 12.2062   1
   5   2  -5 213.976 8.89430   3
   5   2  -5 225.598 7.95283   5
   5   2  -5 204.557 9.75222   1
  -5   2   5 214.326 9.01292   3
  -5   2   5 230.733 9.24163   9
  -4  -2   5 19.2087 3.58458   1
  -4  -2   5 14.5625 2.88921   4
   4  -2  -5 12.6545 3.76696   1
   4  -2  -5 14.3650 1.03548   3
  -4  -2   5 14.5514 2.40450   5
   4  -2  -5 17.9235 3.49307   6
  -4  -2   5 12.9375 2.77372   8
   4   2  -5 10.4621 3.72124   4
   4   2  -5 15.3356 2.84781   5
  -4   2   5 17.0751 2.50598   4
  -4   2   5 9.21132 2.18831   9
  -4   2   5 8.40504 3.18452   6
  -4   2   5 15.6719 3.10264   2
   4   2  -5 10.3310 2.68110   1
  -4   2   5 15.9243 3.15279   5
   4   2  -5 15.4554 4.25807   3
   4   2  -5 15.6208 3.10950   8
  -4   2   5 9.34830 4.25042   1
  -3  -2   5 979.459 41.3445   5
   3  -2  -5 1036.06 48.0446   1
   3  -2  -5 1008.73 33.1137   9
  -3  -2   5 1030.79 29.3800   4
  -3  -2   5 1054.54 26.9557   8
   3  -2  -5 1027.54 29.5282   6
  -3  -2   5 1030.45 40.7703   1
  -3   2   5 1041.64 33.4094   4
   3   2  -5 1058.27 26.6769   5
  -3   2   5 1094.45 51.7659   6
   3   2  -5 1027.97 30.7250   1
  -3   2   5 1095.69 46.9037   9
  -3   2   5 1019.06 35.7872   2
   3   2  -5 1060.60 39.2504   4
  -3   2   5 1057.20 38.9000   1
  -3   2   5 1057.14 36.5334   5
   3   2  -5 1035.89 29.6862   3
   2  -2  -5 296.418 9.55365   2
  -2  -2   5 316.836 8.63705   4
  -2  -2   5 311.394 9.80515   1
   2  -2  -5 289.390 14.5925   1
  -2  -2   5 309.874 13.9568   5
   2  -2  -5 316.121 15.6603   9
  -2  -2   5 318.093 8.58978   8
   2  -2  -5 318.916 10.4549   6
  -2   2   5 333.087 11.3822   1
   2   2  -5 303.022 10.5209   1
   2   2  -5 305.452 13.5723   2
   2   2  -5 317.200 9.68484   9
   2   2  -5 321.721 16.8875   5
  -2   2   5 323.886 10.7039   6
   2   2  -5 319.056 17.2733   4
  -2   2   5 313.602 10.8854   9
  -2   2   5 317.446 11.2401   2
  -2   2   5 311.823 16.0300   5
   1  -2  -5 400.434 10.9652   2
  -1  -2   5 433.711 15.6103   4
  -1  -2   5 430.838 24.8570   5
   1  -2  -5 436.793 14.0898   9
  -1  -2   5 420.785 14.1271   8
   1  -2  -5 415.426 11.1084   7
   1  -2  -5 422.172 14.7561   3
   1  -2  -5 410.761 21.5546   1
   1  -2  -5 426.291 16.1529   6
  -1   2   5 435.028 13.8973   9
  -1   2   5 418.400 10.3746   5
   1   2  -5 425.792 13.7722   5
  -1   2   5 429.138 15.0100   1
   1   2  -5 434.012 19.7867   7
   1   2  -5 442.484 11.7907   4
  -1   2   5 431.858 12.3802   6
  -1   2   5 437.507 20.4702   2
  -1   2   5 425.263 10.7496   3
   1   2  -5 430.482 11.2178   1
   0  -2   5 1299.81 66.4852   7
   0  -2   5 1288.35 83.1865   5
   0  -2   5 1303.29 54.8538   8
   0  -2   5 1282.79 33.3187   4
   0  -2  -5 1311.72 40.2069   3
   0  -2  -5 1312.85 28.2890   2
   0  -2  -5 1279.64 34.5853   9
   0   2  -5 1296.21 36.9851   5
   0   2   5 1293.05 61.1087   1
   0   2   5 1290.10 48.3060   9
   0   2  -5 1312.30 47.5467   6
   0   2   5 1319.66 35.0341   6
   0   2  -5 1369.34 38.9090   1
   0   2   5 1368.17 36.7825   3
   0   2   5 1311.38 54.9585   2
   0   2  -5 1366.30 39.1636   4
   0   2  -5 1341.17 52.7458   7
   0   2   5 1336.23 41.8855   5
   0   2  -5 1268.85 56.9337   1
  -1  -2  -5 13.1008 2.12331   2
  -1  -2  -5 15.4447 2.10945   9
   1  -2   5 17.0326 2.40440   6
   1  -2   5 10.3639 3.63771   5
   1  -2   5 16.6090 1.21195   1
   1  -2   5 16.2923 1.71662   4
   1  -2   5 16.0798 2.48909   7
  -1  -2  -5 16.1322 1.84098   5
  -1  -2  -5 11.9573 2.56266   3
   1  -2   5 16.0887 1.74567   8
   1   2   5 18.0045 1.06801   6
  -1   2  -5 14.5858 2.84444   6
  -1   2  -5 17.0790 1.16275   1
   1   2   5 12.4171 1.74710   5
   1   2   5 14.2599 2.17850   8
  -1   2  -5 10.7326 2.37968   7
   1   2   5 19.4576 2.91602   3
  -1   2  -5 15.5877 2.15045   4
  -1   2  -5 15.2443 2.48043   3
   1   2   5 14.0359 2.62380   2
  -1   2  -5 16.3495 2.91364   5
   2  -2   5 88.8387 3.42597   1
   2  -2   5 85.3696 4.79954   6
   2  -2   5 92.8984 4.76487   3
  -2  -2  -5 95.2011 4.37553   9
   2  -2   5 87.3255 3.17680   4
   2  -2   5 88.5603 5.01928   7
  -2  -2  -5 94.9580 4.56050   2
   2  -2   5 85.5859 5.42818   5
  -2  -2  -5 95.1964 3.53770   5
  -2  -2  -5 83.8911 5.48918   3
  -2   2  -5 100.991 5.01078   6
   2   2   5 101.968 29.2057   2
   2   2   5 95.6695 3.34527   6
  -2   2  -5 95.4467 5.81600   7
  -2   2  -5 88.1806 3.44877   1
   2   2   5 94.7504 3.61111   5
   2   2   5 98.3625 5.05635   8
  -2   2  -5 95.0910 30.8839   3
   2   2   5 93.1717 5.12306   3
  -2   2  -5 101.618 5.66361   5
   3  -2   5 167.946 5.19420   4
   3  -2   5 177.565 6.19586   1
  -3  -2  -5 162.336 9.57211   3
   3  -2   5 179.309 8.20017   7
   3  -2   5 179.946 7.38439   8
   3  -2   5 190.997 7.59879   3
  -3  -2  -5 184.343 6.67662   2
  -3  -2  -5 175.192 6.23811   5
   3  -2   5 183.866 7.88879   6
  -3   2  -5 194.624 9.39341   6
   3   2   5 173.093 7.72507   2
  -3   2  -5 181.278 6.15670   1
   3   2   5 181.590 6.63411   5
   3   2   5 180.404 6.99324   8
  -3   2  -5 183.713 8.68115   5
  -3   2  -5 171.919 7.03307   3
   3   2   5 182.432 8.12423   3
   3   2   5 184.239 5.97116   6
  -3   2  -5 181.269 7.78891   7
   4  -2   5 239.055 9.40164   8
   4  -2   5 234.655 9.73695   6
   4  -2   5 235.329 9.97546   4
   4  -2   5 222.310 5.71609   4
   4  -2   5 237.632 9.85912   7
   4  -2   5 243.516 8.68480   3
  -4  -2  -5 223.268 7.98974   2
  -4  -2  -5 236.226 6.10470   5
   4  -2   5 234.149 10.1113   1
   4   2   5 229.846 12.8745   2
  -4   2  -5 226.934 12.9008   3
  -4   2  -5 229.797 13.7336   5
   4   2   5 260.529 13.0468   8
  -4   2  -5 241.590 10.0743   1
   4   2   5 248.419 12.7703   4
   4   2   5 232.452 7.54507   6
   4   2   5 227.520 9.88438   3
   5  -2   5 483.293 18.1579   7
   5  -2   5 439.202 26.5880   1
   5  -2   5 444.231 12.2168   4
   5  -2   5 447.274 15.5400   4
   5  -2   5 442.125 15.1750   3
   5  -2   5 470.868 15.3318   6
  -5  -2  -5 423.107 12.4492   2
   5  -2   5 445.585 16.3930   8
  -5   2  -5 480.340 28.2244   5
  -5   2  -5 455.805 17.3663   1
   5   2   5 482.519 15.8534   3
   5   2   5 464.530 16.6217   6
   6  -2   5 16.9080 4.94230   7
  -6  -2  -5 17.6029 4.77915   2
   6  -2   5 21.8114 1.46595   4
   6  -2   5 18.0337 4.74170   6
   6  -2   5 17.6106 5.42780   3
   6   2   5 23.1271 6.54389   3
  -6   2  -5 14.9217 3.77566   1
  -6   2  -5 20.8329 4.69232   5
   6   2   5 17.5068 3.71216   6
   7  -2   5 33.5056 5.33422   3
   7  -2   5 21.7230 7.48937   7
  -7  -2  -5 26.0574 4.64547   2
   7  -2   5 24.9701 7.25081   6
   7   2   5 28.2238 4.97133   6
  -7   2  -5 29.0911 6.96450   5
  -7   2  -5 21.3888 6.07680   1
   7   2   5 22.8188 7.47355   3
   8  -2   5 2.34928 7.82904   7
   8  -2   5 -3.4944 4.31487   3
  -8  -2  -5 -1.8141 3.84068   2
   8  -2   5 3.23384 5.36663   6
   8   2   5 3.94119 6.32901   6
  -8   2  -5 -1.1915 4.58401   1
  -8   2  -5 -0.2482 6.62995   2
   8   2   5 -1.9013 5.48971   3
  -8   2  -5 -0.9269 4.56744   5
   9  -2   5 285.611 14.6898   3
   9  -2   5 290.526 16.2576   6
  -9  -2  -5 291.394 14.1215   2
   9  -2   5 289.371 18.0527   7
  -9   2  -5 274.240 14.9053   1
   9   2   5 297.929 14.8592   6
   9   2   5 304.744 17.4851   3
  -9   2  -5 301.558 17.1205   2
  -9   2  -5 288.587 20.1118   5
  10  -2   5 4.93302 6.75562   3
  10  -2   5 -1.8967 7.29829   7
 -10  -2  -5 10.1606 7.70022   2
  10  -2   5 6.59917 7.76758   6
  10   2   5 4.76454 6.98067   6
 -10   2  -5 5.26830 7.64310   2
 -10   2  -5 18.2660 9.55348   1
  10   2   5 -2.3037 9.40061   3
  10  -3  -5 69.4101 12.4338   7
 -10  -3   5 75.0945 8.66410   4
  10  -3  -5 59.4726 9.27533   6
 -10  -3   5 75.2873 8.59927   8
 -10   3   5 69.8388 12.3382   1
  10   3  -5 78.0990 10.0245   3
  10   3  -5 68.3750 9.96252   6
   9  -3  -5 21.7818 8.76650   6
   9  -3  -5 11.7012 6.57912   7
  -9  -3   5 14.5552 5.63083   4
  -9  -3   5 17.3073 5.80789   8
  -9   3   5 10.5992 6.31539   1
   9   3  -5 24.9829 9.30900   3
   9   3  -5 12.2383 6.37748   6
   8  -3  -5 158.337 10.6520   7
   8  -3  -5 172.181 10.5466   6
  -8  -3   5 156.957 10.3451   8
  -8  -3   5 150.374 10.3357   4
   8   3  -5 159.267 11.6292   3
   8   3  -5 159.265 11.6918   6
  -8   3   5 148.586 11.6630   1
  -7  -3   5 84.6445 5.98351   5
   7  -3  -5 101.616 8.14002   7
  -7  -3   5 91.1201 7.74449   8
   7  -3  -5 80.7602 7.28264   6
  -7  -3   5 90.7478 4.59401   9
   7  -3  -5 63.7390 4.54382   3
  -7  -3   5 72.3017 7.26310   4
  -7   3   5 79.5801 4.72161   4
  -7   3   5 81.4816 5.16882   8
   7   3  -5 85.8813 9.18414   3
  -7   3   5 87.3284 9.02403   1
   7   3  -5 82.7850 7.64372   6
   6  -3  -5 1997.60 70.6114   6
  -6  -3   5 2227.40 69.7705   4
  -6  -3   5 2076.97 151.188   5
  -6  -3   5 2073.95 68.5229   2
  -6  -3   5 2152.35 80.8713   9
   6  -3  -5 2180.80 69.8474   7
  -6  -3   5 2057.04 67.3690   9
  -6  -3   5 2271.56 79.6727   8
  -6   3   5 2307.91 69.6571   4
   6   3  -5 2289.45 81.1961   3
  -6   3   5 2240.04 81.7779   3
   6   3  -5 2225.69 77.9740   5
  -6   3   5 2247.70 75.6954   1
   5  -3  -5 591.593 22.2738   7
   5  -3  -5 612.125 24.4120   6
  -5  -3   5 636.368 22.6263   5
  -5  -3   5 639.781 24.7399   8
  -5  -3   5 630.253 22.0125   4
  -5   3   5 646.149 27.2661   1
   5   3  -5 632.982 29.1413   5
  -5   3   5 621.673 21.1985   4
   5   3  -5 634.508 20.3581   3
   4  -3  -5 33.7772 3.61550   6
   4  -3  -5 44.3420 4.77289   7
  -4  -3   5 34.4765 3.26174   5
   4  -3  -5 41.5338 4.06337   9
  -4  -3   5 33.0941 3.89207   4
  -4  -3   5 33.5205 3.93130   8
   4   3  -5 33.8096 3.26516   5
  -4   3   5 38.9412 3.54693   4
  -4   3   5 29.6869 4.40637   6
   4   3  -5 33.3722 3.87476   1
  -4   3   5 28.9386 4.58136   1
   4   3  -5 30.7666 4.57989   3
   3  -3  -5 335.387 12.0416   9
  -3  -3   5 325.118 10.6857   8
  -3  -3   5 329.749 9.87775   5
   3  -3  -5 311.166 9.38767   7
   3  -3  -5 321.434 11.0048   6
  -3  -3   5 325.955 10.1713   4
   3  -3  -5 277.259 21.7362   1
  -3   3   5 346.695 13.2407   1
   3   3  -5 339.773 11.8625   5
  -3   3   5 349.294 10.3757   6
   3   3  -5 319.033 15.0703   1
   3   3  -5 318.672 13.7571   8
  -3   3   5 348.268 11.5261   2
   3   3  -5 338.497 12.3812   3
   3   3  -5 314.731 12.4518   4
  -3   3   5 338.670 13.8783   9
  -2  -3   5 0.03337 2.03780   5
   2  -3  -5 -0.7497 4.04844   1
   2  -3  -5 0.14446 1.87508   6
   2  -3  -5 1.08102 1.93865   7
  -2  -3   5 1.62971 1.90366   8
  -2  -3   5 0.70473 2.62502   4
   2  -3  -5 -1.8694 2.45461   9
   2   3  -5 -0.0975 0.72595   9
  -2   3   5 1.36702 1.85693   2
  -2   3   5 3.39767 2.92004   1
   2   3  -5 0.98723 1.41501   1
  -2   3   5 0.42547 0.91114   3
   2   3  -5 0.51111 1.94396   4
   2   3  -5 0.56917 0.76221   2
   2   3  -5 2.19276 2.10399   8
  -2   3   5 1.37612 1.96171   6
   2   3  -5 0.35412 2.02853   5
  -2   3   5 1.17564 1.81477   9
  -1  -3   5 2683.72 179.172   5
   1  -3  -5 2687.07 161.720   1
   1  -3  -5 2646.23 88.4703   7
  -1  -3   5 2661.73 75.3320   4
   1  -3  -5 2617.42 73.8753   3
   1  -3  -5 2643.05 74.9834   2
   1  -3  -5 2668.39 68.3771   9
   1  -3  -5 2718.41 101.597   6
  -1  -3   5 2745.74 68.0887   8
  -1   3   5 2668.75 85.6123   3
  -1   3   5 2651.83 110.545   9
  -1   3   5 2725.98 110.793   2
   1   3  -5 2825.13 79.4538   5
   1   3  -5 2786.63 71.2923   9
   1   3  -5 2778.24 86.1942   7
   1   3  -5 2809.77 95.6259   4
  -1   3   5 2820.20 89.0057   5
   1   3  -5 2771.73 93.5927   1
   1   3  -5 2793.59 81.5732   8
  -1   3   5 2692.54 75.8109   6
  -1   3   5 2692.83 93.3916   1
   0  -3  -5 314.182 10.1205   3
   0  -3   5 322.592 9.26782   8
   0  -3   5 321.795 14.4823   7
   0  -3   5 315.881 10.6652   4
   0  -3  -5 315.420 14.1684   7
   0  -3  -5 301.954 8.81443   2
   0  -3   5 317.577 11.7943   5
   0  -3  -5 316.829 13.8842   9
   0   3   5 332.441 9.85894   5
   0   3  -5 351.875 9.95631   4
   0   3   5 319.208 9.37656   3
   0   3  -5 334.835 15.5028   6
   0   3  -5 310.764 13.1727   1
   0   3   5 328.404 10.6440   7
   0   3   5 317.710 10.9554   8
   0   3   5 316.647 12.7127   9
   0   3   5 319.205 14.3058   2
   0   3   5 316.796 10.3065   1
   0   3   5 328.967 9.23855   6
   0   3  -5 323.564 13.7013   7
   0   3  -5 325.488 10.5220   5
   1  -3   5 7.30632 4.13746   5
  -1  -3  -5 6.59719 2.23910   3
   1  -3   5 2.92326 2.41057   6
   1  -3   5 5.37959 1.31978   4
   1  -3   5 4.47718 1.62176   8
   1  -3   5 6.52304 1.51736   1
   1  -3   5 3.03948 3.37492   7
  -1  -3  -5 5.54065 2.07679   2
  -1  -3  -5 3.74447 1.91936   9
  -1   3  -5 3.98942 3.98241   5
  -1   3  -5 4.61374 1.86914   4
   1   3   5 5.92797 1.17857   6
   1   3   5 3.48224 2.69940   2
  -1   3  -5 7.37086 1.58442   1
  -1   3  -5 5.40257 2.37847   6
   1   3   5 2.95003 1.25891   7
   1   3   5 0.54219 1.70754   5
   1   3   5 5.86629 2.80444   3
  -1   3  -5 3.10116 2.36700   7
   1   3   5 4.16237 2.18193   8
   1   3   5 3.65315 2.59330   9
  -1   3  -5 0.50728 2.09380   3
   2  -3   5 1027.64 44.0423   4
  -2  -3  -5 1060.92 34.4728   9
  -2  -3  -5 1075.22 29.8086   2
   2  -3   5 1102.50 22.9914   6
   2  -3   5 1008.94 36.6632   1
   2  -3   5 1066.43 43.2707   7
  -2  -3  -5 1068.62 35.2022   3
   2  -3   5 1055.00 54.1688   5
   2  -3   5 1022.28 37.8126   8
  -2   3  -5 1106.45 45.0076   5
  -2   3  -5 1131.49 51.3421   6
   2   3   5 1068.88 29.7076   5
  -2   3  -5 1026.24 35.2659   1
   2   3   5 1081.94 35.7535   2
   2   3   5 1106.13 28.9637   3
  -2   3  -5 1096.31 48.6561   7
  -2   3  -5 1096.80 32.4660   4
  -2   3  -5 1117.04 45.0182   3
   2   3   5 1067.36 45.8515   8
  -3  -3  -5 274.576 8.73235   2
  -3  -3  -5 282.861 9.65562   9
   3  -3   5 286.384 10.4901   7
   3  -3   5 279.635 11.8778   1
   3  -3   5 290.269 11.5122   8
   3  -3   5 305.267 10.3367   6
  -3  -3  -5 272.704 26.1450   3
  -3   3  -5 268.001 11.4042   3
   3   3   5 285.937 10.1448   3
   3   3   5 299.590 14.3624   2
   3   3   5 283.819 10.4398   6
  -3   3  -5 282.612 20.2728   5
  -3   3  -5 282.076 8.35440   1
   3   3   5 292.885 7.55341   5
  -4  -3  -5 430.748 12.1865   9
   4  -3   5 437.571 13.6557   6
   4  -3   5 423.579 21.4008   1
   4  -3   5 458.564 15.4210   7
  -4  -3  -5 452.037 13.9898   2
   4  -3   5 448.193 13.0150   3
  -4   3  -5 451.094 16.1738   1
   4   3   5 448.834 17.7100   3
  -4   3  -5 449.687 15.7733   5
   4   3   5 457.253 11.4859   6
   4   3   5 452.700 18.5544   2
  -4   3  -5 435.560 25.5880   3
  -5  -3  -5 53.2185 5.21080   8
   5  -3   5 55.9293 7.10518   7
  -5  -3  -5 52.0992 8.57243   2
   5  -3   5 46.7446 6.57728   6
   5  -3   5 49.8740 6.18622   1
   5  -3   5 53.0808 5.08230   3
  -5   3  -5 57.5035 6.54257   5
  -5   3  -5 42.7691 4.25148   1
   5   3   5 37.2615 4.73910   6
   5   3   5 46.4811 6.97546   3
  -6  -3  -5 66.6363 6.04940   8
   6  -3   5 88.5468 6.57870   3
   6  -3   5 91.1783 7.73645   6
   6  -3   5 75.6921 7.66195   7
  -6  -3  -5 81.5548 5.85091   2
  -6   3  -5 83.1334 6.29859   1
   6   3   5 78.0029 8.29397   3
  -6   3  -5 93.2055 9.50642   5
   6   3   5 74.1515 6.60840   6
  -7  -3  -5 63.6683 6.72317   2
   7  -3   5 69.2918 6.77311   3
   7  -3   5 51.4724 8.81700   6
   7  -3   5 50.6223 9.21414   7
   7   3   5 47.4024 8.97118   3
   7   3   5 53.3529 7.02299   6
  -7   3  -5 58.9505 9.25187   5
  -7   3  -5 54.1234 6.07514   1
  -8  -3  -5 99.2506 7.39426   2
   8  -3   5 105.060 10.4532   7
   8  -3   5 91.0386 8.07774   3
   8  -3   5 97.5877 9.68820   6
  -8   3  -5 86.6728 9.52947   1
   8   3   5 108.303 15.4984   3
  -8   3  -5 130.334 14.5090   5
   8   3   5 81.9081 7.66671   6
  -9  -3  -5 5.93105 4.76080   2
   9  -3   5 3.87449 6.71192   6
   9  -3   5 12.6677 6.10359   3
   9  -3   5 1.47160 7.07384   7
  -9   3  -5 1.78679 6.25201   2
   9   3   5 0.04331 6.73160   3
  -9   3  -5 12.8700 9.09991   5
   9   3   5 4.19792 5.61283   6
  -9   3  -5 1.76143 5.68559   1
  10  -3   5 143.656 11.7331   3
 -10  -3  -5 148.672 12.1696   2
  10  -3   5 144.916 13.4118   6
  10  -3   5 144.769 16.4472   7
 -10   3  -5 149.649 13.8580   2
 -10   3  -5 137.712 12.0583   1
  10   3   5 152.669 13.1286   3
  10   3   5 128.031 13.6120   6
 -10   3  -5 159.780 13.9671   5
 -10  -4   5 32.8603 7.89508   8
 -10  -4   5 44.8067 8.62757   4
  10  -4  -5 53.6797 12.7878   7
  10  -4  -5 59.7827 11.5277   6
 -10   4   5 52.4001 10.0988   1
  10   4  -5 48.3439 9.82235   6
  10   4  -5 65.6293 13.1161   3
  -9  -4   5 42.1852 7.11528   8
  -9  -4   5 35.3411 6.93342   4
   9  -4  -5 45.5226 8.43310   7
   9  -4  -5 43.2488 7.74294   6
   9   4  -5 48.0094 10.8066   6
   9   4  -5 47.1797 8.67363   3
  -9   4   5 37.7822 8.08286   1
  -8  -4   5 158.198 9.99303   8
   8  -4  -5 158.046 11.2278   7
   8  -4  -5 162.142 10.5914   6
  -8  -4   5 156.991 9.95736   4
   8   4  -5 117.457 10.7332   3
  -8   4   5 147.724 12.5896   1
   8   4  -5 153.299 12.3629   6
  -7  -4   5 0.26013 4.06344   4
  -7  -4   5 0.96148 4.07345   8
   7  -4  -5 -0.0399 4.36401   7
   7  -4  -5 0.20031 4.06979   6
  -7   4   5 -1.0185 6.90927   1
   7   4  -5 4.97653 5.52434   3
   6  -4  -5 95.8808 8.07206   6
  -6  -4   5 85.8807 5.74646   5
  -6  -4   5 79.3770 7.56067   4
  -6  -4   5 86.2264 7.79396   8
   6  -4  -5 81.4066 8.28334   7
   6   4  -5 81.3930 9.39051   3
  -6   4   5 82.3683 5.12506   4
   6   4  -5 84.9782 5.14449   5
  -6   4   5 109.926 8.68596   1
   5  -4  -5 488.784 20.5960   7
  -5  -4   5 483.899 20.9770   5
  -5  -4   5 511.369 15.5768   4
  -5  -4   5 511.407 15.2845   8
   5  -4  -5 500.035 16.8586   6
   5   4  -5 509.064 22.5261   5
  -5   4   5 510.060 18.1416   1
  -5   4   5 486.344 19.0705   4
   5   4  -5 508.505 21.3264   3
  -4  -4   5 37.3167 3.78819   5
   4  -4  -5 51.6987 6.59612   7
  -4  -4   5 43.3844 5.28627   8
  -4  -4   5 47.2159 5.44566   4
   4  -4  -5 38.2000 4.43957   9
  -4   4   5 36.9305 5.52723   1
   4   4  -5 42.4687 5.45972   1
  -4   4   5 35.6267 4.37114   4
   4   4  -5 38.2105 3.81642   5
   4   4  -5 38.8320 5.62428   3
  -4   4   5 38.0095 4.55040   6
   3  -4  -5 3.84429 2.65767   9
   3  -4  -5 3.43774 2.99156   6
   3  -4  -5 3.76498 2.18514   7
  -3  -4   5 2.64437 2.61134   5
  -3  -4   5 3.36587 2.59978   8
  -3  -4   5 4.37291 2.78352   4
   3   4  -5 0.57008 1.16432   2
  -3   4   5 2.39575 1.09790   3
  -3   4   5 0.59390 3.49478   1
  -3   4   5 1.61128 2.24283   6
   3   4  -5 3.78662 3.32981   1
   3   4  -5 2.09155 1.15530   9
   3   4  -5 3.07692 3.39455   5
   3   4  -5 4.65654 5.39317   3
  -3   4   5 1.26490 0.84237   3
  -2  -4   5 250.568 9.33252   4
  -2  -4   5 242.624 14.1946   5
  -2  -4   5 248.547 8.88875   8
   2  -4  -5 251.319 7.67329   6
   2  -4  -5 262.240 8.80660   9
   2  -4  -5 257.990 8.14681   7
   2   4  -5 252.446 11.2021   1
   2   4  -5 251.093 11.6250   2
   2   4  -5 247.477 10.3032   9
   2   4  -5 238.281 11.1599   5
  -2   4   5 257.172 15.2354   6
   2   4  -5 263.706 11.9646   8
  -2   4   5 246.187 10.1339   1
  -2   4   5 259.539 9.09315   3
   2   4  -5 259.765 10.6432   3
   2   4  -5 266.581 12.3335   4
   1  -4  -5 71.0135 4.53030   9
  -1  -4   5 77.4634 5.77749   5
  -1  -4   5 73.0730 4.80262   8
  -1  -4   5 69.0332 4.76905   4
   1  -4  -5 76.7595 3.81558   6
   1  -4  -5 73.4065 5.37003   2
   1  -4  -5 81.7936 4.22794   7
  -1  -4   5 78.6380 5.78438   7
   1   4  -5 71.0762 4.55813   4
   1   4  -5 68.0683 6.12645   7
  -1   4   5 70.3375 5.74458   1
  -1   4   5 75.7356 3.93914   6
   1   4  -5 72.9712 5.59551   5
  -1   4   5 70.8804 4.49426   8
  -1   4   5 69.8430 6.13018   9
   1   4  -5 68.5160 3.58973   9
   1   4  -5 80.8638 5.22166   8
  -1   4   5 72.5799 5.36570   2
   1   4  -5 75.0659 5.65625   6
  -1   4   5 68.3253 3.77180   7
  -1   4   5 73.6992 4.09742   3
   0  -4   5 9.36471 2.58806   8
   0  -4   5 9.40447 4.00621   7
   0  -4   5 7.21054 2.02444   4
   0  -4  -5 5.45433 2.44690   2
   0  -4   5 7.09906 4.71888   5
   0  -4  -5 3.80815 2.99605   9
   0  -4  -5 9.28222 2.97779   3
   0  -4  -5 9.39508 2.12314   7
   0   4   5 7.84268 2.45503   9
   0   4  -5 2.84910 2.62988   4
   0   4  -5 5.05843 4.49285   5
   0   4   5 -4.2573 4.34517   1
   0   4  -5 4.68943 2.60699   9
   0   4  -5 4.86279 2.10844   1
   0   4   5 4.03459 2.47361   2
   0   4   5 -0.4801 3.28501   8
   0   4  -5 7.19955 3.97317   7
   0   4   5 7.40246 2.26854   3
   0   4  -5 2.01326 2.69544   8
   0   4   5 6.74700 1.97596   7
   0   4   5 4.51261 1.47595   6
   0   4  -5 7.34181 3.97837   6
  -1  -4  -5 1697.09 39.4807   9
   1  -4   5 1767.18 52.9769   7
   1  -4   5 1640.64 43.7586   4
  -1  -4  -5 1737.98 77.8876   3
  -1  -4  -5 1741.88 37.7174   2
   1  -4   5 1659.01 66.7489   8
  -1   4  -5 1783.52 103.831   5
  -1   4  -5 1922.29 65.5157   4
   1   4   5 1755.32 60.9686   5
   1   4   5 1821.89 52.9410   6
   1   4   5 1787.11 74.8536   9
  -1   4  -5 1864.95 63.6385   1
   1   4   5 1838.08 52.5565   2
   1   4   5 1753.11 58.5133   3
   1   4   5 1746.19 81.7352   8
   1   4   5 1772.81 59.3418   7
  -1   4  -5 1829.59 56.5864   9
  -2  -4  -5 1.48371 4.02470   3
  -2  -4  -5 -1.5744 2.83339   9
   2  -4   5 0.50433 2.88429   6
   2  -4   5 -1.1764 2.44012   1
   2  -4   5 -0.1353 1.34898   8
   2  -4   5 0.12659 1.30752   4
  -2  -4  -5 -0.8492 2.02306   2
   2  -4   5 2.59369 3.11752   7
   2   4   5 0.19607 1.20048   5
   2   4   5 3.68973 3.71520   3
  -2   4  -5 6.19310 5.20548   5
  -2   4  -5 1.11090 1.66740   4
  -2   4  -5 1.18617 3.88580   3
   2   4   5 0.45443 1.77448   7
  -2   4  -5 -0.5934 2.27747   1
   2   4   5 0.93864 2.36593   2
   3  -4   5 9.43725 1.13466   8
   3  -4   5 12.1378 5.13252   7
  -3  -4  -5 6.91575 2.43739   9
   3  -4   5 6.04018 3.37635   6
  -3  -4  -5 8.50653 2.72579   2
   3  -4   5 7.65243 2.38398   1
  -3   4  -5 3.71761 3.22573   3
   3   4   5 5.28585 1.57906   5
   3   4   5 6.28509 19.6343   2
  -3   4  -5 7.97884 4.45426   5
  -3   4  -5 12.4191 3.03401   1
   3   4   5 9.78895 1.63010   5
   3   4   5 12.1122 3.78308   3
  -4  -4  -5 48.1082 8.16202   2
   4  -4   5 35.7083 4.90066   1
   4  -4   5 41.2406 6.55899   6
   4  -4   5 38.4391 5.50420   7
  -4  -4  -5 39.6080 6.77021   9
   4   4   5 43.7686 5.58663   3
  -4   4  -5 44.3933 4.07701   1
  -4   4  -5 38.1553 7.65607   5
   4   4   5 39.7114 4.20447   6
  -5  -4  -5 834.781 26.2441   9
   5  -4   5 832.879 26.7291   7
  -5  -4  -5 822.856 28.6989   8
   5  -4   5 858.390 23.0904   6
  -5  -4  -5 795.593 34.9608   2
   5   4   5 878.737 37.6257   6
  -5   4  -5 920.234 31.0609   5
  -5   4  -5 877.972 26.1096   1
   5   4   5 861.235 38.0703   3
   6  -4   5 -0.5264 4.51239   6
   6  -4   5 3.50946 6.98429   7
  -6  -4  -5 0.17728 4.26202   2
  -6  -4  -5 -1.1336 4.06243   8
  -6  -4  -5 -0.1066 2.86630   9
  -6   4  -5 4.64126 5.56222   5
  -6   4  -5 4.11118 3.50777   1
   6   4   5 -3.8475 4.99680   3
   6   4   5 -1.9964 4.45163   6
   7  -4   5 21.7712 6.29758   6
  -7  -4  -5 27.1156 4.36108   9
   7  -4   5 28.7834 9.02435   7
   7  -4   5 17.7698 5.21900   3
  -7  -4  -5 31.8890 6.00532   2
  -7   4  -5 26.4691 6.70849   1
   7   4   5 19.6935 4.97073   6
   7   4   5 24.8257 9.07750   3
  -7   4  -5 23.8458 9.53502   5
   8  -4   5 6.83945 6.46032   6
   8  -4   5 10.8955 6.74030   7
  -8  -4  -5 11.1115 4.55913   2
   8  -4   5 19.4745 5.58809   3
  -8  -4  -5 19.4211 5.84325   9
   8   4   5 15.0110 7.44020   3
  -8   4  -5 22.9365 7.81371   5
   8   4   5 7.89415 5.06631   6
  -8   4  -5 11.4671 7.03474   1
  -9  -4  -5 39.4800 5.58977   9
   9  -4   5 31.3416 11.3374   7
   9  -4   5 35.4945 8.39174   3
  -9  -4  -5 26.0349 5.72826   2
   9  -4   5 18.3352 10.7814   6
  -9   4  -5 44.8930 9.36373   5
   9   4   5 12.8882 6.12585   6
  -9   4  -5 23.7093 9.21846   1
   9   4   5 19.9788 8.65862   3
  -9  -5   5 8.49921 16.8818   4
   9  -5  -5 -1.5587 9.49874   7
  -9  -5   5 2.78480 14.9486   8
   9  -5  -5 -1.7436 8.80323   6
  -9   5   5 1.78640 7.02703   1
   9   5  -5 -5.5191 10.6059   3
   9   5  -5 0.00000 7.17281   6
   8  -5  -5 10.0538 6.27744   7
  -8  -5   5 8.16914 5.46182   4
  -8  -5   5 3.29525 5.14105   8
   8  -5  -5 8.93759 7.89522   6
   8   5  -5 21.1316 7.86529   3
  -8   5   5 5.47566 6.23455   1
   8   5  -5 7.37175 6.25153   6
   7  -5  -5 112.434 8.78700   6
  -7  -5   5 100.944 8.38597   4
  -7  -5   5 115.040 8.79162   8
   7  -5  -5 105.094 9.22616   7
  -7   5   5 112.031 10.1732   1
   7   5  -5 114.029 10.5845   3
  -6  -5   5 1.93422 4.27541   8
  -6  -5   5 3.23349 4.22124   4
   6  -5  -5 4.62783 4.31336   6
   6  -5  -5 -0.3547 4.27974   7
   6   5  -5 5.43844 3.16908   5
  -6   5   5 3.60121 7.46797   1
  -6   5   5 2.23308 3.12816   4
   6   5  -5 3.12079 5.72420   3
   5  -5  -5 568.381 25.6826   7
  -5  -5   5 606.079 20.4030   4
   5  -5  -5 639.476 20.0779   6
  -5  -5   5 637.018 18.4101   8
  -5  -5   5 609.433 26.1491   5
   5   5  -5 612.608 46.2619   5
   5   5  -5 680.159 31.9987   3
  -5   5   5 658.219 27.1150   1
  -5   5   5 585.771 38.2991   4
  -4  -5   5 19.4883 5.64472   4
  -4  -5   5 10.0335 4.71685   5
   4  -5  -5 17.8940 3.99986   7
  -4  -5   5 15.8664 4.18179   8
   4  -5  -5 9.87375 3.42679   6
   4  -5  -5 2.72937 3.72722   9
  -4   5   5 12.8491 1.54626   3
   4   5  -5 8.91009 6.98056   3
  -4   5   5 4.27554 6.50636   1
  -4   5   5 11.7114 1.48140   3
   4   5  -5 9.28227 4.19611   5
   4   5  -5 12.5414 1.88388   2
  -4   5   5 10.5249 2.81250   8
  -3  -5   5 10.9859 3.77773   5
  -3  -5   5 4.89596 4.26654   8
   3  -5  -5 4.60186 3.91751   7
   3  -5  -5 4.24350 3.28649   9
  -3  -5   5 8.66703 3.27784   4
   3  -5  -5 6.98823 4.14895   6
   3   5  -5 1.97344 3.02504   1
  -3   5   5 4.50755 4.52681   1
  -3   5   5 4.55189 1.73258   3
   3   5  -5 6.70556 4.56070   3
  -3   5   5 2.52303 1.20354   3
   3   5  -5 3.36318 1.76027   9
  -3   5   5 6.03538 3.98882   6
   3   5  -5 5.49361 4.27699   5
   3   5  -5 5.84560 1.90717   2
  -3   5   5 4.95355 3.64025   8
   2  -5  -5 68.1661 5.26583   7
  -2  -5   5 58.8399 6.92722   5
   2  -5  -5 54.7921 4.79425   9
  -2  -5   5 56.8756 5.49272   8
   2  -5  -5 71.8610 5.11365   6
  -2  -5   5 53.6696 5.34811   4
   2   5  -5 51.4306 7.13802   3
   2   5  -5 59.6672 3.69836   9
  -2   5   5 63.7798 3.98815   3
   2   5  -5 55.7651 4.38262   1
   2   5  -5 53.6753 5.44631   5
  -2   5   5 66.2771 7.36088   1
  -2   5   5 64.0488 5.33757   6
  -2   5   5 58.7830 4.69384   8
   2   5  -5 46.5061 3.52350   2
  -1  -5   5 254.908 8.68880   4
  -1  -5   5 251.852 9.31144   8
   1  -5  -5 226.521 11.1728   9
   1  -5  -5 232.494 11.2403   7
   1   5  -5 220.951 10.0419   5
   1   5  -5 224.460 11.5563   4
   1   5  -5 252.648 12.5480   2
  -1   5   5 246.920 11.7903   3
   1   5  -5 244.707 9.78343   8
  -1   5   5 248.304 11.7661   6
  -1   5   5 223.417 11.3782   1
   1   5  -5 244.839 9.24637   1
   1   5  -5 231.349 10.2953   9
  -1   5   5 252.222 14.4562   7
   0  -5   5 125.487 6.10707   8
   0  -5   5 135.692 7.94129   7
   0  -5   5 124.517 7.14970   4
   0  -5  -5 155.969 6.71809   7
   0  -5  -5 134.086 6.45870   9
   0  -5  -5 125.175 7.30263   2
   0   5   5 133.171 7.00325   3
   0   5  -5 130.313 7.45949   4
   0   5   5 134.308 10.2933   7
   0   5  -5 121.189 8.86003   5
   0   5  -5 143.244 7.66177   8
   0   5   5 134.914 8.19340   6
   0   5  -5 121.249 6.01688   9
   0   5   5 147.848 9.44354   1
   0   5  -5 128.205 6.80338   1
   1  -5   5 18.6565 5.05243   7
   1  -5   5 23.3217 3.51750   8
  -1  -5  -5 21.5162 3.92756   3
  -1  -5  -5 19.1311 3.33290   2
  -1  -5  -5 19.7281 3.21549   9
   1  -5   5 24.0636 3.15426   4
  -1   5  -5 16.4064 9.88288   9
  -1   5  -5 15.4715 3.51641   1
  -1   5  -5 16.0979 2.80833   8
   1   5   5 18.9590 2.90279   7
  -1   5  -5 20.9721 6.27520   5
  -1   5  -5 17.0489 2.73336   4
   1   5   5 15.1484 2.90240   5
   1   5   5 15.6957 4.51603   3
   1   5   5 19.4920 4.89001   1
   1   5   5 15.3943 2.80552   6
   2  -5   5 341.959 15.1509   8
   2  -5   5 337.575 13.7632   7
  -2  -5  -5 346.115 10.7484   2
  -2  -5  -5 342.566 10.4522   9
   2  -5   5 355.060 12.5094   6
  -2   5  -5 362.652 13.9840   4
   2   5   5 340.782 14.4370   3
   2   5   5 335.483 17.4117   6
  -2   5  -5 356.380 15.8981   5
  -2   5  -5 356.468 13.1325   1
   2   5   5 331.411 17.3829   7
   2   5   5 346.002 16.8411   5
  -3  -5  -5 69.4275 4.84417   9
   3  -5   5 65.5793 6.63764   7
   3  -5   5 60.6938 6.28051   6
  -3  -5  -5 59.1942 4.82790   2
   3  -5   5 52.0122 5.31692   1
   3   5   5 51.5379 3.71302   5
   3   5   5 60.3401 3.77733   5
   3   5   5 62.6607 7.24405   3
   3   5   5 61.4034 4.81190   7
  -3   5  -5 62.6937 4.77919   1
  -3   5  -5 70.6482 9.23388   5
  -3   5  -5 65.5934 3.22384   4
   4  -5   5 97.7665 8.74694   6
   4  -5   5 91.3374 9.03867   7
   4  -5   5 81.7217 7.82373   1
  -4  -5  -5 81.3129 6.07108   9
  -4  -5  -5 90.5648 6.60090   2
  -4   5  -5 92.3786 12.4472   5
   4   5   5 72.8956 6.37655   7
  -4   5  -5 86.8731 6.40342   1
   4   5   5 78.7998 5.10354   6
   4   5   5 87.4643 8.75236   3
  -5  -5  -5 61.2821 5.66449   9
   5  -5   5 53.9782 7.25415   7
   5  -5   5 68.2282 8.86866   6
  -5  -5  -5 58.0574 6.11809   2
  -5   5  -5 47.3400 6.09313   1
   5   5   5 63.3844 9.11410   3
  -5   5  -5 62.3296 10.5659   5
   5   5   5 53.9302 4.93992   6
   6  -5   5 296.112 15.0571   6
  -6  -5  -5 311.770 14.6398   2
  -6  -5  -5 308.359 11.7932   9
   6  -5   5 309.025 15.9032   7
   6   5   5 308.743 15.1217   3
   6   5   5 293.082 15.3046   6
  -6   5  -5 321.553 21.3017   5
  -6   5  -5 274.730 16.3684   1
  -7  -5  -5 186.415 11.4209   2
  -7  -5  -5 181.599 10.8704   9
   7  -5   5 181.991 12.6987   6
   7  -5   5 180.459 12.8849   7
   7   5   5 184.569 13.3139   3
  -7   5  -5 190.170 14.8657   1
   7   5   5 170.497 10.5677   6
  -7   5  -5 201.668 14.2591   5
   8  -5   5 37.2353 11.8442   7
   8  -5   5 28.2794 10.7237   6
  -8  -5  -5 41.1839 5.62934   2
  -8  -5  -5 44.5548 6.83519   9
  -8   5  -5 31.2217 8.73980   1
   8   5   5 19.3115 7.98511   6
  -8   5  -5 52.6440 12.8993   5
   8   5   5 36.1406 8.79716   3
   9  -5   5 74.8889 11.0011   6
   9  -5   5 76.9146 11.4608   7
  -9   5  -5 78.1291 11.7123   5
   9   5   5 86.0570 14.5845   3
  -9  -6   5 78.1753 9.76796   8
   9  -6  -5 81.9539 9.94625   6
   9  -6  -5 86.4255 10.3569   7
   9   6  -5 79.8121 11.9259   3
   9   6  -5 64.6799 10.7135   6
  -9   6   5 64.7263 13.8479   1
  -8  -6   5 2.24383 6.38369   8
   8  -6  -5 -2.5619 5.84060   6
   8  -6  -5 -5.9660 8.68795   7
  -8   6   5 6.04987 7.12918   1
   7  -6  -5 263.220 15.8975   7
   7  -6  -5 259.180 12.8731   6
  -7  -6   5 251.657 14.2352   4
  -7  -6   5 260.252 16.3719   8
   7   6  -5 264.648 15.7649   3
  -7   6   5 224.697 14.1019   1
   6  -6  -5 7.81641 7.41373   7
   6  -6  -5 9.91531 5.16285   6
  -6  -6   5 10.9555 5.09245   4
  -6  -6   5 4.78308 6.57524   8
  -6   6   5 6.26708 8.68359   1
   5  -6  -5 131.697 8.23628   6
  -5  -6   5 117.791 8.35006   4
  -5  -6   5 130.250 8.66986   8
   5  -6  -5 134.430 9.15490   7
   5   6  -5 144.912 11.1844   3
  -5   6   5 145.429 10.6447   1
  -5   6   5 118.690 7.23145   4
   5   6  -5 121.800 9.20367   5
  -4  -6   5 36.0750 6.62238   4
  -4  -6   5 42.5394 6.80241   8
   4  -6  -5 36.3681 6.26865   7
   4  -6  -5 34.8517 6.11106   6
  -4   6   5 25.7116 6.54052   1
   4   6  -5 29.1378 5.59310   5
   4   6  -5 44.6851 7.56073   3
   3  -6  -5 750.807 24.3832   6
  -3  -6   5 743.055 33.7113   4
   3  -6  -5 761.632 26.5899   7
   3  -6  -5 791.585 30.7785   9
  -3  -6   5 761.574 26.5843   8
  -3   6   5 791.682 28.5974   1
   3   6  -5 811.983 26.3468   5
   3   6  -5 800.583 37.6488   3
  -3   6   5 760.807 43.4272   3
   2  -6  -5 6.33214 4.80246   9
  -2  -6   5 5.64458 3.30801   4
   2  -6  -5 5.44285 4.09272   6
  -2  -6   5 6.97789 3.42338   8
   2  -6  -5 6.10969 3.15842   7
  -2   6   5 7.25893 4.83839   7
   2   6  -5 4.80451 3.89801   5
  -2   6   5 8.22428 4.42741   6
  -2   6   5 3.29099 3.03141   3
   2   6  -5 5.36680 2.99376   9
   2   6  -5 11.1710 7.64793   3
   2   6  -5 2.54010 3.11483   2
  -2   6   5 11.5856 6.79511   1
  -1  -6   5 677.957 21.0929   4
   1  -6  -5 674.495 34.9647   7
   1  -6  -5 652.542 37.9494   9
  -1  -6   5 659.696 21.7894   8
  -1   6   5 704.535 28.0722   6
  -1   6   5 742.414 40.6456   7
  -1   6   5 685.515 26.6714   3
   1   6  -5 674.029 29.5578   9
   1   6  -5 680.540 27.4259   2
   1   6  -5 662.635 32.1455   5
  -1   6   5 683.066 29.1090   1
   1   6  -5 651.241 23.2474   1
   1   6  -5 660.480 35.1267   3
   0  -6  -5 -0.3866 3.80091   9
   0  -6   5 1.84956 3.70780   7
   0  -6   5 1.47158 3.72656   8
   0   6   5 1.00313 3.37129   6
   0   6  -5 1.58125 3.84712   1
   0   6   5 0.16719 3.46707   7
   0   6  -5 0.28533 4.12503   5
   0   6   5 1.38037 4.13976   3
   0   6   5 -1.6420 4.36589   1
   1  -6   5 449.445 20.3585   7
  -1  -6  -5 462.841 19.0370   9
  -1  -6  -5 464.304 19.5601   2
   1  -6   5 462.471 16.9628   8
   1   6   5 452.142 20.6444   1
   1   6   5 459.129 27.1320   7
   1   6   5 458.874 19.5946   3
  -1   6  -5 468.757 22.5920   1
  -1   6  -5 478.713 21.8306   4
   1   6   5 462.689 23.6683   6
  -1   6  -5 442.905 18.9517   5
  -1   6  -5 493.764 24.1615   8
   2  -6   5 14.0324 2.97106   8
  -2  -6  -5 13.8388 3.49904   9
   2  -6   5 8.57536 4.59526   7
   2   6   5 8.49132 5.68814   3
  -2   6  -5 9.09086 3.47115   1
   2   6   5 7.52184 3.66055   5
  -2   6  -5 22.4400 6.36821   5
   2   6   5 6.74658 3.52978   7
   2   6   5 11.5906 4.33958   5
   2   6   5 7.45490 2.51549   6
  -3  -6  -5 62.6226 6.23777   2
   3  -6   5 46.8575 8.70302   1
  -3  -6  -5 61.1661 6.04301   9
   3  -6   5 57.7579 7.06206   7
   3  -6   5 49.9716 7.77756   6
  -3   6  -5 56.5740 8.55157   5
  -3   6  -5 49.0821 5.96382   1
   3   6   5 48.6607 4.49383   5
   3   6   5 99.6835 73.8458   3
   4  -6   5 14.1638 7.40910   7
   4  -6   5 5.29145 5.24966   6
  -4  -6  -5 16.7288 3.98384   2
  -4  -6  -5 19.9630 5.01608   9
   4   6   5 14.7758 5.56905   3
  -4   6  -5 13.5025 5.23539   1
  -4   6  -5 13.4243 9.19384   5
   5  -6   5 21.5897 8.37747   7
  -5  -6  -5 22.8725 5.43761   9
  -5  -6  -5 23.0924 5.60489   2
   5  -6   5 17.0118 6.03630   6
   5   6   5 16.0170 3.99405   6
   5   6   5 21.3586 8.55149   3
  -5   6  -5 18.2868 7.68821   5
  -5   6  -5 7.71252 5.56148   1
  -6  -6  -5 11.2499 4.19482   2
  -6  -6  -5 8.63850 3.88174   9
   6  -6   5 11.2495 6.97159   7
   6  -6   5 1.87416 5.94037   6
  -6   6  -5 5.92264 7.97843   5
   6   6   5 2.61954 10.5395   6
  -6   6  -5 5.77543 4.75941   1
   6   6   5 8.54654 7.16887   3
  -7  -6  -5 33.1468 5.40590   2
   7  -6   5 35.4192 8.98316   7
  -7  -6  -5 34.0117 5.23946   9
   7  -6   5 19.7606 8.12472   6
   7   6   5 27.1268 11.9477   3
  -7   6  -5 44.8145 13.2932   5
   8  -6   5 34.1985 9.75894   6
   8  -6   5 25.2737 9.55320   7
   8   6   5 42.4333 10.0850   3
  -8   6  -5 39.6269 10.6470   5
   8  -7  -5 81.5752 11.1247   7
  -8  -7   5 87.6370 37.1296   8
   8  -7  -5 84.7033 10.2776   6
  -8   7   5 70.9998 11.3036   1
   7  -7  -5 105.253 10.5685   7
   7  -7  -5 102.271 11.8612   6
  -7  -7   5 107.665 10.0297   8
  -7   7   5 106.571 11.5556   1
   7   7  -5 89.6535 12.4838   3
  -6  -7   5 73.6885 8.34604   8
   6  -7  -5 79.8769 8.57871   7
   6  -7  -5 88.8601 8.58774   6
   6   7  -5 71.6846 10.8178   3
  -6   7   5 66.6824 9.86036   1
  -5  -7   5 91.8463 8.65753   8
   5  -7  -5 103.587 8.86944   7
   5  -7  -5 105.007 8.32192   6
  -5   7   5 86.6885 11.8551   1
   4  -7  -5 15.6675 4.88059   7
   4  -7  -5 6.38269 6.17064   6
  -4  -7   5 14.1307 5.25875   8
   4   7  -5 7.02617 5.83058   5
   4   7  -5 8.99138 7.11614   3
  -4   7   5 1.84638 6.13159   1
   3  -7  -5 195.477 10.1391   9
   3  -7  -5 198.218 10.0533   7
  -3  -7   5 196.642 11.0747   8
   3  -7  -5 202.399 10.0645   6
   3   7  -5 171.742 12.3776   3
   3   7  -5 170.027 14.1253   5
  -3   7   5 200.159 12.6156   1
   2  -7  -5 712.357 23.8832   7
  -2  -7   5 676.647 25.2601   8
   2  -7  -5 663.070 25.8202   9
   2   7  -5 676.839 32.1987   5
  -2   7   5 721.962 32.1525   1
  -2   7   5 681.610 40.8155   3
   2   7  -5 680.913 44.6784   1
   2   7  -5 720.642 30.4844   3
   1  -7  -5 85.3780 6.65622   7
   1  -7  -5 91.2905 16.5454   9
  -1  -7   5 88.0616 6.47313   8
   1   7  -5 75.7345 10.1402   3
   1   7  -5 70.1122 9.43530   5
  -1   7   5 67.7688 6.94321   3
   1   7  -5 70.5468 7.46546   1
  -1   7   5 78.8889 8.80188   1
   0  -7   5 103.765 21.2172   7
   0  -7   5 102.673 7.13998   8
   0  -7  -5 96.6866 6.82873   9
   0   7  -5 93.4290 8.63191   3
   0   7   5 76.9301 8.00027   3
   0   7   5 81.7664 10.3514   1
   0   7  -5 98.2967 9.24645   5
   0   7  -5 83.7896 7.54684   1
   1  -7   5 10.0440 5.36052   7
   1  -7   5 3.81759 4.08499   8
  -1  -7  -5 5.47296 3.64299   9
   1   7   5 2.73715 4.52001   5
  -1   7  -5 4.83588 8.54997   5
   1   7   5 8.06752 4.70944   3
  -1   7  -5 0.52023 5.19929   1
   1   7   5 9.21351 5.98976   1
   2  -7   5 53.1768 4.74467   8
   2  -7   5 57.3861 7.26793   7
  -2  -7  -5 51.5519 6.48372   9
  -2  -7  -5 45.9945 6.59710   2
   2   7   5 31.3511 6.05947   3
   2   7   5 50.4302 8.52532   1
  -2   7  -5 36.5087 6.63260   1
  -2   7  -5 39.0083 8.04927   5
   2   7   5 36.0987 6.25845   5
   3  -7   5 22.5289 6.40974   7
  -3  -7  -5 28.8038 5.94799   2
  -3  -7  -5 30.9417 5.71880   9
   3   7   5 11.5231 7.73043   3
  -3   7  -5 23.1238 7.88673   5
  -3   7  -5 18.4439 6.11993   1
  -4  -7  -5 88.9232 7.35673   9
  -4  -7  -5 90.6845 7.79535   2
   4  -7   5 83.0319 8.74365   6
   4  -7   5 86.6217 9.14860   7
  -4   7  -5 80.1696 11.0222   5
   4   7   5 87.5221 10.7477   3
   5  -7   5 115.354 11.6700   7
  -5  -7  -5 123.847 8.56728   9
  -5  -7  -5 135.704 8.10614   2
   5  -7   5 110.308 10.4280   6
   5   7   5 112.198 11.2004   3
  -5   7  -5 123.961 13.5732   5
   6  -7   5 34.1698 11.2423   6
   6  -7   5 41.0802 11.6988   7
  -6  -7  -5 44.4254 7.38668   2
  -6  -7  -5 45.5280 7.19965   9
   6   7   5 31.9063 11.8936   3
  -6   7  -5 40.8872 11.0861   5
   7  -7   5 9.37401 10.9110   6
   7  -7   5 0.98104 11.5094   7
   7   7   5 9.48610 9.02537   3
  -7   7  -5 17.5340 10.0348   5
   6  -8  -5 10.5163 6.11223   6
   6  -8  -5 11.8216 6.45387   7
  -6  -8   5 2.07779 6.50249   8
  -6   8   5 -1.2132 10.3833   1
   5  -8  -5 36.4974 6.97039   7
   5  -8  -5 40.3781 6.78083   6
  -5  -8   5 35.7470 7.48570   8
  -5   8   5 38.9250 8.88257   1
  -4  -8   5 0.53467 5.30086   8
   4  -8  -5 -1.9624 6.74405   7
   4  -8  -5 -4.3660 6.58908   6
   4   8  -5 -5.4875 7.64460   3
  -4   8   5 -3.9633 6.79486   1
   3  -8  -5 36.6342 5.86708   7
  -3  -8   5 27.7019 6.23865   8
  -3   8   5 22.3528 8.63357   5
   3   8  -5 34.3562 8.81869   3
   3   8  -5 23.7732 8.63631   1
  -3   8   5 38.0593 10.7185   1
   3   8  -5 22.9019 8.09025   5
   2  -8  -5 3.26462 5.63652   7
  -2  -8   5 2.68560 4.48970   8
   2  -8  -5 6.17880 4.79783   9
   2   8  -5 12.9678 5.80578   5
  -2   8   5 7.16622 6.94904   1
  -2   8   5 0.24039 6.74986   5
   2   8  -5 2.08525 7.19781   3
   2   8  -5 -5.0408 6.21248   1
  -1  -8   5 11.5800 4.51075   8
   1  -8  -5 0.28739 4.68798   9
   1  -8  -5 5.80564 5.70669   7
   1   8  -5 -2.9334 4.47633   1
   1   8  -5 0.27909 5.84389   5
  -1   8   5 -1.1002 5.73045   3
  -1   8   5 -0.6993 5.77956   5
  -1   8   5 -1.5917 9.02517   1
   1   8  -5 5.57179 9.47364   3
   0  -8   5 37.3315 7.50361   7
   0  -8  -5 32.1019 7.31447   9
   0   8   5 33.8412 8.26206   1
   0   8  -5 23.2983 5.56878   1
   0   8  -5 21.4458 7.64957   5
   0   8  -5 25.0197 9.55003   3
   0   8   5 19.1571 7.32281   3
   0   8   5 27.5331 9.16653   5
   1  -8   5 7.97359 5.55712   7
  -1  -8  -5 2.60207 5.79312   9
   1  -8   5 3.29282 4.67649   8
   1   8   5 6.41826 7.28937   3
   1   8   5 0.62249 5.15165   5
   1   8   5 7.68693 6.77668   1
  -1   8  -5 0.81005 6.72236   5
  -1   8  -5 0.43858 8.33074   3
  -2  -8  -5 -5.7752 3.77148   9
   2  -8   5 -3.4724 5.84792   7
   2   8   5 1.27358 6.79623   1
   2   8   5 2.31106 7.59282   3
  -2   8  -5 -0.6436 7.35421   5
   3  -8   5 11.8600 9.77295   7
  -3  -8  -5 26.7111 5.20982   9
   3   8   5 12.1232 9.42483   3
  -3   8  -5 18.1025 9.11677   5
   3   8   5 23.4137 11.1086   1
  -4  -8  -5 -3.0736 6.28784   2
   4  -8   5 3.06813 9.50955   7
  -4  -8  -5 2.26155 6.42504   9
  -4   8  -5 3.71500 8.66473   5
   4   8   5 0.27511 7.08619   3
   5  -8   5 224.089 15.6342   6
  -5  -8  -5 227.752 12.9995   2
   5  -8   5 223.148 17.1768   7
  -5  -8  -5 226.932 14.3807   9
  -5   8  -5 235.075 17.2877   5
   5   8   5 215.682 14.9498   3
   6  -8   5 30.2707 8.98347   7
   6  -8   5 20.6026 8.21351   6
   6   8   5 31.1535 13.0268   3
  -6   8  -5 12.0249 10.4104   5
  -4  -9   5 18.7544 7.08156   8
   4  -9  -5 13.9010 6.54199   7
  -4   9   5 6.55197 12.8939   1
   4   9  -5 10.1666 14.2396   3
  -3  -9   5 17.5622 6.74069   8
   3  -9  -5 12.3635 5.95207   7
  -3   9   5 8.68798 9.80884   5
  -3   9   5 11.7763 8.70401   1
   3   9  -5 9.46525 13.6471   3
   2   9  -5 88.1577 14.4353   3
  -2   9   5 56.4309 13.6898   5
  -2   9   5 74.8785 11.5302   1
   2   9  -5 87.3101 11.8985   5
   1  -9  -5 3.57080 5.35572   9
  -1  -9   5 4.80102 5.00630   8
  -1   9   5 2.11342 8.00213   1
   1   9  -5 -2.4114 6.69220   5
  -1   9   5 -6.9611 9.38902   5
   1   9  -5 3.52829 8.52587   3
   0  -9  -5 11.5555 5.80649   9
   0  -9   5 10.3708 6.89406   8
   0   9   5 12.9787 8.54524   1
   0   9   5 6.43218 9.94358   5
   0   9  -5 5.67884 8.05658   5
   0   9  -5 5.82834 7.77719   3
   1  -9   5 26.8348 8.03111   7
  -1  -9  -5 28.9297 8.13486   9
  -1   9  -5 17.9400 7.88597   3
   1   9   5 13.1328 6.58464   3
  -1   9  -5 14.7791 8.90910   5
   1   9   5 27.7587 9.20478   1
  -2  -9  -5 135.796 13.5150   9
   2  -9   5 123.684 11.3075   7
  -2   9  -5 122.850 12.9525   3
  -2   9  -5 112.366 13.6692   5
   2   9   5 121.719 12.5267   1
   2   9   5 123.730 10.7075   3
   3  -9   5 -2.2234 7.02777   7
  -3  -9  -5 6.01875 7.41294   9
  -3   9  -5 4.67968 10.1633   5
   3   9   5 0.34012 8.78114   1
   3   9   5 8.16570 7.49705   3
   4  -9   5 -0.6025 7.30988   7
  -4   9  -5 -0.7673 9.36022   5
   4   9   5 4.31861 9.08713   1
   4   9   5 1.30516 7.65820   3
 -11   0   6 4.93005 7.29019   1
  11   0  -6 0.83477 10.1339   6
  10   0  -6 43.8240 8.23410   6
 -10   0   6 39.0972 7.13941   8
 -10   0   6 45.8957 10.1404   1
 -10   0   6 35.6508 6.99685   4
  10   0  -6 58.1596 8.20487   3
   9   0  -6 -0.8282 5.10593   6
   9   0  -6 -0.8943 3.52796   3
  -9   0   6 -0.1950 4.68218   8
  -9   0   6 -0.1577 4.89099   1
  -9   0   6 1.10075 4.71123   4
   8   0  -6 76.8151 8.79012   6
  -8   0   6 97.5221 8.09797   1
  -8   0   6 81.9408 6.85428   8
   8   0  -6 111.826 7.44157   3
  -8   0   6 96.7808 7.19851   4
  -7   0   6 -1.6202 3.40485   1
  -7   0   6 -0.3875 1.88683   9
  -7   0   6 -2.3612 3.58726   8
   7   0  -6 2.57042 2.58666   3
   7   0  -6 2.73174 5.10473   6
  -7   0   6 1.54269 3.82433   4
  -7   0   6 1.24860 2.89555   3
  -6   0   6 0.78930 2.31939   4
   6   0  -6 0.24785 2.93443   6
  -6   0   6 0.95061 2.90908   1
   6   0  -6 1.09547 3.16875   4
  -6   0   6 2.15917 2.22723   9
  -6   0   6 1.36097 2.31708   8
   6   0  -6 3.74512 2.25194   3
  -6   0   6 7.34949 3.67198   5
  -5   0   6 0.72637 1.36819   2
  -5   0   6 0.27631 2.49329   1
   5   0  -6 0.20265 1.69513   3
  -5   0   6 -0.2371 1.92633   4
  -5   0   6 0.64585 2.81350   8
  -5   0   6 0.28882 2.83846   5
   5   0  -6 0.01135 3.17956   1
   5   0  -6 -4.9129 3.48790   4
  -5   0   6 0.53331 1.73216   9
   5   0  -6 0.95617 2.58289   6
  -4   0   6 1180.97 47.1208   4
   4   0  -6 1109.97 32.9305   5
   4   0  -6 1119.08 48.0782   3
  -4   0   6 1076.33 43.0373   2
   4   0  -6 1119.28 35.5559   6
  -4   0   6 1133.48 48.8294   8
  -4   0   6 1112.84 37.9590   9
   4   0  -6 1068.67 37.6241   1
  -4   0   6 1136.76 31.2741   5
  -4   0   6 1119.26 34.3677   1
   4   0  -6 1156.35 46.1932   4
   3   0  -6 0.23969 2.10453   1
  -3   0   6 0.06812 1.07099   9
   3   0  -6 1.49345 1.31423   3
  -3   0   6 -1.2317 2.24401   5
  -3   0   6 -4.1073 2.35397   4
   3   0  -6 -0.3864 1.21609   9
   3   0  -6 -2.0848 2.12225   4
   3   0  -6 -0.6277 1.64744   5
  -3   0   6 1.42818 0.88576   2
  -3   0   6 0.45354 1.66781   1
  -2   0   6 128.299 6.28864   5
   2   0  -6 135.855 3.86369   9
  -2   0   6 144.252 5.93122   4
  -2   0   6 135.732 5.87900   9
   2   0  -6 135.413 6.25248   4
  -2   0   6 136.030 4.84436   1
  -2   0   6 133.878 6.42381   2
   2   0  -6 135.155 5.28723   5
   2   0  -6 143.422 4.22972   2
   2   0  -6 135.243 5.74381   1
  -1   0   6 -0.3871 0.90370   2
   1   0  -6 0.40842 1.86185   4
   1   0  -6 0.03813 1.40522   5
   1   0  -6 0.15833 0.88455   9
   1   0  -6 0.38880 1.65483   1
   1   0  -6 0.78739 1.14586   3
  -1   0   6 -0.5507 1.95191   5
  -1   0   6 0.09467 1.81920   4
  -1   0   6 2.34852 1.72346   1
   1   0  -6 -0.3546 1.29926   2
   0   0  -6 884.686 28.5354   5
   0   0   6 842.923 34.4583   7
   0   0   6 880.720 28.1740   1
   0   0   6 902.602 22.8780   3
   0   0   6 886.740 30.9966   2
   0   0   6 875.405 20.4330   5
   0   0  -6 856.300 32.9420   3
   0   0  -6 888.330 25.0578   2
   0   0  -6 873.157 30.9601   6
   0   0  -6 870.038 28.7206   7
   0   0   6 890.607 29.1554   4
  -1   0  -6 -1.8053 2.36102   3
  -1   0  -6 0.32546 1.92643   5
  -1   0  -6 -0.4440 1.28785   6
   1   0   6 -2.5234 2.18031   5
  -1   0  -6 -0.8805 0.92780   7
   1   0   6 -1.3679 1.51861   2
  -1   0  -6 -1.5248 2.04353   2
   1   0   6 -1.4983 1.30966   6
   1   0   6 -1.4491 0.95856   7
   2   0   6 301.325 15.3930   2
  -2   0  -6 321.678 13.2684   5
   2   0   6 331.316 10.7575   1
  -2   0  -6 299.290 12.0923   3
   2   0   6 343.675 11.0776   6
   2   0   6 330.510 15.3951   7
  -2   0  -6 323.472 12.9627   6
   2   0   6 314.373 8.63798   5
   2   0   6 335.343 10.4865   3
  -2   0  -6 315.820 10.7221   2
   3   0   6 -0.0907 1.73356   7
   3   0   6 2.45834 2.56615   3
  -3   0  -6 -0.0896 2.07719   3
  -3   0  -6 0.07518 2.04793   2
   3   0   6 3.61389 2.57323   6
  -3   0  -6 0.52213 1.58343   6
   3   0   6 1.67961 1.75628   1
   3   0   6 0.32842 1.78208   5
   3   0   6 -0.2641 1.83512   8
  -3   0  -6 -0.3959 2.24662   5
   4   0   6 85.8115 4.62077   8
   4   0   6 77.1449 5.56958   3
  -4   0  -6 81.6032 5.76801   2
   4   0   6 85.5192 5.71785   7
   4   0   6 81.4728 5.53213   1
   4   0   6 83.0815 5.02204   6
  -4   0  -6 66.1681 5.92400   3
  -4   0  -6 85.0243 4.79551   5
  -4   0  -6 80.4390 4.77060   6
  -5   0  -6 0.08574 1.85243   5
   5   0   6 1.05344 2.43633   4
  -5   0  -6 1.78483 2.83250   2
   5   0   6 0.58229 2.74269   7
   5   0   6 -1.9184 3.23796   3
   5   0   6 2.14343 2.49184   8
   5   0   6 0.20733 2.65468   6
  -6   0  -6 340.205 10.7593   5
   6   0   6 325.670 13.0253   6
   6   0   6 317.616 13.2463   7
   6   0   6 345.408 15.2705   8
   6   0   6 350.566 15.8808   4
  -6   0  -6 328.332 12.4830   2
   6   0   6 343.319 12.7776   3
  -7   0  -6 0.94193 3.61141   2
   7   0   6 -5.3509 6.09628   3
   7   0   6 -0.7469 4.07520   7
  -7   0  -6 0.47795 3.44451   5
   7   0   6 -1.1111 3.84477   8
   7   0   6 1.86340 3.97565   6
   7   0   6 1.43145 3.96931   4
  -8   0  -6 2.02442 6.01552   2
   8   0   6 0.77902 4.73450   6
   8   0   6 2.58644 6.85431   7
  -8   0  -6 -0.9765 2.60071   5
   8   0   6 1.56810 5.08987   3
   9   0   6 -2.8873 5.72218   7
   9   0   6 -1.1868 5.75036   6
   9   0   6 -5.3098 5.67142   3
  -9   0  -6 8.93794 8.07600   2
  10   0   6 119.441 13.9381   7
 -10   0  -6 158.199 14.1674   2
  10   0   6 149.499 12.2206   3
  10   0   6 142.044 14.0250   6
  11  -1  -6 37.5308 9.61634   6
 -11  -1   6 35.2491 9.19259   1
  11   1  -6 40.2731 9.36771   6
 -11   1   6 27.3136 8.86100   1
  11   1  -6 46.2130 9.64810   3
 -10  -1   6 4.51957 6.27393   4
 -10  -1   6 -1.0906 8.55826   1
 -10  -1   6 -3.1736 4.31963   8
  10  -1  -6 -1.2029 8.72029   6
  10   1  -6 3.70587 5.05965   3
  10   1  -6 -2.8622 6.39587   6
 -10   1   6 3.91461 6.33402   1
  -9  -1   6 89.2874 8.15045   8
  -9  -1   6 89.7645 7.33998   4
   9  -1  -6 92.8691 8.79020   6
  -9  -1   6 91.3439 7.77182   2
  -9  -1   6 95.4920 8.92169   1
   9  -1  -6 97.0829 7.25496   3
  -9   1   6 85.4010 6.35446   4
  -9   1   6 85.7241 7.13852   8
  -9   1   6 93.3392 9.02688   1
   9   1  -6 108.800 8.20136   3
   9   1  -6 88.6159 9.13143   6
  -8  -1   6 102.574 6.06093   2
  -8  -1   6 101.011 8.05214   1
  -8  -1   6 93.4520 7.25765   9
  -8  -1   6 95.1058 6.85719   8
   8  -1  -6 93.7835 8.01671   6
   8  -1  -6 96.7250 6.14826   3
  -8  -1   6 74.2480 7.10750   4
  -8   1   6 82.6901 6.43840   4
  -8   1   6 108.152 8.59561   1
   8   1  -6 94.6067 8.27876   6
  -8   1   6 75.3860 6.36418   8
   8   1  -6 99.5597 7.12640   3
  -7  -1   6 605.868 22.5445   4
   7  -1  -6 599.908 27.3661   3
  -7  -1   6 605.424 20.1111   8
   7  -1  -6 565.223 18.6784   6
  -7  -1   6 620.056 19.0859   1
  -7  -1   6 619.681 30.3667   9
  -7  -1   6 561.368 23.4649   5
  -7   1   6 596.045 30.6171   3
  -7   1   6 612.587 18.2585   4
   7   1  -6 600.159 18.9239   6
  -7   1   6 597.838 18.4280   1
  -7   1   6 628.799 17.5457   8
   7   1  -6 614.443 32.3168   3
  -6  -1   6 270.155 8.40540   9
   6  -1  -6 251.666 13.3978   4
  -6  -1   6 247.338 11.2789   5
  -6  -1   6 255.910 10.1493   8
  -6  -1   6 245.685 13.1082   1
   6  -1  -6 271.860 10.2692   6
  -6  -1   6 243.112 9.09200   4
   6  -1  -6 243.725 8.48435   3
  -6   1   6 241.001 8.52796   4
   6   1  -6 242.796 10.3214   6
  -6   1   6 262.265 9.57624   8
  -6   1   6 254.572 13.4308   9
  -6   1   6 262.065 10.7947   1
   6   1  -6 241.108 10.8661   3
  -5  -1   6 411.351 19.8298   9
   5  -1  -6 421.057 12.6865   6
   5  -1  -6 394.785 18.8606   3
  -5  -1   6 425.673 18.7607   8
  -5  -1   6 414.028 21.0727   2
  -5  -1   6 393.764 17.5696   4
  -5  -1   6 392.071 17.0180   5
  -5  -1   6 410.315 14.0822   1
   5  -1  -6 399.635 18.1569   4
  -5   1   6 436.762 23.4145   9
  -5   1   6 419.587 28.5259   2
  -5   1   6 394.532 22.0744   5
   5   1  -6 411.761 13.7163   3
   5   1  -6 417.670 13.6890   6
  -5   1   6 412.029 16.1506   4
   5   1  -6 411.549 18.4146   4
  -5   1   6 410.545 14.5946   1
   5   1  -6 393.247 19.9539   5
   5   1  -6 393.758 18.5493   1
   4  -1  -6 29.3027 4.20886   1
   4  -1  -6 35.0965 2.21902   3
  -4  -1   6 31.8377 1.65270   9
  -4  -1   6 27.2898 3.46797   5
   4  -1  -6 25.5169 3.00318   9
   4  -1  -6 32.4795 3.26826   6
  -4  -1   6 34.0726 3.97210   8
  -4  -1   6 29.5336 3.20086   1
  -4  -1   6 33.3541 1.71242   2
  -4  -1   6 27.0212 3.75410   4
   4  -1  -6 32.5251 3.58540   4
   4   1  -6 33.0185 3.95993   3
  -4   1   6 32.9811 4.11970   5
  -4   1   6 31.8403 3.71740   1
   4   1  -6 33.8412 4.36841   1
   4   1  -6 30.0202 3.51830   4
  -4   1   6 28.6970 2.86954   9
   4   1  -6 34.6299 3.70614   5
  -4   1   6 35.7807 3.36729   2
  -4   1   6 30.5146 3.60897   4
  -3  -1   6 1228.35 32.4892   5
   3  -1  -6 1205.34 64.6203   3
   3  -1  -6 1224.77 37.0893   6
   3  -1  -6 1261.33 31.0746   9
   3  -1  -6 1260.65 58.8173   5
  -3  -1   6 1246.60 31.6155   1
  -3  -1   6 1206.26 41.9711   2
   3  -1  -6 1246.81 40.0963   4
  -3  -1   6 1276.66 43.5353   8
  -3  -1   6 1209.36 42.6798   9
   3  -1  -6 1233.76 73.0656   1
  -3  -1   6 1275.37 42.7992   4
  -3   1   6 1297.50 46.5378   9
   3   1  -6 1302.79 35.6450   4
  -3   1   6 1247.11 31.5475   5
  -3   1   6 1258.64 44.6281   1
   3   1  -6 1268.84 64.0856   9
  -3   1   6 1230.65 50.4304   2
   3   1  -6 1257.05 68.8320   5
  -3   1   6 1260.97 56.5326   4
   3   1  -6 1257.62 35.5298   1
   3   1  -6 1261.51 49.9043   3
  -2  -1   6 38.7545 1.92135   2
   2  -1  -6 35.9305 1.85656   3
  -2  -1   6 39.1347 3.07257   4
   2  -1  -6 37.8235 3.36036   1
   2  -1  -6 35.9401 2.84735   2
   2  -1  -6 39.4789 2.77409   9
  -2  -1   6 34.4826 3.09544   5
   2  -1  -6 39.3858 2.65290   6
  -2  -1   6 37.2952 2.56051   1
   2  -1  -6 40.7754 3.21838   5
   2   1  -6 36.2469 3.66113   5
   2   1  -6 33.7977 2.46889   1
  -2   1   6 41.6166 2.51154   9
  -2   1   6 38.7992 3.62118   4
   2   1  -6 41.4392 1.94229   9
   2   1  -6 39.0325 1.75928   2
  -2   1   6 37.8881 3.16654   5
   2   1  -6 36.6908 3.85293   4
  -2   1   6 43.1812 2.64756   2
  -2   1   6 41.9208 3.58075   1
  -1  -1   6 188.032 9.61374   4
  -1  -1   6 158.623 8.54997   5
   1  -1  -6 166.832 9.25712   1
  -1  -1   6 170.057 6.66049   2
   1  -1  -6 175.327 6.12709   9
   1  -1  -6 175.540 6.04746   3
   1  -1  -6 184.357 9.91987   5
   1  -1  -6 173.604 5.59447   2
  -1  -1   6 172.560 5.75421   1
   1   1  -6 179.887 6.41371   5
  -1   1   6 177.190 6.08569   3
  -1   1   6 177.132 6.00638   1
  -1   1   6 166.006 6.74016   5
   1   1  -6 185.844 5.60660   2
   1   1  -6 179.232 7.40192   7
  -1   1   6 174.841 6.09643   9
   1   1  -6 179.304 6.59494   4
  -1   1   6 183.248 9.78880   2
   1   1  -6 187.308 5.72687   1
   0  -1   6 0.11646 1.34051   7
   0  -1   6 1.53596 0.63194   1
   0  -1  -6 1.26971 1.40034   2
   0  -1  -6 0.23616 1.19872   3
   0  -1  -6 0.26335 0.46328   7
   0  -1   6 1.30147 1.83238   5
   0  -1   6 0.99986 1.50083   4
   0  -1  -6 1.49025 1.74978   5
   0  -1  -6 1.18854 1.38020   9
   0  -1  -6 0.98121 0.51534   6
   0   1  -6 0.75756 1.75458   5
   0   1  -6 0.51851 1.17315   2
   0   1   6 0.14681 1.53379   1
   0   1  -6 1.74320 1.63295   3
   0   1   6 1.58923 1.43536   3
   0   1   6 1.57759 1.39637   2
   0   1  -6 0.37905 2.40618   4
   0   1  -6 0.97728 1.22082   6
   0   1   6 0.63637 1.29301   5
   0   1  -6 -1.2694 1.25051   7
   1  -1   6 387.399 15.6567   5
  -1  -1  -6 378.433 16.7452   5
   1  -1   6 370.947 14.6468   6
  -1  -1  -6 381.611 11.8660   6
  -1  -1  -6 356.412 14.2274   3
   1  -1   6 368.453 13.0770   7
   1  -1   6 379.003 12.2897   3
   1  -1   6 384.745 14.1892   4
  -1  -1  -6 381.177 11.4611   2
   1  -1   6 370.980 15.5009   1
  -1   1  -6 388.715 17.2011   3
  -1   1  -6 371.919 13.7551   5
   1   1   6 395.151 13.2829   3
   1   1   6 379.410 12.4102   6
   1   1   6 384.144 11.3928   7
  -1   1  -6 376.288 28.8684   6
   1   1   6 372.101 10.3402   5
   1   1   6 379.556 13.4335   2
  -1   1  -6 384.695 13.6311   2
  -1   1  -6 387.398 29.1648   7
  -2  -1  -6 43.1006 2.42181   6
  -2  -1  -6 41.8503 3.53484   3
  -2  -1  -6 38.9999 3.81983   2
   2  -1   6 36.6654 2.23844   1
  -2  -1  -6 34.2419 2.55717   5
   2  -1   6 33.6418 3.62968   5
   2  -1   6 40.3050 3.37468   7
   2  -1   6 43.8342 4.18305   3
   2  -1   6 37.0057 3.02847   6
   2   1   6 29.0839 3.70923   2
   2   1   6 29.6178 2.77304   5
  -2   1  -6 37.2270 4.76247   2
  -2   1  -6 37.4242 3.95550   5
  -2   1  -6 33.9950 3.69579   7
   2   1   6 38.0995 2.50232   6
  -2   1  -6 34.1304 3.43273   6
  -2   1  -6 35.3081 3.48963   3
   2   1   6 43.0975 5.88308   3
   2   1   6 38.0913 2.36666   7
   3  -1   6 365.818 12.7192   7
  -3  -1  -6 345.363 10.2141   5
  -3  -1  -6 358.412 12.2906   2
  -3  -1  -6 352.788 10.7165   3
   3  -1   6 370.902 13.7608   1
   3  -1   6 340.654 17.5689   5
  -3  -1  -6 359.838 10.2667   6
   3  -1   6 354.020 12.2533   3
   3  -1   6 358.330 10.8927   6
   3   1   6 385.642 11.9554   7
   3   1   6 359.245 10.9151   5
   3   1   6 345.984 11.9349   2
   3   1   6 360.220 9.55730   6
   3   1   6 366.511 14.4680   8
  -3   1  -6 364.697 15.1822   6
  -3   1  -6 355.755 11.5653   1
  -3   1  -6 358.508 14.8267   3
   3   1   6 368.922 12.1799   3
  -3   1  -6 360.767 14.2786   2
  -3   1  -6 352.104 19.3194   5
   3   1   6 384.226 16.1354   1
   4  -1   6 156.703 7.60163   6
  -4  -1  -6 157.400 6.96523   6
   4  -1   6 156.948 6.88218   1
  -4  -1  -6 156.322 6.86115   2
   4  -1   6 158.986 7.93848   7
   4  -1   6 162.213 7.85045   3
  -4  -1  -6 158.266 5.22929   5
   4  -1   6 165.203 5.90185   8
   4   1   6 166.739 6.66241   8
  -4   1  -6 140.651 7.57738   3
   4   1   6 162.541 10.1008   1
  -4   1  -6 162.082 8.43325   6
   4   1   6 172.648 6.88895   6
  -4   1  -6 151.805 7.31463   5
  -4   1  -6 145.440 7.67627   1
  -4   1  -6 150.962 7.70183   2
   4   1   6 166.923 8.29617   3
   5  -1   6 6.25633 3.31033   6
   5  -1   6 7.53797 3.53016   3
  -5  -1  -6 11.2743 3.02154   6
   5  -1   6 7.30842 1.92600   8
   5  -1   6 4.38028 3.17765   1
  -5  -1  -6 1.95259 3.90965   2
  -5  -1  -6 6.97090 1.99063   5
   5  -1   6 5.23611 3.37818   7
   5  -1   6 5.60654 1.96569   4
   5   1   6 8.84809 2.73886   8
   5   1   6 5.73185 2.57884   4
  -5   1  -6 2.09894 3.59014   1
   5   1   6 1.84381 4.75985   3
  -5   1  -6 6.52579 3.36914   2
  -5   1  -6 7.20558 3.92490   5
   5   1   6 5.33254 2.77027   6
  -6  -1  -6 806.391 26.7130   5
   6  -1   6 824.167 23.6006   6
  -6  -1  -6 809.714 21.9437   2
   6  -1   6 859.647 25.0442   7
   6  -1   6 856.699 31.9557   4
   6  -1   6 863.944 30.4277   3
   6  -1   6 852.887 34.0292   8
  -6   1  -6 852.904 24.9540   2
   6   1   6 846.377 22.7712   6
  -6   1  -6 816.738 39.8901   5
   6   1   6 833.447 25.5048   3
  -6   1  -6 846.513 30.9718   1
   7  -1   6 302.579 12.8525   6
  -7  -1  -6 325.686 12.2847   2
  -7  -1  -6 248.821 18.3772   5
   7  -1   6 303.720 13.7384   7
   7  -1   6 306.027 15.5487   3
  -7   1  -6 292.949 12.0930   1
  -7   1  -6 316.888 12.2441   5
   7   1   6 300.502 15.8447   3
   7   1   6 310.588 12.7255   6
  -7   1  -6 313.763 14.2296   2
   8  -1   6 127.011 10.3748   7
   8  -1   6 114.734 9.48802   6
  -8  -1  -6 137.936 9.97588   2
   8  -1   6 105.991 10.4399   3
   8   1   6 144.712 10.4400   3
  -8   1  -6 135.995 9.24384   5
   8   1   6 118.079 9.52180   7
  -8   1  -6 129.130 10.4813   2
  -8   1  -6 121.970 9.18392   1
   8   1   6 109.454 10.2364   6
  -9  -1  -6 -0.1495 4.88690   2
   9  -1   6 -3.7566 5.52873   3
   9  -1   6 -3.7617 6.05952   7
   9  -1   6 -3.6615 5.55488   6
   9   1   6 -3.2527 7.73936   7
   9   1   6 1.67432 6.16602   3
   9   1   6 -1.4026 7.75180   6
  -9   1  -6 3.85039 7.55679   2
 -10  -1  -6 12.6293 5.86573   2
  10  -1   6 2.31064 7.37899   7
  10  -1   6 1.06299 6.83084   3
  10  -1   6 -3.4842 9.05570   6
  10   1   6 1.84309 6.98553   3
 -10   1  -6 2.75418 9.18882   2
  10   1   6 2.01003 9.76531   7
  10   1   6 5.74866 10.0068   6
 -11  -2   6 3.24445 10.6251   1
 -11  -2   6 3.64849 8.10968   8
 -11  -2   6 -1.9856 5.79460   4
  11  -2  -6 4.81939 7.97322   6
  11   2  -6 3.05445 6.59424   3
  11   2  -6 11.6756 11.3239   6
 -11   2   6 1.68492 8.17319   1
 -10  -2   6 168.382 13.1616   4
  10  -2  -6 170.419 14.6459   6
 -10  -2   6 180.266 13.9337   1
 -10  -2   6 184.388 11.4339   8
  10   2  -6 209.255 12.4390   3
 -10   2   6 190.650 13.2150   1
  10   2  -6 169.594 12.8473   6
  -9  -2   6 80.6886 7.41570   4
  -9  -2   6 82.1137 10.0415   1
  -9  -2   6 72.4717 7.32816   8
   9  -2  -6 87.9839 14.9964   6
   9   2  -6 73.4202 9.03268   6
  -9   2   6 72.7648 10.4876   1
   9   2  -6 87.0557 9.85283   3
  -8  -2   6 93.6120 9.13937   1
  -8  -2   6 82.6205 7.86527   4
   8  -2  -6 81.3447 8.94518   6
   8  -2  -6 96.0991 6.29840   3
  -8  -2   6 85.6574 4.58925   2
  -8  -2   6 83.5368 6.91230   8
  -8   2   6 81.2592 8.05793   1
  -8   2   6 79.2329 6.17779   8
   8   2  -6 92.3401 8.80866   3
   8   2  -6 74.9338 8.11625   6
  -8   2   6 84.1083 6.13015   4
  -7  -2   6 567.411 18.6612   9
  -7  -2   6 559.034 18.9365   8
  -7  -2   6 532.757 17.9395   2
  -7  -2   6 542.727 24.6953   5
  -7  -2   6 535.757 19.1590   1
   7  -2  -6 490.776 17.9909   3
   7  -2  -6 517.828 24.2396   6
  -7  -2   6 573.427 19.7131   4
   7   2  -6 549.317 20.2239   3
  -7   2   6 556.095 23.9128   4
   7   2  -6 557.118 24.7381   6
  -7   2   6 603.531 22.5381   8
  -7   2   6 555.358 19.4821   1
  -6  -2   6 591.750 20.5800   4
  -6  -2   6 581.814 16.8598   1
  -6  -2   6 552.601 21.1555   2
  -6  -2   6 595.959 26.4232   5
  -6  -2   6 617.265 18.4357   8
  -6  -2   6 595.967 22.1031   9
   6  -2  -6 566.774 20.3047   6
   6  -2  -6 555.827 34.0927   3
   6   2  -6 605.382 19.5901   5
   6   2  -6 610.197 21.3531   3
  -6   2   6 620.811 17.7527   4
  -6   2   6 578.364 24.3347   1
   5  -2  -6 123.599 5.82640   3
  -5  -2   6 135.733 8.43157   8
  -5  -2   6 137.126 7.67628   4
   5  -2  -6 130.782 6.99441   6
  -5  -2   6 124.554 6.98577   1
  -5  -2   6 125.604 4.88228   2
  -5  -2   6 121.317 7.03659   5
  -5  -2   6 130.561 4.46816   9
  -5  -2   6 125.811 4.67108   2
   5   2  -6 125.641 6.11725   5
  -5   2   6 150.676 9.51087   1
   5   2  -6 119.404 6.76788   1
  -5   2   6 135.289 9.23948   2
  -5   2   6 138.571 5.87683   4
   5   2  -6 130.407 7.09724   3
  -5   2   6 130.295 8.16095   9
   4  -2  -6 346.214 20.4226   1
  -4  -2   6 360.300 12.9989   4
  -4  -2   6 353.509 10.3251   5
   4  -2  -6 366.575 11.9745   9
   4  -2  -6 379.046 14.2943   6
  -4  -2   6 367.515 11.6820   1
  -4  -2   6 375.736 15.1982   8
   4   2  -6 375.061 17.6763   4
  -4   2   6 385.638 13.0624   4
  -4   2   6 378.304 14.1716   2
  -4   2   6 354.221 17.0469   5
  -4   2   6 374.653 20.1745   6
   4   2  -6 379.726 14.0021   5
   4   2  -6 356.694 20.7599   1
  -4   2   6 372.997 13.4085   1
   4   2  -6 363.443 12.2468   3
  -4   2   6 373.083 17.1314   9
   3  -2  -6 706.013 23.8671   1
  -3  -2   6 743.542 23.0688   8
  -3  -2   6 731.299 21.9792   4
  -3  -2   6 713.649 25.0936   1
  -3  -2   6 687.169 23.6830   5
   3  -2  -6 739.371 31.9087   9
   3  -2  -6 714.551 22.4632   6
   3   2  -6 750.594 39.2483   3
  -3   2   6 764.090 28.3197   5
  -3   2   6 735.822 25.8133   1
  -3   2   6 708.082 19.5828   4
   3   2  -6 775.678 22.0949   4
  -3   2   6 745.032 27.1351   2
  -3   2   6 742.255 23.4443   9
  -3   2   6 754.762 25.3282   6
   3   2  -6 736.076 27.8690   1
   3   2  -6 717.668 23.9027   5
   2  -2  -6 1173.39 34.5073   6
  -2  -2   6 1143.29 27.9239   5
   2  -2  -6 1112.49 39.4120   3
  -2  -2   6 1137.36 30.7541   1
  -2  -2   6 1166.45 33.1011   8
   2  -2  -6 1154.83 54.8002   1
  -2  -2   6 1189.95 43.1628   4
   2  -2  -6 1194.40 33.5021   9
   2  -2  -6 1186.45 34.0439   2
  -2   2   6 1243.34 32.3373   6
  -2   2   6 1196.76 46.1910   5
   2   2  -6 1259.41 39.0814   5
  -2   2   6 1208.13 29.3400   1
   2   2  -6 1226.89 65.4708   2
  -2   2   6 1210.91 33.1676   9
   2   2  -6 1253.42 39.8640   7
  -2   2   6 1201.62 36.9459   2
   2   2  -6 1231.60 63.0348   4
   2   2  -6 1222.71 41.9792   1
   1  -2  -6 2210.54 45.7616   2
  -1  -2   6 2183.56 49.2195   5
  -1  -2   6 2259.78 58.7387   8
   1  -2  -6 2203.49 98.6219   1
  -1  -2   6 2257.01 53.5821   4
   1  -2  -6 2180.16 63.4823   6
   1  -2  -6 2208.30 81.7461   3
   1  -2  -6 2257.71 61.3130   9
   1  -2  -6 2213.95 56.8909   7
  -1   2   6 2244.09 79.0558   2
   1   2  -6 2282.82 96.7883   2
  -1   2   6 2239.02 79.6221   9
   1   2  -6 2303.18 61.6040   7
  -1   2   6 2205.29 48.9060   6
  -1   2   6 2221.63 57.0892   1
   1   2  -6 2296.43 139.695   5
   1   2  -6 2325.99 52.8303   4
  -1   2   6 2307.32 60.4227   3
  -1   2   6 2239.48 68.9046   5
   1   2  -6 2251.92 59.1862   1
   0  -2  -6 440.628 16.9351   3
   0  -2  -6 453.576 11.0777   2
   0  -2  -6 457.505 10.9540   9
   0  -2  -6 456.141 14.5885   5
   0  -2   6 445.035 21.4558   7
   0  -2   6 464.754 12.0996   4
   0  -2   6 460.922 12.6840   5
   0   2  -6 479.792 27.8494   5
   0   2   6 473.915 12.5499   1
   0   2   6 456.636 13.7735   5
   0   2  -6 481.926 22.2414   7
   0   2   6 460.829 18.1714   2
   0   2  -6 480.043 13.9897   4
   0   2   6 469.945 23.1542   9
   0   2  -6 460.449 20.0834   6
   0   2   6 469.478 11.1761   3
  -1  -2  -6 237.677 8.62788   3
   1  -2   6 231.814 7.61986   1
  -1  -2  -6 242.780 7.33468   2
   1  -2   6 234.117 7.44787   6
  -1  -2  -6 237.229 7.07336   9
  -1  -2  -6 240.995 8.05901   5
   1  -2   6 231.774 9.16215   7
   1  -2   6 228.146 8.12516   4
   1  -2   6 220.782 11.9301   5
  -1   2  -6 234.492 14.1759   5
  -1   2  -6 233.089 12.8975   6
   1   2   6 235.606 9.17488   2
  -1   2  -6 238.053 6.62978   4
   1   2   6 228.067 10.5854   5
   1   2   6 229.432 8.97687   3
  -1   2  -6 237.460 10.5153   3
  -1   2  -6 220.679 18.3591   7
   1   2   6 243.807 6.24599   7
  -1   2  -6 219.507 12.7179   1
   1   2   6 242.864 6.53379   6
  -2  -2  -6 1031.66 36.6753   5
   2  -2   6 1105.23 37.2469   5
  -2  -2  -6 1071.62 24.4148   9
   2  -2   6 1109.10 28.2902   3
   2  -2   6 1135.58 40.0522   7
  -2  -2  -6 1096.36 30.2050   3
   2  -2   6 1077.31 24.8104   6
  -2  -2  -6 1087.01 22.9187   2
   2  -2   6 1025.35 41.4300   1
   2  -2   6 1024.21 25.6671   4
  -2   2  -6 1097.97 38.5253   6
   2   2   6 1097.56 34.2886   8
   2   2   6 1131.30 27.7366   3
   2   2   6 1097.41 30.1554   5
  -2   2  -6 1083.62 36.9011   7
  -2   2  -6 1077.25 43.5686   3
  -2   2  -6 1086.54 72.8498   5
   2   2   6 1158.51 28.6834   2
   2   2   6 1121.61 30.4778   6
  -2   2  -6 1075.35 32.6985   1
   3  -2   6 465.964 13.2216   3
  -3  -2  -6 447.775 13.2643   2
   3  -2   6 473.922 12.7104   6
   3  -2   6 438.300 13.5115   4
   3  -2   6 438.814 10.6644   1
  -3  -2  -6 440.715 14.4277   5
   3  -2   6 467.964 13.2624   7
  -3  -2  -6 470.096 18.6488   3
   3  -2   6 397.989 32.5587   5
   3   2   6 491.412 16.7985   2
   3   2   6 493.811 19.2170   8
  -3   2  -6 485.647 20.8974   7
   3   2   6 483.828 16.7902   5
  -3   2  -6 440.033 24.6576   5
  -3   2  -6 443.118 15.1084   1
   3   2   6 467.330 11.4778   6
  -3   2  -6 448.255 25.9655   6
   3   2   6 483.104 13.2159   3
  -3   2  -6 460.805 18.9224   3
   4  -2   6 638.529 18.4424   4
   4  -2   6 644.829 33.9663   8
   4  -2   6 644.808 28.9921   1
   4  -2   6 667.672 17.8879   6
  -4  -2  -6 613.997 21.5228   5
   4  -2   6 658.960 27.4044   4
  -4  -2  -6 631.550 18.0943   2
   4  -2   6 662.864 21.5546   7
   4  -2   6 652.806 18.2590   3
   4   2   6 650.997 22.8767   3
   4   2   6 644.065 15.4189   6
   4   2   6 701.517 30.4700   8
  -4   2  -6 643.083 31.6953   5
  -4   2  -6 666.396 21.4258   1
   4   2   6 628.036 47.9766   2
  -4   2  -6 594.440 50.7138   3
   5  -2   6 178.179 9.55022   6
   5  -2   6 187.341 5.91248   8
  -5  -2  -6 188.369 8.07505   2
   5  -2   6 169.433 8.32832   3
   5  -2   6 174.978 4.88092   4
  -5  -2  -6 179.275 4.36836   5
   5  -2   6 159.910 9.95856   1
   5  -2   6 176.734 10.0407   7
   5  -2   6 183.218 6.11283   4
  -5   2  -6 185.277 16.0446   5
   5   2   6 189.363 9.57212   3
   5   2   6 185.680 7.60681   6
  -5   2  -6 167.030 7.43096   1
   6  -2   6 567.330 18.4415   4
   6  -2   6 579.960 23.3885   8
   6  -2   6 614.797 21.7086   6
   6  -2   6 567.787 19.0196   4
   6  -2   6 559.739 20.7314   3
   6  -2   6 574.447 18.8451   7
  -6  -2  -6 583.790 20.0934   2
  -6   2  -6 586.202 21.6207   1
  -6   2  -6 607.126 25.9343   5
   6   2   6 561.322 18.7001   3
   6   2   6 575.762 21.4664   6
  -7  -2  -6 88.4484 7.81767   2
   7  -2   6 82.7421 7.35457   3
   7  -2   6 66.1526 8.76439   6
   7  -2   6 69.1613 8.01082   7
  -7   2  -6 82.4099 7.69940   2
  -7   2  -6 89.1994 8.55402   5
   7   2   6 84.9843 8.28458   3
  -7   2  -6 62.3647 6.50730   1
   7   2   6 81.7876 6.89163   6
   8  -2   6 104.204 11.4043   7
   8  -2   6 91.5296 10.6569   6
  -8  -2  -6 104.845 8.10317   2
   8  -2   6 115.802 8.99876   3
   8   2   6 107.795 9.79044   3
  -8   2  -6 107.028 10.5904   2
  -8   2  -6 102.477 9.83570   1
   8   2   6 105.040 8.66532   6
  -8   2  -6 125.116 10.2080   5
   9  -2   6 70.6214 8.52749   3
   9  -2   6 59.1291 11.4549   7
   9  -2   6 46.1826 10.4998   6
  -9  -2  -6 65.5781 7.49605   2
  -9   2  -6 76.0440 9.29441   2
   9   2   6 67.8912 11.3463   3
  -9   2  -6 47.0267 9.48352   1
   9   2   6 57.2808 9.69240   6
  -9   2  -6 88.4101 10.0466   5
  10  -2   6 4.04783 7.21249   6
  10  -2   6 13.8387 9.64689   3
 -10  -2  -6 7.52445 5.74682   2
  10  -2   6 1.84938 7.41372   7
 -10   2  -6 -1.4978 6.34436   1
 -10   2  -6 4.82802 7.11702   2
  10   2   6 2.06007 6.44562   7
  10   2   6 -4.9468 9.11965   6
  10   2   6 0.74112 7.46150   3
 -10  -3   6 7.33105 8.27779   8
  10  -3  -6 1.42481 7.04337   7
 -10  -3   6 5.83832 8.37817   4
  10  -3  -6 1.32765 9.66347   6
  10   3  -6 4.22100 7.22373   3
  10   3  -6 4.88874 7.58656   6
 -10   3   6 5.28800 7.46751   1
   9  -3  -6 1.70355 5.73542   6
  -9  -3   6 -1.0578 6.72000   4
   9  -3  -6 -2.1995 5.86352   7
  -9  -3   6 -2.4583 4.79357   8
   9   3  -6 1.64908 8.57844   6
  -9   3   6 -5.8612 6.00418   1
   9   3  -6 -0.3583 8.32176   3
  -8  -3   6 57.2199 7.26870   1
  -8  -3   6 62.1955 6.61418   4
  -8  -3   6 74.2295 7.12681   8
   8  -3  -6 67.6290 9.02966   6
   8   3  -6 67.0523 9.69820   3
  -8   3   6 66.3358 9.54954   1
   8   3  -6 55.0683 7.87165   6
  -8   3   6 62.0258 9.98095   8
  -8   3   6 62.1174 6.20965   4
  -7  -3   6 1.42066 3.90367   1
  -7  -3   6 2.90298 3.59390   8
  -7  -3   6 0.82647 0.84981   9
   7  -3  -6 2.94661 4.10114   6
  -7  -3   6 0.92547 0.81644   2
  -7  -3   6 0.21179 0.74680   9
  -7  -3   6 1.42573 3.83072   5
  -7  -3   6 -0.2104 0.79507   2
   7  -3  -6 0.43568 1.45252   3
  -7  -3   6 4.61170 3.84493   4
  -7   3   6 4.45866 4.53166   1
  -7   3   6 1.83854 3.15140   4
  -7   3   6 -1.6723 3.17685   8
   7   3  -6 4.04199 4.45471   6
   7   3  -6 -1.0167 3.18387   5
   7   3  -6 -2.4075 4.47483   3
  -6  -3   6 352.293 13.2603   1
   6  -3  -6 344.557 12.9697   6
  -6  -3   6 322.549 23.0556   5
  -6  -3   6 365.881 12.6480   4
  -6  -3   6 337.290 13.6806   8
  -6   3   6 345.249 14.5011   1
   6   3  -6 339.373 10.1204   5
   6   3  -6 350.795 14.1227   3
  -6   3   6 346.611 11.8317   4
  -5  -3   6 186.587 8.42608   8
   5  -3  -6 181.062 8.08110   6
  -5  -3   6 191.305 8.40364   4
  -5  -3   6 199.217 9.55156   5
  -5   3   6 201.938 7.65146   4
   5   3  -6 187.173 7.58506   5
   5   3  -6 195.758 9.59818   3
  -5   3   6 196.639 10.2308   1
  -4  -3   6 87.9515 7.39040   4
   4  -3  -6 86.0771 5.27925   9
  -4  -3   6 84.2622 5.07219   5
  -4  -3   6 93.6757 7.68756   8
   4  -3  -6 98.5759 6.12763   7
   4  -3  -6 92.4122 5.23541   6
  -4   3   6 77.5255 5.68888   6
   4   3  -6 85.2776 5.48784   5
   4   3  -6 98.3204 6.73548   3
   4   3  -6 81.3501 5.63806   1
  -4   3   6 94.0174 5.87872   4
  -4   3   6 92.3283 7.69241   1
   3  -3  -6 132.400 6.21737   9
   3  -3  -6 124.609 5.75812   7
  -3  -3   6 118.620 7.88487   5
   3  -3  -6 127.787 6.09183   6
  -3  -3   6 109.061 6.01484   8
  -3  -3   6 117.494 5.86276   4
   3  -3  -6 108.302 8.90556   1
  -3   3   6 125.753 7.98739   1
   3   3  -6 114.213 6.23441   4
   3   3  -6 128.531 6.49322   5
   3   3  -6 121.056 6.89006   1
  -3   3   6 117.773 6.79389   2
  -3   3   6 123.252 5.70461   9
   3   3  -6 117.790 6.84185   8
  -3   3   6 119.171 5.70822   6
   3   3  -6 115.215 6.83087   3
  -3   3   6 111.150 7.47620   5
  -2  -3   6 159.694 6.74136   8
   2  -3  -6 149.327 5.37999   7
   2  -3  -6 159.981 6.60421   9
  -2  -3   6 145.137 7.18956   4
  -2  -3   6 144.954 7.67386   5
   2  -3  -6 159.362 5.08700   6
   2  -3  -6 161.143 7.03629   2
   2  -3  -6 151.506 7.59108   1
  -2   3   6 157.379 6.74648   9
   2   3  -6 151.954 10.4173   4
  -2   3   6 163.652 7.59559   5
  -2   3   6 168.473 8.61845   1
   2   3  -6 150.884 7.26415   7
   2   3  -6 153.665 7.21383   5
  -2   3   6 158.539 6.67766   2
   2   3  -6 146.305 5.71433   1
  -2   3   6 159.703 5.60245   3
  -2   3   6 158.660 5.44076   6
   2   3  -6 154.609 5.90529   9
   1  -3  -6 2075.21 61.7167   3
   1  -3  -6 2090.21 42.5105   1
   1  -3  -6 2138.50 48.6561   9
   1  -3  -6 2093.31 58.4468   2
   1  -3  -6 2133.75 53.6956   6
  -1  -3   6 2191.93 78.2766   8
  -1  -3   6 2149.48 77.6716   5
   1  -3  -6 2104.25 72.2146   7
  -1  -3   6 2133.20 51.1540   4
   1   3  -6 2167.78 68.7655   1
  -1   3   6 2234.47 66.5769   5
  -1   3   6 2164.14 68.9536   9
  -1   3   6 2123.56 50.6393   1
  -1   3   6 2210.31 56.6292   3
   1   3  -6 2189.37 65.5780   7
  -1   3   6 2248.70 67.0246   2
  -1   3   6 2213.81 53.6381   6
   1   3  -6 2208.04 62.6403   5
   1   3  -6 2249.27 83.4200   4
   0  -3  -6 154.937 6.23719   2
   0  -3  -6 166.318 6.12591   9
   0  -3   6 161.522 7.03602   7
   0  -3  -6 162.712 7.39925   3
   0  -3   6 169.688 5.87653   8
   0  -3   6 158.338 6.27324   4
   0  -3   6 161.373 8.38857   5
   0   3   6 173.137 6.00891   3
   0   3   6 179.470 8.23240   1
   0   3  -6 154.547 7.11981   6
   0   3  -6 172.664 9.46464   7
   0   3  -6 170.900 7.74547   5
   0   3  -6 170.570 5.01581   1
   0   3  -6 171.444 7.10974   4
   0   3   6 168.190 4.94442   6
   0   3   6 161.213 7.92717   2
   0   3   6 163.725 7.70236   9
   0   3   6 160.561 6.05190   5
   1  -3   6 23.3565 2.34498   4
  -1  -3  -6 20.9186 2.95429   2
   1  -3   6 18.7711 3.89729   5
  -1  -3  -6 23.3023 2.81841   9
  -1  -3  -6 18.3569 3.35747   3
   1  -3   6 20.8366 2.31451   8
   1  -3   6 20.6747 3.38648   7
   1  -3   6 21.7850 3.27960   6
   1   3   6 18.3367 2.50028   5
  -1   3  -6 21.3215 1.54115   1
  -1   3  -6 25.6580 3.43821   6
   1   3   6 21.4051 2.97711   2
  -1   3  -6 20.0648 3.95682   3
   1   3   6 17.2567 3.50998   3
  -1   3  -6 23.1239 2.35801   4
  -1   3  -6 20.7206 3.93446   5
   1   3   6 20.5271 1.37382   6
   1   3   6 21.5864 2.87587   9
   1   3   6 21.4701 1.43713   7
   1   3   6 19.5889 3.65336   8
  -1   3  -6 18.7704 4.19535   7
  -2  -3  -6 4.21256 2.33021   2
   2  -3   6 2.74565 2.63603   6
   2  -3   6 5.18235 5.05163   5
   2  -3   6 3.89928 1.72906   1
  -2  -3  -6 2.10560 2.40413   3
   2  -3   6 1.35794 2.73177   7
   2  -3   6 5.49246 1.44269   4
   2  -3   6 5.37508 1.46596   8
  -2  -3  -6 6.24048 2.34825   9
  -2   3  -6 4.43819 2.77579   6
  -2   3  -6 5.32320 1.93872   4
   2   3   6 6.21593 2.67487   8
  -2   3  -6 2.85655 4.95797   5
  -2   3  -6 2.77308 1.51464   1
   2   3   6 3.41609 2.68741   3
   2   3   6 1.01209 2.18294   2
  -2   3  -6 2.94566 3.87832   7
   2   3   6 4.15505 1.70772   5
  -2   3  -6 1.92732 3.55633   3
   2   3   6 4.31027 1.35349   6
   3  -3   6 543.704 15.1449   6
   3  -3   6 488.340 21.5523   4
   3  -3   6 494.656 19.2087   8
   3  -3   6 535.659 17.6822   7
   3  -3   6 496.741 20.8039   1
  -3  -3  -6 503.768 13.5423   9
  -3  -3  -6 518.195 15.7057   2
  -3   3  -6 509.239 26.2022   3
  -3   3  -6 510.825 20.2662   1
   3   3   6 549.839 16.5722   5
   3   3   6 529.916 11.9635   6
   3   3   6 574.624 19.0190   2
  -3   3  -6 527.372 17.6922   5
   3   3   6 513.203 18.9125   3
  -4  -3  -6 308.058 9.89284   2
   4  -3   6 301.941 11.7913   7
  -4  -3  -6 289.626 9.61149   9
   4  -3   6 288.714 10.6970   3
   4  -3   6 299.751 11.6709   6
   4  -3   6 288.897 15.0064   1
  -4   3  -6 292.163 11.9756   5
   4   3   6 287.461 10.4645   6
  -4   3  -6 267.041 11.3739   1
   4   3   6 314.257 12.8410   3
  -5  -3  -6 109.117 6.99931   2
   5  -3   6 98.4516 7.22969   1
   5  -3   6 101.251 7.61924   3
   5  -3   6 97.4103 8.30228   6
   5  -3   6 103.206 7.87862   7
  -5   3  -6 110.919 9.58729   5
  -5   3  -6 96.7762 6.36751   1
   5   3   6 98.3273 5.62297   6
   5   3   6 106.890 8.91880   3
   6  -3   6 221.857 12.4717   7
   6  -3   6 224.837 10.3143   3
   6  -3   6 238.576 11.4113   6
  -6  -3  -6 231.089 9.59277   2
  -6   3  -6 266.561 14.8416   5
   6   3   6 246.523 13.0308   3
   6   3   6 221.165 10.6305   6
  -6   3  -6 223.143 10.0267   1
   7  -3   6 125.990 11.2647   7
  -7  -3  -6 126.299 8.70967   2
   7  -3   6 123.448 11.0629   6
   7  -3   6 122.774 9.86876   3
  -7   3  -6 130.547 9.22978   1
  -7   3  -6 139.135 11.2241   5
   7   3   6 103.079 9.70194   3
   7   3   6 107.838 20.5208   6
   8  -3   6 -1.7855 5.15062   3
  -8  -3  -6 2.80438 6.16668   2
   8  -3   6 4.06281 6.23187   6
   8  -3   6 0.98131 6.23543   7
   8   3   6 1.53364 6.11181   3
  -8   3  -6 2.66611 4.90019   1
   8   3   6 3.93620 4.94807   6
  -8   3  -6 5.22990 7.85991   5
   9  -3   6 9.64638 7.60252   7
  -9  -3  -6 12.9585 7.29931   2
   9  -3   6 8.41804 8.58125   3
   9  -3   6 6.42903 7.19357   6
   9   3   6 17.0494 7.84877   3
  -9   3  -6 11.0135 6.51394   5
  -9   3  -6 11.4833 9.31038   2
   9   3   6 6.29506 8.12596   6
  -9   3  -6 -3.9853 7.79654   1
 -10  -4   6 50.0503 8.42600   8
  10  -4  -6 65.3030 10.3401   7
  10  -4  -6 70.5612 9.68175   6
 -10  -4   6 62.8694 8.83080   4
  10   4  -6 78.8850 13.3610   3
  10   4  -6 53.8556 10.0153   6
 -10   4   6 55.0972 9.92270   1
  -9  -4   6 4.22877 7.77060   8
   9  -4  -6 0.90671 8.52031   6
  -9  -4   6 4.40696 5.61644   4
   9  -4  -6 4.04622 8.75889   7
  -9   4   6 7.23146 9.26545   1
   9   4  -6 4.59151 6.74916   6
   9   4  -6 11.9650 7.14426   3
   8  -4  -6 250.970 13.0544   6
  -8  -4   6 251.304 13.1355   8
  -8  -4   6 241.560 14.1953   4
   8  -4  -6 263.022 14.6299   7
   8   4  -6 253.272 13.6266   6
  -8   4   6 267.872 14.5786   1
   8   4  -6 260.863 14.2541   3
   7  -4  -6 -5.9836 5.93053   6
   7  -4  -6 -0.5923 6.09889   7
  -7  -4   6 5.51819 5.80610   8
  -7  -4   6 -1.0210 5.49825   4
   7   4  -6 -1.3768 3.03283   5
  -7   4   6 -0.8993 5.01819   1
   7   4  -6 0.33404 5.39790   3
  -7   4   6 -2.0963 3.10073   4
  -6  -4   6 643.813 22.5178   4
   6  -4  -6 630.871 22.1562   6
   6  -4  -6 670.705 27.9049   7
  -6  -4   6 639.852 33.0346   5
  -6  -4   6 641.198 21.9568   8
  -6   4   6 637.720 26.8044   4
  -6   4   6 651.600 24.0067   1
   6   4  -6 650.729 31.9358   3
   6   4  -6 637.173 29.5805   5
  -5  -4   6 447.703 20.8611   8
   5  -4  -6 426.217 13.6964   7
  -5  -4   6 424.196 22.5588   5
  -5  -4   6 408.502 15.6345   4
   5  -4  -6 410.241 12.9760   6
   5   4  -6 432.915 19.9892   5
   5   4  -6 437.280 16.8315   3
  -5   4   6 396.555 15.7941   1
  -5   4   6 404.345 16.2494   4
  -4  -4   6 585.249 40.6071   5
   4  -4  -6 595.931 18.6996   7
  -4  -4   6 595.332 18.9360   8
  -4  -4   6 601.172 17.6228   4
   4  -4  -6 577.415 24.5919   9
   4  -4  -6 584.122 18.3849   6
   4   4  -6 636.882 18.9370   5
  -4   4   6 614.502 30.9442   6
   4   4  -6 608.499 26.1437   1
   4   4  -6 594.348 26.2725   3
  -4   4   6 604.499 21.4303   1
  -4   4   6 563.064 22.5880   4
  -3  -4   6 200.185 12.7336   5
   3  -4  -6 225.216 7.63484   6
  -3  -4   6 209.586 8.44570   8
   3  -4  -6 209.964 8.86897   7
   3  -4  -6 202.792 12.1564   9
  -3  -4   6 217.664 8.39958   4
   3   4  -6 229.336 8.54916   1
  -3   4   6 204.867 5.64202   3
  -3   4   6 211.201 4.73058   3
   3   4  -6 220.809 11.4746   9
  -3   4   6 216.452 10.1449   6
   3   4  -6 215.655 12.6210   2
   3   4  -6 239.391 11.0029   3
  -3   4   6 210.577 13.6402   1
   3   4  -6 213.639 9.07039   5
  -2  -4   6 1124.43 30.1145   4
   2  -4  -6 1112.03 34.3696   6
   2  -4  -6 1096.70 41.4847   7
  -2  -4   6 1111.01 53.9647   5
   2  -4  -6 1085.55 36.9786   9
  -2  -4   6 1117.21 37.1592   8
  -2   4   6 1149.53 42.4146   1
  -2   4   6 1105.99 34.4882   3
   2   4  -6 1152.17 53.0186   2
   2   4  -6 1213.20 31.6767   5
   2   4  -6 1161.26 54.0787   9
   2   4  -6 1186.36 49.2416   1
   2   4  -6 1168.05 52.4212   4
  -2   4   6 1156.28 43.8745   6
  -2   4   6 1203.86 84.8946   5
   2   4  -6 1146.30 45.7492   8
  -1  -4   6 451.436 24.1309   5
   1  -4  -6 466.889 12.5063   2
  -1  -4   6 476.707 14.0928   7
  -1  -4   6 453.827 14.8810   8
  -1  -4   6 466.148 11.8671   4
   1  -4  -6 440.382 12.0887   9
   1  -4  -6 450.154 16.7178   6
   1  -4  -6 444.450 18.9853   7
   1  -4  -6 469.377 11.6539   3
  -1   4   6 460.312 18.6140   6
   1   4  -6 431.746 15.6138   1
  -1   4   6 460.875 18.0456   3
  -1   4   6 475.426 15.0346   1
  -1   4   6 468.535 15.9270   8
   1   4  -6 453.744 18.0052   9
   1   4  -6 466.936 17.7626   4
  -1   4   6 473.621 24.9543   5
   1   4  -6 452.910 13.7537   5
   1   4  -6 474.324 16.2782   8
   0  -4   6 696.913 23.1023   8
   0  -4   6 693.801 20.2060   7
   0  -4  -6 695.980 32.6964   3
   0  -4   6 701.098 25.0053   4
   0  -4   6 696.509 31.3323   5
   0  -4  -6 688.520 21.9637   2
   0  -4  -6 677.021 17.7234   9
   0   4  -6 725.484 26.0882   5
   0   4  -6 719.045 19.3951   9
   0   4   6 714.799 33.7438   8
   0   4   6 731.793 26.9988   3
   0   4   6 721.863 34.1939   2
   0   4   6 730.652 21.2373   6
   0   4   6 739.624 26.2441   5
   0   4   6 671.182 26.6728   1
   0   4  -6 724.148 27.8610   4
   0   4   6 724.840 29.9219   9
   0   4  -6 704.994 31.0183   1
   0   4   6 724.957 21.0703   7
   1  -4   6 24.7429 2.35866   8
  -1  -4  -6 25.7418 3.46192   2
  -1  -4  -6 23.6087 3.45686   3
   1  -4   6 23.6217 2.76369   4
   1  -4   6 22.9320 3.86341   7
  -1  -4  -6 24.4074 3.23342   9
   1   4   6 24.2295 4.05858   3
   1   4   6 19.7832 9.13925   9
   1   4   6 21.1569 3.14682   5
   1   4   6 25.9317 2.12477   6
   1   4   6 22.9653 2.08105   7
  -1   4  -6 27.6658 2.68404   1
  -1   4  -6 23.0228 3.03365   4
   1   4   6 21.2254 9.70726   2
  -1   4  -6 22.8957 5.62792   5
   2  -4   6 4.25582 1.62100   8
  -2  -4  -6 3.95584 3.24806   9
   2  -4   6 2.59667 1.73411   1
  -2  -4  -6 -0.7914 2.27378   2
   2  -4   6 5.52768 5.40347   7
   2  -4   6 8.41522 5.91836   6
   2  -4   6 2.51798 1.49354   4
   2   4   6 3.69147 2.77461   3
   2   4   6 2.38618 1.93038   5
  -2   4  -6 4.25690 2.12652   1
  -2   4  -6 -0.7814 2.02972   4
   2   4   6 3.44897 1.69040   7
  -2   4  -6 9.31028 8.03981   5
  -3  -4  -6 342.493 10.4647   9
   3  -4   6 383.381 13.7794   7
   3  -4   6 345.014 12.4184   6
   3  -4   6 324.048 24.1464   1
  -3  -4  -6 338.759 10.5568   2
   3  -4   6 341.493 13.3763   8
   3   4   6 358.039 14.5040   3
   3   4   6 338.550 8.69079   5
   3   4   6 329.869 18.1598   6
  -3   4  -6 357.605 14.4298   5
  -3   4  -6 336.079 11.5441   1
  -4  -4  -6 163.059 7.85110   2
   4  -4   6 133.605 13.4594   1
   4  -4   6 155.677 9.84313   6
   4  -4   6 158.064 9.23406   7
  -4  -4  -6 144.398 6.81465   9
   4   4   6 143.861 9.17725   6
   4   4   6 169.534 9.35638   3
  -4   4  -6 155.830 11.8750   5
  -4   4  -6 148.071 6.46031   1
  -5  -4  -6 2.10509 2.98707   2
   5  -4   6 4.75287 5.99983   6
  -5  -4  -6 -0.3556 2.78886   9
   5  -4   6 -1.4177 4.27640   7
   5   4   6 3.87934 6.37330   3
  -5   4  -6 1.47770 4.91275   5
  -5   4  -6 0.72955 3.73057   1
   5   4   6 -1.8800 3.45951   6
  -6  -4  -6 18.6207 5.16887   9
   6  -4   6 10.4687 5.12358   6
   6  -4   6 10.7381 7.66998   7
  -6  -4  -6 22.2564 5.43418   2
  -6   4  -6 10.4378 3.88829   1
  -6   4  -6 18.6038 6.55653   5
   6   4   6 13.6756 3.91828   6
   6   4   6 16.5539 7.88042   3
   7  -4   6 30.5124 6.90479   6
   7  -4   6 33.2858 9.62835   7
   7  -4   6 37.0718 6.12736   3
  -7  -4  -6 34.7431 6.53253   9
  -7  -4  -6 34.7510 6.32953   2
  -7   4  -6 42.1617 10.0726   5
  -7   4  -6 26.2687 5.16723   1
   7   4   6 30.1496 7.55096   3
   7   4   6 23.2931 4.83765   6
  -8  -4  -6 36.7779 6.78898   9
   8  -4   6 38.8123 6.67521   3
  -8  -4  -6 30.0479 5.61288   2
   8  -4   6 28.7376 8.23803   7
   8  -4   6 23.3490 9.84469   6
  -8   4  -6 34.3611 7.14290   1
   8   4   6 30.7133 8.27772   3
   8   4   6 21.2591 5.52974   6
  -8   4  -6 33.8150 8.32941   5
   9  -4   6 6.08267 5.65206   3
   9  -4   6 7.46695 10.9349   7
  -9  -4  -6 0.83762 4.98509   2
   9  -4   6 6.59060 10.7235   6
  -9  -4  -6 3.14507 4.62673   9
  -9   4  -6 1.30692 5.89462   1
  -9   4  -6 5.67814 9.98250   5
   9   4   6 0.73902 8.04036   3
   9  -5  -6 0.23497 6.70647   7
  -9  -5   6 -3.5752 5.72630   4
  -9  -5   6 -4.8086 5.68610   8
   9  -5  -6 1.59600 6.29421   6
   9   5  -6 -1.1033 7.14613   6
   9   5  -6 -3.8096 10.7044   3
  -9   5   6 3.18885 7.34804   1
   8  -5  -6 16.9062 6.13847   6
  -8  -5   6 8.27910 5.60646   8
   8  -5  -6 15.4564 6.34662   7
  -8  -5   6 11.2217 5.78017   4
   8   5  -6 10.3943 7.53971   3
  -8   5   6 7.54731 6.64887   1
   7  -5  -6 293.572 13.9331   6
  -7  -5   6 268.469 13.6094   4
   7  -5  -6 276.506 14.8915   7
  -7  -5   6 295.099 16.4016   8
   7   5  -6 308.213 15.6341   3
  -7   5   6 278.810 14.4410   1
   6  -5  -6 31.4451 7.18445   7
   6  -5  -6 33.6231 6.75672   6
  -6  -5   6 24.6734 5.32959   4
  -6  -5   6 27.5631 5.52763   8
   6   5  -6 27.6946 7.05239   3
  -6   5   6 28.3017 4.38238   4
  -6   5   6 25.1213 6.60192   1
   6   5  -6 25.4304 4.41720   5
  -5  -5   6 3.51239 3.94107   8
   5  -5  -6 -0.0385 3.52510   7
  -5  -5   6 -0.0362 3.50772   4
   5  -5  -6 -0.4710 3.44419   6
  -5  -5   6 0.52339 3.51663   5
   5   5  -6 6.79005 5.43598   3
   5   5  -6 -0.4633 3.78444   5
  -5   5   6 -2.4801 4.55999   1
  -5   5   6 -4.2452 3.91700   4
  -4  -5   6 28.2309 4.55621   4
  -4  -5   6 30.1794 4.66575   8
   4  -5  -6 26.4765 4.54455   9
   4  -5  -6 36.3880 5.28926   7
   4  -5  -6 35.0182 5.05984   6
  -4  -5   6 32.2747 5.65126   5
  -4   5   6 24.1861 5.85858   1
   4   5  -6 21.9784 1.71884   2
   4   5  -6 25.1339 4.98073   5
   4   5  -6 32.7274 6.19869   3
   3  -5  -6 1239.27 37.1093   9
   3  -5  -6 1273.85 53.3689   7
  -3  -5   6 1267.25 71.9219   5
  -3  -5   6 1289.83 41.9531   4
   3  -5  -6 1294.07 49.0109   6
  -3  -5   6 1302.39 43.0050   8
  -3   5   6 1315.04 60.8413   1
   3   5  -6 1390.47 72.2815   9
  -3   5   6 1296.01 59.3889   8
   3   5  -6 1377.97 71.6612   1
   3   5  -6 1326.53 66.4090   2
  -3   5   6 1430.63 58.9746   6
  -3   5   6 1293.24 50.4575   3
   3   5  -6 1326.45 47.9718   5
   3   5  -6 1346.38 70.5475   3
   2  -5  -6 122.721 6.15648   7
  -2  -5   6 109.076 6.76608   8
   2  -5  -6 98.1386 6.04070   9
  -2  -5   6 103.980 6.69942   4
   2  -5  -6 105.484 5.67635   6
  -2   5   6 103.417 7.24131   6
   2   5  -6 99.7430 4.47027   9
  -2   5   6 98.7477 4.71025   3
   2   5  -6 106.982 4.67371   2
   2   5  -6 97.4877 7.76468   3
   2   5  -6 97.7031 6.99252   5
  -2   5   6 104.458 7.85563   1
   2   5  -6 103.798 6.80243   1
   1  -5  -6 149.921 7.04806   9
   1  -5  -6 153.398 10.0594   7
  -1  -5   6 151.314 12.1768   4
  -1  -5   6 165.486 12.5474   8
   1   5  -6 153.800 7.24688   1
  -1   5   6 153.786 9.36845   7
  -1   5   6 134.584 9.63572   1
   1   5  -6 138.374 7.40086   9
  -1   5   6 142.803 8.56067   3
   1   5  -6 137.307 9.49991   5
  -1   5   6 147.899 6.84789   6
   0  -5  -6 186.787 9.78035   3
   0  -5   6 179.969 6.89310   8
   0  -5   6 185.574 6.88570   4
   0  -5   6 177.672 8.96868   7
   0  -5  -6 169.497 7.77879   9
   0  -5  -6 152.007 7.80866   2
   0   5   6 157.367 8.88587   5
   0   5   6 188.546 9.94847   1
   0   5  -6 176.414 9.13883   1
   0   5   6 169.868 7.83731   3
   0   5  -6 189.170 9.35877   8
   0   5   6 178.245 6.91340   7
   0   5  -6 170.677 11.1911   4
   0   5   6 177.584 8.93232   6
   0   5  -6 158.727 7.92324   9
   0   5  -6 168.039 11.5274   5
  -1  -5  -6 59.2216 21.4365   3
  -1  -5  -6 67.2830 4.91992   9
   1  -5   6 60.0691 3.85464   4
   1  -5   6 69.4871 4.10109   8
   1  -5   6 62.0892 5.86876   7
  -1  -5  -6 63.4806 4.98473   2
   1   5   6 61.8364 3.93930   6
   1   5   6 60.0631 7.97567   1
  -1   5  -6 65.3579 4.80481   4
   1   5   6 59.0388 5.89386   3
   1   5   6 61.0698 4.71862   5
  -1   5  -6 58.5488 4.52199   1
  -1   5  -6 66.7337 6.91741   5
   1   5   6 61.0469 3.87250   7
  -2  -5  -6 1.59904 2.59877   9
   2  -5   6 2.44075 3.75447   7
   2  -5   6 2.28027 3.61852   6
   2  -5   6 3.08735 1.60870   8
  -2  -5  -6 3.93277 2.92006   2
   2  -5   6 0.12518 1.59174   4
   2   5   6 0.55288 1.94236   6
   2   5   6 0.92550 1.47560   7
   2   5   6 1.50902 2.48997   5
  -2   5  -6 0.99928 6.18481   5
  -2   5  -6 3.13160 2.58898   4
  -2   5  -6 0.34099 2.87376   1
   3  -5   6 626.328 19.1833   7
   3  -5   6 629.273 22.9972   1
  -3  -5  -6 586.547 17.7072   9
   3  -5   6 583.930 38.0177   8
   3  -5   6 612.049 20.6517   6
  -3  -5  -6 582.038 23.1885   2
   3   5   6 587.055 41.8513   5
  -3   5  -6 625.791 26.9026   4
   3   5   6 626.363 23.7429   5
  -3   5  -6 630.886 22.0416   5
   3   5   6 614.981 22.1683   3
  -3   5  -6 635.169 20.5822   1
   3   5   6 610.502 23.0898   7
   4  -5   6 -3.5446 4.25222   6
  -4  -5  -6 0.73669 3.13127   2
   4  -5   6 -2.4498 6.03857   7
  -4  -5  -6 -1.4435 2.80560   9
   4  -5   6 -0.5331 3.86024   1
  -4   5  -6 -0.5241 3.53443   1
   4   5   6 -2.2108 5.99449   3
   4   5   6 0.99081 2.33866   6
  -4   5  -6 2.42650 10.9669   5
  -5  -5  -6 64.0333 5.28007   9
  -5  -5  -6 62.7366 5.65766   2
   5  -5   6 53.1730 8.95868   7
   5  -5   6 61.7236 8.77967   6
  -5   5  -6 51.6724 5.06026   1
   5   5   6 47.0029 5.41055   6
   5   5   6 49.2071 7.43248   3
  -5   5  -6 65.5209 8.90344   5
   6  -5   6 16.9668 6.42365   6
  -6  -5  -6 23.2532 5.84228   2
  -6  -5  -6 19.8181 5.47597   9
   6  -5   6 20.2801 6.73464   7
   6   5   6 7.94453 5.03192   6
   6   5   6 15.1459 6.63615   3
  -6   5  -6 18.4682 7.44312   5
  -6   5  -6 10.1358 5.52550   1
   7  -5   6 105.305 10.8995   7
  -7  -5  -6 118.934 8.88905   2
   7  -5   6 83.6388 9.67160   6
  -7  -5  -6 103.143 8.52088   9
  -7   5  -6 118.947 13.8409   5
   7   5   6 90.5320 7.49979   6
  -7   5  -6 99.7907 8.17035   1
   7   5   6 115.773 12.7787   3
  -8  -5  -6 19.9739 5.18666   2
  -8  -5  -6 23.9081 5.35683   9
   8  -5   6 49.2067 28.5708   7
   8  -5   6 42.8885 18.6644   6
  -8   5  -6 20.6134 8.61027   5
   8   5   6 18.7018 8.63562   3
   9  -6  -6 12.1745 10.2640   7
   9  -6  -6 4.51134 10.5874   6
  -9  -6   6 3.94391 7.39612   8
   9   6  -6 10.9463 8.75774   6
   9   6  -6 -3.1703 9.08003   3
  -9   6   6 13.7174 8.44959   1
   8  -6  -6 562.301 40.6747   6
  -8  -6   6 598.828 39.5327   4
  -8  -6   6 590.659 42.2950   8
   8  -6  -6 571.088 40.1268   7
  -8   6   6 615.475 50.2891   1
   7  -6  -6 113.929 10.7060   6
  -7  -6   6 77.3117 8.32224   8
  -7  -6   6 73.8263 8.28426   4
   7  -6  -6 95.1207 10.4049   7
   7   6  -6 115.164 12.2020   3
  -7   6   6 85.8526 10.2679   1
   6  -6  -6 61.3319 7.05077   6
   6  -6  -6 64.9429 7.56276   7
  -6  -6   6 66.1087 7.44987   4
  -6  -6   6 58.2425 7.27442   8
  -6   6   6 54.9369 8.60540   1
   6   6  -6 54.2767 9.43182   3
  -5  -6   6 270.082 14.4272   8
  -5  -6   6 287.503 13.1513   4
   5  -6  -6 296.514 12.4263   6
   5  -6  -6 277.931 14.9596   7
  -5   6   6 288.777 14.4772   1
   5   6  -6 291.705 18.6205   5
  -5   6   6 273.127 14.1082   4
   5   6  -6 277.784 16.3215   3
  -4  -6   6 21.7333 5.13073   8
   4  -6  -6 35.9396 5.83763   6
   4  -6  -6 22.1532 5.10043   9
  -4  -6   6 26.9930 5.16600   4
   4   6  -6 17.7932 5.56055   5
   4   6  -6 23.6300 6.93257   3
  -4   6   6 39.6765 8.88366   1
   3  -6  -6 103.097 6.61985   7
  -3  -6   6 117.316 7.58147   8
   3  -6  -6 112.290 6.51952   6
   3  -6  -6 100.545 8.34309   9
  -3  -6   6 108.231 7.30664   4
   3   6  -6 97.2342 8.54972   5
  -3   6   6 95.1593 10.5448   1
   3   6  -6 104.392 9.52056   3
  -3   6   6 93.7326 5.03412   3
   2  -6  -6 370.739 10.8513   6
   2  -6  -6 355.850 15.7393   9
   2  -6  -6 372.869 12.8645   7
  -2  -6   6 363.223 13.6273   4
  -2  -6   6 352.803 16.9480   8
  -2   6   6 354.058 12.8358   6
   2   6  -6 371.243 16.5708   5
   2   6  -6 355.418 13.2408   2
   2   6  -6 356.064 12.8666   9
   2   6  -6 353.194 19.3577   1
  -2   6   6 353.588 22.9753   3
  -2   6   6 370.233 16.4042   1
   2   6  -6 378.781 20.4609   3
  -1  -6   6 66.2638 5.40079   8
  -1  -6   6 66.5132 5.33315   4
   1  -6  -6 60.2188 5.37857   9
   1  -6  -6 68.9615 5.11421   7
  -1   6   6 53.3887 7.19405   1
   1   6  -6 52.3636 4.21154   9
  -1   6   6 55.0803 4.55591   3
  -1   6   6 64.1719 5.54321   6
   1   6  -6 51.0933 5.54977   1
   1   6  -6 48.4424 4.59391   2
   1   6  -6 57.1465 6.83117   5
  -1   6   6 55.7521 4.92640   7
   0  -6  -6 844.657 34.6798   2
   0  -6   6 826.608 35.8631   8
   0  -6   6 858.355 30.0781   4
   0  -6   6 830.106 31.8155   7
   0  -6  -6 809.109 30.2628   9
   0   6  -6 871.621 32.1358   5
   0   6   6 858.562 36.0623   6
   0   6   6 895.307 41.4080   7
   0   6   6 854.322 24.0660   3
   0   6  -6 873.348 29.9880   1
   0   6   6 863.785 41.6128   1
   1  -6   6 7.07222 3.43655   8
  -1  -6  -6 5.28484 4.69270   2
   1  -6   6 4.14156 5.80997   7
  -1  -6  -6 3.55120 4.42859   9
   1   6   6 4.19305 2.28998   6
   1   6   6 9.49657 7.09136   1
   1   6   6 5.12885 4.29608   5
   1   6   6 6.20069 5.00291   3
  -1   6  -6 4.62304 3.78004   1
  -1   6  -6 1.83146 4.21536   4
   1   6   6 0.12395 3.08042   7
  -1   6  -6 18.9643 5.88926   5
  -2  -6  -6 138.202 7.26467   9
   2  -6   6 144.626 9.34049   7
  -2  -6  -6 143.383 8.34748   2
   2  -6   6 156.567 6.96888   8
  -2   6  -6 143.736 10.9110   5
  -2   6  -6 134.633 7.44250   1
   2   6   6 140.869 10.3113   1
   2   6   6 129.745 6.99670   5
   2   6   6 131.850 9.51440   3
  -3  -6  -6 4.52008 4.89808   2
   3  -6   6 9.56218 5.01213   6
  -3  -6  -6 6.72685 4.94086   9
   3  -6   6 8.82667 6.79472   7
  -3   6  -6 4.17269 4.07530   1
  -3   6  -6 13.7094 8.44146   5
   3   6   6 3.72160 3.11649   5
   3   6   6 8.85301 6.75453   3
  -4  -6  -6 14.8197 5.22232   9
   4  -6   6 5.39706 5.43369   7
   4  -6   6 8.75910 5.45719   6
  -4  -6  -6 13.5210 5.42939   2
   4   6   6 8.25508 5.47879   3
  -4   6  -6 17.5165 7.03536   5
   4   6   6 5.47919 3.79227   6
  -4   6  -6 5.40452 3.22005   1
   5  -6   6 21.4349 6.71850   7
  -5  -6  -6 26.4280 4.65147   9
   5  -6   6 30.3003 6.82667   6
  -5  -6  -6 24.1729 6.09018   2
  -5   6  -6 28.7727 10.7268   5
  -5   6  -6 15.6958 5.54538   1
   5   6   6 21.5795 6.77657   3
   6  -6   6 13.1082 9.28293   6
  -6  -6  -6 20.1558 6.30755   2
  -6  -6  -6 14.8567 5.87462   9
   6  -6   6 10.5330 6.99577   7
   6   6   6 16.1181 10.5014   3
  -6   6  -6 10.6383 11.1510   5
  -7  -6  -6 64.2723 8.05167   2
  -7  -6  -6 55.5959 7.48496   9
   7  -6   6 65.4478 11.8398   6
   7  -6   6 46.7757 12.3419   7
  -7   6  -6 55.6018 10.9284   5
   7   6   6 49.1465 10.0069   3
   8  -6   6 178.859 31.4703   7
   8  -6   6 161.943 29.7604   6
   8   6   6 190.688 31.6813   3
  -8   6  -6 173.529 15.3276   5
  -8  -7   6 11.1901 12.8160   8
   8  -7  -6 2.44212 9.51223   6
   8  -7  -6 -0.1785 10.4174   7
  -8   7   6 -7.6286 11.0797   1
   8   7  -6 -1.5860 9.59891   3
  -7  -7   6 118.157 10.7907   8
   7  -7  -6 119.233 12.2588   7
   7  -7  -6 136.022 11.9887   6
   7   7  -6 107.077 13.3879   3
  -7   7   6 119.792 14.7990   1
   6  -7  -6 3.81453 5.59216   7
  -6  -7   6 4.27763 5.84484   8
   6  -7  -6 1.80119 5.44920   6
  -6   7   6 -2.3498 6.44555   1
   6   7  -6 -0.9254 7.66932   3
  -5  -7   6 66.5066 7.71146   8
   5  -7  -6 88.8012 7.99880   7
   5  -7  -6 74.8272 7.31808   6
  -5  -7   6 54.2535 7.47448   4
  -5   7   6 72.2303 9.84219   1
   4  -7  -6 66.1562 7.58550   6
  -4  -7   6 60.6348 7.01723   8
  -4  -7   6 67.2773 7.19389   4
   4  -7  -6 61.9012 6.65444   7
  -4   7   6 52.2703 8.55477   1
   4   7  -6 44.8987 8.95040   3
   4   7  -6 43.5556 6.23403   5
  -3  -7   6 3.51737 4.30330   8
  -3  -7   6 4.93697 4.51709   4
   3  -7  -6 5.64598 4.86848   9
   3  -7  -6 2.39793 5.25625   7
   3  -7  -6 3.21701 3.72221   6
  -3   7   6 0.04957 8.49948   1
   3   7  -6 0.10159 6.35888   3
   3   7  -6 2.59087 6.48720   5
  -2  -7   6 27.8278 5.34599   4
   2  -7  -6 30.1436 5.40809   9
   2  -7  -6 30.0966 4.53470   7
  -2  -7   6 38.3955 6.60321   8
   2   7  -6 23.1918 6.21233   1
  -2   7   6 22.1327 4.67631   3
   2   7  -6 41.0558 7.82003   3
   2   7  -6 23.5502 6.22819   5
  -2   7   6 24.1638 6.77010   1
   1  -7  -6 61.1043 7.36713   9
   1  -7  -6 60.1019 5.95513   7
  -1  -7   6 54.6760 6.67513   8
  -1   7   6 52.3810 6.27683   3
  -1   7   6 46.7505 7.90449   1
   1   7  -6 44.9685 7.37659   5
   1   7  -6 47.9661 7.77347   3
   1   7  -6 42.2465 6.29562   1
   0  -7  -6 19.6845 4.48250   9
   0  -7   6 19.3469 5.44769   7
   0   7  -6 13.8283 5.06226   1
   0   7   6 17.5760 8.49246   1
   0   7   6 20.0238 5.65086   3
   0   7  -6 30.3420 8.99062   5
   1  -7   6 -0.7486 3.75308   8
   1  -7   6 -1.2415 6.48375   7
  -1  -7  -6 -1.0841 4.00406   2
  -1  -7  -6 8.29904 5.34666   9
  -1   7  -6 -1.5784 5.54936   5
   1   7   6 -1.7186 5.69387   5
  -1   7  -6 -3.4590 4.57088   1
   1   7   6 -3.2319 5.50345   1
   1   7   6 -3.2313 3.83379   3
  -2  -7  -6 -1.3592 3.59426   2
   2  -7   6 0.57182 3.30842   8
  -2  -7  -6 4.00019 5.11541   9
   2  -7   6 -2.0339 7.14703   7
   2   7   6 3.31682 5.06084   5
  -2   7  -6 1.37893 4.76943   1
   2   7   6 1.59626 6.35179   1
   2   7   6 1.10325 4.57186   3
  -2   7  -6 18.7538 9.49085   5
  -3  -7  -6 127.456 7.95894   2
  -3  -7  -6 139.497 8.57258   9
   3  -7   6 123.667 10.0970   7
   3   7   6 126.819 9.75094   3
  -3   7  -6 127.249 13.3525   5
  -4  -7  -6 46.3271 6.97498   2
   4  -7   6 30.1549 9.73456   7
  -4  -7  -6 45.7886 6.66319   9
   4  -7   6 29.9467 9.20422   6
   4   7   6 39.4189 10.0256   3
  -4   7  -6 21.6626 11.3723   5
   5  -7   6 7.17452 8.92140   6
  -5  -7  -6 3.65357 4.45775   9
   5  -7   6 8.72079 6.83760   7
  -5  -7  -6 7.04124 4.57972   2
  -5   7  -6 8.80806 11.3061   5
   5   7   6 7.93665 9.69492   3
  -6  -7  -6 9.71077 6.83460   2
   6  -7   6 4.86381 7.54056   6
   6  -7   6 2.20215 7.61065   7
  -6  -7  -6 10.6791 4.89283   9
  -6   7  -6 18.1500 9.46838   5
   6   7   6 11.7897 8.32122   3
   7  -7   6 312.755 22.9519   7
   7  -7   6 278.937 17.7221   6
  -7   7  -6 344.182 23.3075   5
   7   7   6 305.319 20.0852   3
  -6  -8   6 48.3329 8.16771   8
   6  -8  -6 46.3210 9.52415   6
   6  -8  -6 42.9915 7.69271   7
  -6   8   6 32.9978 9.79624   1
   5  -8  -6 4.79710 5.51185   6
   5  -8  -6 8.31266 5.95362   7
  -5  -8   6 7.18686 6.26191   8
  -5   8   6 0.62585 7.60732   1
   4  -8  -6 531.939 39.8742   7
  -4  -8   6 534.437 34.8469   8
   4  -8  -6 547.254 24.6015   6
  -4   8   6 507.673 22.7627   1
   4   8  -6 528.403 29.8982   3
   3  -8  -6 102.751 7.97846   7
  -3  -8   6 96.1048 8.47916   8
   3  -8  -6 103.970 9.09300   9
  -3   8   6 98.3859 11.5106   1
   3   8  -6 72.0139 8.16729   1
   3   8  -6 94.9435 11.7016   3
   3   8  -6 72.3773 10.3290   5
   2  -8  -6 7.17981 5.24701   9
   2  -8  -6 6.75620 5.69889   7
  -2  -8   6 10.8484 6.44444   8
   2   8  -6 4.32345 6.25226   5
  -2   8   6 11.2793 7.49545   1
   2   8  -6 6.77868 10.6702   3
  -1  -8   6 53.7423 6.31050   8
   1  -8  -6 60.5236 6.14523   7
   1  -8  -6 56.9207 8.89284   9
   1   8  -6 49.6689 11.3368   3
  -1   8   6 38.4576 8.67783   1
   1   8  -6 96.9185 49.6417   5
   0  -8  -6 12.4956 6.87037   9
   0  -8   6 10.1693 6.87456   7
   0  -8   6 13.2309 5.96905   8
   0   8   6 9.64787 6.61657   3
   0   8  -6 18.0903 7.33539   5
   0   8   6 16.8070 7.36477   1
   0   8   6 7.55553 6.18632   5
   0   8  -6 10.7008 9.34461   3
  -1  -8  -6 21.8431 6.60821   9
   1  -8   6 16.7171 6.08098   7
   1  -8   6 25.5103 4.30227   8
  -1   8  -6 6.95916 11.4165   3
   1   8   6 16.1818 7.40424   1
   1   8   6 17.3382 7.47011   3
  -1   8  -6 13.3963 10.5811   5
   1   8   6 12.5528 7.53393   5
  -2  -8  -6 2.82888 5.86408   9
   2  -8   6 1.96851 9.16383   7
   2   8   6 1.51562 7.38746   1
   2   8   6 2.15272 5.81578   3
  -2   8  -6 -0.8496 7.48544   5
   3  -8   6 -4.6020 6.37456   7
  -3  -8  -6 -1.4102 4.61184   2
  -3  -8  -6 0.29504 4.36222   9
  -3   8  -6 1.54564 13.7189   5
   3   8   6 5.38819 8.00485   1
   3   8   6 2.96989 6.15180   3
   4  -8   6 475.121 25.3173   7
  -4  -8  -6 485.207 25.1415   2
  -4  -8  -6 512.102 18.7019   9
   4   8   6 482.396 28.0578   1
   4   8   6 487.135 27.0776   3
   5  -8   6 26.1958 8.85166   6
   5  -8   6 24.1159 9.08983   7
  -5  -8  -6 18.4623 5.66386   2
  -5  -8  -6 30.5613 5.47407   9
   5   8   6 27.1866 12.4568   3
  -5   8  -6 18.4605 10.7362   5
  -4  -9   6 17.3611 6.62699   8
   4   9  -6 8.37429 14.1048   3
  -4   9   6 5.38477 9.41985   1
  -3  -9   6 47.7287 9.13948   8
  -3   9   6 29.0758 9.93444   1
  -3   9   6 36.5857 10.9207   5
   3   9  -6 43.0572 14.2118   3
  -2  -9   6 6.25607 7.97601   8
   2  -9  -6 3.41536 8.30618   9
   2   9  -6 3.40576 13.1564   3
  -2   9   6 -0.2209 11.0220   5
   2   9  -6 -4.2379 9.44740   5
  -2   9   6 -5.3770 7.65724   1
  -1  -9   6 162.032 10.8991   8
   1  -9  -6 143.110 9.72453   9
  -1   9   6 141.604 15.2590   5
  -1   9   6 142.222 15.8011   1
   1   9  -6 138.049 12.5953   5
   1   9  -6 133.475 16.3791   3
   0  -9   6 -0.0980 6.06619   8
   0  -9  -6 -6.3416 4.79360   9
   0   9  -6 0.00000 7.03166   5
   0   9   6 0.28083 6.65006   5
   0   9   6 1.02299 11.6246   1
   0   9  -6 3.28630 7.27350   3
  -1  -9  -6 55.1040 7.52136   9
   1  -9   6 53.1471 9.48685   7
  -1   9  -6 45.3333 9.40306   3
   1   9   6 47.2417 10.5160   1
   1   9   6 37.8092 7.82760   3
   2  -9   6 27.0129 10.0816   7
  -2  -9  -6 17.2645 8.32580   9
  -2   9  -6 16.8143 11.0694   3
   2   9   6 19.6876 12.6794   1
  -2   9  -6 13.6374 9.51255   5
   2   9   6 15.2388 10.3378   3
  -3  -9  -6 27.0156 5.66876   9
   3  -9   6 20.5445 8.95886   7
   3   9   6 -2.7006 10.5535   3
   3   9   6 24.9424 9.50435   1
  -3   9  -6 24.5186 10.3181   5
  11   0  -7 24.2135 8.76272   6
 -11   0   7 19.1348 8.68760   1
 -10   0   7 -0.3952 4.27353   4
 -10   0   7 -0.6604 4.01127   8
  10   0  -7 -2.2145 5.79523   3
  10   0  -7 1.00181 6.07829   6
 -10   0   7 -0.8506 5.73412   1
  -9   0   7 832.457 51.4788   8
  -9   0   7 802.536 52.2173   4
   9   0  -7 804.229 45.5782   3
   9   0  -7 825.576 26.9149   6
  -9   0   7 790.413 28.2121   1
  -8   0   7 -0.7598 3.08715   8
   8   0  -7 -0.4819 6.20942   6
   8   0  -7 -2.4019 4.10549   3
  -8   0   7 1.41264 4.39930   4
  -8   0   7 -0.7845 5.91867   1
   7   0  -7 198.477 11.9294   6
  -7   0   7 198.884 9.13727   2
   7   0  -7 208.591 8.98001   3
  -7   0   7 212.982 9.41158   8
  -7   0   7 227.875 11.3292   9
  -7   0   7 205.468 9.73444   4
  -7   0   7 231.876 11.1391   1
   6   0  -7 1.75746 4.38499   6
  -6   0   7 0.28149 2.49412   8
  -6   0   7 -0.9077 2.84228   1
  -6   0   7 1.20674 2.27617   2
  -6   0   7 -0.1079 1.59233   9
   6   0  -7 -0.2249 3.12722   3
  -6   0   7 -2.1276 2.42338   4
   5   0  -7 74.6247 5.26901   6
   5   0  -7 67.8759 4.30132   3
  -5   0   7 65.9568 3.54307   2
  -5   0   7 66.4652 5.08767   4
   5   0  -7 65.2116 6.25129   4
  -5   0   7 71.9968 3.66986   9
  -5   0   7 75.7383 5.20506   1
  -5   0   7 65.2462 5.47310   5
   5   0  -7 61.9883 4.73865   5
  -5   0   7 67.0921 5.16998   8
   4   0  -7 -2.7507 2.15921   3
   4   0  -7 -1.2705 1.62747   9
   4   0  -7 -1.4978 2.10992   6
   4   0  -7 1.56269 3.91673   1
   4   0  -7 -0.0365 3.60325   4
  -4   0   7 -1.4560 2.73703   5
   4   0  -7 -1.0654 1.97588   5
  -4   0   7 -0.4892 0.94203   9
  -4   0   7 -1.8060 2.81690   4
  -4   0   7 -0.5256 1.04061   2
  -4   0   7 -3.4094 2.97533   1
  -3   0   7 748.531 23.3600   4
  -3   0   7 761.414 27.7787   1
   3   0  -7 730.784 25.0639   9
  -3   0   7 741.047 27.2383   2
   3   0  -7 743.231 31.5022   4
  -3   0   7 747.967 30.9444   5
  -3   0   7 727.159 23.6878   9
   3   0  -7 743.306 25.5643   1
   3   0  -7 761.845 26.0865   5
   2   0  -7 0.79853 0.94454   9
   2   0  -7 0.93767 1.73284   1
  -2   0   7 -2.4774 2.33447   5
   2   0  -7 -0.2674 1.64823   5
  -2   0   7 1.20496 2.20485   1
  -2   0   7 0.18327 0.97758   2
   2   0  -7 -0.9763 2.21184   4
  -2   0   7 0.21364 0.91381   9
  -2   0   7 -1.4692 1.86663   4
   2   0  -7 1.62095 1.03758   2
   1   0  -7 20.8855 2.53653   5
  -1   0   7 24.2769 2.99908   4
   1   0  -7 20.3010 1.89192   9
  -1   0   7 12.9720 2.30485   5
   1   0  -7 20.1263 1.99157   2
   1   0  -7 18.7081 4.24435   7
  -1   0   7 17.5728 1.84904   2
   1   0  -7 15.4495 2.29204   1
  -1   0   7 19.3686 2.03671   1
   1   0  -7 17.2483 2.01915   3
   0   0   7 -0.0319 1.50152   1
   0   0   7 -0.4030 2.35512   5
   0   0   7 -1.5690 2.23082   3
   0   0  -7 -0.5941 1.32284   2
   0   0   7 0.08779 1.90056   2
   0   0   7 2.95857 2.93713   4
   0   0  -7 0.28850 1.61584   5
   0   0  -7 0.37236 0.94735   7
   0   0   7 -0.0319 0.93460   7
   0   0  -7 -0.8303 1.50921   3
   0   0  -7 0.77069 0.94908   6
  -1   0  -7 7.44768 1.68756   6
   1   0   7 4.82438 1.61811   6
  -1   0  -7 7.72803 1.48226   7
  -1   0  -7 7.58200 1.89363   5
   1   0   7 7.86781 1.76070   7
   1   0   7 8.49238 2.26434   3
   1   0   7 7.37200 2.01981   2
   1   0   7 6.69565 2.12103   5
  -1   0  -7 6.91981 2.49765   2
  -1   0  -7 6.94788 2.72906   3
   2   0   7 36.3389 12.4136   3
  -2   0  -7 54.8564 20.3178   2
   3   0   7 35.9942 3.86741   7
   3   0   7 34.4593 3.14839   8
   3   0   7 31.9169 4.74628   3
   3   0   7 36.7545 3.63964   6
  -3   0  -7 26.0073 3.42614   2
  -3   0  -7 32.2463 3.04596   5
  -3   0  -7 27.2856 4.30327   3
   3   0   7 35.7304 4.05134   1
  -3   0  -7 31.9892 3.17916   6
   3   0   7 32.0024 3.39801   5
   4   0   7 0.26086 2.34022   7
  -4   0  -7 -0.6239 2.19227   6
  -4   0  -7 1.88183 2.74380   5
   4   0   7 2.27771 2.65311   8
   4   0   7 -1.4809 4.24130   3
   4   0   7 -1.0692 2.32298   5
   4   0   7 -1.4143 3.09027   6
  -4   0  -7 -0.5915 2.51712   2
   4   0   7 -1.3645 3.54415   1
   5   0   7 1043.71 27.7868   7
   5   0   7 970.239 25.7548   3
   5   0   7 1034.98 57.2631   4
   5   0   7 1008.53 26.5160   6
  -5   0  -7 951.873 29.2543   5
  -5   0  -7 978.145 34.3857   2
   5   0   7 1017.87 46.2866   8
  -6   0  -7 1.50579 4.96535   2
   6   0   7 4.51695 5.16779   7
   6   0   7 3.69784 3.17789   4
   6   0   7 -2.3599 4.20734   3
   6   0   7 -3.6782 3.11220   8
  -6   0  -7 -0.3377 3.16701   5
   6   0   7 2.53826 4.99525   6
   7   0   7 589.380 18.4452   6
  -7   0  -7 564.524 22.5852   2
   7   0   7 565.287 31.6935   3
  -7   0  -7 550.146 24.0483   5
   7   0   7 509.731 20.3966   7
   8   0   7 2.66564 6.97320   6
  -8   0  -7 1.69277 6.73069   2
  -8   0  -7 -0.7859 3.80401   5
   8   0   7 -0.2086 5.12696   3
   8   0   7 2.60708 5.11735   7
   9   0   7 133.477 11.4546   7
   9   0   7 140.768 11.0011   6
  -9   0  -7 178.732 12.4475   2
   9   0   7 163.293 13.2091   3
 -10   0  -7 -0.2187 8.25189   2
  10   0   7 -2.1232 6.07496   6
  10   0   7 5.95562 7.10151   7
  10   0   7 -4.0980 7.26917   3
  11  -1  -7 41.8957 12.0979   6
 -11  -1   7 42.5832 9.43111   1
 -11   1   7 41.8789 9.45501   1
  11   1  -7 16.6873 11.9725   6
  10  -1  -7 14.5830 7.17125   6
 -10  -1   7 12.5393 6.89363   8
 -10  -1   7 11.3183 5.11052   4
 -10  -1   7 17.8914 7.09375   1
  10   1  -7 24.4268 6.49407   3
 -10   1   7 17.4261 9.72276   1
  10   1  -7 16.5142 9.94067   6
  -9  -1   7 0.15734 5.45261   4
  -9  -1   7 11.1653 7.70848   1
   9  -1  -7 15.1494 7.64439   6
  -9  -1   7 6.19097 5.65609   8
  -9  -1   7 11.0858 4.08800   2
   9  -1  -7 18.7277 4.75399   3
  -9   1   7 7.12499 4.99323   8
   9   1  -7 11.6003 7.98128   6
  -9   1   7 5.06379 3.54696   4
   9   1  -7 13.5690 5.03474   3
  -9   1   7 9.26953 7.66770   1
  -8  -1   7 82.3204 7.50861   1
  -8  -1   7 92.1740 6.94830   8
   8  -1  -7 81.1610 6.11444   3
  -8  -1   7 87.7656 6.82221   4
   8  -1  -7 91.8881 7.94102   6
   8   1  -7 91.8787 7.96132   3
  -8   1   7 83.9737 7.88439   1
  -8   1   7 85.5580 6.90999   8
  -8   1   7 83.1142 6.84668   4
   8   1  -7 89.2043 9.42156   6
   7  -1  -7 106.784 8.52016   6
  -7  -1   7 135.597 5.90398   9
  -7  -1   7 117.345 7.16699   4
   7  -1  -7 116.792 7.02782   3
  -7  -1   7 132.089 5.12882   2
  -7  -1   7 124.070 7.91708   8
  -7  -1   7 123.220 8.85992   1
   7   1  -7 119.660 7.32355   3
   7   1  -7 117.828 8.33681   6
  -7   1   7 127.220 8.33269   1
  -7   1   7 112.998 7.13088   8
  -7   1   7 122.816 7.31852   4
  -6  -1   7 731.733 36.7170   5
   6  -1  -7 715.396 38.7008   3
  -6  -1   7 729.386 20.1085   2
  -6  -1   7 724.517 24.1914   1
  -6  -1   7 746.270 26.3236   8
  -6  -1   7 754.648 32.0787   9
  -6  -1   7 740.550 24.2541   4
   6  -1  -7 691.546 33.5713   4
   6  -1  -7 732.050 23.3770   6
  -6   1   7 745.598 24.1544   1
   6   1  -7 715.911 25.0715   6
  -6   1   7 754.466 34.9659   2
   6   1  -7 719.460 35.0538   5
  -6   1   7 772.831 28.0727   9
   6   1  -7 724.924 35.1074   3
  -6   1   7 768.498 22.6405   8
  -6   1   7 742.506 32.0472   4
  -5  -1   7 4.89016 1.23830   9
  -5  -1   7 2.95635 2.52237   8
  -5  -1   7 2.69622 3.51133   1
   5  -1  -7 1.47033 4.04335   4
   5  -1  -7 7.21509 3.68311   6
  -5  -1   7 4.80304 1.31270   2
  -5  -1   7 2.44447 3.45627   4
   5  -1  -7 5.44751 1.85981   3
  -5  -1   7 2.10046 2.45572   5
   5   1  -7 4.02261 2.40982   5
   5   1  -7 0.95438 3.42648   3
   5   1  -7 3.25729 3.39079   1
  -5   1   7 4.47106 2.39367   2
  -5   1   7 2.69259 2.35042   9
  -5   1   7 3.44378 2.31805   4
  -5   1   7 1.31102 2.80918   1
  -4  -1   7 25.0066 3.81262   4
  -4  -1   7 28.8213 3.86341   5
  -4  -1   7 24.1604 3.18918   8
  -4  -1   7 26.7217 3.69182   1
   4  -1  -7 24.1556 3.69468   6
   4  -1  -7 15.0073 3.86423   1
  -4  -1   7 23.3715 1.54857   9
   4  -1  -7 23.3319 2.23038   3
  -4  -1   7 25.6189 1.56418   2
   4  -1  -7 28.7745 2.77003   9
   4  -1  -7 24.6148 4.41172   4
  -4   1   7 26.2173 2.94885   9
   4   1  -7 22.0925 3.59910   4
   4   1  -7 20.0603 3.38292   1
   4   1  -7 15.9683 3.55582   3
  -4   1   7 22.5842 2.43152   2
  -4   1   7 28.8986 3.27953   4
  -4   1   7 23.4090 3.37996   5
   4   1  -7 22.4984 3.09783   5
  -4   1   7 28.6226 3.77926   1
  -3  -1   7 1695.88 50.0590   5
   3  -1  -7 1776.47 49.4589   6
   3  -1  -7 1821.82 73.9972   9
  -3  -1   7 1687.84 54.0627   2
  -3  -1   7 1800.05 42.1336   1
  -3  -1   7 1849.28 56.4477   4
   3  -1  -7 1794.04 95.5842   1
   3  -1  -7 1736.18 50.4974   5
   3   1  -7 1804.47 84.2233   9
  -3   1   7 1798.22 81.4922   2
   3   1  -7 1785.14 47.8400   1
  -3   1   7 1827.07 59.0983   5
   3   1  -7 1816.92 48.4071   5
  -3   1   7 1793.48 60.7867   4
  -3   1   7 1788.86 53.5717   9
  -3   1   7 1748.00 69.1908   1
   3   1  -7 1870.31 56.8123   4
  -2  -1   7 2607.29 107.478   2
   2  -1  -7 2621.56 99.4573   3
  -2  -1   7 2662.09 70.6979   5
   2  -1  -7 2680.05 60.3308   9
  -2  -1   7 2759.78 85.9866   4
   2  -1  -7 2680.32 66.5740   2
  -2  -1   7 2661.15 98.8617   1
   2  -1  -7 2715.52 76.9627   5
   2  -1  -7 2587.61 96.2824   6
   2  -1  -7 2702.43 148.405   1
  -2   1   7 2687.65 93.3350   2
   2   1  -7 2742.73 62.9672   1
  -2   1   7 2777.08 95.5967   1
   2   1  -7 2791.33 82.8640   5
  -2   1   7 2758.86 80.3564   4
   2   1  -7 2772.06 70.6427   4
  -2   1   7 2703.50 78.4879   9
   2   1  -7 2784.73 76.8837   9
   2   1  -7 2760.69 86.2702   2
  -2   1   7 2663.23 66.4408   5
  -1  -1   7 46.3772 2.15826   1
   1  -1  -7 38.7304 3.83943   1
  -1  -1   7 45.1487 3.77301   4
  -1  -1   7 47.2339 2.45211   2
   1  -1  -7 49.5713 3.72847   5
   1  -1  -7 47.3566 2.87535   9
   1  -1  -7 41.2520 2.56273   3
   1  -1  -7 45.9807 3.35638   2
  -1  -1   7 42.2128 3.53276   5
   1   1  -7 49.0935 3.60747   7
  -1   1   7 49.3436 3.44384   1
   1   1  -7 43.5969 2.64430   2
  -1   1   7 43.7844 2.95146   2
  -1   1   7 42.7218 3.28478   5
   1   1  -7 44.8207 3.71531   4
  -1   1   7 45.6370 2.76729   3
   1   1  -7 45.4178 2.53380   1
  -1   1   7 46.1884 2.80654   9
   1   1  -7 47.7631 3.69975   5
   0  -1  -7 0.47786 1.42079   3
   0  -1  -7 19.8902 15.2790   9
   0  -1   7 -0.0966 1.47259   7
   0  -1  -7 1.38531 2.12654   5
   0  -1  -7 6.14910 16.4196   2
   0  -1   7 1.17092 1.42228   2
   0  -1   7 -0.3599 2.18094   5
   0  -1  -7 1.04920 0.82941   7
   0  -1  -7 1.73526 0.68245   6
   0  -1   7 1.75808 1.95845   4
   0  -1   7 1.84540 0.82709   1
   0   1  -7 1.47523 2.09083   5
   0   1  -7 -0.5044 2.62587   4
   0   1  -7 0.03919 2.60469   3
   0   1  -7 3.84214 1.65464   6
   0   1  -7 -0.0305 1.98907   7
   0   1   7 6.28193 2.05130   1
   0   1   7 5.48416 1.79824   3
   0   1   7 1.25674 1.66162   5
   0   1   7 1.39027 1.64377   2
   0   1  -7 0.21325 1.38968   2
   1  -1   7 340.690 12.1567   5
  -1  -1  -7 345.916 9.23482   2
   1  -1   7 340.840 10.8361   4
   1  -1   7 342.833 11.9158   3
   1  -1   7 337.781 16.7454   1
   1  -1   7 338.738 15.5196   6
   1  -1   7 341.461 11.0908   7
  -1  -1  -7 344.160 10.8626   5
  -1  -1  -7 330.356 10.0792   6
  -1  -1  -7 329.091 16.4683   3
   1   1   7 339.633 9.28695   5
  -1   1  -7 338.046 15.1784   2
   1   1   7 341.957 15.4690   7
   1   1   7 351.723 10.7045   3
  -1   1  -7 333.643 18.1922   3
  -1   1  -7 345.560 21.4022   6
   1   1   7 348.961 10.7893   2
  -1   1  -7 351.477 23.8566   7
   1   1   7 339.588 17.8626   6
  -1   1  -7 344.323 18.6925   5
   2  -1   7 1935.97 66.4580   4
   2  -1   7 2038.35 53.7067   7
   2  -1   7 2008.57 50.5885   3
  -2  -1  -7 1875.78 59.6160   5
  -2  -1  -7 1902.10 49.5763   6
   2  -1   7 2046.69 51.1110   6
   2  -1   7 1890.07 66.9635   1
  -2  -1  -7 1971.42 48.1848   2
  -2  -1  -7 1966.58 108.518   3
   2  -1   7 2018.85 117.748   5
   2   1   7 2127.22 49.8799   5
   2   1   7 2082.41 97.7685   6
  -2   1  -7 2035.47 74.6557   7
  -2   1  -7 2028.69 72.5185   6
   2   1   7 2048.19 65.1170   7
   2   1   7 2003.09 61.0397   2
  -2   1  -7 1978.92 63.7353   3
  -2   1  -7 2026.19 67.5388   5
   2   1   7 2048.55 66.6463   3
  -2   1  -7 1977.20 87.1547   2
  -3  -1  -7 64.6845 3.84055   6
  -3  -1  -7 59.2193 4.98847   2
   3  -1   7 72.8586 4.18299   1
   3  -1   7 69.8157 5.25872   7
   3  -1   7 63.3459 5.56786   3
   3  -1   7 59.9673 4.99720   5
  -3  -1  -7 53.2179 4.65349   3
   3  -1   7 63.5343 4.77445   6
  -3  -1  -7 62.6508 3.24618   5
   3   1   7 69.1699 4.11888   6
   3   1   7 67.9538 4.24639   7
  -3   1  -7 63.4556 5.46304   2
   3   1   7 69.9071 4.70122   1
   3   1   7 61.9276 5.68731   3
  -3   1  -7 63.1191 4.29534   6
   3   1   7 59.0217 4.74781   2
   3   1   7 69.5408 4.13295   8
  -3   1  -7 63.6166 5.41601   3
  -3   1  -7 57.1751 5.03638   5
   3   1   7 64.5813 4.03521   5
   4  -1   7 284.789 11.3317   6
  -4  -1  -7 279.852 9.65691   2
   4  -1   7 264.150 11.2399   7
   4  -1   7 280.323 9.12194   1
  -4  -1  -7 284.693 11.3011   6
  -4  -1  -7 261.110 10.9849   5
   4  -1   7 288.812 12.2513   3
   4  -1   7 285.989 14.0059   8
  -4   1  -7 278.503 14.6366   5
  -4   1  -7 280.709 15.5553   6
  -4   1  -7 267.677 10.1082   2
   4   1   7 281.132 16.5005   1
   4   1   7 306.199 10.4607   8
   4   1   7 286.696 8.97908   6
   4   1   7 285.249 12.3178   7
   4   1   7 260.077 13.0059   5
   4   1   7 282.895 10.4905   3
   5  -1   7 7.95726 3.76832   7
   5  -1   7 5.59896 4.57492   6
  -5  -1  -7 11.1600 3.11980   6
   5  -1   7 6.91786 4.43660   1
  -5  -1  -7 7.50848 2.21883   5
   5  -1   7 11.8305 3.89906   3
  -5  -1  -7 5.51759 3.31018   2
   5  -1   7 7.16631 2.22311   4
   5  -1   7 7.94496 2.28213   8
  -5   1  -7 1.92084 2.83538   1
  -5   1  -7 9.66041 3.77661   2
   5   1   7 5.64389 3.89844   3
   5   1   7 9.11815 2.88546   8
   5   1   7 7.19815 4.04504   7
   5   1   7 8.32414 3.70003   4
  -5   1  -7 3.52085 4.14540   5
   5   1   7 2.47764 3.74326   6
  -6  -1  -7 57.4193 5.81050   2
   6  -1   7 54.0972 6.28310   7
  -6  -1  -7 58.0725 3.79203   5
   6  -1   7 49.9463 6.94120   6
   6  -1   7 61.1539 3.85405   4
   6  -1   7 59.4255 4.03718   8
   6  -1   7 56.1144 6.31975   3
  -6   1  -7 52.8941 6.14282   2
   6   1   7 48.5142 6.48160   7
   6   1   7 48.7375 7.67460   3
   6   1   7 48.9316 6.20911   6
  -6   1  -7 50.2715 5.29191   5
  -7  -1  -7 45.2393 6.08476   2
   7  -1   7 39.4138 8.13688   7
   7  -1   7 42.6723 6.40713   3
   7  -1   7 32.8511 6.04733   6
   7   1   7 46.2895 7.02764   3
   7   1   7 32.9802 6.82437   6
  -7   1  -7 43.8556 7.75180   2
  -7   1  -7 45.1352 5.52030   5
   7   1   7 34.7083 5.89171   7
  -8  -1  -7 30.3315 7.43753   2
   8  -1   7 16.5374 6.41108   7
   8  -1   7 26.9401 8.22134   3
   8  -1   7 12.9608 5.90473   6
   8   1   7 18.1900 5.80151   6
   8   1   7 25.6033 6.91768   3
   8   1   7 17.0207 7.87217   7
  -8   1  -7 23.2278 7.79451   2
  -8   1  -7 23.5646 6.42716   5
   9  -1   7 195.382 13.8302   6
   9  -1   7 193.333 13.2505   3
   9  -1   7 152.873 13.8970   7
  -9  -1  -7 181.853 12.9188   2
   9   1   7 187.428 11.8741   6
   9   1   7 190.746 16.2522   7
  -9   1  -7 213.838 13.7568   2
   9   1   7 201.003 13.9917   3
  10  -1   7 18.1816 8.24997   6
  10  -1   7 20.4996 8.30993   3
  10  -1   7 17.5007 8.69944   7
 -10  -1  -7 14.5234 8.90172   2
  10   1   7 25.8113 8.26397   3
  10   1   7 14.2891 7.71672   7
  10   1   7 16.6839 7.55254   6
 -10   1  -7 27.2380 9.86647   2
  11  -2  -7 6.70025 8.40503   6
 -11  -2   7 5.02215 6.64096   8
 -11  -2   7 5.64642 6.67217   4
 -11  -2   7 7.20897 8.32435   1
  11   2  -7 6.51670 7.95586   3
  11   2  -7 -0.9384 11.2885   6
 -11   2   7 10.5722 20.0013   1
 -10  -2   7 5.02233 6.37755   1
 -10  -2   7 5.49473 5.40774   8
  10  -2  -7 7.89792 6.90566   6
 -10  -2   7 -0.1520 6.96304   4
 -10   2   7 4.61028 6.86526   1
  10   2  -7 4.89349 7.10014   6
  10   2  -7 15.9787 6.62629   3
  -9  -2   7 7.97033 5.52129   1
  -9  -2   7 4.23256 6.19294   4
   9  -2  -7 4.40761 5.62364   6
  -9  -2   7 2.90003 6.02225   8
   9   2  -7 6.41838 5.95691   6
  -9   2   7 2.04733 6.73902   4
  -9   2   7 4.95679 5.83284   1
   9   2  -7 8.21953 6.57564   3
  -8  -2   7 10.3003 4.97727   1
   8  -2  -7 7.85518 2.74424   3
  -8  -2   7 9.18701 5.54955   8
  -8  -2   7 6.10306 4.04267   4
   8  -2  -7 16.1387 5.20137   6
  -8  -2   7 3.75862 2.39748   2
  -8   2   7 3.37826 4.06448   8
   8   2  -7 8.71571 7.33654   6
  -8   2   7 1.59006 2.78799   4
  -8   2   7 0.65301 6.60086   1
   8   2  -7 15.7192 5.38025   3
  -7  -2   7 615.835 19.4226   1
  -7  -2   7 584.498 19.9557   2
  -7  -2   7 584.168 24.1493   4
   7  -2  -7 583.470 24.6264   6
  -7  -2   7 617.650 24.8843   2
  -7  -2   7 628.103 27.2583   8
   7  -2  -7 559.300 19.5286   3
  -7  -2   7 558.863 25.9442   5
  -7  -2   7 615.056 23.4787   9
  -7   2   7 638.537 23.1765   8
  -7   2   7 623.169 22.9351   1
  -7   2   7 612.545 22.7717   4
   7   2  -7 610.655 21.2627   6
   7   2  -7 622.465 19.9307   3
   6  -2  -7 11.0791 1.61798   3
   6  -2  -7 8.90751 3.37505   6
  -6  -2   7 11.5807 1.24296   2
  -6  -2   7 9.23052 3.47919   1
  -6  -2   7 9.27335 1.09661   2
  -6  -2   7 11.5248 3.44401   8
  -6  -2   7 11.0275 1.08469   9
  -6  -2   7 7.13669 3.27238   4
  -6  -2   7 11.7605 3.09749   5
   6   2  -7 5.10561 3.59226   5
  -6   2   7 8.38256 3.61013   4
   6   2  -7 8.21785 5.09384   3
  -6   2   7 2.93969 5.25648   1
  -5  -2   7 699.555 23.3468   8
  -5  -2   7 743.398 22.6577   4
   5  -2  -7 663.646 30.7062   3
  -5  -2   7 641.238 47.8355   5
  -5  -2   7 692.571 28.4816   1
   5  -2  -7 726.598 22.8613   6
   5   2  -7 719.453 23.4575   5
  -5   2   7 705.757 23.7019   1
  -5   2   7 752.104 31.0236   9
  -5   2   7 740.372 27.5162   2
  -5   2   7 710.995 24.1636   4
   5   2  -7 718.473 19.5971   3
   5   2  -7 683.259 33.3382   1
  -4  -2   7 916.621 24.8493   1
  -4  -2   7 953.533 26.8890   4
  -4  -2   7 936.687 27.2999   8
  -4  -2   7 874.113 44.4157   5
   4  -2  -7 924.840 28.5151   9
   4  -2  -7 899.541 26.4629   6
   4   2  -7 916.258 41.7860   1
  -4   2   7 862.854 29.0063   4
  -4   2   7 941.192 46.8591   2
  -4   2   7 922.644 29.5384   1
  -4   2   7 913.514 41.2283   9
   4   2  -7 944.707 36.7735   3
   4   2  -7 922.167 40.3201   5
   3  -2  -7 165.995 6.34335   6
  -3  -2   7 166.712 7.35594   1
  -3  -2   7 166.169 6.81422   5
  -3  -2   7 170.559 7.71103   8
   3  -2  -7 160.681 8.08186   1
   3  -2  -7 156.036 7.15967   9
  -3  -2   7 169.451 6.76964   4
  -3   2   7 159.388 5.90551   9
  -3   2   7 161.218 8.25196   1
  -3   2   7 168.587 7.21848   5
   3   2  -7 170.309 7.89016   4
   3   2  -7 163.386 7.11523   5
   3   2  -7 163.089 6.23133   1
  -3   2   7 152.576 6.81228   4
  -3   2   7 169.971 6.32047   2
  -2  -2   7 -1.3132 1.02698   1
   2  -2  -7 0.29103 3.29703   1
  -2  -2   7 1.26166 2.56217   8
  -2  -2   7 -1.0507 3.09579   5
   2  -2  -7 0.33179 1.44839   6
   2  -2  -7 -0.7257 1.61154   9
   2  -2  -7 0.61404 0.80106   3
  -2  -2   7 0.79329 2.50959   4
   2  -2  -7 -0.2049 1.72928   2
   2   2  -7 -0.5949 2.07241   5
  -2   2   7 -0.4638 0.81478   3
  -2   2   7 0.24392 2.27104   9
   2   2  -7 1.14276 3.15041   4
   2   2  -7 -0.7990 1.62714   1
  -2   2   7 -0.5391 1.96209   5
   2   2  -7 -1.2487 1.93430   7
  -2   2   7 -0.9093 2.34372   2
   2   2  -7 -0.2985 0.77062   2
  -2   2   7 -1.4344 3.49121   1
  -1  -2   7 -0.2711 1.60904   8
  -1  -2   7 0.21167 3.46348   5
  -1  -2   7 -0.9456 1.57182   4
   1  -2  -7 -0.3087 1.71652   5
   1  -2  -7 -0.4598 1.63303   9
   1  -2  -7 1.07786 0.80670   6
   1  -2  -7 3.19904 1.46722   3
   1  -2  -7 -1.8451 2.40092   2
   1  -2  -7 -2.0454 3.37278   1
   1   2  -7 -0.1890 1.90419   7
   1   2  -7 -3.3361 2.79573   4
  -1   2   7 2.44978 1.76452   2
   1   2  -7 -0.0768 0.89085   1
  -1   2   7 1.47232 1.83015   5
  -1   2   7 1.03984 1.14103   3
  -1   2   7 -0.0706 2.28661   1
   1   2  -7 -0.0082 2.19430   5
   1   2  -7 0.36457 1.51811   2
  -1   2   7 0.03431 2.24209   9
   0  -2  -7 405.275 43.6687   2
   0  -2   7 373.665 13.3678   5
   0  -2  -7 378.657 10.3225   3
   0  -2   7 403.367 14.9706   7
   0  -2  -7 406.416 39.3298   9
   0  -2  -7 380.257 11.6143   5
   0  -2   7 379.041 9.29087   4
   0   2   7 390.973 16.7771   2
   0   2   7 394.022 14.0955   9
   0   2  -7 408.838 19.8157   3
   0   2  -7 403.522 10.7110   4
   0   2  -7 393.596 17.2455   2
   0   2  -7 380.985 22.5181   6
   0   2  -7 374.264 24.9170   5
   0   2   7 377.509 11.0058   5
   0   2   7 395.794 11.9652   3
   0   2   7 372.048 11.6340   1
   0   2  -7 384.043 17.1364   7
   1  -2   7 1963.32 60.3521   1
   1  -2   7 2105.19 57.7915   4
   1  -2   7 2215.95 80.9233   6
  -1  -2  -7 2125.67 74.6878   2
  -1  -2  -7 2119.48 46.2024   9
  -1  -2  -7 2054.68 51.9211   5
   1  -2   7 2147.22 66.3339   5
   1  -2   7 2165.74 76.2100   7
  -1  -2  -7 2148.79 71.2289   3
  -1   2  -7 2179.21 71.2326   5
   1   2   7 2125.24 48.7780   5
  -1   2  -7 2134.49 72.3741   6
   1   2   7 2163.61 79.7195   2
  -1   2  -7 2205.97 58.5177   4
  -1   2  -7 2198.57 134.809   7
  -1   2  -7 2191.96 92.0418   3
   1   2   7 2181.07 71.8862   3
   2  -2   7 153.548 11.2846   5
   2  -2   7 175.405 7.02995   6
   2  -2   7 167.597 7.15995   7
   2  -2   7 167.916 5.35101   1
  -2  -2  -7 164.117 7.62771   3
   2  -2   7 167.354 5.27383   4
   2  -2   7 181.252 7.67689   3
  -2  -2  -7 166.054 6.45169   9
  -2  -2  -7 170.202 5.31855   5
  -2  -2  -7 170.082 7.10697   2
   2   2   7 171.864 7.87463   2
   2   2   7 170.084 8.21555   3
  -2   2  -7 159.067 8.04323   7
   2   2   7 184.297 6.94890   6
  -2   2  -7 166.661 7.65766   5
  -2   2  -7 161.591 8.97545   3
  -2   2  -7 165.423 7.43317   1
   2   2   7 185.488 6.36301   7
   2   2   7 162.165 6.54039   5
  -2   2  -7 170.221 6.99906   6
   2   2   7 183.384 8.92620   8
   3  -2   7 62.2853 3.87614   1
   3  -2   7 61.7577 5.45004   6
  -3  -2  -7 58.1210 4.49104   2
   3  -2   7 59.7172 2.97308   4
   3  -2   7 57.9046 4.95967   7
   3  -2   7 57.4945 4.84109   3
  -3  -2  -7 61.3201 2.89228   5
   3  -2   7 58.7819 5.69786   5
   3   2   7 62.8968 3.53297   6
   3   2   7 58.2677 3.42902   5
  -3   2  -7 57.4483 5.66466   7
  -3   2  -7 72.8037 5.64855   6
  -3   2  -7 57.5403 3.24688   1
  -3   2  -7 59.0342 5.30838   5
   3   2   7 72.0307 5.27083   8
   3   2   7 56.3980 4.98870   3
   3   2   7 62.0252 5.53927   2
  -3   2  -7 57.5333 5.00802   3
   4  -2   7 16.7385 3.87447   3
   4  -2   7 18.8127 2.02632   4
   4  -2   7 24.7406 2.05138   8
  -4  -2  -7 21.7699 4.33222   2
  -4  -2  -7 18.0717 1.63800   5
   4  -2   7 16.9747 3.96395   7
   4  -2   7 20.8295 3.88878   6
   4  -2   7 24.5553 3.08026   1
   4   2   7 16.4172 2.06542   5
   4   2   7 21.3460 3.34673   6
  -4   2  -7 15.5648 4.95153   5
   4   2   7 24.0194 4.36051   3
  -4   2  -7 12.7524 3.25043   1
   5  -2   7 319.696 11.9366   6
   5  -2   7 329.437 10.6802   8
   5  -2   7 301.827 18.9613   1
  -5  -2  -7 319.493 11.4288   2
   5  -2   7 296.546 15.2459   3
   5  -2   7 338.705 11.2797   4
   5  -2   7 314.552 14.2417   4
  -5  -2  -7 305.883 9.42482   5
   5  -2   7 327.110 12.3509   7
  -5   2  -7 297.309 11.3256   1
  -5   2  -7 340.235 13.2534   2
  -5   2  -7 319.834 13.2543   5
   5   2   7 316.879 10.7879   6
   5   2   7 308.678 12.7164   3
   6  -2   7 145.831 7.24954   4
  -6  -2  -7 124.975 8.40591   2
   6  -2   7 147.605 8.76631   3
   6  -2   7 140.961 8.16004   8
   6  -2   7 145.364 9.47504   7
   6  -2   7 129.811 9.79115   6
   6  -2   7 135.790 4.79479   4
  -6  -2  -7 139.029 5.44788   5
  -6   2  -7 163.579 11.3866   5
  -6   2  -7 135.763 8.16609   1
   6   2   7 133.827 10.3408   3
   6   2   7 131.444 7.40744   6
  -6   2  -7 155.319 11.8928   2
   7  -2   7 310.639 14.8864   7
   7  -2   7 330.554 14.5696   6
   7  -2   7 318.464 14.1300   3
  -7  -2  -7 330.808 13.1781   2
  -7   2  -7 320.321 14.0192   5
  -7   2  -7 319.220 15.1790   2
   7   2   7 303.771 14.3738   6
   7   2   7 321.585 14.4445   3
  -7   2  -7 303.667 13.8458   1
   8  -2   7 213.867 14.1508   6
   8  -2   7 229.345 14.8182   7
  -8  -2  -7 248.494 12.7103   2
   8  -2   7 249.104 13.7111   3
   8   2   7 242.045 12.1997   6
  -8   2  -7 230.730 11.7636   1
   8   2   7 243.296 14.8779   3
  -8   2  -7 242.757 16.1816   5
  -8   2  -7 228.685 14.0503   2
   9  -2   7 146.456 13.6488   6
  -9  -2  -7 188.326 12.8801   2
   9  -2   7 170.517 13.6149   7
   9  -2   7 166.219 12.8079   3
   9   2   7 176.335 14.9560   3
  -9   2  -7 193.750 12.8963   2
   9   2   7 166.596 13.0828   7
   9   2   7 176.011 11.6065   6
  -9   2  -7 183.765 13.0719   1
  -9   2  -7 219.983 15.8155   5
  10  -2   7 -0.6436 7.71977   7
  10  -2   7 1.75866 6.66432   3
  10  -2   7 9.49475 7.58863   6
 -10  -2  -7 2.38547 8.20881   2
  10   2   7 6.92807 8.24006   3
  10   2   7 -4.5221 6.23970   6
 -10   2  -7 2.77723 6.90847   2
  10   2   7 -4.5617 6.51719   7
 -10  -3   7 383.462 24.1539   4
  10  -3  -7 357.238 29.7557   7
 -10  -3   7 392.025 23.3988   8
  10  -3  -7 354.618 28.6308   6
  10   3  -7 404.686 24.5956   3
 -10   3   7 375.955 28.0109   1
  10   3  -7 395.521 24.0995   6
  -9  -3   7 4.97833 5.70178   1
   9  -3  -7 14.8134 8.43829   6
  -9  -3   7 2.53835 4.69429   4
  -9  -3   7 0.82336 4.84592   8
   9   3  -7 0.63536 5.76666   3
   9   3  -7 -1.4442 6.38359   6
  -9   3   7 -7.2938 8.18700   1
   8  -3  -7 2.29447 4.73477   6
  -8  -3   7 1.37026 5.77455   8
  -8  -3   7 6.22408 4.82343   1
  -8  -3   7 -0.5995 5.82827   4
   8   3  -7 1.23180 5.25962   6
  -8   3   7 -0.6237 5.11187   1
   8   3  -7 -1.2531 5.44605   3
  -8   3   7 -0.9892 2.59291   4
  -8   3   7 -0.2530 2.66921   8
  -7  -3   7 336.925 13.7477   1
  -7  -3   7 331.348 12.6699   8
   7  -3  -7 331.372 13.0377   6
  -7  -3   7 320.150 19.0509   5
  -7  -3   7 316.855 13.1383   4
   7   3  -7 340.111 13.9822   5
  -7   3   7 367.451 14.6351   1
   7   3  -7 350.748 15.8353   3
  -7   3   7 332.440 13.3232   4
  -7   3   7 332.263 16.7422   8
   7   3  -7 353.433 15.2256   6
   6  -3  -7 33.3290 4.81869   6
  -6  -3   7 36.1146 4.94762   8
  -6  -3   7 34.2690 4.04936   5
  -6  -3   7 35.1466 4.90122   4
  -6  -3   7 37.0752 5.79986   1
   6   3  -7 32.2889 6.83392   3
  -6   3   7 35.3349 3.91327   4
   6   3  -7 33.1934 4.61857   5
  -6   3   7 34.7274 5.74480   1
  -5  -3   7 17.2734 5.97246   1
  -5  -3   7 13.1147 3.55734   8
   5  -3  -7 16.3294 4.28449   6
  -5  -3   7 13.6246 3.51827   4
  -5  -3   7 15.0896 3.99286   5
  -5   3   7 15.9895 3.12949   4
   5   3  -7 9.67973 3.68702   5
  -5   3   7 13.6078 4.43020   1
   5   3  -7 9.03777 5.56807   3
   4  -3  -7 130.774 6.40153   6
  -4  -3   7 137.080 10.8085   8
  -4  -3   7 136.258 10.8282   4
   4  -3  -7 114.680 6.59440   9
  -4  -3   7 134.208 6.64077   5
  -4   3   7 125.249 8.36052   6
  -4   3   7 135.262 8.11910   1
   4   3  -7 126.115 7.19781   1
   4   3  -7 126.974 7.66539   3
   4   3  -7 127.053 7.80913   5
  -4   3   7 122.655 6.49651   4
   3  -3  -7 8.03882 3.30302   9
  -3  -3   7 16.1335 4.04676   5
  -3  -3   7 13.9046 3.03551   4
   3  -3  -7 17.4937 2.89734   6
   3  -3  -7 12.3148 2.96717   7
  -3  -3   7 13.2819 3.08348   8
  -3   3   7 11.5992 3.57143   2
  -3   3   7 14.2911 4.08459   1
  -3   3   7 15.5358 2.78122   9
  -3   3   7 7.88037 3.67142   6
   3   3  -7 9.59240 2.82721   1
   3   3  -7 9.74215 2.93118   5
   2  -3  -7 23.8518 2.46957   7
   2  -3  -7 29.9918 1.88658   3
   2  -3  -7 21.7263 4.28964   1
   2  -3  -7 27.0474 2.20707   6
  -2  -3   7 27.0187 3.85066   8
  -2  -3   7 24.6069 4.65799   5
   2  -3  -7 34.0117 4.11627   2
  -2  -3   7 18.9607 3.60664   4
   2  -3  -7 26.0459 3.76386   9
  -2   3   7 19.5833 2.37936   6
   2   3  -7 23.6045 3.78739   7
   2   3  -7 26.3778 2.51143   1
   2   3  -7 22.9500 3.37430   4
   2   3  -7 18.5127 4.22102   5
   2   3  -7 23.0745 1.61675   9
  -2   3   7 25.8212 1.67980   3
  -2   3   7 26.8976 3.12833   9
  -2   3   7 23.9606 4.06140   1
   2   3  -7 23.1627 1.96119   2
  -2   3   7 24.8862 3.17812   2
  -2   3   7 21.8791 3.41693   5
   1  -3  -7 126.436 4.41556   7
   1  -3  -7 131.377 6.33141   2
   1  -3  -7 134.656 5.72933   3
   1  -3  -7 133.867 4.71523   6
   1  -3  -7 128.718 6.56360   9
  -1  -3   7 128.309 5.53566   8
  -1  -3   7 141.087 5.63263   4
  -1  -3   7 126.683 7.39945   5
   1   3  -7 126.682 6.62823   7
   1   3  -7 130.493 6.77611   4
  -1   3   7 131.585 3.93690   6
  -1   3   7 128.373 6.45024   5
  -1   3   7 123.422 6.25674   2
   1   3  -7 124.095 6.71842   5
  -1   3   7 133.202 7.03112   1
   1   3  -7 121.365 4.58643   1
  -1   3   7 130.032 4.82224   3
  -1   3   7 119.329 5.87858   9
   0  -3   7 48.6339 5.03464   5
   0  -3  -7 57.7937 4.37662   9
   0  -3   7 47.0978 4.29483   7
   0  -3  -7 48.0855 4.45588   2
   0  -3   7 60.0036 3.90875   8
   0  -3  -7 55.6278 3.88019   3
   0  -3   7 61.2370 3.58804   4
   0   3   7 50.9544 4.32658   9
   0   3   7 46.2796 3.98973   5
   0   3  -7 54.3695 3.92876   4
   0   3   7 49.0267 4.58133   2
   0   3  -7 58.5339 1.75156   1
   0   3   7 54.6381 4.96820   1
   0   3  -7 50.5804 2.03164   1
   0   3  -7 50.7475 4.82956   5
   0   3  -7 56.1078 5.45881   6
   0   3   7 53.2635 1.37519   6
   0   3  -7 52.7734 6.53320   7
   0   3   7 57.4831 3.98178   3
  -1  -3  -7 24.5573 3.69502   3
  -1  -3  -7 18.8136 2.83159   9
   1  -3   7 22.7975 3.71509   4
  -1  -3  -7 23.2676 3.21290   2
   1  -3   7 19.9752 3.41449   7
   1  -3   7 21.1930 3.88734   8
   1  -3   7 19.6438 5.30914   5
   1   3   7 24.2186 0.95520   6
  -1   3  -7 26.4163 3.79324   3
  -1   3  -7 21.9021 3.25782   4
   1   3   7 22.5924 3.23303   8
   1   3   7 17.8402 3.70396   3
   1   3   7 21.6172 0.93896   6
  -1   3  -7 20.6355 1.20210   1
  -1   3  -7 21.5575 3.57391   6
  -1   3  -7 16.2970 4.51146   7
   1   3   7 20.0590 2.79032   5
  -1   3  -7 19.8781 3.85635   5
   1   3   7 21.8583 0.93443   7
   1   3   7 22.3297 3.97787   2
  -2  -3  -7 33.9428 4.72548   3
   2  -3   7 37.3418 2.62967   8
   2  -3   7 41.4013 2.59461   4
  -2  -3  -7 36.2440 4.19087   9
   2  -3   7 37.5201 4.36408   6
   2  -3   7 36.9140 5.26450   7
   2  -3   7 42.5175 2.55968   1
  -2  -3  -7 43.9597 4.57297   2
   2   3   7 35.8840 4.94467   3
   2   3   7 37.5423 2.05470   6
  -2   3  -7 45.2552 5.22992   5
   2   3   7 37.4971 2.96263   5
   2   3   7 42.9450 4.37347   2
  -2   3  -7 36.9834 4.36293   3
  -2   3  -7 36.7401 2.23723   1
  -3  -3  -7 159.002 7.17621   9
   3  -3   7 152.052 8.37453   6
   3  -3   7 160.741 5.87556   8
   3  -3   7 156.977 8.20408   7
  -3  -3  -7 158.205 7.49682   2
   3  -3   7 150.874 8.52166   1
   3  -3   7 164.695 8.33690   4
  -3   3  -7 165.652 8.81328   5
   3   3   7 157.657 8.64387   3
   3   3   7 173.740 5.21979   5
   3   3   7 158.103 5.80242   6
  -3   3  -7 152.888 5.76941   1
   4  -3   7 23.3574 5.28798   3
   4  -3   7 32.5600 5.03101   7
   4  -3   7 30.7012 4.77783   6
  -4  -3  -7 25.0310 4.43094   9
   4  -3   7 33.2327 4.44623   1
  -4  -3  -7 27.9240 3.90874   2
   4   3   7 31.6609 5.16033   3
   4   3   7 34.4922 3.55708   6
  -4   3  -7 37.4677 5.49262   5
  -4   3  -7 22.8087 3.37527   1
   4   3   7 30.7318 1.47217   5
   5  -3   7 9.74707 5.17073   1
  -5  -3  -7 7.13471 4.56156   2
   5  -3   7 1.84364 4.17674   7
   5  -3   7 10.3282 4.05996   3
   5  -3   7 6.14355 4.04820   6
   5   3   7 2.43723 2.35861   6
  -5   3  -7 1.36596 2.45604   1
   5   3   7 6.42100 4.40383   3
  -5   3  -7 2.90377 5.69781   5
  -6  -3  -7 320.529 12.2473   2
   6  -3   7 281.736 14.8050   7
   6  -3   7 300.796 14.0483   6
   6  -3   7 314.359 13.0928   3
   6   3   7 311.774 13.9679   3
   6   3   7 299.950 13.7032   6
  -6   3  -7 305.132 15.3310   1
  -6   3  -7 315.932 16.3804   5
  -7  -3  -7 92.8413 7.36496   2
   7  -3   7 93.9792 9.07287   7
   7  -3   7 80.3975 9.93542   6
   7  -3   7 101.975 8.25827   3
  -7   3  -7 90.5418 8.60330   1
   7   3   7 90.5068 8.25396   6
   7   3   7 100.025 9.40878   3
  -7   3  -7 98.1153 10.3818   5
   8  -3   7 408.622 28.6270   6
   8  -3   7 419.570 28.1902   3
  -8  -3  -7 453.873 29.2949   2
   8  -3   7 437.439 26.9385   7
   8   3   7 464.042 25.0520   3
  -8   3  -7 450.174 20.9408   2
  -8   3  -7 433.184 25.1591   1
  -8   3  -7 484.613 26.5408   5
   8   3   7 412.590 25.1450   6
   9  -3   7 1.93086 7.04731   7
   9  -3   7 -0.7289 5.93479   3
  -9  -3  -7 11.9237 5.63739   2
   9  -3   7 5.20666 6.91254   6
   9   3   7 1.87309 5.67679   6
  -9   3  -7 -2.1925 5.40535   1
   9   3   7 0.65344 7.15854   3
  -9   3  -7 0.46473 6.72555   2
  -9   3  -7 2.37078 6.34915   5
  10  -4  -7 36.2423 11.4065   6
 -10  -4   7 33.6780 7.97447   4
  10  -4  -7 45.0953 11.9129   7
 -10  -4   7 30.5682 7.96143   8
  10   4  -7 54.1612 10.1442   3
  10   4  -7 27.0894 12.3105   6
 -10   4   7 45.3405 12.0080   1
   9  -4  -7 59.5270 8.68426   6
  -9  -4   7 69.2155 8.47972   8
  -9  -4   7 77.8264 8.65706   4
   9  -4  -7 73.0729 9.25656   7
   9   4  -7 67.7275 9.92612   3
   9   4  -7 85.6721 10.4356   6
  -9   4   7 80.2585 17.8820   1
   8  -4  -7 17.6971 6.06182   7
   8  -4  -7 3.61139 7.50099   6
  -8  -4   7 -0.9152 4.60620   4
  -8  -4   7 6.55564 5.10349   8
   8   4  -7 7.57676 6.58816   3
   8   4  -7 1.07381 5.67873   6
  -8   4   7 10.4992 6.14386   1
   7  -4  -7 9.63692 4.78029   6
   7  -4  -7 7.40863 4.71321   7
  -7  -4   7 6.62313 4.28011   4
  -7  -4   7 9.25026 4.43167   8
   7   4  -7 6.85683 2.98818   5
  -7   4   7 5.06507 5.55042   1
  -7   4   7 5.20603 3.76657   4
   7   4  -7 10.8266 5.99508   3
   6  -4  -7 32.5457 5.06032   6
  -6  -4   7 23.3488 4.79776   8
  -6  -4   7 24.6325 5.02735   5
  -6  -4   7 22.6116 4.85364   4
   6  -4  -7 26.9408 6.21930   7
   6   4  -7 30.4942 6.29478   3
   6   4  -7 21.4839 4.40366   5
  -6   4   7 24.6030 6.19543   1
  -6   4   7 22.1018 4.47006   4
   5  -4  -7 660.114 20.9259   7
  -5  -4   7 683.231 29.8274   5
   5  -4  -7 660.734 24.1103   6
  -5  -4   7 657.563 19.3803   4
  -5  -4   7 686.969 22.8666   8
  -5   4   7 669.107 28.0483   1
   5   4  -7 735.583 26.3824   3
  -5   4   7 681.741 25.1125   4
   5   4  -7 707.330 42.7236   5
   4  -4  -7 264.309 13.5786   9
   4  -4  -7 272.738 13.4334   7
   4  -4  -7 282.712 10.3323   6
  -4  -4   7 272.241 10.7656   8
  -4  -4   7 272.694 10.2219   4
  -4  -4   7 280.713 15.9964   5
  -4   4   7 282.582 10.4235   4
   4   4  -7 282.145 16.3973   5
   4   4  -7 306.400 15.4105   3
   4   4  -7 277.880 11.8925   1
  -4   4   7 283.554 15.4366   6
  -4   4   7 270.067 12.2143   1
  -3  -4   7 373.520 12.9184   4
   3  -4  -7 401.576 11.1008   6
   3  -4  -7 388.829 13.7395   9
  -3  -4   7 385.379 14.0322   8
   3  -4  -7 398.572 21.7260   7
  -3  -4   7 388.366 25.7982   5
  -3   4   7 420.938 17.1172   1
   3   4  -7 417.297 14.1060   5
   3   4  -7 401.510 14.9896   1
   3   4  -7 380.494 22.5277   2
   3   4  -7 431.702 24.0955   3
  -3   4   7 407.027 19.6400   6
   3   4  -7 392.838 18.5441   2
   3   4  -7 399.947 19.2437   9
   2  -4  -7 49.2038 3.65524   7
  -2  -4   7 50.5870 5.00125   4
  -2  -4   7 61.6762 6.30800   5
  -2  -4   7 49.2554 4.88210   8
   2  -4  -7 52.7680 3.50651   6
   2  -4  -7 50.4517 4.38773   9
   2   4  -7 49.8305 3.49879   1
  -2   4   7 50.8092 3.71799   6
   2   4  -7 50.5751 2.99627   9
  -2   4   7 53.6593 2.78163   3
   2   4  -7 43.3882 5.83988   5
  -2   4   7 52.3605 5.70713   1
   1  -4  -7 756.065 31.2417   6
   1  -4  -7 737.868 28.5224   3
   1  -4  -7 756.740 19.8421   9
   1  -4  -7 754.068 44.3520   7
   1  -4  -7 755.790 37.0311   2
  -1  -4   7 737.317 20.6114   4
  -1  -4   7 728.276 71.0647   5
  -1  -4   7 742.400 22.6378   8
  -1   4   7 775.475 21.7619   1
  -1   4   7 771.833 26.6574   6
   1   4  -7 771.633 45.9902   5
   1   4  -7 773.033 26.7277   1
  -1   4   7 819.128 21.0739   3
   1   4  -7 798.096 39.8967   4
  -1   4   7 781.073 28.0980   5
   1   4  -7 777.606 22.9503   9
   0  -4  -7 6.23719 3.08861   3
   0  -4   7 8.43134 2.86157   8
   0  -4  -7 5.82921 3.64178   9
   0  -4   7 7.05369 2.12686   4
   0  -4  -7 5.09240 3.56531   2
   0  -4   7 4.28957 5.00455   7
   0   4   7 8.09536 3.06577   3
   0   4   7 4.22416 3.64938   1
   0   4   7 5.10785 1.49334   6
   0   4   7 4.14566 1.33486   7
   0   4  -7 3.02890 3.46672   5
   0   4   7 2.35775 3.05607   5
   0   4  -7 6.44962 1.60103   1
   0   4  -7 2.57486 2.30666   4
   1  -4   7 446.888 17.3418   8
   1  -4   7 447.886 15.3514   4
   1  -4   7 473.985 15.1268   7
  -1  -4  -7 454.403 17.2903   3
  -1  -4  -7 446.680 12.3603   9
  -1  -4  -7 455.401 15.0042   2
   1   4   7 466.872 24.7560   1
   1   4   7 460.384 19.0408   3
  -1   4  -7 459.101 15.5329   1
  -1   4  -7 439.779 20.9303   5
   1   4   7 474.815 25.3021   6
   1   4   7 446.681 22.4830   5
  -1   4  -7 503.845 18.2908   4
   1   4   7 475.748 27.7324   7
  -2  -4  -7 190.497 7.91006   9
   2  -4   7 193.184 7.30032   1
   2  -4   7 219.980 10.3221   7
   2  -4   7 185.678 6.86130   4
   2  -4   7 209.237 9.83181   6
  -2  -4  -7 196.707 8.46165   2
   2  -4   7 187.359 9.32264   8
  -2   4  -7 185.921 10.6941   5
   2   4   7 188.111 6.08417   6
   2   4   7 195.118 18.4647   7
   2   4   7 194.747 7.35498   5
  -2   4  -7 190.677 6.94197   4
  -2   4  -7 189.528 8.19911   1
   2   4   7 183.305 9.72931   3
   3  -4   7 10.6714 5.52168   7
  -3  -4  -7 6.67530 4.10227   2
   3  -4   7 9.05028 1.46850   4
  -3  -4  -7 9.25246 2.96531   9
   3  -4   7 9.68520 1.50553   8
   3  -4   7 7.48337 4.04374   6
   3  -4   7 8.42548 2.73809   1
   3   4   7 6.84584 1.79549   5
  -3   4  -7 5.33891 4.48042   5
  -3   4  -7 10.0314 2.52728   1
   3   4   7 7.18493 3.89333   3
   3   4   7 8.78248 2.20054   6
  -4  -4  -7 8.21304 4.30187   2
  -4  -4  -7 6.85907 4.11755   9
   4  -4   7 4.40873 4.36941   7
   4  -4   7 5.12884 2.71755   1
   4  -4   7 4.23047 5.55180   6
   4   4   7 5.17466 2.15014   6
  -4   4  -7 4.16862 2.16318   1
  -4   4  -7 8.09053 6.48780   5
   4   4   7 1.25686 3.90654   3
   5  -4   7 205.373 11.2759   7
   5  -4   7 168.910 14.7502   1
  -5  -4  -7 200.194 9.52062   2
   5  -4   7 197.713 11.6896   6
  -5  -4  -7 189.890 8.45088   9
  -5   4  -7 209.403 11.9122   5
   5   4   7 196.665 11.0580   3
  -5   4  -7 201.554 8.79309   1
   5   4   7 195.639 8.30986   6
   6  -4   7 57.4930 7.42260   6
  -6  -4  -7 56.7030 6.60343   9
   6  -4   7 63.9448 9.69888   7
  -6  -4  -7 62.7479 7.00884   2
   6   4   7 70.5653 8.45563   3
   6   4   7 51.6589 6.02122   6
  -6   4  -7 50.5700 6.23683   1
  -6   4  -7 60.1982 8.21978   5
   7  -4   7 -1.3085 5.52001   6
   7  -4   7 -3.1721 8.51648   7
   7  -4   7 5.82706 5.19336   3
  -7  -4  -7 -0.0704 3.98529   9
  -7  -4  -7 3.15432 6.34848   2
   7   4   7 -1.2283 6.12067   3
   7   4   7 -2.0618 3.43243   6
  -7   4  -7 0.75850 3.80638   1
  -7   4  -7 6.97891 6.24263   5
   8  -4   7 114.731 18.4646   7
   8  -4   7 135.316 10.3826   3
   8  -4   7 153.628 20.2995   6
  -8  -4  -7 113.954 8.52013   2
  -8  -4  -7 126.147 9.39326   9
  -8   4  -7 104.863 9.53236   1
   8   4   7 100.482 13.2748   3
   8   4   7 103.324 10.5220   6
  -8   4  -7 101.145 12.8442   5
   9  -4   7 14.9123 11.9372   6
   9  -4   7 22.9865 12.0940   7
  -9  -4  -7 16.6628 5.77341   2
  -9  -4  -7 22.3680 7.30877   9
   9  -4   7 17.8422 6.57284   3
  -9   4  -7 30.4807 11.2869   5
   9   4   7 11.2882 9.09345   3
  -9   4  -7 16.0454 7.82930   2
  -9  -5   7 17.7137 6.97890   8
   9  -5  -7 14.6590 10.0497   7
   9  -5  -7 29.0675 9.76476   6
  -9  -5   7 22.9238 7.21046   4
  -9   5   7 7.43769 10.5719   1
   9   5  -7 15.0042 11.8291   3
   9   5  -7 25.1896 11.0644   6
   8  -5  -7 35.7564 9.71819   6
   8  -5  -7 19.8679 6.50781   7
  -8  -5   7 4.91216 5.62532   4
  -8  -5   7 12.2063 5.92539   8
  -8   5   7 16.8964 9.38645   1
   7  -5  -7 94.7423 8.31514   6
   7  -5  -7 88.8985 8.47423   7
  -7  -5   7 78.7263 8.06832   8
  -7  -5   7 81.0792 7.94893   4
  -7   5   7 93.6939 11.4624   1
   7   5  -7 88.0313 10.1186   3
  -6  -5   7 443.963 16.2587   8
  -6  -5   7 425.818 19.1490   4
   6  -5  -7 436.760 20.7709   6
   6  -5  -7 442.470 18.3285   7
   6   5  -7 482.024 22.1402   3
  -6   5   7 461.793 17.7982   1
   6   5  -7 443.108 33.5277   5
  -6   5   7 429.141 25.3067   4
   5  -5  -7 28.2186 5.75644   6
  -5  -5   7 36.3322 6.48144   8
  -5  -5   7 28.5192 6.19154   4
   5  -5  -7 24.8691 5.91905   7
   5   5  -7 29.9751 6.80813   3
  -5   5   7 20.2681 7.69233   1
  -5   5   7 25.7893 5.23965   4
   5   5  -7 28.7392 5.27868   5
   4  -5  -7 47.1173 5.38685   9
   4  -5  -7 53.8432 4.73677   6
  -4  -5   7 41.7818 5.10638   8
  -4  -5   7 46.0901 6.20974   4
   4  -5  -7 47.6621 4.62166   7
   4   5  -7 44.9588 8.53662   3
  -4   5   7 49.1280 8.28724   1
   4   5  -7 36.1426 4.91175   5
  -3  -5   7 2.93621 3.20060   4
   3  -5  -7 2.94307 4.48981   9
  -3  -5   7 3.20712 3.11258   8
   3  -5  -7 2.63722 2.41001   6
   3  -5  -7 4.54513 2.61963   7
   3   5  -7 2.51852 3.36722   5
  -3   5   7 1.93853 2.52173   6
  -3   5   7 3.51276 6.47187   1
   3   5  -7 2.03175 4.41850   3
  -3   5   7 3.10308 1.27475   3
   3   5  -7 2.16337 3.58841   1
   3   5  -7 0.74767 1.37651   2
   3   5  -7 0.19784 1.24447   9
  -2  -5   7 369.613 15.4643   8
   2  -5  -7 421.674 11.3478   7
  -2  -5   7 406.018 14.4994   4
   2  -5  -7 382.795 15.4406   9
   2  -5  -7 434.898 13.2715   6
   2   5  -7 451.289 19.8099   1
  -2   5   7 428.591 22.7175   6
   2   5  -7 415.789 18.0102   9
   2   5  -7 401.963 23.4887   5
  -2   5   7 406.417 12.9843   3
   2   5  -7 413.316 12.4312   2
  -2   5   7 400.799 19.3856   1
   1  -5  -7 239.270 11.6645   9
   1  -5  -7 219.200 9.17305   2
   1  -5  -7 235.666 10.3711   7
  -1  -5   7 237.272 11.0101   4
  -1  -5   7 240.863 9.15046   8
   1   5  -7 220.034 10.6714   9
  -1   5   7 232.430 11.4429   3
   1   5  -7 226.656 10.6212   5
   1   5  -7 234.303 9.38100   1
   1   5  -7 233.251 9.90156   1
  -1   5   7 247.002 12.4212   6
  -1   5   7 254.929 14.4881   1
   0  -5  -7 77.4333 5.38526   9
   0  -5   7 81.2694 7.53443   7
   0  -5  -7 90.9681 6.11114   3
   0  -5   7 86.1196 5.43818   4
   0  -5   7 89.3117 5.89697   8
   0  -5  -7 86.4739 5.88633   2
   0   5  -7 78.0356 5.52279   4
   0   5  -7 75.4614 7.03622   5
   0   5  -7 78.7902 5.28089   9
   0   5   7 77.5137 6.07995   5
   0   5   7 88.5964 4.47096   6
   0   5   7 81.2348 5.86483   3
   0   5   7 85.4157 4.21074   7
   0   5   7 85.8621 7.89804   1
   0   5  -7 81.2659 4.43796   1
   1  -5   7 81.7948 7.57071   7
  -1  -5  -7 93.1464 6.09721   2
   1  -5   7 89.9248 5.15403   4
   1  -5   7 99.9273 5.24342   8
  -1  -5  -7 91.1276 5.85844   9
  -1   5  -7 93.3213 4.71825   1
   1   5   7 86.5695 6.12558   3
  -1   5  -7 87.5126 7.03210   4
   1   5   7 92.1758 4.81684   6
   1   5   7 91.4513 37.0733   1
   1   5   7 85.9975 5.21862   5
  -1   5  -7 94.9609 8.07255   5
   1   5   7 88.1437 4.65301   7
   2  -5   7 322.415 13.4598   7
  -2  -5  -7 308.428 10.4670   9
   2  -5   7 320.874 13.4401   4
  -2  -5  -7 311.078 11.2432   2
   2  -5   7 318.081 9.56876   8
  -2   5  -7 308.496 13.8642   1
   2   5   7 326.353 12.4419   3
  -2   5  -7 327.183 12.7477   4
   2   5   7 316.607 12.0412   5
  -2   5  -7 321.180 14.0107   5
   2   5   7 299.665 16.4275   6
   2   5   7 300.296 17.7597   7
  -3  -5  -7 32.6325 5.15976   9
   3  -5   7 24.2728 4.04419   1
  -3  -5  -7 27.6965 5.31576   2
   3  -5   7 31.4397 2.56494   8
   3  -5   7 19.5082 5.18810   7
   3  -5   7 23.1135 6.47865   6
  -3   5  -7 24.5886 6.33609   5
   3   5   7 23.4552 3.08000   6
  -3   5  -7 25.5403 3.70229   1
   3   5   7 24.6865 6.54197   3
   3   5   7 19.1762 3.23147   7
  -4  -5  -7 135.344 7.53761   2
   4  -5   7 120.745 11.8888   1
  -4  -5  -7 136.928 7.84007   9
   4  -5   7 140.664 9.18268   6
   4  -5   7 112.148 10.0684   7
   4   5   7 135.013 8.07844   6
  -4   5  -7 130.185 10.4262   5
  -4   5  -7 126.430 6.72695   1
   4   5   7 128.096 10.6313   3
   5  -5   7 2.10064 7.32657   7
   5  -5   7 3.69540 4.86066   6
  -5  -5  -7 1.50256 4.51962   9
  -5  -5  -7 0.17445 4.83772   2
  -5   5  -7 1.22323 5.76291   5
   5   5   7 1.48392 3.69108   6
  -5   5  -7 -0.3410 3.96532   1
   5   5   7 -1.3993 7.35992   3
  -6  -5  -7 3.15655 4.00639   2
  -6  -5  -7 14.3417 6.43727   9
   6  -5   7 1.16339 5.78468   6
   6  -5   7 1.40315 5.93613   7
   6   5   7 2.38590 6.15515   3
   6   5   7 0.12607 3.32353   6
  -6   5  -7 3.79624 6.29516   5
  -6   5  -7 2.71118 3.52976   1
  -7  -5  -7 24.6533 6.53189   9
   7  -5   7 8.09795 7.27126   7
  -7  -5  -7 22.5213 5.27511   2
   7  -5   7 20.2569 7.52485   6
  -7   5  -7 26.8387 8.40338   5
   7   5   7 22.1142 8.09667   3
   8  -5   7 21.4473 9.19411   7
  -8  -5  -7 30.5524 6.03032   9
   8  -5   7 28.2129 8.60126   6
  -8  -5  -7 33.5990 7.57510   2
  -8   5  -7 37.7561 11.9673   5
   8   5   7 22.4810 8.93308   3
  -9  -6   7 123.766 11.2007   8
   9  -6  -7 116.598 11.0777   6
   9  -6  -7 121.828 11.5542   7
  -9  -6   7 117.497 11.1871   4
   9   6  -7 138.679 14.5546   3
   9   6  -7 96.5511 14.2999   6
  -9   6   7 131.261 15.2505   1
   8  -6  -7 50.1352 10.4059   7
  -8  -6   7 26.9658 7.17528   8
   8  -6  -7 24.1608 9.46006   6
  -8  -6   7 40.5456 7.77578   4
  -8   6   7 17.9279 22.0495   1
   7  -6  -7 27.0380 7.58442   6
   7  -6  -7 17.8175 9.59134   7
  -7  -6   7 15.8450 6.03532   4
  -7  -6   7 22.6297 6.36110   8
   7   6  -7 19.8074 8.66780   3
  -7   6   7 14.7742 10.2745   1
  -6  -6   7 31.4228 6.46478   8
   6  -6  -7 37.3333 8.53554   7
   6  -6  -7 28.1909 8.73676   6
  -6  -6   7 15.4636 5.60348   4
  -6   6   7 17.7478 6.91597   1
   6   6  -7 17.8833 7.82838   3
  -5  -6   7 26.1169 5.67232   8
  -5  -6   7 28.2215 5.62581   4
   5   6  -7 20.7223 7.52644   3
  -5   6   7 25.7207 7.10858   1
   5   6  -7 14.7931 4.17393   5
  -5   6   7 19.7926 5.60531   4
   4  -6  -7 50.7690 5.32339   6
   4  -6  -7 48.0549 6.03636   9
  -4  -6   7 63.6960 6.55792   8
   4  -6  -7 62.7900 6.56579   7
  -4  -6   7 50.2107 6.16586   4
   4   6  -7 46.2296 10.1674   3
   4   6  -7 53.9331 6.09912   5
  -4   6   7 52.9876 8.05115   1
  -3  -6   7 39.5203 5.37359   8
   3  -6  -7 35.4696 5.27310   9
   3  -6  -7 35.2822 4.24290   6
   3  -6  -7 40.4657 5.40502   7
  -3  -6   7 41.3267 6.39645   4
  -3   6   7 33.9563 6.94329   1
   3   6  -7 38.5304 9.20345   3
   3   6  -7 27.2954 6.77933   5
   2  -6  -7 53.8240 8.07540   9
  -2  -6   7 32.7492 5.77129   4
   2   6  -7 35.4621 5.23381   1
   2   6  -7 31.3410 3.88125   1
  -2   6   7 35.4950 3.79401   3
   2   6  -7 30.7656 7.14482   5
  -2   6   7 30.6013 3.94114   6
  -2   6   7 36.8663 6.78190   1
   2   6  -7 47.3234 7.24967   3
  -1  -6   7 170.634 8.57469   4
   1  -6  -7 171.110 8.34164   9
   1  -6  -7 176.850 6.82048   7
  -1  -6   7 173.086 9.01485   8
  -1   6   7 165.650 12.1133   6
   1   6  -7 173.325 11.1479   5
  -1   6   7 164.706 8.11218   3
  -1   6   7 170.242 10.9032   1
   1   6  -7 174.112 9.40834   1
   1   6  -7 164.692 7.76443   2
   1   6  -7 164.299 8.92038   9
   0  -6  -7 7.88722 3.75848   2
   0  -6   7 12.1493 4.23821   8
   0  -6   7 3.75601 5.84738   7
   0  -6   7 8.57136 3.98668   4
   0  -6  -7 4.77537 3.56535   9
   0   6  -7 3.44873 4.73610   5
   0   6  -7 5.09800 3.27764   1
   0   6   7 6.89464 5.07419   1
   0   6   7 3.82028 4.19027   3
   1  -6   7 186.045 8.98413   4
   1  -6   7 177.732 7.37807   8
  -1  -6  -7 156.466 8.29207   2
   1  -6   7 150.901 9.66190   7
  -1  -6  -7 169.986 8.77505   9
   1   6   7 168.347 11.0695   1
  -1   6  -7 167.649 11.2192   5
  -1   6  -7 165.228 9.65626   1
   1   6   7 155.422 8.52698   3
  -1   6  -7 145.846 9.97414   4
   1   6   7 130.527 8.65237   5
  -2  -6  -7 -2.8570 3.40493   2
  -2  -6  -7 0.65935 3.17281   9
   2  -6   7 0.43882 2.60283   8
   2  -6   7 -2.9185 4.44779   7
   2   6   7 0.77516 7.49602   1
  -2   6  -7 6.23272 7.80898   5
  -2   6  -7 6.72022 3.77318   1
   2   6   7 1.15040 5.48172   3
   3  -6   7 12.9572 5.23587   6
  -3  -6  -7 14.0042 5.33834   9
   3  -6   7 11.1353 2.23316   8
   3  -6   7 14.4043 5.57625   7
  -3  -6  -7 16.1756 5.66702   2
   3   6   7 17.0842 7.14452   3
  -3   6  -7 13.0651 6.55652   5
  -3   6  -7 12.4073 3.90919   1
  -4  -6  -7 89.0457 7.81255   2
  -4  -6  -7 83.1119 7.41765   9
   4  -6   7 81.2343 9.44911   7
   4  -6   7 87.4881 9.95961   6
   4   6   7 65.7508 9.75387   3
  -4   6  -7 84.1080 11.9924   5
  -5  -6  -7 154.193 9.58885   2
   5  -6   7 127.683 10.7885   7
  -5  -6  -7 169.382 10.4711   9
   5  -6   7 133.867 10.4897   6
   5   6   7 124.951 12.5621   3
  -5   6  -7 157.142 12.8116   5
  -6  -6  -7 5.23998 6.22554   2
  -6  -6  -7 4.05286 4.35909   9
   6  -6   7 -0.5903 6.40691   6
   6  -6   7 0.00000 9.08086   7
   6   6   7 6.42310 6.98643   3
  -6   6  -7 0.37953 7.58558   5
   7  -6   7 9.39453 7.45653   6
  -7  -6  -7 3.54419 5.09970   2
  -7  -6  -7 0.61630 4.47321   9
   7  -6   7 6.01852 11.5979   7
  -7   6  -7 7.28573 8.26463   5
   7   6   7 7.57693 7.92184   3
   8  -7  -7 25.3387 7.65328   6
  -7  -7   7 5.31558 6.00943   8
  -7  -7   7 -0.7054 5.88318   4
   7  -7  -7 6.46859 8.85262   6
   7  -7  -7 11.4946 13.4540   7
   7   7  -7 1.35099 9.18667   3
  -7   7   7 -3.4196 7.27445   1
   6  -7  -7 16.5056 5.85021   7
   6  -7  -7 13.8278 7.84206   6
   6   7  -7 11.2393 8.59475   3
  -6   7   7 14.4592 7.46903   1
   5  -7  -7 0.76995 4.39336   6
  -5  -7   7 2.14611 4.87285   4
   5  -7  -7 2.10213 4.75765   7
  -5  -7   7 2.89834 4.84893   8
   5   7  -7 4.61959 7.53365   3
  -5   7   7 1.63423 9.04833   1
  -4  -7   7 22.7915 5.63132   8
  -4  -7   7 23.9864 7.23203   4
   4  -7  -7 28.8235 6.28512   9
   4  -7  -7 33.3638 6.76902   6
   4  -7  -7 27.5202 5.29570   7
   4   7  -7 12.6387 7.81309   3
   4   7  -7 20.0470 5.41595   5
  -4   7   7 21.7509 7.47402   1
  -3  -7   7 3.39780 4.15023   8
   3  -7  -7 -0.3759 4.55161   6
   3  -7  -7 1.62414 4.51797   9
  -3  -7   7 2.91645 4.22812   4
   3  -7  -7 1.35214 4.94734   7
   3   7  -7 2.23695 6.65784   3
  -3   7   7 -0.4347 8.68061   1
   3   7  -7 -3.4249 6.58746   5
   2  -7  -7 176.540 9.49867   9
  -2  -7   7 175.921 9.86575   8
  -2  -7   7 186.238 10.1961   4
   2  -7  -7 177.595 10.4345   7
   2   7  -7 177.376 15.1176   5
   2   7  -7 162.263 13.3847   3
  -2   7   7 157.410 11.7068   1
   2   7  -7 171.369 9.41571   1
   1  -7  -7 126.559 7.67964   7
  -1  -7   7 138.313 7.87877   4
   1  -7  -7 140.433 9.38959   9
  -1  -7   7 134.971 7.73625   8
   1   7  -7 118.811 8.06397   1
  -1   7   7 115.089 10.4433   1
   1   7  -7 119.694 11.3059   5
  -1   7   7 106.014 8.71213   3
   1   7  -7 126.778 10.3489   3
   0  -7  -7 83.0239 6.91012   9
   0  -7   7 99.1156 7.22110   8
   0  -7   7 83.9431 8.22395   7
   0   7  -7 88.3201 9.14876   5
   0   7  -7 71.0245 6.53160   1
   0   7   7 71.4893 6.68511   3
   0   7   7 61.7024 10.3611   1
   1  -7   7 183.203 9.87432   8
  -1  -7  -7 190.155 10.5434   2
   1  -7   7 153.150 10.5029   7
  -1  -7  -7 181.022 9.88004   9
   1   7   7 163.111 13.6384   1
  -1   7  -7 178.941 12.8327   5
   1   7   7 202.039 16.9488   3
  -2  -7  -7 178.807 10.0686   2
   2  -7   7 208.873 12.5265   8
  -2  -7  -7 185.708 9.97695   9
   2  -7   7 185.280 11.8037   7
   2   7   7 184.602 14.4763   1
   2   7   7 184.288 12.2130   3
  -2   7  -7 190.730 13.3086   5
   3  -7   7 7.25994 6.09043   7
  -3  -7  -7 13.2340 6.14498   2
  -3  -7  -7 4.39403 5.65584   9
   3   7   7 -0.5644 6.44505   1
   3   7   7 4.34813 5.62152   3
  -3   7  -7 3.25864 7.19821   5
   4  -7   7 179.360 13.2562   7
  -4  -7  -7 175.033 10.9376   9
  -4  -7  -7 186.085 11.5961   2
   4  -7   7 155.268 11.4558   6
  -4   7  -7 184.761 14.4331   5
   4   7   7 153.412 11.7367   3
  -5  -7  -7 0.17152 6.37569   9
   5  -7   7 7.80841 9.46579   7
  -5  -7  -7 -0.8822 4.39768   2
   5  -7   7 -2.7042 6.13569   6
   5   7   7 7.03514 7.45375   3
  -5   7  -7 9.64692 8.57859   5
  -6  -7  -7 186.013 10.6906   2
   6  -7   7 166.351 13.3734   6
  -6  -7  -7 169.465 9.32132   9
   6  -7   7 170.305 14.1304   7
  -6   7  -7 194.720 18.1763   5
   6   7   7 169.160 14.0696   3
  -6  -8   7 7.48725 6.61955   8
   6  -8  -7 11.2320 8.28290   6
   6  -8  -7 10.6473 6.33779   7
  -6   8   7 13.4577 11.4008   1
   6   8  -7 2.62125 10.0931   3
   5  -8  -7 47.9915 8.11668   6
   5  -8  -7 46.7512 7.52220   7
  -5   8   7 46.8602 12.7677   1
   5   8  -7 37.4400 10.8938   3
   4  -8  -7 16.4611 6.93670   6
   4  -8  -7 21.5081 5.66255   7
  -4   8   7 8.13855 7.94896   1
   4   8  -7 26.9017 15.2084   3
  -3  -8   7 259.405 17.4452   8
   3  -8  -7 258.330 13.6100   9
   3  -8  -7 258.395 16.2291   7
   3   8  -7 224.254 17.5956   3
  -3   8   7 223.947 16.6973   1
   3   8  -7 233.059 14.2574   5
   2  -8  -7 10.6199 5.45913   9
   2  -8  -7 8.72131 4.20556   7
  -2  -8   7 1.21923 6.53402   8
   2   8  -7 2.46922 6.42153   5
   2   8  -7 0.10119 10.9268   3
  -2   8   7 4.74044 10.2730   1
  -1  -8   7 9.20786 5.98631   8
   1  -8  -7 3.51138 7.14157   9
   1   8  -7 4.15354 9.11725   5
  -1   8   7 6.25753 7.52519   1
   1   8  -7 0.04986 9.89298   3
   0  -8   7 3.17809 3.97996   8
   0  -8   7 3.40783 6.75949   7
   0  -8  -7 0.45240 6.87876   9
   0   8   7 1.92272 4.48788   3
   0   8   7 0.43706 6.92326   1
   0   8   7 -0.5862 5.52466   5
   0   8  -7 4.42929 6.69575   3
   0   8  -7 -1.5079 6.22874   5
   1  -8   7 136.875 12.1721   7
   1  -8   7 125.479 7.90292   8
  -1  -8  -7 127.393 9.54494   9
   1   8   7 111.279 11.8326   5
   1   8   7 104.868 10.4980   3
  -1   8  -7 126.996 12.1380   5
   1   8   7 117.799 11.5427   1
  -2  -8  -7 25.1604 6.32127   2
  -2  -8  -7 33.7345 7.60320   9
   2  -8   7 33.0102 8.22293   7
  -2   8  -7 9.59437 8.20865   5
   2   8   7 16.4234 6.62643   3
   2   8   7 18.7281 11.3022   1
   3  -8   7 2.74238 9.35154   7
  -3  -8  -7 1.31068 4.70620   9
  -3  -8  -7 2.75478 4.80847   2
   3   8   7 7.25077 6.43284   3
  -3   8  -7 -3.2567 11.1293   5
   3   8   7 6.37403 8.40937   1
  -4  -8  -7 125.146 9.96545   2
  -4  -8  -7 117.653 9.47351   9
   4  -8   7 119.190 14.3903   7
   4   8   7 103.310 12.9204   1
   4   8   7 91.1214 11.0864   3
  -4   8  -7 138.020 27.4374   5
  -5  -8  -7 180.850 12.4393   9
  -5  -8  -7 156.693 10.1090   2
   5  -8   7 173.960 14.1021   7
   5   8   7 157.299 13.9293   3
  -5   8  -7 168.875 18.2350   5
  -4  -9   7 46.9778 10.6509   8
  -4   9   7 31.9370 14.0975   1
  -4   9   7 27.8477 11.3602   5
   4   9  -7 35.0881 15.8288   3
  -3  -9   7 -0.8140 7.86745   8
   3  -9  -7 3.34795 6.10260   9
  -3   9   7 15.6520 11.7560   1
  -3   9   7 9.19571 8.90095   5
   3   9  -7 -10.354 13.0268   3
   2  -9  -7 177.400 15.8986   9
  -2  -9   7 198.180 19.2211   8
  -2   9   7 165.643 17.5239   1
   2   9  -7 160.358 17.4002   3
   2   9  -7 166.737 15.7714   5
  -2   9   7 146.659 16.6179   5
   1  -9  -7 41.4133 7.51898   9
  -1  -9   7 49.0553 8.66189   8
  -1   9   7 38.9799 12.3988   5
   1   9  -7 26.1222 8.92620   5
  -1   9   7 44.1974 13.3316   1
   1   9  -7 28.5975 12.9312   3
   0  -9  -7 4.72230 5.80043   9
   0   9   7 1.74906 12.1300   1
   0   9  -7 -1.7404 7.08782   3
   0   9  -7 3.38734 8.31899   5
  -1  -9  -7 33.4897 7.01723   9
   1  -9   7 42.7982 9.20363   7
  -1   9  -7 20.5853 9.56303   5
   1   9   7 36.6816 10.1538   1
  -1   9  -7 32.4226 9.46510   3
  -2  -9  -7 87.0027 9.35268   9
   2  -9   7 73.9819 10.0390   7
   2   9   7 72.8401 14.9891   1
  -2   9  -7 72.5553 12.7750   5
   2   9   7 69.6545 12.1314   3
  -3  -9  -7 -0.5393 4.69748   9
   3  -9   7 -6.6135 10.6919   7
  -3   9  -7 1.56999 12.7835   5
   3   9   7 6.98697 11.8148   1
   3   9   7 -2.4932 7.05481   3
  11   0  -8 -1.0093 7.24783   6
 -11   0   8 -1.0526 7.15925   1
 -10   0   8 5.40659 8.46709   1
  10   0  -8 6.26507 8.93990   6
 -10   0   8 6.10111 6.17304   8
 -10   0   8 3.46515 4.36505   4
  -9   0   8 1.39254 15.6003   8
   9   0  -8 1.75287 5.43414   3
   9   0  -8 1.29114 5.50422   6
  -9   0   8 -2.6744 7.33500   1
  -9   0   8 -0.5913 3.66360   4
  -8   0   8 69.6400 6.17839   4
   8   0  -8 82.5462 6.85779   3
   8   0  -8 78.4106 7.71390   6
  -8   0   8 70.0505 6.20989   8
  -8   0   8 74.1134 7.37902   1
  -7   0   8 6.05549 3.99868   1
  -7   0   8 -0.4362 2.78646   8
  -7   0   8 -1.2509 2.83274   4
  -7   0   8 0.60435 1.81199   9
  -7   0   8 3.13744 1.98614   2
   7   0  -8 -3.1533 3.70408   6
   7   0  -8 3.08793 3.61544   3
   6   0  -8 576.454 19.9910   3
  -6   0   8 561.085 22.4240   1
  -6   0   8 583.808 17.8419   9
   6   0  -8 600.110 26.6894   6
  -6   0   8 575.026 22.6320   8
  -6   0   8 563.440 18.8764   4
  -6   0   8 597.592 19.6267   2
   5   0  -8 2.85296 2.54643   5
  -5   0   8 -1.4028 2.54671   1
  -5   0   8 -0.9734 2.74098   5
   5   0  -8 -0.1831 2.50602   3
   5   0  -8 -1.8423 2.68166   6
  -5   0   8 0.50327 1.75929   9
  -5   0   8 -0.4414 2.41510   4
  -5   0   8 -0.6120 2.36023   8
  -5   0   8 1.28361 1.90757   2
  -4   0   8 1923.49 72.7476   1
   4   0  -8 1896.38 94.4157   1
   4   0  -8 1917.51 88.1649   4
  -4   0   8 1970.90 73.8646   4
   4   0  -8 1884.44 53.9100   9
  -4   0   8 1907.36 64.2344   2
   4   0  -8 1933.99 57.0198   5
  -4   0   8 1942.48 54.0120   5
  -4   0   8 1920.60 71.6653   9
   4   0  -8 1848.65 113.942   3
   3   0  -8 -0.2160 1.41317   9
   3   0  -8 -1.0056 3.06466   5
  -3   0   8 -0.3607 1.07080   2
  -3   0   8 -2.2073 2.02297   5
   3   0  -8 0.16977 3.88328   4
  -3   0   8 -0.9943 0.97290   9
   3   0  -8 0.13232 2.27764   1
   3   0  -8 0.62029 1.51371   2
  -3   0   8 1.45069 2.18398   4
  -3   0   8 2.69710 2.71497   1
   2   0  -8 133.595 6.89192   1
   2   0  -8 146.174 40.7447   5
   2   0  -8 145.082 7.90405   3
  -2   0   8 136.393 6.79974   2
   2   0  -8 136.306 5.02279   2
  -2   0   8 131.094 6.41170   5
   2   0  -8 140.052 7.55035   4
  -2   0   8 158.775 44.5799   4
  -2   0   8 138.245 5.64001   1
   2   0  -8 136.191 4.39694   9
  -1   0   8 -3.8758 2.21348   4
   1   0  -8 -1.9927 1.43969   1
  -1   0   8 -4.4039 1.85891   5
   1   0  -8 -4.0016 1.86924   2
   1   0  -8 -2.8995 1.99552   3
   1   0  -8 -2.4572 1.87841   5
   1   0  -8 -3.8820 1.74372   9
  -1   0   8 -2.9608 3.54234   2
  -1   0   8 -2.8232 1.91970   1
   1   0  -8 -3.7587 1.52965   7
   0   0  -8 1593.44 53.7067   7
   0   0  -8 1574.78 44.8709   6
   0   0  -8 1656.14 61.3624   2
   0   0   8 1606.91 62.8117   7
   0   0  -8 1576.90 62.9022   5
   0   0   8 1594.18 50.7367   2
   0   0   8 1579.99 62.5271   5
   0   0  -8 1595.97 60.1235   3
   0   0   8 1629.44 51.6323   4
   0   0   8 1592.24 71.0618   1
   0   0   8 1613.46 43.0230   3
  -1   0  -8 -1.1477 2.79016   3
   1   0   8 -0.8677 1.89921   2
  -1   0  -8 -0.6958 1.78906   5
  -1   0  -8 -0.9096 1.67782   6
   1   0   8 -1.3969 1.13906   6
   1   0   8 -1.2335 1.13627   7
   1   0   8 0.61671 2.19442   3
  -1   0  -8 -1.2747 1.80632   2
  -1   0  -8 -1.0345 1.66454   7
   1   0   8 -0.2580 2.10646   5
   2   0   8 107.064 7.02806   5
   2   0   8 100.715 4.57777   6
  -2   0  -8 105.476 5.42527   2
  -2   0  -8 110.291 4.43948   6
   2   0   8 96.6241 5.54390   7
  -2   0  -8 100.375 5.96000   5
  -2   0  -8 101.805 4.51941   7
   2   0   8 104.260 5.68074   3
   2   0   8 106.099 4.66210   1
  -2   0  -8 94.9745 6.30993   3
   2   0   8 91.1031 5.20574   2
   3   0   8 -0.0898 1.84967   7
  -3   0  -8 1.49122 2.40815   2
  -3   0  -8 -0.2908 2.68971   5
  -3   0  -8 -0.8995 1.72364   6
   3   0   8 -1.9427 1.92345   1
   3   0   8 -1.5588 3.24930   5
  -3   0  -8 -1.2980 2.81893   3
   3   0   8 -1.1150 1.84272   6
   3   0   8 1.21604 2.89200   3
  -4   0  -8 730.594 32.8925   6
   4   0   8 749.427 23.1670   7
   4   0   8 810.661 26.1126   8
   4   0   8 774.862 20.4182   3
   4   0   8 773.159 28.5958   5
   4   0   8 778.366 41.8954   1
  -4   0  -8 734.745 25.5192   5
  -4   0  -8 758.082 23.2189   2
   4   0   8 768.556 18.6339   6
   5   0   8 1.32802 3.14467   8
   5   0   8 -0.1672 2.84651   6
   5   0   8 1.18265 2.28530   4
   5   0   8 0.25501 5.47548   3
  -5   0  -8 -2.5796 4.69904   2
  -5   0  -8 0.29452 3.24431   5
   5   0   8 2.82957 4.42146   7
   6   0   8 3340.84 112.292   3
   6   0   8 3377.16 111.489   6
  -6   0  -8 3380.16 93.2600   2
   6   0   8 3554.43 128.163   7
   6   0   8 3482.32 167.084   4
   6   0   8 3592.80 147.300   8
  -6   0  -8 3305.53 124.272   5
  -7   0  -8 0.79378 4.01777   5
   7   0   8 1.86541 4.41228   7
   7   0   8 -0.1689 4.10910   6
  -7   0  -8 -4.0770 4.39130   2
   7   0   8 -5.7263 6.86619   3
   8   0   8 2.63583 5.66229   3
   8   0   8 1.58632 4.88129   6
  -8   0  -8 -0.0783 6.74784   2
   8   0   8 -2.8937 7.30365   7
   9   0   8 -7.7836 8.36828   7
   9   0   8 -2.2973 7.83324   6
  -9   0  -8 -1.6450 7.54438   2
   9   0   8 3.63042 6.70356   3
  10   0   8 20.5184 8.76441   7
  10   0   8 43.7383 12.0542   3
  10   0   8 26.0518 8.46413   6
 -10   0  -8 36.7495 7.70337   2
 -11  -1   8 105.159 11.6968   1
 -11  -1   8 99.6978 11.2950   4
 -11  -1   8 82.7309 10.7796   8
  11  -1  -8 109.637 11.8083   6
  11   1  -8 115.710 12.1377   6
 -11   1   8 103.810 12.0739   1
 -10  -1   8 101.010 10.1123   4
 -10  -1   8 112.817 8.96094   8
 -10  -1   8 102.362 10.4136   1
  10  -1  -8 119.950 12.5716   6
  10   1  -8 106.755 10.9950   6
 -10   1   8 119.539 11.2404   1
  10   1  -8 122.596 10.7896   3
   9  -1  -8 80.4626 6.48916   3
  -9  -1   8 73.6554 8.33381   1
  -9  -1   8 50.4140 6.50592   8
  -9  -1   8 62.8966 6.75661   4
   9  -1  -8 81.1628 8.63246   6
   9   1  -8 78.6348 8.68021   3
  -9   1   8 62.6281 8.16747   1
   9   1  -8 73.9701 8.63155   6
  -9   1   8 63.2295 7.24662   8
  -9   1   8 68.1493 7.33032   4
   8  -1  -8 40.2342 7.56094   6
  -8  -1   8 40.6597 6.53580   8
  -8  -1   8 45.6805 6.64882   4
   8  -1  -8 54.0686 4.83916   3
  -8  -1   8 53.3310 7.80146   1
   8   1  -8 51.6770 8.32975   6
  -8   1   8 62.2026 8.42775   1
  -8   1   8 40.3509 5.70839   4
  -8   1   8 46.1704 5.05109   8
   8   1  -8 54.3681 12.9487   3
  -7  -1   8 586.734 19.3014   4
   7  -1  -8 551.140 18.1964   6
  -7  -1   8 582.588 23.9205   2
   7  -1  -8 557.435 27.7055   3
  -7  -1   8 570.179 18.7046   8
  -7  -1   8 558.382 17.8693   1
  -7  -1   8 588.384 20.4013   9
  -7   1   8 553.942 17.3840   1
  -7   1   8 565.072 15.5121   4
  -7   1   8 575.452 20.3983   8
   7   1  -8 590.835 20.8787   6
   7   1  -8 593.313 16.6527   3
   6  -1  -8 7.80769 3.46038   6
  -6  -1   8 14.4524 1.86163   9
  -6  -1   8 10.2759 3.52243   1
  -6  -1   8 10.5884 3.38552   4
   6  -1  -8 8.75167 2.25520   3
  -6  -1   8 14.9539 2.03200   2
  -6  -1   8 12.1171 3.40873   8
  -6   1   8 14.1265 3.30627   8
   6   1  -8 16.7158 5.32638   6
  -6   1   8 14.3154 3.28516   4
  -6   1   8 14.5328 3.53161   2
   6   1  -8 9.50213 3.13486   5
   6   1  -8 11.2448 4.37467   3
  -6   1   8 8.19860 3.80613   1
  -6   1   8 9.49689 2.50584   9
   5  -1  -8 348.064 13.0466   6
   5  -1  -8 332.272 19.9113   3
  -5  -1   8 361.116 11.1599   9
  -5  -1   8 343.363 9.14762   2
   5  -1  -8 349.915 17.7089   4
  -5  -1   8 375.336 12.3783   4
  -5  -1   8 359.753 22.2354   5
  -5  -1   8 362.303 11.8805   1
  -5  -1   8 368.178 13.1025   8
   5   1  -8 349.316 20.9895   3
  -5   1   8 368.236 13.5962   4
  -5   1   8 363.397 13.1981   9
   5   1  -8 308.376 16.6980   1
   5   1  -8 338.524 16.6302   5
  -5   1   8 370.314 21.7811   2
  -5   1   8 372.925 14.3361   1
  -4  -1   8 191.873 6.97385   2
  -4  -1   8 186.793 8.43206   5
  -4  -1   8 201.063 9.14792   1
   4  -1  -8 179.689 9.51382   5
  -4  -1   8 180.188 8.38735   4
   4  -1  -8 197.406 7.58773   6
  -4  -1   8 200.166 8.04708   8
  -4  -1   8 188.084 6.40672   9
   4  -1  -8 182.612 8.39972   3
   4  -1  -8 183.978 9.35440   4
   4  -1  -8 175.465 9.52738   1
   4  -1  -8 194.831 9.53237   9
  -4   1   8 195.112 6.91123   2
   4   1  -8 192.632 9.09157   3
   4   1  -8 192.303 7.65438   5
  -4   1   8 195.403 7.71643   9
   4   1  -8 185.182 10.0743   4
   4   1  -8 190.843 8.10217   1
  -4   1   8 203.548 9.83311   1
  -4   1   8 196.509 8.14101   4
  -4   1   8 191.109 9.61919   5
   3  -1  -8 10.3324 1.97604   2
  -3  -1   8 9.77441 2.69286   5
   3  -1  -8 6.79829 3.30162   5
  -3  -1   8 12.2983 2.67178   4
  -3  -1   8 12.1406 1.38202   2
   3  -1  -8 13.6862 2.04774   9
  -3  -1   8 10.9925 2.00931   1
   3  -1  -8 11.5332 2.14605   6
   3  -1  -8 10.7036 1.37368   3
   3  -1  -8 5.22101 3.84421   1
   3   1  -8 7.06608 3.25796   5
  -3   1   8 11.5722 1.97548   2
   3   1  -8 4.65144 2.90393   4
  -3   1   8 8.37480 2.88036   4
  -3   1   8 10.0005 1.80658   9
  -3   1   8 11.1540 2.90797   1
   3   1  -8 8.42039 1.27083   2
  -3   1   8 11.5065 2.71936   5
   3   1  -8 10.9712 2.56490   1
   3   1  -8 10.5340 1.27744   9
  -2  -1   8 5.00175 2.53607   5
   2  -1  -8 6.77032 2.52788   1
   2  -1  -8 3.87270 1.60830   9
  -2  -1   8 5.07535 1.43323   2
   2  -1  -8 5.80575 1.89848   6
  -2  -1   8 4.71304 1.78182   1
   2  -1  -8 5.17504 1.79478   2
  -2  -1   8 3.53140 2.07477   4
   2  -1  -8 6.46859 2.53181   5
   2  -1  -8 3.75819 1.59530   3
   2   1  -8 4.48867 2.39768   1
   2   1  -8 0.52138 2.66519   4
   2   1  -8 3.97567 1.42271   2
   2   1  -8 4.68987 1.41356   9
   2   1  -8 1.46544 3.15709   5
  -2   1   8 1.77443 2.07182   9
  -2   1   8 5.02488 2.19280   2
  -2   1   8 7.59096 2.55992   1
  -2   1   8 3.22350 2.80538   4
  -2   1   8 4.72572 3.04299   5
   1  -1  -8 352.822 14.5105   1
   1  -1  -8 348.018 14.6338   3
   1  -1  -8 338.306 9.55582   9
  -1  -1   8 340.537 10.6813   5
  -1  -1   8 349.296 9.80102   2
  -1  -1   8 351.735 15.1397   4
   1  -1  -8 348.454 18.6623   2
  -1  -1   8 341.755 11.8147   1
   1  -1  -8 349.039 14.7196   5
   1   1  -8 371.446 51.9340   4
   1   1  -8 367.347 23.1519   3
  -1   1   8 362.217 16.4758   2
  -1   1   8 351.851 11.2180   9
   1   1  -8 363.436 17.5140   1
   1   1  -8 359.716 12.7107   5
  -1   1   8 351.918 9.33483   3
  -1   1   8 343.549 12.4031   5
   1   1  -8 350.744 11.9655   7
  -1   1   8 345.746 10.0680   1
   1   1  -8 371.786 12.5181   2
   0  -1  -8 0.37473 1.00846   7
   0  -1   8 2.12058 1.13061   1
   0  -1  -8 0.42782 1.65713   5
   0  -1   8 -1.5589 2.01122   2
   0  -1  -8 0.16347 2.15519   3
   0  -1  -8 0.60492 0.85293   6
   0  -1  -8 2.60410 1.88556   2
   0  -1   8 -2.7893 2.75604   4
   0  -1  -8 2.76989 2.36012   9
   0  -1   8 1.43848 1.54155   7
   0  -1   8 0.04998 2.33331   5
   0   1  -8 -0.7459 2.07425   6
   0   1   8 -0.2110 1.67494   1
   0   1  -8 -1.1528 2.10406   7
   0   1  -8 0.80114 2.09205   5
   0   1  -8 1.43529 1.58934   2
   0   1  -8 0.50851 1.95307   3
   0   1   8 -1.5693 1.58343   2
   0   1   8 0.42099 2.41355   5
  -1  -1  -8 25.6159 2.66754   5
  -1  -1  -8 29.5618 1.85162   6
  -1  -1  -8 32.0344 3.23354   3
  -1  -1  -8 30.8242 3.84592   2
   1  -1   8 26.6121 3.65424   5
   1  -1   8 29.8854 2.93737   7
   1  -1   8 31.9167 3.30339   6
   1  -1   8 31.7331 3.72226   4
   1  -1   8 29.8634 1.95522   1
   1  -1   8 29.5152 17.2973   3
  -1   1  -8 23.6606 3.37575   7
   1   1   8 32.2545 3.40515   3
  -1   1  -8 27.8406 3.03377   2
  -1   1  -8 33.2273 4.16452   5
  -1   1  -8 32.6832 3.51900   3
   1   1   8 29.8009 1.85272   7
  -1   1  -8 30.4670 2.89024   6
   1   1   8 32.0289 2.99372   5
   1   1   8 29.4323 1.76496   6
   1   1   8 28.0002 3.85907   2
  -2  -1  -8 102.901 4.73474   5
   2  -1   8 107.048 5.24239   4
  -2  -1  -8 108.689 3.88488   6
   2  -1   8 97.6211 5.12640   7
  -2  -1  -8 100.423 6.28188   3
   2  -1   8 105.543 5.02811   6
   2  -1   8 114.646 5.98444   3
   2  -1   8 103.275 6.85620   5
   2  -1   8 107.107 5.98402   1
  -2  -1  -8 106.374 5.43809   2
  -2   1  -8 98.5079 5.56324   7
   2   1   8 103.493 4.13987   7
  -2   1  -8 104.007 7.35004   6
   2   1   8 116.167 6.05926   2
  -2   1  -8 102.929 5.47353   2
   2   1   8 101.234 6.47826   3
   2   1   8 99.9222 5.88602   5
  -2   1  -8 97.6742 5.73308   3
   2   1   8 104.778 4.59578   6
  -2   1  -8 103.847 5.68251   5
   3  -1   8 110.623 7.40053   5
   3  -1   8 113.307 6.66720   7
   3  -1   8 112.172 6.13237   6
  -3  -1  -8 118.236 7.09339   2
   3  -1   8 138.187 7.06117   3
  -3  -1  -8 138.594 5.69369   6
  -3  -1  -8 126.743 5.17662   5
   3  -1   8 133.027 5.49292   1
   3   1   8 131.575 6.74786   1
   3   1   8 124.047 6.92555   3
  -3   1  -8 129.717 6.82665   6
   3   1   8 121.829 5.17325   7
   3   1   8 132.642 5.76179   8
  -3   1  -8 125.373 6.96143   5
   3   1   8 123.276 18.4876   2
   3   1   8 121.884 4.95888   6
   3   1   8 129.356 5.83749   5
  -3   1  -8 128.110 6.59625   2
   4  -1   8 25.3842 3.39070   1
   4  -1   8 21.4742 3.68284   6
   4  -1   8 27.8534 2.48007   8
   4  -1   8 29.7809 4.53947   3
  -4  -1  -8 18.9444 3.57607   2
  -4  -1  -8 27.7862 2.96599   5
  -4  -1  -8 26.2164 3.76901   6
   4  -1   8 27.4549 5.71007   5
   4  -1   8 19.5791 4.58890   7
  -4   1  -8 22.2330 3.65224   5
   4   1   8 23.1345 5.77360   3
   4   1   8 21.5255 3.02612   6
   4   1   8 24.7540 4.08300   7
   4   1   8 31.9532 3.69185   8
   4   1   8 20.0210 2.97243   5
  -4   1  -8 22.2452 5.10552   2
  -4   1  -8 23.8659 21.1594   6
  -5  -1  -8 2.05628 5.85009   6
   5  -1   8 1.19484 3.53670   3
  -5  -1  -8 -1.3191 2.00866   5
   5  -1   8 -0.2714 2.28702   4
  -5  -1  -8 -1.2373 3.02670   2
   5  -1   8 -0.5541 10.9189   6
   5  -1   8 -2.8273 11.1106   7
   5  -1   8 0.86284 1.60288   8
   5   1   8 1.54441 5.60157   3
  -5   1  -8 -0.2176 2.86064   5
  -5   1  -8 4.36650 5.00071   2
   5   1   8 2.24628 2.89012   6
   5   1   8 -2.3140 2.65236   7
  -6  -1  -8 182.453 9.37675   2
   6  -1   8 200.699 11.1168   3
   6  -1   8 189.731 11.0571   7
   6  -1   8 183.696 9.63680   6
   6  -1   8 195.823 9.96181   8
  -6  -1  -8 180.780 9.59547   5
   6  -1   8 195.548 9.51317   4
  -6   1  -8 189.337 9.73999   5
   6   1   8 194.182 10.7230   3
  -6   1  -8 177.848 9.81275   2
   6   1   8 178.884 9.88621   7
   6   1   8 189.260 9.72508   6
   7  -1   8 127.958 9.53233   7
   7  -1   8 103.955 9.70529   6
  -7  -1  -8 123.400 8.46539   2
   7  -1   8 114.518 9.02906   3
   7   1   8 116.111 9.40958   6
  -7   1  -8 138.882 10.3409   2
   7   1   8 106.256 9.41797   7
   7   1   8 126.180 11.0027   3
  -7   1  -8 119.941 8.67903   5
   8  -1   8 156.522 12.1014   3
   8  -1   8 130.942 12.1382   7
  -8  -1  -8 151.027 10.5393   2
   8  -1   8 122.213 11.4026   6
  -8   1  -8 144.648 11.7637   2
  -8   1  -8 153.428 11.4315   5
   8   1   8 129.475 9.79021   6
   8   1   8 146.620 10.4590   7
   8   1   8 167.723 11.6426   3
   9  -1   8 2.13072 8.54955   6
   9  -1   8 0.28695 6.54769   7
  -9  -1  -8 -0.4496 7.24099   2
   9  -1   8 9.10145 6.71931   3
   9   1   8 -0.5367 7.77565   6
   9   1   8 4.26234 6.95582   3
   9   1   8 -0.6229 8.22346   7
  -9   1  -8 6.11847 8.19328   2
  10  -1   8 63.1659 11.8631   3
 -10  -1  -8 80.6279 10.4646   2
  10  -1   8 46.7754 9.69637   7
  10  -1   8 56.3968 9.32714   6
 -10   1  -8 67.4915 11.3416   2
  10   1   8 45.8696 8.26530   6
  10   1   8 38.8982 11.0341   7
  10   1   8 62.6636 10.0653   3
 -11  -2   8 0.63995 12.2649   1
 -11  -2   8 1.65138 8.69014   4
  11  -2  -8 5.04385 11.1979   6
 -11  -2   8 -4.3085 8.54371   8
  11   2  -8 0.87585 7.07478   3
 -11   2   8 0.24284 19.7658   1
  11   2  -8 19.1456 16.1697   6
  10  -2  -8 12.2136 9.49366   6
 -10  -2   8 23.7130 9.31330   1
 -10  -2   8 7.26559 5.68651   4
 -10  -2   8 14.6914 7.84728   8
 -10   2   8 8.68806 9.94540   1
  10   2  -8 12.9759 6.56828   3
  10   2  -8 10.7096 10.2548   6
  -9  -2   8 22.9947 5.53147   8
  -9  -2   8 38.5391 7.17748   1
   9  -2  -8 35.2414 7.04062   6
  -9  -2   8 33.3968 6.13620   4
  -9   2   8 34.5774 7.27712   1
   9   2  -8 36.2742 9.70962   6
  -9   2   8 27.0049 5.93133   8
   9   2  -8 47.8189 7.06787   3
  -9   2   8 22.8745 5.77078   4
  -8  -2   8 598.752 24.9894   8
   8  -2  -8 603.449 27.1821   6
  -8  -2   8 571.197 24.2539   4
  -8  -2   8 593.698 19.3456   1
  -8   2   8 624.012 25.7037   1
  -8   2   8 611.754 27.2387   8
   8   2  -8 610.827 21.1604   6
   8   2  -8 597.344 36.7032   3
  -8   2   8 627.732 25.5724   4
   7  -2  -8 247.220 9.17570   3
  -7  -2   8 287.656 12.8837   1
  -7  -2   8 298.264 13.7500   2
  -7  -2   8 284.289 11.5560   8
   7  -2  -8 301.950 11.9259   6
  -7  -2   8 288.752 12.8226   4
  -7  -2   8 267.308 12.2308   2
  -7  -2   8 291.984 16.4299   9
  -7   2   8 294.579 10.3727   8
  -7   2   8 299.430 12.5097   4
   7   2  -8 301.256 10.6384   5
   7   2  -8 322.598 12.5878   3
   7   2  -8 303.488 12.9692   6
  -7   2   8 298.114 13.5775   1
   6  -2  -8 88.4704 6.40061   6
  -6  -2   8 93.5248 6.42757   4
  -6  -2   8 83.5270 7.00533   8
  -6  -2   8 73.8043 2.68704   2
  -6  -2   8 84.6776 6.87290   1
   6  -2  -8 83.8041 3.59972   3
  -6  -2   8 92.5451 8.57815   5
  -6   2   8 79.0195 6.91600   1
   6   2  -8 86.3784 6.62735   3
   6   2  -8 79.2196 5.67062   5
  -6   2   8 86.6445 5.65615   4
  -5  -2   8 7.28091 3.07404   4
  -5  -2   8 9.06124 2.91767   5
   5  -2  -8 13.0756 3.88479   6
  -5  -2   8 3.98161 2.85247   8
   5  -2  -8 8.33735 3.60808   9
   5  -2  -8 11.2344 0.85618   3
   5  -2  -8 9.80875 0.85882   3
  -5  -2   8 16.2413 4.05702   1
   5   2  -8 7.57135 3.55401   3
  -5   2   8 7.43361 3.85499   4
   5   2  -8 10.5978 3.09077   5
  -5   2   8 8.86854 2.62593   9
  -5   2   8 11.9481 4.15830   1
   5   2  -8 3.48251 3.33992   1
  -5   2   8 7.92940 7.14130   2
  -4  -2   8 312.598 18.6750   5
   4  -2  -8 323.777 9.71303   6
   4  -2  -8 325.141 10.8807   9
  -4  -2   8 369.118 13.2047   8
  -4  -2   8 349.937 11.7906   1
  -4  -2   8 360.264 13.1230   4
  -4   2   8 371.209 12.3384   1
  -4   2   8 359.071 11.1187   4
  -4   2   8 325.043 26.0506   2
   4   2  -8 338.994 14.1474   1
   4   2  -8 368.412 10.9625   5
   4   2  -8 361.489 15.7921   3
  -4   2   8 346.370 24.7130   9
   3  -2  -8 308.968 14.1328   9
  -3  -2   8 298.831 11.5772   5
  -3  -2   8 312.538 12.9500   8
  -3  -2   8 316.993 10.4150   4
   3  -2  -8 301.990 14.5515   6
   3  -2  -8 300.081 11.8679   3
   3  -2  -8 317.079 10.7762   2
   3  -2  -8 299.070 17.5310   1
  -3  -2   8 312.709 9.63343   1
   3   2  -8 327.020 13.4945   4
  -3   2   8 335.188 12.8877   4
   3   2  -8 324.148 11.6862   9
  -3   2   8 318.272 11.5322   1
  -3   2   8 315.598 15.2379   9
  -3   2   8 324.502 11.6244   2
   3   2  -8 317.050 10.5446   5
   3   2  -8 301.702 11.9827   1
   3   2  -8 319.088 14.8247   2
  -3   2   8 303.586 12.6264   5
   2  -2  -8 346.058 18.5001   1
   2  -2  -8 343.699 11.3639   2
  -2  -2   8 343.831 12.4726   5
   2  -2  -8 358.763 12.9124   6
  -2  -2   8 366.950 11.3172   8
   2  -2  -8 349.838 14.2893   5
  -2  -2   8 348.622 9.98986   4
   2  -2  -8 351.251 19.2212   3
  -2  -2   8 357.185 9.43436   1
   2  -2  -8 359.040 14.6927   9
   2   2  -8 368.282 18.6223   2
  -2   2   8 351.250 10.5767   5
   2   2  -8 366.519 13.0423   1
   2   2  -8 377.944 13.6810   5
   2   2  -8 361.971 13.9665   7
  -2   2   8 362.612 16.5964   3
  -2   2   8 381.368 12.2809   1
   2   2  -8 371.637 10.7980   4
  -2   2   8 366.398 10.5934   2
  -2   2   8 368.475 9.53331   9
  -1  -2   8 1469.58 63.3737   1
   1  -2  -8 1486.25 36.0139   5
   1  -2  -8 1437.58 40.5953   2
   1  -2  -8 1435.57 65.5798   6
   1  -2  -8 1395.21 50.5687   3
  -1  -2   8 1550.77 38.8890   5
   1  -2  -8 1470.20 68.1736   1
   1  -2  -8 1530.26 66.1299   9
  -1  -2   8 1500.93 41.1904   4
   1   2  -8 1602.67 68.2062   7
  -1   2   8 1522.73 67.9557   1
  -1   2   8 1549.97 54.0211   2
  -1   2   8 1569.12 52.0677   9
   1   2  -8 1574.80 43.7470   5
   1   2  -8 1590.87 51.1392   2
   1   2  -8 1603.04 57.3127   1
   1   2  -8 1635.49 34.6410   4
  -1   2   8 1518.65 44.4127   5
  -1   2   8 1476.00 38.7685   3
   0  -2  -8 105.817 4.96069   9
   0  -2  -8 115.347 14.1297   3
   0  -2   8 113.626 5.29001   4
   0  -2  -8 116.580 5.93540   2
   0  -2   8 105.320 5.67075   7
   0  -2  -8 109.409 4.93046   5
   0  -2   8 123.277 6.63118   5
   0   2  -8 123.603 7.59436   7
   0   2   8 105.389 5.85350   2
   0   2  -8 108.083 5.70940   2
   0   2  -8 110.781 6.03693   4
   0   2  -8 113.201 7.26715   3
   0   2   8 105.973 6.40762   1
   0   2   8 121.051 5.04888   3
   0   2  -8 103.769 5.62019   6
   0   2  -8 112.495 6.30797   5
   0   2   8 98.3865 4.93546   5
   1  -2   8 1.52100 2.20475   6
   1  -2   8 6.66968 3.08102   5
  -1  -2  -8 1.22116 2.76179   3
   1  -2   8 3.97439 0.52342   1
  -1  -2  -8 2.24147 2.20192   5
   1  -2   8 3.00788 2.28128   7
   1  -2   8 3.14717 2.27078   4
  -1  -2  -8 2.62289 2.26319   2
  -1  -2  -8 3.17311 3.02171   9
  -1   2  -8 8.14283 3.06698   5
  -1   2  -8 2.35069 2.45908   7
  -1   2  -8 4.44293 2.24193   2
   1   2   8 3.95680 2.28479   3
  -1   2  -8 0.97389 3.42262   3
  -1   2  -8 4.82060 2.37560   6
   1   2   8 5.28907 2.38971   5
   1   2   8 5.00152 3.20125   2
  -2  -2  -8 581.237 21.9287   3
   2  -2   8 611.517 20.5397   7
   2  -2   8 575.853 14.2172   4
   2  -2   8 597.626 25.8599   6
  -2  -2  -8 552.747 18.6342   5
  -2  -2  -8 583.527 14.4722   2
  -2  -2  -8 583.522 14.3762   9
   2  -2   8 588.607 25.7859   5
   2  -2   8 576.041 18.8937   1
   2  -2   8 592.954 18.5810   3
   2   2   8 581.855 21.0610   5
  -2   2  -8 587.714 15.8859   5
   2   2   8 608.643 25.7732   8
  -2   2  -8 602.629 18.7619   2
  -2   2  -8 613.880 34.3466   7
   2   2   8 592.891 18.4694   3
   2   2   8 591.448 27.8583   6
   2   2   8 607.064 17.8996   7
   2   2   8 602.832 19.7637   2
  -2   2  -8 590.811 24.7129   6
  -2   2  -8 583.977 24.0314   3
   3  -2   8 4.20491 3.99018   7
   3  -2   8 -0.4340 2.59645   6
   3  -2   8 -0.4538 4.99571   5
   3  -2   8 3.28102 1.51546   4
   3  -2   8 1.03028 2.94473   3
  -3  -2  -8 1.41282 1.65070   5
  -3  -2  -8 2.26236 2.67685   2
   3  -2   8 1.58252 2.28570   1
   3   2   8 4.71668 3.25342   3
   3   2   8 2.21196 1.89389   6
  -3   2  -8 2.76328 2.88752   2
   3   2   8 1.53372 1.44284   7
  -3   2  -8 1.74048 3.00111   5
  -3   2  -8 -1.5718 7.85630   7
   3   2   8 0.89610 2.11507   5
  -3   2  -8 -0.4217 7.50545   6
   4  -2   8 267.885 11.2806   3
   4  -2   8 269.025 10.6925   1
   4  -2   8 265.302 10.6981   6
  -4  -2  -8 257.259 8.06476   5
   4  -2   8 280.661 8.73859   8
   4  -2   8 257.932 8.74825   4
  -4  -2  -8 264.050 9.77659   2
   4  -2   8 275.024 11.5886   7
  -4   2  -8 266.188 10.2480   1
   4   2   8 288.905 8.87719   7
  -4   2  -8 269.779 11.0473   5
  -4   2  -8 285.179 12.1266   2
   4   2   8 284.068 9.01222   6
   4   2   8 283.847 11.2381   3
   4   2   8 272.753 13.3278   5
   5  -2   8 430.576 14.3632   3
   5  -2   8 467.429 16.0959   8
  -5  -2  -8 434.654 15.9501   5
   5  -2   8 423.518 15.6544   6
   5  -2   8 430.990 14.2181   4
  -5  -2  -8 422.427 13.4831   2
   5  -2   8 450.459 19.9100   7
   5  -2   8 428.483 23.9887   1
   5  -2   8 474.232 17.2431   4
  -5   2  -8 430.413 14.7054   2
  -5   2  -8 428.701 12.6765   1
   5   2   8 476.175 19.7453   3
  -5   2  -8 478.817 19.5533   5
   5   2   8 446.733 15.2518   6
   6  -2   8 26.2216 5.39865   6
  -6  -2  -8 19.5260 1.78457   5
   6  -2   8 30.2187 5.77281   7
   6  -2   8 16.8573 2.46489   4
   6  -2   8 33.0762 6.88232   3
  -6  -2  -8 27.1201 4.89864   2
   6   2   8 28.3329 6.09978   3
  -6   2  -8 22.4104 5.22460   1
  -6   2  -8 36.1093 5.85910   2
   6   2   8 22.3346 5.22518   6
   7  -2   8 22.4752 6.19936   6
   7  -2   8 27.7676 8.35331   7
  -7  -2  -8 30.4135 5.50898   2
   7  -2   8 30.7244 6.15557   3
  -7   2  -8 35.7378 6.73031   2
  -7   2  -8 31.9735 5.96916   5
   7   2   8 26.9972 6.74687   3
   7   2   8 22.0317 5.19683   7
  -7   2  -8 17.7618 4.77938   1
   7   2   8 28.2724 5.31125   6
   8  -2   8 21.8557 6.57319   3
   8  -2   8 29.3911 7.46284   7
   8  -2   8 10.9221 6.52164   6
  -8  -2  -8 20.5521 5.88510   2
  -8   2  -8 24.6807 7.00917   2
   8   2   8 17.3440 5.85594   7
   8   2   8 19.3472 9.49779   3
  -8   2  -8 23.8452 7.91504   5
   8   2   8 13.2884 7.31527   6
   9  -2   8 96.4341 10.7031   6
  -9  -2  -8 101.615 9.35221   2
   9  -2   8 104.946 11.1269   7
   9  -2   8 121.477 12.1287   3
   9   2   8 86.8182 13.1882   3
   9   2   8 83.4717 11.0996   7
  -9   2  -8 116.951 10.7948   2
   9   2   8 84.7527 10.8531   6
 -10  -3   8 -3.0131 5.65654   8
  10  -3  -8 -6.0620 6.73744   7
 -10  -3   8 -3.1918 6.53512   1
  10  -3  -8 -4.6345 9.39419   6
 -10  -3   8 0.23288 5.83842   4
 -10   3   8 12.1586 18.8640   1
  10   3  -8 1.39714 7.30885   6
  10   3  -8 1.17575 6.80540   3
  -9  -3   8 5.87784 4.90956   8
  -9  -3   8 0.45157 4.73481   4
   9  -3  -8 3.81668 5.64068   6
  -9  -3   8 6.60137 5.64678   1
   9   3  -8 1.12505 6.15092   3
  -9   3   8 0.99659 5.98188   1
   9   3  -8 2.22408 6.37038   6
   8  -3  -8 -1.7296 4.65124   6
  -8  -3   8 -1.0012 4.08632   8
  -8  -3   8 2.15674 4.64891   1
  -8  -3   8 0.07643 4.26848   4
  -8   3   8 -0.7519 2.80011   4
  -8   3   8 1.99732 4.21904   8
   8   3  -8 3.31050 5.58630   3
   8   3  -8 -5.9831 7.67161   6
  -8   3   8 1.49472 7.50827   1
  -7  -3   8 4.16008 5.56192   8
  -7  -3   8 3.88107 3.97968   4
  -7  -3   8 6.16862 4.16875   1
   7  -3  -8 6.20690 5.69164   6
   7   3  -8 7.01846 6.99361   3
  -7   3   8 2.21782 2.91768   4
  -7   3   8 6.08220 6.90543   1
   7   3  -8 2.08029 4.03031   5
  -6  -3   8 19.0723 5.38787   5
  -6  -3   8 33.3048 7.65585   1
   6  -3  -8 30.6088 5.70436   6
  -6  -3   8 24.7843 5.66762   8
  -6  -3   8 26.4523 5.71761   4
   6   3  -8 23.3077 5.32288   3
   6   3  -8 20.7580 4.61505   5
  -6   3   8 31.7159 5.92266   1
  -6   3   8 22.2234 3.70684   4
  -5  -3   8 68.9149 27.9772   8
  -5  -3   8 76.1765 31.7995   4
  -5  -3   8 74.7860 6.29435   5
   5  -3  -8 71.5712 5.94835   6
   5  -3  -8 75.9239 5.50300   9
  -5  -3   8 83.8392 5.53512   1
   5   3  -8 69.1059 6.56579   3
  -5   3   8 69.6653 6.07011   4
   5   3  -8 78.4344 5.51727   5
  -5   3   8 68.5857 7.88303   1
  -4  -3   8 10.0868 3.22972   4
   4  -3  -8 6.02946 3.74831   9
  -4  -3   8 8.15446 4.46056   5
   4  -3  -8 12.7708 3.40612   6
  -4  -3   8 9.90421 3.26712   8
  -4  -3   8 9.22707 2.54296   1
  -4   3   8 8.99453 4.12363   1
   4   3  -8 4.96824 3.54559   1
   4   3  -8 9.81200 4.06850   5
   4   3  -8 8.87478 5.04078   3
  -4   3   8 11.6548 3.50656   4
  -4   3   8 7.28893 3.44470   6
  -3  -3   8 2181.74 68.2885   8
  -3  -3   8 2169.49 57.9071   4
   3  -3  -8 2193.08 72.0691   6
  -3  -3   8 2222.58 90.3349   5
   3  -3  -8 2162.58 65.8953   9
   3  -3  -8 2179.45 96.3163   7
  -3   3   8 2202.09 146.779   6
   3   3  -8 2304.20 96.9773   5
  -3   3   8 2290.36 101.210   1
   3   3  -8 2215.70 137.105   1
  -2  -3   8 285.396 9.77209   4
   2  -3  -8 263.156 9.26900   7
   2  -3  -8 256.413 13.5612   1
  -2  -3   8 274.956 8.99262   8
  -2  -3   8 287.973 15.3999   5
   2  -3  -8 265.340 14.2089   3
   2  -3  -8 269.258 7.77241   6
   2  -3  -8 263.286 8.87911   2
   2  -3  -8 262.606 8.55821   9
   2   3  -8 249.301 9.77072   5
  -2   3   8 271.457 9.99608   6
   2   3  -8 265.213 12.6503   4
  -2   3   8 273.498 10.4643   1
   2   3  -8 279.597 10.9334   1
   2   3  -8 261.532 13.9192   2
  -2   3   8 273.676 12.1053   2
  -2   3   8 271.315 15.0165   9
  -2   3   8 268.359 7.99496   3
  -2   3   8 269.732 11.2527   5
   2   3  -8 283.383 13.1866   7
   1  -3  -8 1268.09 36.2686   9
  -1  -3   8 1326.78 35.8026   4
  -1  -3   8 1377.99 50.0563   5
   1  -3  -8 1322.65 31.8966   3
   1  -3  -8 1324.71 28.4501   2
   1  -3  -8 1274.95 45.1194   7
  -1  -3   8 1342.29 46.5745   8
   1  -3  -8 1325.98 46.4031   6
   1   3  -8 1334.83 58.1684   2
   1   3  -8 1280.67 55.6644   1
  -1   3   8 1317.48 51.5567   5
  -1   3   8 1429.52 50.6505   9
  -1   3   8 1377.41 34.7215   3
   1   3  -8 1415.33 48.8995   4
   1   3  -8 1423.41 52.2773   7
  -1   3   8 1406.13 58.2680   2
  -1   3   8 1355.17 46.8153   1
   1   3  -8 1373.46 102.978   5
   0  -3  -8 -0.7037 2.09934   9
   0  -3  -8 -0.2898 2.37787   3
   0  -3   8 -1.3077 2.40145   7
   0  -3   8 -0.3417 1.70077   4
   0  -3   8 -2.4239 3.11222   5
   0  -3   8 -1.4317 1.60885   8
   0  -3  -8 -3.4728 3.05530   2
   0   3   8 1.93020 2.37674   2
   0   3   8 -0.4800 2.10183   9
   0   3  -8 2.00681 3.10192   5
   0   3   8 0.71734 2.61048   5
   0   3  -8 3.09856 2.35558   4
   0   3   8 -0.2057 1.77252   3
   0   3  -8 0.21934 2.36143   7
   0   3   8 -2.6384 2.87658   1
   0   3  -8 0.05358 2.34281   6
   1  -3   8 390.636 12.1205   4
  -1  -3  -8 424.402 11.6066   9
   1  -3   8 395.125 12.9891   8
   1  -3   8 435.716 17.2804   7
  -1  -3  -8 418.339 15.4703   2
  -1  -3  -8 401.131 15.2762   3
  -1   3  -8 432.806 17.9088   6
  -1   3  -8 426.663 24.3303   3
  -1   3  -8 444.318 15.0631   4
   1   3   8 426.713 13.0846   3
  -1   3  -8 424.310 13.6733   5
   1   3   8 425.871 19.8148   2
  -1   3  -8 447.567 15.8910   7
   1   3   8 428.972 11.0398   5
  -2  -3  -8 18.5727 3.56511   3
   2  -3   8 17.8942 1.75327   1
  -2  -3  -8 13.6713 3.14483   2
   2  -3   8 18.6898 2.29947   8
   2  -3   8 21.4929 2.32452   4
   2  -3   8 14.8409 4.77922   7
  -2  -3  -8 14.1413 2.95474   9
   2  -3   8 15.9596 4.59175   6
   2   3   8 17.0615 2.69824   5
  -2   3  -8 14.6864 1.55460   1
   2   3   8 17.6681 1.51418   6
  -2   3  -8 18.3586 4.20149   5
   2   3   8 21.3188 3.81908   3
   3  -3   8 725.784 21.3180   7
  -3  -3  -8 681.908 22.9000   9
  -3  -3  -8 665.810 17.0894   2
   3  -3   8 671.621 24.2194   1
   3  -3   8 679.692 35.1214   4
   3  -3   8 711.478 18.4988   6
   3  -3   8 663.053 26.2342   8
   3   3   8 715.519 25.1322   5
   3   3   8 719.735 29.1330   6
  -3   3  -8 687.649 24.4550   5
  -3   3  -8 677.156 25.5434   1
   3   3   8 717.240 21.4986   3
   4  -3   8 27.3586 4.86744   6
   4  -3   8 27.9073 1.77458   8
   4  -3   8 27.4369 5.83295   3
  -4  -3  -8 31.1871 4.95581   9
   4  -3   8 30.5211 2.44430   8
   4  -3   8 28.3908 1.83302   4
   4  -3   8 32.6283 4.30936   1
  -4  -3  -8 25.3073 4.04826   2
   4  -3   8 27.5329 4.95681   7
  -4   3  -8 23.6816 2.91147   1
   4   3   8 24.8502 3.35403   6
  -4   3  -8 31.2991 5.41702   5
   4   3   8 22.8078 2.25044   5
   4   3   8 29.6863 5.32224   3
  -5  -3  -8 -0.6762 3.09237   9
   5  -3   8 7.60082 4.64918   1
  -5  -3  -8 1.00449 3.32072   2
   5  -3   8 -0.4151 4.25643   7
   5  -3   8 -2.8110 3.71356   3
   5  -3   8 -0.0811 3.85660   6
  -5   3  -8 -1.5371 6.01740   5
   5   3   8 -2.2677 6.20904   3
   5   3   8 1.42294 3.31051   6
  -5   3  -8 -0.3721 3.46694   1
   6  -3   8 38.8699 7.78401   6
  -6  -3  -8 35.4304 5.43464   2
   6  -3   8 34.9633 5.91203   3
   6  -3   8 34.4207 6.63479   7
   6   3   8 24.3139 5.21419   6
  -6   3  -8 33.3216 7.94459   5
   6   3   8 38.0334 8.49185   3
  -6   3  -8 22.3218 5.31841   1
  -7  -3  -8 198.018 10.8959   2
   7  -3   8 193.706 11.8954   6
   7  -3   8 184.748 12.3573   7
   7  -3   8 200.251 12.1633   3
  -7   3  -8 203.424 13.8057   5
   7   3   8 180.488 10.4506   6
   7   3   8 182.006 12.4106   3
  -7   3  -8 204.887 13.3438   2
  -7   3  -8 190.075 10.7714   1
   8  -3   8 1.53419 8.88166   7
   8  -3   8 3.55662 6.60342   3
  -8  -3  -8 9.61672 5.81054   2
   8  -3   8 1.30395 6.12624   6
  -8   3  -8 1.22651 8.54317   2
  -8   3  -8 -0.8914 6.55719   1
  -8   3  -8 0.18306 5.72832   5
   8   3   8 0.84489 6.56849   6
   8   3   8 0.30861 9.33179   3
  -9  -3  -8 55.6273 7.67688   2
   9  -3   8 35.3184 8.95414   6
   9  -3   8 53.2033 8.43084   3
   9  -3   8 48.5227 9.30102   7
   9   3   8 46.9300 12.0336   3
  -9   3  -8 63.8212 9.77010   2
  -9   3  -8 76.4205 9.62001   5
  10  -4  -8 167.672 14.9505   7
 -10  -4   8 162.997 12.2908   8
  10  -4  -8 151.836 14.9880   6
 -10  -4   8 159.213 14.1818   4
 -10   4   8 199.300 25.3559   1
  10   4  -8 193.686 16.4542   3
  10   4  -8 189.876 14.8742   6
   9  -4  -8 4.03116 8.69123   6
  -9  -4   8 6.15524 5.73796   8
  -9  -4   8 -1.7293 5.33165   4
   9  -4  -8 -0.8815 8.54615   7
   9   4  -8 -3.9247 6.90328   3
  -9   4   8 -5.6562 6.51853   1
   9   4  -8 5.27885 9.92765   6
   8  -4  -8 185.263 12.5484   7
   8  -4  -8 188.510 11.0727   6
  -8  -4   8 172.423 10.5407   4
  -8   4   8 173.434 13.4926   1
   8   4  -8 192.061 12.6293   3
  -7  -4   8 -0.1448 3.88748   8
   7  -4  -8 -0.1931 6.05713   7
   7  -4  -8 3.67226 4.34964   6
  -7  -4   8 7.04051 4.48563   4
  -7   4   8 4.42015 4.14898   4
   7   4  -8 -0.0479 5.47883   3
  -7   4   8 2.24075 7.57361   1
   7   4  -8 1.52471 4.06964   5
  -6  -4   8 5.23186 5.27356   8
   6  -4  -8 0.54411 3.53026   7
   6  -4  -8 -3.0420 4.99186   6
  -6  -4   8 -0.5451 3.52513   4
  -6   4   8 1.56584 4.79150   1
   6   4  -8 -0.2759 2.76478   5
  -6   4   8 1.71605 3.95671   4
   6   4  -8 -6.6278 6.99261   3
  -5  -4   8 1.68897 3.49164   8
  -5  -4   8 2.78471 3.50523   4
   5  -4  -8 0.53825 3.41293   9
   5  -4  -8 3.35626 4.43285   7
   5  -4  -8 1.07924 4.13531   6
  -5   4   8 -2.2504 2.94503   4
   5   4  -8 -4.0300 4.03772   5
   5   4  -8 3.19432 4.61108   3
  -5   4   8 1.02591 6.33608   1
   4  -4  -8 44.2807 4.91286   7
  -4  -4   8 40.4919 4.83167   4
  -4  -4   8 42.6912 4.86407   8
   4  -4  -8 45.6163 4.70226   6
   4  -4  -8 35.8047 5.43807   9
   4   4  -8 25.3398 4.70074   1
  -4   4   8 36.1017 7.40383   1
   4   4  -8 34.4589 4.57669   5
  -4   4   8 36.6633 5.06302   6
  -4   4   8 38.1802 5.77862   4
   4   4  -8 35.2980 5.82896   3
  -3  -4   8 1.51036 2.75611   8
   3  -4  -8 1.04624 1.94700   7
   3  -4  -8 4.00062 3.80196   9
  -3  -4   8 9.24973 4.13047   4
   3  -4  -8 5.37568 2.80387   6
   3   4  -8 1.53628 0.78574   2
   3   4  -8 1.23821 0.73501   9
   3   4  -8 0.12185 1.95367   1
   3   4  -8 0.21345 0.97059   2
  -3   4   8 3.99585 2.90677   6
   3   4  -8 0.60986 3.12526   5
  -3   4   8 1.67856 3.97464   1
   2  -4  -8 87.0460 4.04304   6
   2  -4  -8 93.7102 4.75631   7
   2  -4  -8 97.0285 5.00648   3
   2  -4  -8 94.0184 6.53519   2
  -2  -4   8 103.151 5.87435   8
   2  -4  -8 96.7704 6.63214   9
  -2  -4   8 93.2571 5.61067   4
   2   4  -8 84.5829 6.42233   5
   2   4  -8 93.7749 4.97115   9
  -2   4   8 99.0226 7.20830   1
   2   4  -8 90.1343 4.07830   1
  -2   4   8 93.9565 3.76347   3
  -2   4   8 95.1109 5.05029   6
   1  -4  -8 2203.91 99.0404   9
  -1  -4   8 2253.51 74.8581   8
   1  -4  -8 2243.57 63.9288   3
   1  -4  -8 2023.87 72.6012   2
   1  -4  -8 2116.50 128.337   7
  -1  -4   8 2191.36 55.1404   4
   1   4  -8 2250.88 81.5573   9
  -1   4   8 2379.93 68.1710   3
   1   4  -8 2188.23 75.1884   1
   1   4  -8 2445.17 102.067   4
  -1   4   8 2266.70 64.9298   1
   1   4  -8 2251.05 120.048   1
   1   4  -8 2343.16 68.3326   5
  -1   4   8 2375.00 83.0658   6
  -1   4   8 2397.89 132.437   5
   0  -4  -8 737.198 18.5843   3
   0  -4  -8 754.479 34.9616   2
   0  -4  -8 742.715 18.9166   9
   0  -4   8 755.520 26.4661   4
   0  -4   8 713.683 26.7698   8
   0  -4   8 729.028 21.4137   7
   0   4   8 735.078 20.8545   5
   0   4   8 750.088 26.7665   1
   0   4   8 775.478 23.6733   3
   0   4  -8 724.965 35.6912   1
   0   4  -8 786.389 22.7973   5
   0   4  -8 785.785 21.0183   1
   0   4   8 750.603 19.8046   6
   0   4  -8 787.215 26.4101   4
  -1  -4  -8 15.3598 4.25490   3
   1  -4   8 8.38470 2.62581   4
   1  -4   8 9.62044 2.66670   8
   1  -4   8 9.09842 4.69797   7
  -1  -4  -8 4.80579 2.88116   2
  -1  -4  -8 4.58228 2.68408   9
   1   4   8 8.38439 0.83670   6
   1   4   8 9.88868 3.12900   3
   1   4   8 7.43351 0.88075   6
   1   4   8 5.37432 2.85087   5
  -1   4  -8 7.86772 1.07349   1
  -1   4  -8 11.7245 3.60910   4
  -1   4  -8 17.8046 5.90072   5
   1   4   8 8.25919 0.88970   7
   1   4   8 11.0692 4.32776   1
  -2  -4  -8 503.539 17.3511   9
   2  -4   8 540.502 16.1560   6
  -2  -4  -8 503.087 17.5727   2
   2  -4   8 491.868 15.2515   8
   2  -4   8 489.881 19.7082   4
   2  -4   8 541.387 16.7369   7
   2  -4   8 494.371 17.7757   1
  -2   4  -8 522.503 22.0584   4
  -2   4  -8 498.984 22.7660   1
  -2   4  -8 532.826 31.4457   5
   2   4   8 520.369 26.1573   6
   2   4   8 518.976 17.4288   6
   2   4   8 529.641 18.3047   5
   2   4   8 525.872 23.4897   7
   2   4   8 532.142 15.7995   3
   3  -4   8 1.47368 3.70254   6
   3  -4   8 0.55858 1.62914   8
   3  -4   8 0.07602 1.61370   4
   3  -4   8 -0.0819 5.27841   7
  -3  -4  -8 1.93332 2.99937   2
   3  -4   8 -2.3215 2.22796   1
  -3  -4  -8 1.87616 3.76782   9
   3   4   8 -0.9643 1.69363   6
   3   4   8 3.55350 3.77509   3
  -3   4  -8 -0.2514 1.92211   1
  -3   4  -8 -1.1127 4.15692   5
   3   4   8 -0.0412 1.75726   5
   3   4   8 -0.1574 1.59149   7
  -4  -4  -8 59.0572 5.40521   2
   4  -4   8 54.9663 7.54595   6
   4  -4   8 50.2905 4.40848   1
  -4  -4  -8 52.3630 5.88432   9
   4  -4   8 52.1421 6.59615   7
   4   4   8 53.1253 6.54225   3
  -4   4  -8 63.0879 7.37763   5
   4   4   8 51.0274 3.59513   6
  -4   4  -8 43.8010 4.11133   1
  -5  -4  -8 4.69702 4.79824   9
  -5  -4  -8 0.57164 4.92963   2
   5  -4   8 3.85332 6.55483   6
   5  -4   8 2.10689 4.63176   7
  -5   4  -8 2.62378 3.47973   1
   5   4   8 5.53528 6.92062   3
  -5   4  -8 1.67667 5.21442   5
   5   4   8 -0.3768 3.21179   6
   6  -4   8 49.3940 7.38620   6
  -6  -4  -8 41.8216 6.91484   2
  -6  -4  -8 55.9624 6.77685   9
   6  -4   8 42.5445 9.26100   7
   6   4   8 43.5436 9.66735   3
  -6   4  -8 47.3917 9.65079   5
   6   4   8 31.5209 4.57014   6
  -6   4  -8 38.6701 4.96454   1
   7  -4   8 0.35922 5.66293   6
   7  -4   8 2.61984 8.89969   7
  -7  -4  -8 -3.2254 6.19863   2
  -7  -4  -8 0.03529 3.90162   9
  -7   4  -8 2.36534 5.75946   1
   7   4   8 -2.8093 9.00156   3
  -7   4  -8 -0.8996 6.04728   5
  -8  -4  -8 213.706 12.2337   2
   8  -4   8 198.099 14.3433   7
  -8  -4  -8 212.930 11.6339   9
   8  -4   8 179.276 14.5306   6
   8  -4   8 205.010 12.0952   3
  -8   4  -8 170.619 13.7492   2
   8   4   8 178.878 13.7769   3
  -8   4  -8 198.650 15.2705   5
   9  -4   8 17.0190 8.20076   6
  -9  -4  -8 23.6877 7.70312   9
   9  -4   8 6.26465 13.2867   7
  -9  -4  -8 13.4087 6.41526   2
   9  -4   8 22.0595 7.26650   3
  -9   4  -8 17.0073 8.13599   5
   9   4   8 11.0468 9.31274   3
  -9   4  -8 10.4614 8.56651   2
   9  -5  -8 -5.1241 6.19535   6
   9  -5  -8 -0.4536 6.76276   7
  -9  -5   8 0.73396 6.22043   4
  -9  -5   8 5.04581 6.35620   8
   9   5  -8 7.11304 11.5924   3
  -9   5   8 2.94631 7.32510   1
   9   5  -8 -0.9336 7.44337   6
  -8  -5   8 7.88659 9.55821   8
   8  -5  -8 8.99907 8.32943   7
   8  -5  -8 12.1580 5.87369   6
  -8   5   8 8.41581 6.96375   1
   7  -5  -8 192.672 11.1019   7
   7  -5  -8 179.149 11.5303   6
  -7  -5   8 185.753 10.6896   4
  -7   5   8 186.740 12.6040   1
   7   5  -8 190.544 13.7908   3
   6  -5  -8 8.70546 6.00814   7
   6  -5  -8 7.95841 5.65775   6
  -6  -5   8 11.3910 4.72444   8
  -6  -5   8 13.1128 4.76554   4
  -6   5   8 5.65526 3.58143   4
  -6   5   8 12.4695 6.25777   1
   6   5  -8 7.97270 3.53499   5
   6   5  -8 17.4099 8.90151   3
   5  -5  -8 54.8508 5.38128   6
  -5  -5   8 56.3637 6.14063   4
   5  -5  -8 60.7615 6.77347   7
  -5  -5   8 52.1048 5.97316   8
   5  -5  -8 59.2198 6.25351   9
  -5   5   8 34.2800 6.03525   4
  -5   5   8 44.9042 7.36740   1
   5   5  -8 42.3222 9.36543   3
   5   5  -8 34.8559 6.00568   5
   4  -5  -8 21.4674 4.44948   6
   4  -5  -8 24.9544 3.85164   7
  -4  -5   8 17.2004 5.33450   8
   4  -5  -8 14.3007 5.63003   9
  -4  -5   8 20.4418 4.42319   4
  -4   5   8 22.3416 5.81402   1
   4   5  -8 19.4168 5.58491   5
   4   5  -8 12.6479 4.92956   1
   4   5  -8 20.5543 8.08945   3
   3  -5  -8 58.3208 4.74516   6
  -3  -5   8 54.6302 6.10155   4
   3  -5  -8 50.7141 5.23527   9
  -3  -5   8 67.3295 5.63308   8
   3  -5  -8 60.4327 4.52450   7
   3   5  -8 57.7048 3.35173   2
   3   5  -8 50.4991 5.87687   5
   3   5  -8 63.5498 5.61118   1
  -3   5   8 58.9190 2.54911   3
   3   5  -8 59.0732 7.24659   3
   3   5  -8 53.4875 3.57705   9
  -3   5   8 58.6103 5.77477   6
  -3   5   8 58.2929 7.34184   1
   2  -5  -8 273.828 8.34686   7
  -2  -5   8 263.812 11.0310   8
  -2  -5   8 245.247 11.1226   4
   2  -5  -8 251.566 13.5590   9
   2  -5  -8 263.707 7.74273   6
   2   5  -8 252.949 8.23056   9
  -2   5   8 260.733 9.03373   3
  -2   5   8 262.022 12.0352   1
  -2   5   8 261.831 10.9115   6
   2   5  -8 277.348 24.2614   5
   2   5  -8 249.133 9.07557   2
   2   5  -8 249.255 10.7222   1
   1  -5  -8 315.128 18.1204   7
   1  -5  -8 307.751 12.2917   9
  -1  -5   8 306.212 12.2419   4
  -1  -5   8 312.539 12.6610   8
   1  -5  -8 289.316 11.7412   2
   1  -5  -8 314.103 13.2725   3
   1   5  -8 300.377 11.4518   9
  -1   5   8 327.862 15.4134   3
  -1   5   8 320.136 14.0001   6
  -1   5   8 333.028 16.7368   1
   1   5  -8 309.385 12.4990   1
   1   5  -8 312.295 19.4588   5
   1   5  -8 304.231 13.2352   1
   0  -5  -8 227.510 10.4709   3
   0  -5  -8 221.116 9.23340   2
   0  -5   8 239.906 10.5624   7
   0  -5  -8 212.000 8.73850   9
   0  -5   8 224.578 10.6252   4
   0  -5   8 228.963 11.7099   8
   0   5   8 208.156 12.2033   5
   0   5   8 220.403 10.3087   3
   0   5  -8 226.793 10.5867   1
   0   5  -8 190.413 9.38469   9
   0   5   8 217.863 8.96935   6
   0   5  -8 215.894 13.6423   4
   0   5   8 202.620 11.7643   1
   0   5  -8 204.504 10.8072   5
  -1  -5  -8 67.5344 5.59129   2
   1  -5   8 54.9670 6.16824   7
   1  -5   8 70.0970 4.70644   8
   1  -5   8 74.6634 4.77624   4
  -1  -5  -8 75.8255 5.57142   9
   1   5   8 64.3580 8.72563   1
   1   5   8 60.1110 6.41858   3
   1   5   8 67.8910 3.70901   7
   1   5   8 65.5515 4.80584   5
   1   5   8 68.2533 3.38410   6
  -1   5  -8 69.9345 3.48113   1
  -1   5  -8 57.7114 8.29317   5
  -1   5  -8 67.4102 5.04746   4
   2  -5   8 8.35383 1.94780   4
  -2  -5  -8 1.68834 3.18990   2
   2  -5   8 10.8230 7.61517   7
   2  -5   8 11.5665 2.65821   8
  -2  -5  -8 6.58074 3.30040   9
  -2   5  -8 15.9573 6.15066   5
   2   5   8 10.3794 4.17027   3
   2   5   8 5.36337 2.23382   5
   2   5   8 4.46889 1.83979   7
   2   5   8 3.75019 1.64461   6
  -2   5  -8 4.68165 3.60091   4
   2   5   8 6.21273 1.78536   6
  -2   5  -8 2.66245 1.96786   1
   3  -5   8 595.867 33.7083   8
   3  -5   8 613.652 19.3262   6
  -3  -5  -8 639.806 23.8281   2
  -3  -5  -8 610.427 17.3065   9
   3  -5   8 639.272 20.8034   7
   3  -5   8 636.772 23.4878   1
   3   5   8 673.545 47.5074   6
  -3   5  -8 662.737 27.4682   5
  -3   5  -8 625.465 33.1835   1
   3   5   8 666.923 22.1700   3
  -4  -5  -8 5.47827 5.01571   2
  -4  -5  -8 -1.5774 3.17967   9
   4  -5   8 -1.0074 4.65470   6
   4  -5   8 1.39957 4.80689   7
   4   5   8 -0.6623 1.95967   6
  -4   5  -8 -0.7276 5.36821   5
   4   5   8 -0.7149 4.56494   3
  -4   5  -8 -1.9514 2.92426   1
  -5  -5  -8 -0.7487 3.64755   2
   5  -5   8 -0.6403 5.28196   7
  -5  -5  -8 -1.7187 4.73106   9
   5  -5   8 5.80893 5.40887   6
   5   5   8 2.18008 5.58269   3
  -5   5  -8 -2.6664 3.71825   1
  -5   5  -8 -1.6548 8.59591   5
   6  -5   8 5.17114 8.29894   6
   6  -5   8 5.35571 6.49470   7
  -6  -5  -8 9.08259 7.90838   9
  -6  -5  -8 8.50944 7.42598   2
  -6   5  -8 15.0442 9.89237   5
   6   5   8 4.10882 6.47750   3
   7  -5   8 223.395 15.7267   6
   7  -5   8 248.116 15.2183   7
  -7  -5  -8 247.565 13.4805   9
  -7  -5  -8 223.249 14.5065   2
  -7   5  -8 269.036 18.9936   5
   7   5   8 251.075 16.1362   3
   8  -5   8 -2.3623 7.86175   7
  -8  -5  -8 1.22898 7.39380   2
   8  -5   8 1.79593 8.29611   6
  -8  -5  -8 1.87443 5.48712   9
   8   5   8 -1.3312 11.2904   3
  -8   5  -8 6.71247 8.11289   5
  -8  -6   8 251.887 18.1772   4
   8  -6  -8 266.908 19.6995   7
   8  -6  -8 247.314 19.5316   6
  -8  -6   8 247.872 17.6110   8
  -8   6   8 248.382 15.9871   1
  -7  -6   8 50.0196 7.72008   8
   7  -6  -8 61.3290 7.73271   7
   7  -6  -8 64.4482 7.53767   6
  -7  -6   8 48.5225 9.27886   4
  -7   6   8 63.8646 9.91142   1
   7   6  -8 56.8812 10.3617   3
   6  -6  -8 6.97924 6.63976   7
  -6  -6   8 8.86770 5.44364   4
   6  -6  -8 10.0542 4.75262   6
  -6  -6   8 4.56494 5.19216   8
   6   6  -8 9.24625 7.52365   3
  -6   6   8 6.19852 6.58212   1
  -5  -6   8 2.77078 4.40425   8
   5  -6  -8 3.16966 5.54224   7
  -5  -6   8 4.00766 4.31565   4
   5  -6  -8 -2.9530 4.71929   9
   5  -6  -8 2.04803 3.62683   6
   5   6  -8 0.69396 5.17967   5
  -5   6   8 3.19480 5.31519   4
  -5   6   8 5.31456 8.17153   1
   5   6  -8 -0.3515 9.16006   3
  -4  -6   8 627.408 22.8917   8
   4  -6  -8 620.851 26.1359   9
   4  -6  -8 628.845 35.2005   7
  -4  -6   8 680.461 24.4088   4
   4  -6  -8 630.521 38.2244   6
  -4   6   8 660.059 30.0440   1
   4   6  -8 663.579 47.8249   5
   4   6  -8 636.872 26.8333   3
   3  -6  -8 92.5617 6.60375   7
  -3  -6   8 78.8798 7.71057   8
   3  -6  -8 77.5500 6.81856   9
   3  -6  -8 79.2658 6.07165   6
  -3  -6   8 76.6746 6.57325   4
  -3   6   8 66.7264 8.57256   1
   3   6  -8 71.9245 8.47781   5
   3   6  -8 83.6567 10.7133   3
   2  -6  -8 -1.8332 3.63651   9
   2  -6  -8 -1.3357 3.12622   7
  -2  -6   8 2.05502 4.67245   8
  -2  -6   8 -1.4391 4.55673   4
  -2   6   8 -3.4141 2.55901   3
   2   6  -8 -0.3462 3.60474   1
   2   6  -8 -1.0224 4.18323   5
  -2   6   8 -2.7675 5.03397   1
   1  -6  -8 794.746 24.5612   7
  -1  -6   8 762.920 28.5438   8
   1  -6  -8 728.407 26.2845   9
  -1  -6   8 742.014 30.4463   4
   1   6  -8 745.800 25.8474   5
   1   6  -8 714.869 27.8801   9
  -1   6   8 779.235 31.3624   1
   1   6  -8 794.721 43.3621   1
  -1   6   8 755.196 40.4078   3
   0  -6  -8 202.091 9.29838   9
   0  -6   8 220.927 9.36535   4
   0  -6   8 204.802 8.35644   8
   0  -6   8 209.010 15.9622   7
   0  -6  -8 221.282 11.3734   2
   0   6   8 192.445 12.7595   1
   0   6  -8 207.587 7.72915   1
   0   6   8 206.875 11.7367   3
   0   6  -8 218.951 12.0749   5
  -1  -6  -8 42.7507 6.04465   9
   1  -6   8 49.5102 8.10890   7
  -1  -6  -8 41.8643 6.31590   2
   1  -6   8 46.9972 4.76911   8
   1  -6   8 37.9548 4.50551   4
  -1   6  -8 34.3329 8.73263   5
  -1   6  -8 30.9426 3.70330   1
   1   6   8 35.8432 6.35429   3
   1   6   8 41.5538 7.31622   1
  -2  -6  -8 24.4488 4.64120   9
   2  -6   8 16.6380 7.33172   7
   2  -6   8 13.9205 3.21668   8
  -2  -6  -8 19.1552 4.52693   2
   2   6   8 18.8122 6.52574   1
   2   6   8 14.6777 6.37292   3
  -2   6  -8 11.9965 6.47113   5
   3  -6   8 -1.2587 3.15303   8
   3  -6   8 -3.7865 4.92133   7
  -3  -6  -8 -0.5128 3.52472   9
   3  -6   8 0.44490 4.72962   6
  -3  -6  -8 4.55413 4.04432   2
  -3   6  -8 1.74891 6.00392   5
   3   6   8 0.18563 6.94071   3
  -4  -6  -8 38.2520 5.19129   9
   4  -6   8 35.8380 6.80122   6
   4  -6   8 36.6884 9.00758   7
  -4  -6  -8 35.6878 5.35582   2
   4   6   8 27.9923 6.90299   3
  -4   6  -8 32.6617 8.02626   5
  -5  -6  -8 96.9491 8.51380   9
   5  -6   8 98.5813 11.6105   6
   5  -6   8 82.5026 11.6752   7
  -5  -6  -8 107.292 9.08997   2
  -5   6  -8 95.3331 13.3790   5
   5   6   8 81.9791 9.73356   3
   6  -6   8 25.2890 7.89166   6
  -6  -6  -8 41.3260 7.29852   9
   6  -6   8 29.8370 8.42628   7
  -6  -6  -8 44.3989 7.77641   2
   6   6   8 37.8429 8.96416   3
  -6   6  -8 45.0949 12.5915   5
   7  -6   8 0.72416 7.58204   6
  -7  -6  -8 -0.2883 7.03819   2
  -7  -6  -8 -7.4494 6.73220   9
   7  -6   8 6.79402 7.83768   7
   7   6   8 1.91677 8.05512   3
  -7   6  -8 1.52677 11.6194   5
  -7  -7   8 19.3936 6.75575   8
   7  -7  -8 12.6871 7.23253   7
  -7  -7   8 18.1430 6.73114   4
   7  -7  -8 23.5094 6.69816   6
  -7   7   8 7.16143 11.5088   1
   7   7  -8 18.1341 13.4009   3
   6  -7  -8 29.7389 8.16059   6
  -6  -7   8 21.5408 6.60561   4
   6  -7  -8 23.8203 6.27630   7
  -6   7   8 16.7451 8.19751   1
   6   7  -8 12.1396 8.73528   3
   5  -7  -8 154.344 11.9335   6
  -5  -7   8 145.649 10.1181   4
   5  -7  -8 139.974 9.86944   7
  -5  -7   8 150.786 10.2351   8
  -5   7   8 132.565 12.2945   1
   5   7  -8 132.498 15.1948   3
   4  -7  -8 10.4743 4.39956   6
   4  -7  -8 14.2494 4.65261   7
   4  -7  -8 11.0184 5.48420   9
  -4  -7   8 19.2646 7.08237   4
  -4  -7   8 18.3077 5.46913   8
   4   7  -8 4.27645 6.85033   5
  -4   7   8 2.61279 9.78639   1
   4   7  -8 13.6660 7.84220   3
  -3  -7   8 181.581 11.3364   8
   3  -7  -8 198.706 11.8259   6
   3  -7  -8 183.119 12.5812   7
  -3  -7   8 192.016 11.0525   4
   3  -7  -8 187.843 11.3154   9
   3   7  -8 185.248 47.2883   5
   3   7  -8 167.179 13.0112   3
  -3   7   8 180.109 12.7157   1
   2  -7  -8 25.5984 4.92518   7
   2  -7  -8 20.9528 5.39251   9
  -2  -7   8 22.2011 5.01093   8
  -2  -7   8 27.4059 5.09485   4
   2   7  -8 31.6982 9.76271   3
  -2   7   8 17.7555 9.12259   1
   2   7  -8 16.8523 7.98857   5
  -1  -7   8 210.022 9.46609   8
  -1  -7   8 205.900 10.0630   4
   1  -7  -8 208.447 13.2258   7
   1  -7  -8 190.154 10.8583   9
   1   7  -8 159.051 13.8238   5
  -1   7   8 213.622 13.1248   1
  -1   7   8 192.342 14.1492   3
   0  -7   8 271.985 12.3617   8
   0  -7   8 283.351 13.5598   4
   0  -7   8 269.278 17.9440   7
   0  -7  -8 255.250 12.5256   9
   0   7   8 232.459 13.1415   3
   0   7  -8 256.689 14.9250   5
   0   7   8 266.928 14.4560   1
   1  -7   8 128.518 10.0261   7
   1  -7   8 134.845 7.72326   8
  -1  -7  -8 136.163 9.23301   9
  -1  -7  -8 144.817 9.83136   2
  -1   7  -8 106.077 12.8429   5
   1   7   8 128.209 11.4311   1
   1   7   8 124.349 9.71992   3
   2  -7   8 2.71705 5.58670   7
  -2  -7  -8 -2.8047 5.30637   9
   2  -7   8 1.28523 2.41039   8
  -2  -7  -8 -0.6699 5.75641   2
  -2   7  -8 -4.7114 6.69865   5
   2   7   8 5.75346 6.58123   1
   2   7   8 -0.4436 4.71855   3
  -3  -7  -8 89.3231 8.67489   2
   3  -7   8 79.2528 9.12492   7
  -3  -7  -8 81.9589 8.03225   9
  -3   7  -8 67.4898 10.1686   5
   3   7   8 76.9116 10.2533   3
   3   7   8 91.3301 12.5654   1
   4  -7   8 0.63033 6.52866   7
  -4  -7  -8 1.95135 4.63520   2
   4  -7   8 0.68025 6.35157   6
  -4  -7  -8 4.39891 4.64898   9
   4   7   8 -1.4399 9.26850   3
  -4   7  -8 1.94438 10.9437   5
  -5  -7  -8 15.2188 7.15050   9
   5  -7   8 17.1917 7.49439   6
   5  -7   8 18.0460 7.74254   7
  -5  -7  -8 14.9130 7.34441   2
   5   7   8 2.18278 10.6193   3
  -5   7  -8 15.1859 8.86553   5
   6  -7   8 3.56475 10.5580   7
  -6  -7  -8 0.53742 7.35748   9
   6  -7   8 4.23590 9.96276   6
  -6  -7  -8 6.21603 7.46400   2
   6   7   8 3.98973 11.0802   3
  -6   7  -8 9.44852 9.04769   5
  -6  -8   8 17.0681 7.27060   8
   6   8  -8 6.70635 10.5173   3
  -6   8   8 12.3179 9.32852   1
  -5  -8   8 11.4319 6.87955   4
  -5  -8   8 23.6300 9.47720   8
   5   8  -8 21.6276 14.0049   3
  -5   8   8 8.22429 8.38668   1
  -4  -8   8 133.417 10.2951   4
   4  -8  -8 138.760 11.0836   9
  -4   8   8 133.407 12.9134   1
   4   8  -8 138.285 13.9914   3
   3  -8  -8 0.90929 5.23273   9
  -3  -8   8 -0.7200 5.10341   8
  -3  -8   8 1.37302 5.22605   4
  -3   8   8 -1.9395 10.2052   1
   3   8  -8 -4.8094 7.97768   5
   3   8  -8 0.33842 7.73584   3
   2  -8  -8 5.07944 5.38211   9
  -2  -8   8 9.81322 7.16645   8
  -2   8   8 -1.3096 9.81409   1
   2   8  -8 13.2767 8.74588   5
   2   8  -8 1.59853 10.9283   3
   1  -8  -8 16.5842 7.75207   9
  -1  -8   8 26.7471 6.90936   8
   1   8  -8 23.3613 8.07588   5
   1   8  -8 7.81360 10.3609   3
  -1   8   8 13.4119 8.06350   1
   0  -8  -8 211.618 11.8053   9
   0  -8   8 186.562 11.7459   8
   0  -8   8 165.488 12.8460   7
   0   8  -8 145.116 13.4190   5
   0   8   8 199.937 13.9827   1
   1  -8   8 37.7780 10.1800   7
  -1  -8  -8 51.7444 8.09759   9
  -1   8  -8 31.8834 9.04847   5
   1   8   8 44.3748 11.8643   1
   1   8   8 34.2563 8.50909   3
  -2  -8  -8 42.2358 6.44052   9
   2  -8   8 33.5201 8.27817   7
  -2  -8  -8 47.3155 8.49151   2
   2   8   8 31.2731 7.23934   3
   2   8   8 26.3584 9.18548   1
  -2   8  -8 23.8974 9.49426   5
  -3  -8  -8 32.4530 6.31842   9
  -3  -8  -8 32.9964 6.66266   2
   3  -8   8 23.1910 8.46803   7
   3   8   8 26.8586 10.4420   3
   3   8   8 24.4434 13.0166   1
  -3   8  -8 18.7726 9.80859   5
  -4  -8  -8 116.023 11.7573   9
   4  -8   8 87.9772 11.3928   7
   4   8   8 88.2859 13.7730   3
  -4   8  -8 89.6844 13.2743   5
   4   8   8 84.0449 15.4253   1
   5  -8   8 1.13733 7.77857   7
  -5  -8  -8 -2.7446 7.04895   9
  -5  -8  -8 3.12816 7.52296   2
  -5   8  -8 -0.4675 8.83021   5
   5   8   8 3.66385 11.6624   3
  -4   9   8 25.4087 13.2703   1
  -3  -9   8 10.4949 6.06327   8
   3  -9  -8 10.0742 6.17606   9
  -3   9   8 9.66093 11.8116   1
   3   9  -8 -15.311 13.1394   3
  -2  -9   8 -3.3658 7.35441   8
   2  -9  -8 4.78917 5.71290   9
   2   9  -8 3.42451 10.0686   5
   2   9  -8 -0.3223 12.0786   3
  -2   9   8 -2.6700 11.7956   1
  -1  -9   8 44.4563 7.92666   8
   1  -9  -8 31.8992 7.13896   9
   1   9  -8 21.6380 9.70382   3
   1   9  -8 28.9068 12.4937   5
  -1   9   8 27.8442 12.0483   5
  -1   9   8 47.5842 12.5609   1
   0  -9  -8 3.92544 5.93660   9
   0   9  -8 5.41098 8.34691   3
   0   9   8 2.47073 8.75490   1
   0   9  -8 3.78984 11.4317   5
   1  -9   8 -10.649 10.0672   7
  -1  -9  -8 -0.5259 7.51757   9
  -1   9  -8 3.29008 8.31871   5
   1   9   8 -2.8047 7.73605   1
  -1   9  -8 0.30344 7.59303   3
   2  -9   8 4.02889 9.17604   7
  -2  -9  -8 2.58343 5.27259   9
   2   9   8 -0.6846 7.97430   1
 -11   0   9 6.86935 10.4651   1
  11   0  -9 1.29039 7.84101   6
 -10   0   9 2.87057 6.72745   4
  10   0  -9 -4.1318 6.24394   6
 -10   0   9 -1.8514 4.61312   8
 -10   0   9 0.97932 5.97227   1
  -9   0   9 1021.78 58.0036   8
  -9   0   9 970.825 58.6410   4
   9   0  -9 955.735 51.8404   6
  -9   0   9 984.313 51.8697   1
   9   0  -9 985.549 42.1648   3
  -8   0   9 0.07968 3.45343   8
  -8   0   9 0.27723 4.30622   1
  -8   0   9 -2.0936 4.93010   4
   8   0  -9 3.87876 4.62695   6
   8   0  -9 0.26052 4.15223   3
  -7   0   9 1.61414 2.68836   9
   7   0  -9 2.53820 3.93112   6
  -7   0   9 1.06504 4.46133   4
   7   0  -9 -1.8006 3.82487   3
  -7   0   9 -0.2346 3.63811   1
  -7   0   9 0.35503 2.69154   2
  -7   0   9 4.32826 4.60886   8
   6   0  -9 1.04829 2.33008   3
  -6   0   9 -1.7857 3.98219   8
   6   0  -9 -0.5511 7.12033   5
  -6   0   9 -1.8115 2.27616   2
   6   0  -9 1.22809 3.36053   6
  -6   0   9 1.04989 4.43409   1
  -6   0   9 -0.9923 1.48206   9
  -6   0   9 -2.6222 2.66198   4
  -5   0   9 40.4045 3.03419   9
  -5   0   9 44.2068 3.19957   2
  -5   0   9 42.2094 4.47934   1
  -5   0   9 42.7150 5.12212   4
   5   0  -9 43.3167 4.58358   5
   5   0  -9 46.4678 4.62051   6
   5   0  -9 43.9207 4.14038   3
  -4   0   9 0.74348 1.61857   9
   4   0  -9 -3.3878 3.59728   5
   4   0  -9 1.22766 3.02891   1
  -4   0   9 4.46639 2.90575   5
   4   0  -9 0.98944 2.51361   3
  -4   0   9 -0.9280 1.79457   2
  -4   0   9 -3.6000 2.44840   4
  -4   0   9 -2.9363 3.23263   1
   4   0  -9 -0.2447 3.24652   4
   4   0  -9 -0.8709 1.74947   9
  -3   0   9 2504.44 77.6708   1
  -3   0   9 2568.27 65.9336   5
  -3   0   9 2529.32 69.6670   2
  -3   0   9 2476.18 67.0998   9
   3   0  -9 2592.72 133.641   1
   3   0  -9 2521.37 68.4719   2
   3   0  -9 2532.70 84.2990   9
   3   0  -9 2511.85 120.958   5
  -3   0   9 2532.44 71.3242   4
   3   0  -9 2568.60 92.0197   4
   2   0  -9 -0.1559 2.15133   5
  -2   0   9 -0.2451 1.85034   2
   2   0  -9 -0.5840 1.80421   9
   2   0  -9 2.00506 2.76783   4
   2   0  -9 0.23950 1.94220   2
   2   0  -9 1.99115 1.74076   3
  -2   0   9 -2.7184 3.07336   5
  -2   0   9 0.08564 2.57228   4
  -2   0   9 -0.9667 2.49171   1
   2   0  -9 2.44746 2.90825   1
  -1   0   9 248.521 7.28859   1
   1   0  -9 237.960 8.79917   5
   1   0  -9 242.274 10.7997   3
  -1   0   9 255.848 10.8484   4
   1   0  -9 249.939 13.1536   1
   1   0  -9 252.771 9.28623   7
  -1   0   9 221.946 9.70011   5
   1   0  -9 251.235 8.01693   2
   1   0  -9 259.861 8.43387   9
  -1   0   9 239.083 8.51498   2
   0   0   9 -1.4241 1.78352   2
   0   0  -9 -1.1294 1.62541   7
   0   0   9 -2.0431 3.10280   5
   0   0  -9 0.27488 1.11035   6
   0   0  -9 -0.4038 2.03053   5
   0   0  -9 -0.7271 1.71038   2
   0   0  -9 1.47875 2.10626   3
   0   0   9 -4.7380 3.65176   4
   0   0   9 0.36651 1.32921   7
   0   0   9 -0.8466 1.96187   1
   0   0   9 -0.7200 1.91818   3
   1   0   9 566.434 15.9772   3
   1   0   9 578.624 20.6874   7
  -1   0  -9 553.911 15.3117   2
  -1   0  -9 534.820 26.9365   3
  -1   0  -9 566.236 26.3525   6
  -1   0  -9 556.044 20.9870   7
  -1   0  -9 527.217 23.6592   5
   1   0   9 573.846 15.9416   2
   1   0   9 563.161 16.8085   5
   2   0   9 2.69553 6.38668   2
  -2   0  -9 -1.7076 4.53037   3
  -2   0  -9 0.28195 1.98432   5
   2   0   9 -0.4371 2.53572   3
  -2   0  -9 0.04026 1.54444   7
   2   0   9 -0.3058 1.72743   1
  -2   0  -9 -0.0797 2.16717   6
   2   0   9 -0.7382 1.42809   6
   2   0   9 1.06905 2.42939   5
  -2   0  -9 2.67637 2.35917   2
   2   0   9 0.41056 1.56380   7
  -3   0  -9 111.174 6.03368   5
   3   0   9 109.304 5.82003   7
   3   0   9 112.607 5.74563   1
   3   0   9 107.630 6.58395   3
  -3   0  -9 93.7326 5.87738   2
  -3   0  -9 105.467 5.49188   6
   3   0   9 98.4186 5.88816   5
   3   0   9 104.911 5.47125   6
  -4   0  -9 -2.0031 2.30517   6
  -4   0  -9 0.79319 2.94043   2
   4   0   9 -1.4666 4.09726   5
   4   0   9 0.70388 3.52109   7
   4   0   9 -0.3916 3.48719   3
  -4   0  -9 -0.8558 3.14318   5
   4   0   9 -0.6467 3.67240   1
   4   0   9 2.22900 2.57514   6
   4   0   9 -2.0005 1.93967   8
   5   0   9 3190.13 100.755   8
   5   0   9 3156.20 99.5245   7
   5   0   9 3048.76 116.947   3
  -5   0  -9 2935.51 84.0786   2
  -5   0  -9 2930.85 112.043   5
   5   0   9 3123.01 101.505   6
   6   0   9 3.43208 3.15273   8
   6   0   9 -2.0987 3.67973   6
  -6   0  -9 -0.2764 3.90952   2
  -6   0  -9 1.02858 3.73795   5
   6   0   9 2.08966 4.56784   4
   6   0   9 2.32089 5.55629   7
   6   0   9 -3.5165 6.69924   3
   7   0   9 207.901 12.6257   6
   7   0   9 226.432 12.4746   7
   7   0   9 228.519 13.9175   3
  -7   0  -9 226.237 11.4455   2
  -7   0  -9 231.366 12.8039   5
   8   0   9 7.36738 6.44766   3
  -8   0  -9 -1.6597 11.0269   2
   8   0   9 1.52646 7.14885   6
   8   0   9 0.96259 5.15404   7
   9   0   9 3.68676 9.75700   3
  -9   0  -9 11.0629 6.23923   2
   9   0   9 -0.0828 5.79520   7
   9   0   9 4.77498 6.12585   6
 -11  -1   9 372.728 30.9138   8
 -11  -1   9 423.082 32.9764   4
  11  -1  -9 406.429 28.5777   6
 -11  -1   9 444.295 32.4505   1
 -11   1   9 414.302 30.2717   1
  11   1  -9 415.586 24.4742   6
 -10  -1   9 86.6812 9.84531   4
  10  -1  -9 98.0201 10.0075   6
 -10  -1   9 95.0397 9.95946   1
 -10  -1   9 73.9395 9.65340   8
  10   1  -9 113.671 10.2908   3
  10   1  -9 93.6304 12.5648   6
 -10   1   9 96.7465 10.2741   1
 -10   1   9 90.4080 14.9417   8
   9  -1  -9 13.1253 7.86658   6
  -9  -1   9 5.29498 6.21951   4
  -9  -1   9 0.43759 4.16490   8
  -9  -1   9 -0.8815 4.97841   1
  -9   1   9 6.10080 4.20282   8
  -9   1   9 1.14495 3.85720   4
   9   1  -9 2.11022 6.44444   3
   9   1  -9 4.47821 5.99974   6
  -9   1   9 3.70863 5.75401   1
   8  -1  -9 185.363 10.5754   6
  -8  -1   9 171.160 9.45945   8
  -8  -1   9 187.134 10.5453   1
  -8  -1   9 198.922 10.6585   4
   8  -1  -9 183.415 11.0207   3
  -8   1   9 173.635 9.62475   8
   8   1  -9 198.908 14.0245   3
  -8   1   9 182.623 10.8056   1
   8   1  -9 185.911 11.0920   6
  -8   1   9 175.230 8.92962   4
  -7  -1   9 210.050 11.3507   8
  -7  -1   9 211.679 9.59758   9
  -7  -1   9 215.496 10.2628   1
  -7  -1   9 215.434 9.72348   2
  -7  -1   9 204.891 10.1574   4
   7  -1  -9 202.207 10.2347   3
   7  -1  -9 211.459 10.2239   6
   7   1  -9 214.310 12.7682   6
  -7   1   9 205.040 11.2436   1
  -7   1   9 199.321 9.60135   8
  -7   1   9 195.233 9.84920   4
   7   1  -9 215.258 14.9036   3
  -6  -1   9 377.935 14.5287   4
   6  -1  -9 371.871 18.7717   3
   6  -1  -9 385.203 13.1018   6
  -6  -1   9 384.601 13.5007   9
  -6  -1   9 399.176 11.7158   2
  -6  -1   9 398.947 13.2212   1
  -6  -1   9 399.087 14.3740   8
  -6   1   9 388.431 22.3072   9
  -6   1   9 379.474 13.5825   4
  -6   1   9 391.835 23.5916   2
   6   1  -9 370.938 15.1019   3
  -6   1   9 379.270 13.7531   1
   6   1  -9 370.746 15.8812   5
   6   1  -9 372.770 13.8325   6
   5  -1  -9 21.5820 2.85328   3
  -5  -1   9 20.9453 3.67034   8
  -5  -1   9 24.0765 1.88537   9
  -5  -1   9 20.6798 3.70514   4
  -5  -1   9 21.6149 4.37245   1
  -5  -1   9 22.0500 1.92474   2
   5  -1  -9 19.8814 2.75017   9
   5  -1  -9 14.4709 4.16133   6
  -5   1   9 25.9887 5.29579   1
   5   1  -9 18.6060 4.47109   5
  -5   1   9 13.9737 4.19114   4
  -5   1   9 24.4065 2.93519   2
   5   1  -9 19.0398 4.32590   3
  -5   1   9 22.6399 2.69145   9
   4  -1  -9 4.88876 1.77205   3
   4  -1  -9 4.04884 1.89661   9
  -4  -1   9 5.36243 2.78861   4
  -4  -1   9 3.85108 2.73545   8
   4  -1  -9 9.68866 3.42901   4
   4  -1  -9 2.97916 2.67027   5
   4  -1  -9 9.11620 3.40305   6
   4  -1  -9 4.94233 3.61691   1
  -4  -1   9 6.45774 1.46802   2
  -4  -1   9 9.07003 3.93194   5
  -4  -1   9 6.20903 3.07635   1
  -4   1   9 2.95294 4.07004   1
   4   1  -9 5.08027 2.60041   3
   4   1  -9 1.80905 3.69690   5
   4   1  -9 4.83296 1.28736   9
  -4   1   9 8.82850 2.46338   9
   4   1  -9 2.07755 2.79565   1
  -4   1   9 7.80692 2.97859   4
  -4   1   9 5.71249 2.51097   2
   3  -1  -9 216.637 8.39680   2
   3  -1  -9 211.367 8.25716   5
   3  -1  -9 216.798 7.84332   9
   3  -1  -9 212.568 10.3219   1
  -3  -1   9 216.108 8.15779   2
   3  -1  -9 211.921 9.25876   3
  -3  -1   9 210.287 9.50418   5
  -3  -1   9 225.016 7.21078   1
  -3  -1   9 214.753 8.40016   4
   3  -1  -9 238.417 9.51637   6
  -3   1   9 218.542 11.2231   1
   3   1  -9 208.186 10.2889   1
  -3   1   9 222.291 8.98846   5
  -3   1   9 216.009 7.36770   9
  -3   1   9 221.374 9.64918   4
  -3   1   9 226.222 9.05095   2
   3   1  -9 221.661 8.33676   5
   3   1  -9 220.502 6.48019   9
   3   1  -9 226.325 9.47642   4
   3   1  -9 230.375 8.37791   2
   2  -1  -9 62.5876 5.04914   1
  -2  -1   9 69.5953 4.97862   5
   2  -1  -9 82.7010 6.37805   3
  -2  -1   9 84.4294 4.98746   4
   2  -1  -9 75.2028 4.85353   5
  -2  -1   9 82.6595 3.72356   1
   2  -1  -9 78.5588 4.30426   9
  -2  -1   9 73.4044 3.47414   2
   2  -1  -9 75.7316 5.28185   2
   2   1  -9 78.5799 5.14317   5
  -2   1   9 80.3645 3.95807   9
  -2   1   9 87.9196 5.71725   1
   2   1  -9 70.8799 3.54891   9
   2   1  -9 69.3443 5.36219   4
  -2   1   9 85.9348 4.32327   2
  -2   1   9 82.0418 5.63839   5
  -2   1   9 78.0478 5.46375   4
   2   1  -9 87.9199 5.74480   7
   2   1  -9 80.6791 4.78111   1
   2   1  -9 79.2682 3.94409   2
   1  -1  -9 28.5195 2.16647   7
  -1  -1   9 26.4369 2.81610   2
   1  -1  -9 26.6781 4.06675   1
  -1  -1   9 25.6245 4.36341   5
   1  -1  -9 26.5423 3.19035   5
   1  -1  -9 20.8027 2.54720   9
  -1  -1   9 27.0687 1.89359   1
   1  -1  -9 27.4672 2.91681   2
   1  -1  -9 24.2958 2.51347   3
  -1  -1   9 25.6633 3.24938   4
  -1   1   9 24.7315 2.44210   3
   1   1  -9 31.7088 3.51326   7
  -1   1   9 29.0721 3.23506   1
   1   1  -9 29.4512 3.95917   3
   1   1  -9 22.9757 2.68173   2
   1   1  -9 21.3470 4.11026   5
  -1   1   9 30.2762 3.99687   5
  -1   1   9 32.0537 3.91222   4
  -1   1   9 27.1068 3.35155   2
   1   1  -9 26.4866 2.20618   1
   1   1  -9 33.1141 3.93481   4
   0  -1  -9 254.090 8.07600   2
   0  -1  -9 255.832 7.79985   9
   0  -1   9 283.774 8.76119   4
   0  -1   9 256.749 11.7536   7
   0  -1  -9 259.281 10.8418   5
   0  -1   9 254.302 10.5653   5
   0  -1  -9 251.325 11.2347   7
   0  -1   9 255.771 8.52717   2
   0  -1  -9 264.690 8.25795   3
   0  -1  -9 260.039 11.5547   6
   0  -1   9 252.516 7.49064   1
   0   1  -9 262.327 16.5349   5
   0   1  -9 273.079 12.7812   6
   0   1  -9 278.739 11.7921   3
   0   1  -9 260.661 14.3214   7
   0   1   9 259.957 11.7428   2
   0   1   9 241.514 8.70627   5
   0   1  -9 268.996 9.56549   2
   0   1   9 255.399 9.90990   3
   0   1   9 262.820 8.64221   1
  -1  -1  -9 3276.63 79.6233   2
   1  -1   9 3318.35 123.321   3
   1  -1   9 3299.91 146.636   7
   1  -1   9 3273.89 157.191   1
  -1  -1  -9 3212.59 136.439   3
  -1  -1  -9 3217.86 98.0233   6
  -1  -1  -9 3224.11 110.525   5
   1  -1   9 3265.00 123.351   4
   1  -1   9 3394.87 180.315   5
  -1   1  -9 3302.33 115.778   2
  -1   1  -9 3328.38 114.262   3
   1   1   9 3470.69 110.568   3
  -1   1  -9 3294.47 93.1557   5
  -1   1  -9 3340.15 161.211   7
   1   1   9 3232.16 151.566   7
   1   1   9 3429.97 135.887   2
   1   1   9 3352.52 102.890   5
  -1   1  -9 3284.83 115.396   6
   2  -1   9 539.685 18.3756   4
  -2  -1  -9 522.876 20.2407   3
   2  -1   9 547.410 17.2436   7
   2  -1   9 524.433 24.1037   1
   2  -1   9 518.690 20.6868   5
  -2  -1  -9 533.047 18.7977   6
   2  -1   9 538.489 22.3268   6
   2  -1   9 541.704 16.2023   3
  -2  -1  -9 536.874 23.9433   2
  -2  -1  -9 512.951 13.3220   5
  -2   1  -9 538.979 17.1545   5
  -2   1  -9 535.746 21.9363   3
  -2   1  -9 538.951 19.3578   7
   2   1   9 536.870 25.2293   2
   2   1   9 542.456 19.2364   7
   2   1   9 551.862 18.7990   6
  -2   1  -9 544.672 19.0791   2
  -2   1  -9 531.217 18.9705   6
   2   1   9 551.713 15.5532   3
   2   1   9 548.428 24.7047   5
   3  -1   9 76.5267 5.81952   3
  -3  -1  -9 80.6649 4.37275   6
   3  -1   9 78.3985 5.84023   7
   3  -1   9 76.0316 4.49980   1
   3  -1   9 76.4546 5.56111   6
  -3  -1  -9 82.6451 4.60268   5
  -3  -1  -9 76.6438 5.46170   2
   3   1   9 79.6363 6.08996   3
  -3   1  -9 79.0607 5.28271   7
   3   1   9 69.8491 5.59065   5
   3   1   9 80.0260 5.38078   8
  -3   1  -9 75.0995 4.98457   6
   3   1   9 77.6664 4.69504   6
  -3   1  -9 88.2856 5.76271   5
   3   1   9 84.8739 5.37710   1
   3   1   9 69.8731 4.57408   7
  -3   1  -9 79.9286 6.29889   2
  -4  -1  -9 638.585 27.0440   6
   4  -1   9 681.041 24.6651   8
   4  -1   9 633.380 27.8940   3
   4  -1   9 627.953 17.9577   6
   4  -1   9 647.317 26.9342   5
   4  -1   9 626.542 17.3674   7
  -4  -1  -9 627.464 22.6111   2
  -4  -1  -9 609.699 25.5622   5
   4  -1   9 643.751 22.4070   1
   4   1   9 636.663 32.6563   5
  -4   1  -9 635.316 21.1722   5
   4   1   9 685.113 18.2703   3
  -4   1  -9 636.401 17.2531   2
   4   1   9 625.996 17.8291   7
   4   1   9 701.026 27.0771   8
   4   1   9 660.004 21.2632   6
   5  -1   9 757.395 20.0205   6
   5  -1   9 757.715 24.0172   7
  -5  -1  -9 725.536 25.6077   5
  -5  -1  -9 747.473 28.0184   2
   5  -1   9 787.752 24.7643   8
   5  -1   9 708.131 30.5072   3
  -5  -1  -9 740.443 45.7784   6
   5   1   9 799.925 25.6647   7
   5   1   9 779.794 27.9255   6
   5   1   9 758.148 22.4278   3
  -5   1  -9 763.496 23.5775   5
  -5   1  -9 794.553 21.6280   2
   6  -1   9 23.5684 5.20168   6
   6  -1   9 28.9277 3.65876   4
   6  -1   9 17.7926 5.10468   7
   6  -1   9 27.5167 3.67967   8
   6  -1   9 22.7510 5.67980   3
  -6  -1  -9 22.5236 3.64050   5
  -6  -1  -9 21.3245 6.23065   2
   6   1   9 16.4265 5.75876   7
   6   1   9 29.7034 6.09083   3
   6   1   9 16.2941 5.42878   6
  -6   1  -9 24.5962 5.50455   5
  -6   1  -9 19.5745 5.05475   2
   7  -1   9 86.2641 8.48265   3
   7  -1   9 73.8110 9.57569   7
   7  -1   9 75.6688 7.91225   6
  -7  -1  -9 84.4457 8.98842   2
  -7   1  -9 80.5154 8.05260   2
   7   1   9 77.5559 10.3899   3
   7   1   9 57.9623 8.27994   7
   7   1   9 74.0536 8.23445   6
  -7   1  -9 81.8451 7.75119   5
  -8  -1  -9 146.852 9.87391   2
   8  -1   9 127.367 10.6349   3
   8  -1   9 111.022 9.85370   6
   8  -1   9 121.481 11.4276   7
  -8   1  -9 143.415 11.9800   2
   8   1   9 129.046 11.1881   7
   8   1   9 134.248 11.2102   3
  -8   1  -9 141.930 9.56641   5
   9  -1   9 -0.4083 6.34067   7
   9  -1   9 3.71100 6.33970   6
  -9  -1  -9 11.3179 8.10467   2
   9  -1   9 8.98106 9.59404   3
   9   1   9 9.29507 6.53339   7
   9   1   9 3.28954 5.75327   6
  -9   1  -9 11.0153 9.03263   2
   9   1   9 5.93881 7.26407   3
 -10  -2   9 32.2528 7.11903   4
  10  -2  -9 27.8816 7.89596   6
 -10  -2   9 42.1037 7.94337   1
 -10  -2   9 37.6639 7.08442   8
  10   2  -9 40.9148 7.86209   3
 -10   2   9 40.0894 8.88630   1
  10   2  -9 41.1317 9.22116   6
   9  -2  -9 6.35427 5.76824   6
  -9  -2   9 14.5217 5.15892   4
  -9  -2   9 26.1805 9.25728   1
  -9  -2   9 15.0722 5.29905   8
  -9   2   9 3.61685 8.33360   1
   9   2  -9 9.19423 7.74029   3
   9   2  -9 14.2470 6.65119   6
  -9   2   9 5.60047 3.68936   4
  -8  -2   9 5.89655 5.88628   4
  -8  -2   9 2.19908 5.67744   8
  -8  -2   9 5.59013 6.50698   1
   8  -2  -9 9.02655 6.64633   6
  -8   2   9 5.27979 3.58095   8
  -8   2   9 0.99288 5.08405   1
  -8   2   9 2.80518 3.55268   4
   8   2  -9 10.2406 5.84503   6
   8   2  -9 11.1313 7.04799   3
  -7  -2   9 383.664 18.3313   2
  -7  -2   9 417.246 15.9910   1
  -7  -2   9 414.217 15.1966   8
   7  -2  -9 410.014 16.0460   6
  -7  -2   9 393.462 16.7648   4
  -7  -2   9 378.507 17.4187   9
   7   2  -9 424.559 20.8603   3
  -7   2   9 398.646 15.7884   4
   7   2  -9 399.744 22.9233   5
  -7   2   9 414.453 15.9925   1
   7   2  -9 414.020 20.9573   6
  -6  -2   9 209.177 10.1053   4
   6  -2  -9 204.084 11.6066   3
  -6  -2   9 215.594 9.72239   1
  -6  -2   9 201.912 11.7513   8
   6  -2  -9 216.163 10.0284   6
  -6   2   9 215.204 13.3787   1
  -6   2   9 225.151 9.09840   4
   6   2  -9 220.815 9.13448   5
   6   2  -9 241.336 40.4519   3
   5  -2  -9 278.004 11.7553   9
  -5  -2   9 302.229 13.7487   8
   5  -2  -9 283.509 10.6377   3
   5  -2  -9 311.814 17.7155   6
   5  -2  -9 279.148 13.4117   3
  -5  -2   9 299.030 11.6910   4
  -5  -2   9 310.575 19.2636   1
   5   2  -9 279.396 11.5506   5
   5   2  -9 294.005 19.8545   3
  -5   2   9 316.494 12.3998   1
  -5   2   9 269.552 11.5936   4
   5   2  -9 265.225 16.7379   1
  -4  -2   9 51.7805 5.46308   8
  -4  -2   9 58.2658 4.87407   5
  -4  -2   9 56.5337 4.07100   1
   4  -2  -9 57.3272 2.68989   3
  -4  -2   9 58.9169 4.92168   4
   4  -2  -9 54.5174 3.97143   6
   4  -2  -9 51.8220 2.35816   3
   4  -2  -9 48.8020 4.52196   9
   4   2  -9 48.5917 4.65210   5
  -4   2   9 61.8917 4.51044   9
  -4   2   9 63.3306 5.31368   4
  -4   2   9 58.1633 6.55726   1
  -4   2   9 62.7006 4.76359   2
   4   2  -9 52.7745 6.02088   3
   4   2  -9 54.1566 4.50683   1
  -3  -2   9 38.8350 5.02692   5
   3  -2  -9 44.8506 3.51497   6
   3  -2  -9 39.2272 4.82141   1
   3  -2  -9 41.2124 4.16124   2
  -3  -2   9 49.5730 4.31618   8
   3  -2  -9 40.4645 2.19341   3
  -3  -2   9 44.1948 4.12811   4
  -3  -2   9 47.6081 3.15280   1
   3  -2  -9 43.9180 3.58875   9
  -3   2   9 44.7772 3.49810   9
  -3   2   9 52.8119 5.24404   1
  -3   2   9 44.8817 4.27478   2
   3   2  -9 36.8214 20.3937   4
   3   2  -9 42.8107 3.43057   1
   3   2  -9 41.7594 2.34293   9
   3   2  -9 41.1388 1.86575   2
  -3   2   9 47.9909 4.88558   4
   3   2  -9 51.1455 4.74385   5
   2  -2  -9 229.430 9.20241   1
   2  -2  -9 239.624 8.74295   2
   2  -2  -9 238.833 10.4631   3
  -2  -2   9 230.326 10.7309   5
   2  -2  -9 227.219 7.73060   9
   2  -2  -9 233.951 8.76587   5
  -2  -2   9 223.966 8.46051   4
   2  -2  -9 237.258 8.55022   6
  -2  -2   9 226.201 9.28129   1
  -2   2   9 223.152 8.92874   1
   2   2  -9 235.835 10.9230   1
  -2   2   9 232.593 7.80384   9
  -2   2   9 226.860 9.68095   5
   2   2  -9 226.783 9.98221   5
   2   2  -9 232.812 11.6058   2
  -2   2   9 239.108 9.94958   2
   2   2  -9 226.925 9.25710   4
   2   2  -9 231.785 11.4653   7
  -2   2   9 222.061 7.12798   3
   1  -2  -9 657.371 29.2861   3
  -1  -2   9 615.015 25.5919   1
  -1  -2   9 633.185 30.2172   5
  -1  -2   9 638.508 15.0838   4
   1  -2  -9 688.764 29.2434   9
   1  -2  -9 660.854 17.5024   2
   1  -2  -9 624.409 16.5288   5
   1  -2  -9 606.918 21.4042   6
   1   2  -9 655.622 17.7056   4
  -1   2   9 661.867 26.1273   2
  -1   2   9 671.710 25.1233   9
   1   2  -9 651.510 43.1766   1
   1   2  -9 639.603 34.9179   2
   1   2  -9 690.123 29.5583   7
   1   2  -9 623.149 41.9642   5
  -1   2   9 655.577 17.3994   3
  -1   2   9 647.651 18.6747   1
  -1   2   9 610.474 21.4302   5
   0  -2   9 275.248 11.6168   5
   0  -2  -9 278.234 8.93090   5
   0  -2  -9 279.327 9.70937   2
   0  -2   9 270.782 12.7287   7
   0  -2  -9 305.626 11.9905   3
   0  -2   9 298.152 9.19910   4
   0  -2  -9 294.474 13.7300   9
   0   2  -9 287.366 18.7604   6
   0   2  -9 283.507 11.1084   2
   0   2  -9 299.472 14.0416   4
   0   2  -9 289.836 13.2358   7
   0   2   9 307.665 9.97724   1
   0   2  -9 290.629 12.1051   5
   0   2  -9 308.548 13.5025   3
   0   2   9 307.862 9.01466   3
   0   2   9 279.417 16.7442   2
   0   2   9 291.531 9.00185   5
   1  -2   9 897.746 39.2366   7
  -1  -2  -9 896.262 47.4153   3
  -1  -2  -9 871.410 30.5532   5
  -1  -2  -9 897.307 21.8088   2
   1  -2   9 931.504 36.0308   5
   1  -2   9 865.920 25.6641   4
  -1  -2  -9 908.205 21.7938   9
  -1   2  -9 930.509 33.9788   6
   1   2   9 947.789 40.3075   2
   1   2   9 903.137 24.5559   5
  -1   2  -9 936.163 29.4398   2
  -1   2  -9 904.720 23.2879   5
  -1   2  -9 957.344 34.1898   3
  -1   2  -9 928.041 38.3582   7
   1   2   9 938.327 27.8740   3
   2  -2   9 127.384 6.63595   7
  -2  -2  -9 119.605 6.29117   2
   2  -2   9 115.427 6.84386   6
  -2  -2  -9 115.994 5.14978   5
   2  -2   9 118.323 4.89953   4
   2  -2   9 137.516 6.96289   3
  -2  -2  -9 119.622 5.99391   9
   2  -2   9 131.056 8.57543   5
   2  -2   9 119.651 4.30787   1
  -2  -2  -9 132.621 6.80269   3
   2   2   9 119.065 6.22234   7
   2   2   9 115.894 5.39049   6
  -2   2  -9 118.239 6.45314   2
  -2   2  -9 125.803 8.38045   6
   2   2   9 122.978 7.24925   3
  -2   2  -9 123.639 7.35138   5
   2   2   9 125.626 5.82870   5
  -2   2  -9 100.801 7.64535   7
   3  -2   9 123.552 6.80159   6
   3  -2   9 135.397 5.41071   4
   3  -2   9 130.732 7.37809   3
  -3  -2  -9 136.341 5.12291   5
   3  -2   9 133.541 6.35518   1
  -3  -2  -9 130.053 7.43714   2
   3  -2   9 129.746 7.24925   7
   3   2   9 138.593 7.66983   3
   3   2   9 130.442 5.48807   6
   3   2   9 147.757 7.18243   7
  -3   2  -9 124.093 8.30240   2
   3   2   9 129.740 7.16535   5
  -3   2  -9 134.728 8.29653   5
  -4  -2  -9 6.37287 1.93361   5
   4  -2   9 7.10508 2.51084   4
   4  -2   9 7.84432 2.12885   8
   4  -2   9 1.07478 3.65354   3
   4  -2   9 5.97855 3.62800   7
   4  -2   9 8.11804 3.52547   1
   4  -2   9 3.53068 3.33574   6
  -4  -2  -9 5.01503 4.43987   2
  -4   2  -9 5.35792 3.77223   5
   4   2   9 4.10754 3.04852   7
   4   2   9 2.87855 5.40750   3
   4   2   9 0.71962 2.38247   5
  -4   2  -9 2.46136 5.07268   2
   4   2   9 7.35942 3.08952   6
   5  -2   9 8.99867 4.15979   6
   5  -2   9 12.7403 2.51288   4
   5  -2   9 10.3809 4.60951   3
  -5  -2  -9 12.0470 1.94364   5
   5  -2   9 19.2837 5.36479   1
   5  -2   9 10.3833 4.60091   7
  -5  -2  -9 12.0637 5.27603   2
   5  -2   9 13.0847 2.23497   8
   5   2   9 6.29683 3.92998   7
   5   2   9 14.7567 5.02187   3
  -5   2  -9 15.3358 5.84666   5
  -5   2  -9 10.5903 4.60055   2
   5   2   9 10.5705 3.01912   6
   6  -2   9 97.9087 8.09010   3
   6  -2   9 93.6377 9.66951   7
   6  -2   9 94.4491 9.10227   6
  -6  -2  -9 108.286 7.67746   2
   6   2   9 94.6371 6.97319   7
   6   2   9 101.728 8.73441   3
  -6   2  -9 107.386 8.03838   5
  -6   2  -9 119.094 8.85590   2
   6   2   9 98.4272 7.41863   6
   7  -2   9 43.2262 7.21698   7
  -7  -2  -9 61.2391 8.32054   2
   7  -2   9 62.8789 7.69402   3
   7  -2   9 38.5002 8.58347   6
   7   2   9 42.5088 6.14669   7
  -7   2  -9 51.7597 7.61263   2
   7   2   9 49.5682 8.11099   3
  -7   2  -9 53.7376 6.94291   5
   7   2   9 45.9721 6.05927   6
   8  -2   9 5.84435 5.95807   6
   8  -2   9 0.37168 5.42057   3
   8  -2   9 0.93253 5.82589   7
  -8  -2  -9 24.1365 8.00643   2
   8   2   9 -1.5279 6.76237   7
  -8   2  -9 8.48641 6.16417   2
  -8   2  -9 2.89889 7.05486   5
   8   2   9 3.33410 6.93647   6
   8   2   9 -6.4914 9.19030   3
  -9  -2  -9 189.451 11.7636   2
   9  -2   9 185.174 16.1335   3
   9  -2   9 163.870 13.3804   6
   9  -2   9 171.807 14.7706   7
   9   2   9 168.969 13.8231   7
   9   2   9 157.003 16.8324   6
   9   2   9 150.050 15.1324   3
  -9   2  -9 171.933 12.4782   2
 -10  -3   9 29.5986 7.94561   1
  10  -3  -9 27.3292 8.02132   6
 -10  -3   9 24.1334 7.06392   4
 -10  -3   9 20.9685 7.23418   8
  10   3  -9 42.4777 11.2920   3
 -10   3   9 29.7131 8.58039   1
  10   3  -9 25.5269 8.89259   6
  -9  -3   9 10.1669 8.01529   1
  -9  -3   9 1.84492 4.97900   8
   9  -3  -9 11.1133 8.28420   6
  -9  -3   9 0.99752 5.19331   4
   9   3  -9 12.1503 9.53148   6
  -9   3   9 0.20872 8.67818   1
   9   3  -9 10.4736 7.62258   3
  -8  -3   9 14.1374 5.31403   1
   8  -3  -9 13.0906 7.25294   6
  -8  -3   9 7.08843 4.80628   8
  -8  -3   9 6.75744 4.62027   4
  -8   3   9 6.14961 4.66376   4
  -8   3   9 -0.5358 4.66413   8
   8   3  -9 12.7240 8.18678   3
  -8   3   9 4.20970 5.65157   1
   8   3  -9 14.5960 6.53474   6
   8   3  -9 5.50839 4.89469   5
  -7  -3   9 27.5159 5.31859   4
  -7  -3   9 23.2872 5.06379   8
   7  -3  -9 26.7887 5.20652   6
  -7  -3   9 30.3818 5.29482   1
  -7   3   9 33.9049 4.50928   4
  -7   3   9 32.2375 6.53529   1
   7   3  -9 33.4694 7.96544   3
   7   3  -9 26.0626 5.44332   5
  -6  -3   9 489.607 17.8485   4
  -6  -3   9 488.049 20.4208   8
   6  -3  -9 503.929 22.0495   6
  -6  -3   9 503.116 15.9270   1
   6   3  -9 548.959 26.6038   5
  -6   3   9 511.757 18.2180   1
   6   3  -9 529.804 29.0099   3
  -6   3   9 514.114 24.0703   4
  -5  -3   9 10.1186 3.11167   1
   5  -3  -9 7.81679 4.50328   9
  -5  -3   9 7.46365 4.66371   8
  -5  -3   9 8.93130 3.62388   4
   5  -3  -9 7.42234 3.06466   6
  -5   3   9 9.54017 3.62851   4
  -5   3   9 11.0222 4.60650   1
   5   3  -9 11.4255 6.04864   3
   5   3  -9 10.7164 4.38802   5
   4  -3  -9 81.7292 5.26275   6
   4  -3  -9 78.1633 5.23962   9
  -4  -3   9 74.5829 6.39777   4
  -4  -3   9 79.4250 5.84427   8
  -4  -3   9 81.6151 4.74531   1
   4   3  -9 77.6781 5.32314   1
   4   3  -9 74.5200 6.55088   3
   4   3  -9 80.1784 6.62570   5
  -4   3   9 77.5846 6.09733   4
  -4   3   9 81.3843 6.96984   1
  -3  -3   9 136.780 6.77302   4
   3  -3  -9 123.248 7.00133   2
  -3  -3   9 129.482 6.70562   8
  -3  -3   9 120.218 8.60558   5
   3  -3  -9 121.383 7.12682   9
   3  -3  -9 127.604 5.71353   6
  -3   3   9 123.127 7.08204   4
   3   3  -9 122.127 5.51020   2
  -3   3   9 118.671 7.75349   1
   3   3  -9 122.021 4.90253   9
   3   3  -9 121.958 5.07888   9
   3   3  -9 119.936 7.16671   5
   3   3  -9 120.639 5.47790   1
  -2  -3   9 1659.11 65.1306   5
   2  -3  -9 1623.30 53.7088   6
   2  -3  -9 1652.39 55.9033   3
  -2  -3   9 1625.24 53.9376   8
   2  -3  -9 1651.07 46.6038   2
   2  -3  -9 1636.51 42.0427   7
  -2  -3   9 1643.97 45.5411   4
   2  -3  -9 1662.34 43.1645   9
   2   3  -9 1668.33 56.3487   2
   2   3  -9 1676.98 50.1514   5
   2   3  -9 1683.01 74.4032   1
   2   3  -9 1765.84 78.8298   4
  -2   3   9 1675.67 44.2000   3
  -2   3   9 1663.35 59.8440   1
   1  -3  -9 938.969 22.4010   9
   1  -3  -9 931.075 34.1061   3
   1  -3  -9 913.828 39.8678   7
  -1  -3   9 944.493 42.3120   4
   1  -3  -9 953.809 26.8064   2
   1  -3  -9 941.805 35.2418   6
  -1  -3   9 905.901 25.1915   8
  -1   3   9 984.718 20.5836   3
  -1   3   9 947.263 40.5514   5
   1   3  -9 985.619 25.6425   5
   1   3  -9 1015.17 35.0276   4
   1   3  -9 989.012 33.3784   2
  -1   3   9 993.323 26.1683   1
   1   3  -9 1005.65 28.6145   1
   0  -3  -9 801.229 54.7439   3
   0  -3   9 775.890 25.1218   8
   0  -3   9 804.700 26.3898   7
   0  -3  -9 788.236 21.8497   2
   0  -3  -9 793.943 18.8624   9
   0  -3   9 756.270 20.5026   4
   0   3   9 753.588 22.0552   5
   0   3  -9 766.768 38.8545   5
   0   3  -9 807.904 30.4041   2
   0   3   9 779.165 28.2533   1
   0   3  -9 831.589 32.0587   4
   0   3   9 810.953 19.5195   3
  -1  -3  -9 43.9986 4.31771   2
   1  -3   9 47.1531 3.29107   4
   1  -3   9 37.8699 3.07366   8
  -1  -3  -9 42.0378 4.62321   3
   1  -3   9 45.6556 4.66795   7
  -1  -3  -9 41.3199 3.99389   9
   1   3   9 47.3584 4.37661   3
   1   3   9 48.7123 5.33954   1
  -1   3  -9 38.2357 3.94922   2
  -1   3  -9 39.7815 5.34960   5
   1   3   9 33.6425 3.88747   5
  -1   3  -9 41.0278 3.87195   4
  -2  -3  -9 290.436 10.5813   5
  -2  -3  -9 283.589 9.52288   9
   2  -3   9 268.091 9.78684   8
   2  -3   9 271.243 9.27513   1
   2  -3   9 265.864 9.96685   4
   2  -3   9 286.320 12.4877   6
   2  -3   9 276.867 11.2386   7
  -2  -3  -9 257.203 9.55782   2
   2   3   9 289.193 10.1924   6
   2   3   9 278.576 12.1523   7
   2   3   9 276.214 13.1196   5
  -2   3  -9 279.226 11.4994   5
   2   3   9 286.625 10.4933   3
   2   3   9 260.048 11.8358   7
  -3  -3  -9 51.5909 5.51597   9
   3  -3   9 60.7633 3.60613   4
   3  -3   9 63.2555 3.82089   1
   3  -3   9 59.8855 5.98672   7
  -3  -3  -9 68.4910 6.21530   2
   3  -3   9 66.6536 5.87256   6
   3  -3   9 57.8671 3.84738   8
  -3  -3  -9 62.0753 3.27484   5
  -3   3  -9 60.6050 3.17640   1
  -3   3  -9 54.8506 6.17381   5
   3   3   9 59.9419 3.32042   6
   3   3   9 58.5574 6.86180   3
   3   3   9 57.6261 3.56603   7
   3   3   9 55.8020 3.90242   5
   4  -3   9 8.09993 1.50567   8
  -4  -3  -9 4.13950 4.56088   2
   4  -3   9 7.23269 3.43698   1
   4  -3   9 4.20013 1.68417   4
   4  -3   9 4.94968 1.15669   8
   4  -3   9 4.70123 3.89195   6
   4  -3   9 5.09837 3.80538   3
  -4  -3  -9 1.74274 4.32824   9
   4  -3   9 5.20043 5.52078   7
   4   3   9 3.75443 2.59424   6
   4   3   9 6.61143 4.41084   3
  -4   3  -9 5.15761 4.43336   5
  -4   3  -9 1.34349 2.60344   1
   4   3   9 0.28501 2.05348   5
   5  -3   9 7.81944 6.00627   3
   5  -3   9 0.51521 3.21359   1
   5  -3   9 3.88828 0.68976   8
   5  -3   9 0.42212 4.17143   6
  -5  -3  -9 8.63464 3.71091   9
   5  -3   9 2.95821 0.58477   4
   5  -3   9 2.85336 0.62590   8
  -5  -3  -9 5.50621 3.85974   2
   5  -3   9 3.48137 0.61351   4
   5  -3   9 3.74175 6.12233   7
  -5   3  -9 8.08471 6.77605   5
   5   3   9 0.99330 2.40630   6
   5   3   9 2.97791 4.73556   3
  -5   3  -9 2.12459 3.50832   1
  -5   3  -9 2.63110 4.25618   2
   6  -3   9 56.4855 7.79281   7
  -6  -3  -9 62.9078 6.27956   9
  -6  -3  -9 61.1685 6.62925   2
   6  -3   9 76.6615 8.87631   3
   6  -3   9 66.6815 7.53026   6
  -6   3  -9 54.5939 5.42226   1
  -6   3  -9 68.0428 7.74776   2
   6   3   9 73.4094 8.52990   3
  -6   3  -9 76.8316 9.64596   5
   6   3   9 55.0185 5.33994   6
  -7  -3  -9 9.69902 6.91734   2
   7  -3   9 5.13621 6.48032   7
   7  -3   9 5.62963 5.73272   3
   7  -3   9 4.39499 5.77365   6
  -7   3  -9 9.44077 6.16716   2
  -7   3  -9 8.96675 14.3066   5
   7   3   9 3.35165 4.21237   7
   7   3   9 11.9069 6.71114   3
  -7   3  -9 5.38146 5.70373   1
   7   3   9 3.58160 5.78241   6
   8  -3   9 22.6335 10.5562   7
   8  -3   9 44.2468 9.86832   3
   8  -3   9 34.5532 10.1683   6
  -8  -3  -9 44.9452 8.87393   2
  -8   3  -9 32.7330 7.64275   5
   8   3   9 39.9773 10.7998   3
  -8   3  -9 37.2624 8.27042   2
   9  -3   9 0.36764 8.39202   7
   9  -3   9 3.22006 7.54000   6
   9  -3   9 3.49641 9.48025   3
  -9  -3  -9 -1.6547 8.20334   2
  -9   3  -9 6.47269 7.37311   2
  -9   3  -9 -2.7819 8.90532   5
   9   3   9 1.04309 10.8689   3
 -10  -4   9 63.2952 9.67403   8
  10  -4  -9 82.3005 12.7442   6
 -10  -4   9 43.1020 11.0833   4
  10  -4  -9 69.5510 12.3874   7
  10   4  -9 77.7930 11.0270   3
  10   4  -9 65.0257 19.5421   6
 -10   4   9 45.7663 9.82260   1
   9  -4  -9 238.179 15.5091   6
   9  -4  -9 236.325 20.0934   7
  -9  -4   9 226.663 14.0645   4
  -9  -4   9 196.405 12.4439   8
  -9   4   9 235.489 14.8190   1
   9   4  -9 261.858 18.5777   3
   9   4  -9 225.695 14.6854   6
  -8  -4   9 3.38216 4.80965   8
   8  -4  -9 3.06910 5.24572   6
  -8  -4   9 0.18509 4.81416   4
   8  -4  -9 2.10363 5.31114   7
  -8   4   9 -0.6136 5.77944   1
   8   4  -9 4.00952 6.60462   3
   7  -4  -9 13.2762 4.99516   7
  -7  -4   9 8.07412 4.68930   4
  -7  -4   9 10.5085 4.64479   8
   7  -4  -9 18.2586 6.41990   6
   7   4  -9 7.20610 8.46488   3
  -7   4   9 11.0508 5.89821   1
  -7   4   9 5.49204 4.60682   4
   7   4  -9 2.11073 4.70916   5
   6  -4  -9 10.1506 3.92238   6
  -6  -4   9 7.09566 4.27254   4
  -6  -4   9 6.19793 4.27022   8
   6  -4  -9 4.19559 3.85283   7
  -6   4   9 4.09588 7.35097   1
   6   4  -9 0.93414 12.3941   3
  -6   4   9 3.42115 3.35965   4
   6   4  -9 1.17777 4.54939   5
   5  -4  -9 440.913 16.8999   7
  -5  -4   9 432.237 14.9614   8
  -5  -4   9 447.275 14.6259   4
   5  -4  -9 442.394 15.5004   6
   5  -4  -9 444.671 20.2462   9
  -5   4   9 420.629 20.8794   4
   5   4  -9 468.607 20.1319   5
  -5   4   9 451.537 23.4471   1
   5   4  -9 460.045 23.8876   3
  -4  -4   9 168.860 9.09369   8
   4  -4  -9 146.058 6.98215   7
  -4  -4   9 168.444 9.23189   4
   4  -4  -9 153.866 6.73343   6
   4  -4  -9 156.157 9.29300   9
  -4   4   9 148.213 9.47013   6
  -4   4   9 147.754 8.18052   4
   4   4  -9 150.280 11.3957   1
   4   4  -9 153.860 10.4965   3
  -4   4   9 136.476 9.51269   1
   4   4  -9 153.909 9.07505   5
   3  -4  -9 79.0197 7.16817   7
   3  -4  -9 91.8405 7.37262   6
   3  -4  -9 71.1928 5.31283   9
  -3  -4   9 81.9378 5.84391   4
  -3  -4   9 84.3679 6.59848   8
  -3   4   9 78.3342 7.31004   1
   3   4  -9 74.9853 5.68663   9
   3   4  -9 82.0870 3.76760   2
  -3   4   9 72.3242 5.08793   6
   3   4  -9 82.1041 6.43178   5
   3   4  -9 77.9915 4.44048   2
   3   4  -9 72.3256 5.05648   1
  -2  -4   9 -0.0766 3.57725   8
   2  -4  -9 -0.0370 3.78245   9
   2  -4  -9 20.6286 10.4182   6
   2  -4  -9 20.4182 11.0095   7
   2  -4  -9 0.98528 1.66102   3
  -2  -4   9 0.49195 3.62227   4
   2  -4  -9 0.58921 2.83334   2
   2   4  -9 -0.1638 1.26978   1
   2   4  -9 1.90879 1.89634   2
  -2   4   9 0.49173 1.70258   3
   2   4  -9 0.65506 3.32689   5
  -2   4   9 -2.7714 3.71493   1
  -2   4   9 0.13025 1.91760   6
   2   4  -9 -1.3249 1.54710   9
  -1  -4   9 62.5347 5.25872   4
   1  -4  -9 69.4584 3.64682   7
   1  -4  -9 71.3915 5.41264   2
   1  -4  -9 70.2881 4.34485   3
  -1  -4   9 62.9533 4.71688   8
   1  -4  -9 63.0602 5.71772   9
  -1   4   9 72.8565 4.46100   3
   1   4  -9 67.2110 7.35514   5
   1   4  -9 59.2816 2.99473   1
   1   4  -9 63.5490 3.87909   1
  -1   4   9 65.2048 2.66599   6
  -1   4   9 70.0425 7.82362   1
   1   4  -9 76.1970 5.67920   4
   0  -4   9 200.735 10.0013   7
   0  -4  -9 212.958 9.11889   9
   0  -4   9 211.749 7.53292   4
   0  -4  -9 202.136 8.77124   3
   0  -4  -9 196.873 9.04577   2
   0  -4   9 197.349 7.72159   8
   0   4  -9 196.306 14.4008   5
   0   4   9 210.597 10.3101   1
   0   4   9 216.496 8.99120   3
   0   4  -9 215.667 10.0703   4
   0   4   9 206.354 9.96173   5
   1  -4   9 317.311 15.1174   8
  -1  -4  -9 313.750 13.7446   9
  -1  -4  -9 318.690 19.5613   3
  -1  -4  -9 287.474 10.4454   2
   1  -4   9 319.767 14.2436   4
   1  -4   9 320.921 12.7089   7
  -1   4  -9 342.706 16.5981   4
   1   4   9 318.782 12.2278   5
   1   4   9 331.041 14.6013   1
  -1   4  -9 328.980 13.0846   5
   1   4   9 333.073 11.5010   3
   2  -4   9 142.451 8.22722   6
  -2  -4  -9 146.706 8.20010   2
   2  -4   9 147.599 6.67575   4
   2  -4   9 158.311 9.63182   7
  -2  -4  -9 144.865 7.69696   9
   2  -4   9 145.757 6.96354   8
  -2   4  -9 139.500 9.01299   4
   2   4   9 158.095 17.7390   3
  -2   4  -9 150.803 10.3301   5
   2   4   9 153.205 5.00923   6
  -2   4  -9 143.941 5.24369   1
   2   4   9 152.446 5.74326   6
   2   4   9 151.793 7.07072   5
   2   4   9 144.196 5.00129   7
   3  -4   9 2.59634 3.83984   6
   3  -4   9 1.91151 1.98308   4
  -3  -4  -9 0.97299 3.26698   2
  -3  -4  -9 2.09908 3.02515   9
   3  -4   9 1.22927 2.05154   1
   3  -4   9 3.31588 5.60191   7
   3  -4   9 2.16149 1.96122   8
   3   4   9 0.37991 2.18794   5
  -3   4  -9 -0.3256 1.75034   1
  -3   4  -9 1.80111 4.62316   5
   3   4   9 0.27202 3.75401   3
   3   4   9 1.30807 1.62831   7
   3   4   9 0.56270 1.49244   6
   4  -4   9 24.8995 4.03774   1
  -4  -4  -9 21.0648 4.18439   9
   4  -4   9 18.6285 1.23205   8
   4  -4   9 16.3208 5.21688   7
   4  -4   9 17.3403 1.27069   8
  -4  -4  -9 16.4747 4.18803   2
   4  -4   9 12.5045 6.42041   6
   4  -4   9 20.1344 1.34470   4
   4   4   9 18.5581 2.95557   6
   4   4   9 16.8451 7.06467   3
  -4   4  -9 26.2255 6.30829   5
  -4   4  -9 18.3771 3.29038   1
   5  -4   9 365.457 17.4065   6
  -5  -4  -9 380.585 15.7356   9
  -5  -4  -9 379.649 14.5752   2
   5  -4   9 386.412 20.1449   7
  -5   4  -9 384.899 13.5290   1
  -5   4  -9 395.218 22.3473   5
   5   4   9 415.926 16.9071   3
   5   4   9 418.207 26.9014   6
   6  -4   9 43.8421 7.54506   6
  -6  -4  -9 40.5836 6.80417   9
  -6  -4  -9 43.5631 7.44667   2
   6  -4   9 29.1870 9.20801   7
  -6   4  -9 27.7107 5.55140   1
   6   4   9 33.9834 7.57446   3
  -6   4  -9 29.8861 9.64021   5
   7  -4   9 97.2518 12.3127   7
  -7  -4  -9 104.661 7.88237   9
  -7  -4  -9 91.3260 8.14109   2
   7  -4   9 97.5474 10.0837   6
  -7   4  -9 111.007 10.4263   2
  -7   4  -9 110.626 12.7360   5
   7   4   9 88.8718 10.4295   3
  -8  -4  -9 24.1977 8.37739   2
   8  -4   9 8.01768 6.91210   3
  -8  -4  -9 31.6939 7.86677   9
   8  -4   9 29.1754 10.7664   6
   8  -4   9 17.3496 8.60057   7
  -8   4  -9 12.9951 7.61360   2
  -8   4  -9 27.4465 8.29760   5
   8   4   9 6.89458 8.01951   3
  -9  -5   9 11.4640 6.95308   8
   9  -5  -9 9.92671 7.36187   7
   9  -5  -9 9.24423 6.80813   6
  -9  -5   9 6.45542 6.84917   4
  -9   5   9 9.96126 7.74340   1
   9   5  -9 20.5419 11.4772   6
   9   5  -9 20.1819 12.4497   3
   8  -5  -9 47.6224 7.34596   6
   8  -5  -9 52.4096 8.03642   7
  -8   5   9 32.4287 10.6473   1
   7  -5  -9 27.9126 8.17112   6
   7  -5  -9 39.0778 11.0860   7
  -7   5   9 19.3607 9.43704   1
   6  -5  -9 15.6257 4.45253   6
  -6  -5   9 14.3095 4.94635   8
  -6  -5   9 15.8508 5.08894   4
   6  -5  -9 24.5019 6.56052   7
  -6   5   9 22.3341 6.56723   1
  -6   5   9 15.5629 5.56037   4
   6   5  -9 2.93815 9.00314   3
   6   5  -9 9.63560 5.38781   5
  -5  -5   9 19.0113 4.83851   4
  -5  -5   9 12.6193 4.48766   8
   5  -5  -9 15.0342 3.86901   6
   5  -5  -9 11.3427 6.03315   9
   5  -5  -9 12.3228 4.01278   7
  -5   5   9 9.13562 5.56874   4
  -5   5   9 6.28599 5.61052   1
   5   5  -9 14.5319 8.77143   3
   5   5  -9 9.54951 5.46799   5
  -4  -5   9 6.24947 3.92971   8
   4  -5  -9 9.47584 5.52897   9
   4  -5  -9 12.6473 3.98884   6
   4  -5  -9 10.1021 4.02428   7
  -4  -5   9 5.71846 3.76299   4
   4   5  -9 10.1406 3.46611   1
   4   5  -9 4.88797 7.93455   3
   4   5  -9 6.16999 3.98931   5
  -4   5   9 2.33329 5.04953   1
  -3  -5   9 95.2476 7.58531   8
   3  -5  -9 94.6097 7.77875   9
  -3  -5   9 102.775 7.52719   4
   3  -5  -9 97.8375 5.41912   7
   3  -5  -9 108.060 6.79712   6
  -3   5   9 104.882 9.00461   1
   3   5  -9 97.5940 8.61092   5
   3   5  -9 87.5730 6.68353   1
  -3   5   9 93.4050 3.76049   3
   3   5  -9 99.9066 8.74032   3
  -3   5   9 85.1688 6.29033   6
   3   5  -9 86.2428 5.93624   2
   2  -5  -9 191.728 7.19929   6
  -2  -5   9 185.029 8.40064   4
   2  -5  -9 178.262 9.13364   9
  -2  -5   9 197.931 8.64177   8
   2  -5  -9 201.540 7.10369   7
  -2   5   9 189.226 14.8383   1
   2   5  -9 185.567 8.91152   1
  -2   5   9 187.075 8.92032   6
   2   5  -9 198.052 10.2721   5
  -2   5   9 180.281 10.8076   3
   2   5  -9 187.525 6.42632   9
  -1  -5   9 290.962 29.9833   4
   1  -5  -9 310.052 11.3342   2
   1  -5  -9 310.162 14.7579   3
  -1  -5   9 317.806 30.9471   8
   1  -5  -9 316.780 11.5189   7
   1  -5  -9 316.294 14.0746   9
  -1   5   9 310.912 13.0218   3
   1   5  -9 288.623 12.8240   1
  -1   5   9 310.979 13.5299   1
   1   5  -9 303.165 18.7195   1
   1   5  -9 304.023 13.0184   5
   1   5  -9 261.882 14.2204   9
  -1   5   9 311.574 10.6646   6
   0  -5  -9 158.905 9.99479   9
   0  -5   9 156.753 7.78125   8
   0  -5  -9 155.318 11.1410   2
   0  -5  -9 178.854 9.45649   3
   0  -5   9 158.611 6.88699   4
   0  -5   9 177.966 9.42675   7
   0   5  -9 128.740 8.36120   9
   0   5   9 158.827 9.09799   3
   0   5  -9 150.189 7.72247   4
   0   5  -9 140.822 7.22577   1
   0   5  -9 157.501 8.66138   1
   0   5   9 156.204 5.76079   6
   0   5   9 174.847 10.2679   1
   0   5  -9 160.102 9.97494   5
   1  -5   9 19.0224 7.48964   7
  -1  -5  -9 23.0923 4.14441   9
   1  -5   9 22.7309 3.76617   8
  -1  -5  -9 30.4507 4.60207   2
   1  -5   9 26.6707 3.13207   4
   1   5   9 16.2006 1.29622   6
  -1   5  -9 19.5768 3.74986   4
  -1   5  -9 16.2253 1.67313   1
   1   5   9 23.6587 4.30250   3
   1   5   9 18.9363 1.28089   6
  -1   5  -9 24.6704 5.89921   5
   1   5   9 12.9304 3.18666   5
   1   5   9 20.1582 5.70076   1
   2  -5   9 104.931 5.27098   4
  -2  -5  -9 97.7661 7.63353   2
   2  -5   9 103.746 8.15209   7
  -2  -5  -9 97.7948 7.21043   9
   2  -5   9 105.256 5.01690   8
  -2   5  -9 93.4640 5.70116   1
   2   5   9 89.7248 6.37833   5
   2   5   9 101.887 11.9948   6
  -2   5  -9 95.9684 9.27432   4
   2   5   9 104.246 7.54492   3
  -2   5  -9 94.3893 10.2088   5
   2   5   9 120.389 9.36829   1
   3  -5   9 -1.7219 6.43564   7
   3  -5   9 1.70178 1.76749   8
  -3  -5  -9 1.37584 4.88808   9
  -3  -5  -9 -1.5008 3.69152   2
   3  -5   9 4.33467 4.63643   6
   3  -5   9 2.17604 1.71350   4
  -3   5  -9 9.28825 7.87874   5
  -3   5  -9 2.04014 2.07917   1
   3   5   9 4.47991 6.27556   3
   4  -5   9 16.7781 5.65813   6
   4  -5   9 5.35864 5.16120   7
  -4  -5  -9 18.4720 5.96687   2
  -4  -5  -9 24.6708 5.71637   9
  -4   5  -9 8.69733 8.40802   5
   4   5   9 10.8069 5.64747   3
  -5  -5  -9 -1.5806 3.72458   9
   5  -5   9 1.07541 5.32212   6
   5  -5   9 -2.0477 5.47462   7
  -5  -5  -9 1.32687 4.06571   2
  -5   5  -9 1.83924 6.11492   5
   5   5   9 4.31887 5.72083   3
   6  -5   9 279.528 15.6977   7
  -6  -5  -9 283.253 13.4447   2
  -6  -5  -9 276.250 12.7801   9
   6  -5   9 269.788 16.4300   6
   6   5   9 250.774 17.2776   3
  -6   5  -9 344.978 27.3185   5
  -7  -5  -9 8.76540 5.37765   2
   7  -5   9 2.36391 10.0689   6
  -7  -5  -9 2.65239 5.15100   9
   7  -5   9 8.72386 7.78752   7
   7   5   9 -6.5681 10.6760   3
  -7   5  -9 0.23269 7.50606   5
   8  -5   9 314.867 19.9811   7
   8  -5   9 306.239 21.6914   6
  -8  -5  -9 303.840 17.4003   9
  -8  -5  -9 300.468 17.4400   2
   8   5   9 323.088 36.9719   3
  -8   5  -9 307.294 20.5057   5
   8  -6  -9 -0.4782 8.47427   7
  -8  -6   9 -2.8317 6.02130   4
   8  -6  -9 3.00384 8.89768   6
  -8  -6   9 1.85923 6.35439   8
   8   6  -9 -6.8959 8.51676   3
  -8   6   9 7.32347 10.4287   1
   7  -6  -9 0.22487 5.04668   7
   7  -6  -9 1.41260 7.02654   6
  -7  -6   9 3.66605 7.60103   4
  -7  -6   9 0.46828 5.50595   8
  -7   6   9 6.57821 15.9037   1
   7   6  -9 5.01073 8.06213   3
  -6  -6   9 73.5664 7.92111   4
   6  -6  -9 84.8284 7.38655   6
  -6  -6   9 75.6074 8.09416   8
   6  -6  -9 69.4995 7.18294   7
   6   6  -9 76.7065 10.5402   3
  -6   6   9 74.1103 11.8624   1
   5  -6  -9 147.969 8.83956   6
   5  -6  -9 158.508 12.0641   7
   5  -6  -9 139.644 10.3799   9
  -5  -6   9 153.028 9.49904   4
  -5  -6   9 147.992 9.44737   8
   5   6  -9 128.188 10.2673   5
  -5   6   9 129.092 9.82345   4
  -5   6   9 136.942 11.4797   1
   5   6  -9 155.148 13.8820   3
  -4  -6   9 65.6380 7.80111   4
   4  -6  -9 53.1447 7.95011   9
   4  -6  -9 65.2221 5.53967   6
   4  -6  -9 71.9396 6.56047   7
   4   6  -9 68.3426 11.4633   3
  -4   6   9 68.2450 10.8856   1
   4   6  -9 49.8809 16.2116   5
   3  -6  -9 390.193 15.0775   7
  -3  -6   9 396.112 13.8984   8
   3  -6  -9 406.667 14.6356   6
  -3  -6   9 386.466 16.9728   4
   3  -6  -9 376.476 15.8456   9
   3   6  -9 369.449 22.1408   3
  -3   6   9 384.257 16.8993   1
   3   6  -9 411.485 17.0599   5
  -2  -6   9 9.28292 3.81910   4
   2  -6  -9 13.0151 3.50208   7
   2  -6  -9 6.60158 4.05380   9
  -2  -6   9 10.1367 3.96364   8
   2   6  -9 10.8169 3.01543   1
  -2   6   9 4.44228 2.63000   3
   2   6  -9 6.59560 5.13100   5
  -2   6   9 12.2809 5.91640   1
  -1  -6   9 22.0644 5.16426   4
  -1  -6   9 19.2514 5.19168   8
   1  -6  -9 19.8375 4.97169   2
   1  -6  -9 17.3003 4.51025   9
   1   6  -9 18.8563 5.99567   5
   1   6  -9 19.8282 3.61738   1
  -1   6   9 20.7731 8.37426   1
  -1   6   9 16.6594 3.35489   3
   0  -6  -9 65.5212 6.31542   2
   0  -6   9 68.1318 5.24427   4
   0  -6   9 74.9477 7.65677   7
   0  -6  -9 82.1865 6.37292   9
   0  -6   9 68.2004 6.04749   8
   0   6  -9 65.2743 7.98712   5
   0   6   9 65.1370 8.09956   1
   0   6   9 67.6805 5.72326   3
  -1  -6  -9 211.901 10.9506   9
   1  -6   9 212.947 9.64572   4
   1  -6   9 206.374 11.5439   7
  -1  -6  -9 214.430 19.3354   2
   1  -6   9 203.456 10.8292   8
   1   6   9 205.602 10.8375   3
  -1   6  -9 226.612 13.0110   5
   1   6   9 210.619 14.0352   1
  -2  -6  -9 56.6189 6.17427   2
   2  -6   9 61.2946 4.04012   8
  -2  -6  -9 69.6083 7.49656   9
   2  -6   9 73.0491 4.70436   4
   2  -6   9 55.8528 7.50437   7
  -2   6  -9 56.9887 10.3934   5
   2   6   9 57.3221 8.07182   3
   2   6   9 78.4886 11.1225   1
  -3  -6  -9 -0.6532 5.39904   9
  -3  -6  -9 5.96105 4.42388   2
   3  -6   9 3.13196 7.60333   7
   3   6   9 3.08137 5.00689   3
  -3   6  -9 3.04771 6.58474   5
   4  -6   9 1.68766 5.57321   6
  -4  -6  -9 1.40168 5.86693   2
   4  -6   9 4.07091 5.79557   7
  -4  -6  -9 2.53105 5.64133   9
  -4   6  -9 -4.1248 9.49157   5
   4   6   9 1.78091 5.65574   3
  -5  -6  -9 240.868 11.6015   9
  -5  -6  -9 243.337 11.4576   2
   5  -6   9 238.646 13.6502   6
   5  -6   9 243.974 15.8275   7
  -5   6  -9 248.609 15.8960   5
   5   6   9 228.843 15.5847   3
  -6  -6  -9 1.08356 5.16149   2
   6  -6   9 2.43092 7.18558   7
   6  -6   9 4.22662 7.00579   6
  -6  -6  -9 1.58004 4.79957   9
   6   6   9 3.04632 10.7813   3
  -6   6  -9 2.87644 8.17265   5
  -7  -6  -9 2.41894 5.35162   2
   7  -6   9 4.02415 7.38348   6
  -7  -6  -9 0.26888 7.50720   9
   7  -6   9 0.48070 8.22449   7
   7   6   9 5.55097 8.52367   3
  -7   6  -9 5.65677 8.58072   5
  -7  -7   9 6.42810 6.58402   8
  -7  -7   9 13.0262 6.80763   4
   7  -7  -9 11.4123 7.05301   7
   7  -7  -9 16.0361 6.30960   6
  -7   7   9 15.8958 8.38344   1
   7   7  -9 5.55762 13.8373   3
   6  -7  -9 137.467 12.1250   7
   6  -7  -9 143.410 10.6610   6
  -6  -7   9 149.493 12.0561   4
   6   7  -9 125.342 14.0315   3
  -6   7   9 135.760 12.7138   1
   5  -7  -9 6.90556 4.35549   6
  -5  -7   9 3.39344 5.56185   8
   5  -7  -9 8.28619 4.90450   7
  -5  -7   9 11.4813 5.70414   4
   5  -7  -9 3.61467 6.10786   9
   5   7  -9 10.0035 11.7220   3
  -5   7   9 4.70985 7.13146   1
   5   7  -9 -0.2530 6.69147   5
   4  -7  -9 44.0792 6.99515   9
  -4  -7   9 70.7833 15.2679   4
   4  -7  -9 45.5381 6.75908   7
   4  -7  -9 50.3267 5.61206   6
  -4  -7   9 70.1870 14.5336   8
   4   7  -9 33.1925 6.87644   5
  -4   7   9 38.5988 11.2773   1
   4   7  -9 34.3361 9.33856   3
   3  -7  -9 17.6855 4.98886   7
   3  -7  -9 16.4688 7.34210   9
  -3  -7   9 12.5450 6.81607   4
  -3  -7   9 16.7360 6.94906   8
   3   7  -9 2.72061 7.41927   5
   3   7  -9 18.6408 8.00389   3
  -3   7   9 15.0815 7.31024   1
  -2  -7   9 223.724 12.8934   8
   2  -7  -9 217.163 15.2586   7
   2  -7  -9 214.835 10.7022   9
  -2  -7   9 215.290 11.0086   4
   2   7  -9 190.547 13.2543   5
   2   7  -9 216.943 15.2133   3
  -2   7   9 205.354 14.4395   1
   1  -7  -9 46.5578 7.67736   9
  -1  -7   9 31.7805 6.21432   4
  -1  -7   9 37.6725 6.61202   8
  -1   7   9 42.3177 8.39948   1
   1   7  -9 31.4166 7.48022   5
   0  -7   9 8.44890 8.10909   7
   0  -7   9 12.8413 4.87671   4
   0  -7  -9 11.5201 5.24424   2
   0  -7  -9 8.63809 4.65406   9
   0  -7   9 13.8557 4.96822   8
   0   7  -9 10.3630 6.72507   5
   0   7   9 13.6522 6.76311   1
   0   7   9 7.71693 4.14732   3
  -1  -7  -9 0.84223 4.17127   9
   1  -7   9 2.21044 3.35142   4
   1  -7   9 5.66943 4.41297   8
   1  -7   9 -0.0371 7.15848   7
  -1  -7  -9 4.57133 6.31082   2
   1   7   9 3.20061 6.64230   1
  -1   7  -9 2.36639 6.86163   5
   1   7   9 -4.0434 6.05772   3
  -2  -7  -9 170.140 9.33038   9
  -2  -7  -9 182.241 10.9692   2
   2  -7   9 177.022 11.8404   7
   2   7   9 180.784 14.6608   1
   2   7   9 166.862 11.0094   3
  -2   7  -9 175.839 15.0878   5
   3  -7   9 47.6088 10.3514   7
  -3  -7  -9 72.8651 7.26953   2
  -3  -7  -9 62.3713 6.79306   9
   3   7   9 58.0268 10.2730   3
  -3   7  -9 63.6585 13.1909   5
   3   7   9 58.5837 9.84397   1
  -4  -7  -9 170.398 10.3932   2
   4  -7   9 163.553 13.0732   7
  -4  -7  -9 176.286 10.9383   9
  -4   7  -9 194.451 15.1091   5
   4   7   9 174.720 12.3001   3
   5  -7   9 93.7478 13.8143   7
  -5  -7  -9 120.888 8.97650   2
  -5  -7  -9 112.120 9.34997   9
   5  -7   9 101.306 13.5318   6
  -5   7  -9 111.919 16.4161   5
   5   7   9 107.776 11.8729   3
  -6  -7  -9 27.5927 6.08827   9
  -6  -7  -9 33.9411 6.69680   2
   6  -7   9 44.0935 20.4173   7
   6  -7   9 26.0054 19.6459   6
  -6   7  -9 25.0688 10.7216   5
   6   7   9 17.7677 9.76365   3
  -6  -8   9 4.50145 6.60924   8
  -6  -8   9 1.72286 7.06465   4
  -6   8   9 4.79296 8.33958   1
   6   8  -9 -1.3811 9.66865   3
  -5  -8   9 -1.3908 8.32807   4
  -5  -8   9 -0.9925 5.78946   8
   5   8  -9 -8.7051 12.7732   3
  -5   8   9 -1.4039 7.61041   1
   4  -8  -9 6.22158 8.66958   9
  -4  -8   9 9.17472 7.48318   8
  -4  -8   9 8.21642 8.25515   4
   4   8  -9 6.38892 12.9705   3
  -4   8   9 10.6191 11.2658   1
   4   8  -9 -3.5577 8.40303   5
   3  -8  -9 13.9340 6.20490   9
  -3  -8   9 16.9093 5.55135   8
  -3  -8   9 18.7225 7.67312   4
   3   8  -9 12.2189 9.10483   3
  -3   8   9 14.4797 11.1284   1
   3   8  -9 12.7717 6.93137   5
  -2  -8   9 20.0342 7.48475   8
  -2  -8   9 17.5205 5.71476   4
   2  -8  -9 20.6297 6.28501   9
   2   8  -9 16.5145 8.52256   3
   2   8  -9 13.1880 9.81422   5
  -2   8   9 25.1597 11.7085   1
  -1  -8   9 41.2876 6.25844   8
   1  -8  -9 44.3203 6.80137   9
  -1   8   9 41.1185 12.0841   1
   1   8  -9 33.6813 11.8153   3
   1   8  -9 38.8767 8.96362   5
   0  -8  -9 6.55278 5.01414   9
   0  -8   9 2.16928 5.63533   8
   0   8  -9 1.36067 7.31521   5
   0   8   9 8.20391 10.6311   1
  -1  -8  -9 79.0826 7.72494   9
   1  -8   9 75.0424 9.81410   7
   1   8   9 56.6750 9.60800   3
  -1   8  -9 76.3770 10.8988   5
   1   8   9 80.9632 18.9900   1
  -2  -8  -9 10.3229 5.82367   2
   2  -8   9 2.77060 10.0360   7
  -2  -8  -9 10.0215 5.82397   9
   2   8   9 9.56068 9.10739   3
   2   8   9 12.6048 8.73254   1
  -2   8  -9 8.18542 8.47910   5
   3  -8   9 -5.3388 7.03881   7
  -3  -8  -9 3.34182 6.82538   9
  -3  -8  -9 2.24128 4.94427   2
   3   8   9 -3.6413 9.22750   3
  -3   8  -9 9.24595 8.85608   5
   3   8   9 3.43041 8.22324   1
  -4  -8  -9 20.9549 6.38767   9
   4  -8   9 11.2273 11.7296   7
  -4  -8  -9 26.9687 6.97482   2
  -4   8  -9 25.9816 11.2167   5
   4   8   9 13.3746 9.99529   1
   4   8   9 11.9625 8.23406   3
   3  -9  -9 4.11711 6.58307   9
  -3  -9   9 0.10542 6.06814   8
   3   9  -9 7.83677 10.0721   3
  -3   9   9 5.31243 8.82593   1
   2  -9  -9 79.9098 8.85690   9
  -2  -9   9 95.3073 10.1248   8
   2   9  -9 71.1090 12.5892   3
  -2   9   9 77.8879 15.3289   1
   2   9  -9 60.0620 13.7122   5
   1  -9  -9 19.7820 7.02150   9
  -1  -9   9 25.4420 7.61492   8
   1   9  -9 8.48977 11.8787   5
  -1   9   9 22.1687 13.2152   1
   1   9  -9 25.3466 9.17070   3
   0  -9  -9 1.15012 5.52148   9
   0   9  -9 -4.4309 10.9869   5
   0   9   9 -2.3973 7.94177   1
   0   9  -9 2.47752 8.12444   3
  -1  -9  -9 5.60008 8.61165   9
   1  -9   9 14.9447 12.5648   7
   1   9   9 6.49760 12.7363   1
  -1   9  -9 10.2495 9.54494   5
   2  -9   9 164.954 14.1355   7
  -2  -9  -9 165.402 11.4516   9
  -2   9  -9 128.242 14.2173   5
   2   9   9 173.905 15.4464   1
 -11   0  10 7.08218 7.60962   1
  11   0 -10 6.55221 8.00097   6
 -10   0  10 27.1957 10.1750   1
 -10   0  10 31.9391 8.07589   4
  10   0 -10 21.6734 10.2304   6
 -10   0  10 30.6915 7.94353   8
  -9   0  10 0.71260 5.97273   4
   9   0 -10 3.02409 8.13858   6
  -9   0  10 -3.7663 7.52078   1
  -9   0  10 -1.2395 5.88014   8
   9   0 -10 0.39055 5.00552   3
  -8   0  10 325.276 15.6696   8
   8   0 -10 323.537 18.8135   6
  -8   0  10 355.772 15.3571   1
  -8   0  10 338.981 13.4508   4
   8   0 -10 367.994 20.5488   3
  -7   0  10 5.53420 5.49562   1
  -7   0  10 -1.6713 4.72858   8
  -7   0  10 2.19597 2.02187   9
   7   0 -10 3.43859 5.72118   6
  -7   0  10 -0.8905 2.87190   2
   7   0 -10 -0.8055 3.93430   3
  -7   0  10 -1.7341 3.28763   4
   6   0 -10 60.2262 6.67250   5
  -6   0  10 67.8541 5.89987   1
  -6   0  10 60.0013 5.53702   8
  -6   0  10 70.4207 4.35246   2
  -6   0  10 77.8083 4.25738   9
   6   0 -10 67.8890 4.77874   3
  -6   0  10 74.6154 5.86381   4
   6   0 -10 74.6797 6.17966   6
  -5   0  10 2.00367 1.95040   9
   5   0 -10 -1.1762 2.17320   9
   5   0 -10 0.79133 2.99835   3
   5   0 -10 -0.0403 3.90968   6
  -5   0  10 -1.2731 2.69546   1
  -5   0  10 0.95570 3.88940   4
   5   0 -10 -0.8304 2.70763   5
  -5   0  10 -1.6075 2.08211   2
  -4   0  10 1786.02 81.7541   2
  -4   0  10 1814.90 51.0636   9
   4   0 -10 1889.84 94.8784   5
  -4   0  10 1855.54 58.4182   1
   4   0 -10 1912.80 65.3205   9
  -4   0  10 1938.61 58.5571   4
   4   0 -10 1913.17 100.636   1
  -3   0  10 2.30757 2.28927   2
   3   0 -10 0.29572 1.37102   2
   3   0 -10 2.00207 2.56716   1
  -3   0  10 2.22710 1.51198   9
   3   0 -10 -0.7480 4.84724   4
  -3   0  10 -2.8098 3.78983   4
  -3   0  10 2.05478 3.09729   1
   3   0 -10 2.16434 1.47134   9
   3   0 -10 -0.7648 2.58760   5
  -3   0  10 -1.1123 2.55177   5
   3   0 -10 -2.0681 1.81249   3
  -2   0  10 200.276 8.27456   4
  -2   0  10 198.786 6.96909   1
   2   0 -10 215.634 7.61678   2
   2   0 -10 217.239 12.7449   1
   2   0 -10 212.435 10.1336   3
   2   0 -10 216.918 10.0010   5
   2   0 -10 200.454 9.93196   9
  -2   0  10 208.286 8.27335   2
  -2   0  10 196.511 8.55213   5
   1   0 -10 1.08697 2.56841   1
   1   0 -10 -3.2992 1.76374   2
   1   0 -10 -1.3375 1.42346   7
   1   0 -10 0.86619 1.96515   3
  -1   0  10 1.34168 2.72946   4
   1   0 -10 -3.0250 2.30509   9
  -1   0  10 1.03905 2.47282   5
   1   0 -10 -0.3424 2.28954   5
  -1   0  10 -1.7512 1.66268   2
  -1   0  10 -2.4646 1.61452   1
   0   0  10 2696.60 107.636   1
   0   0  10 2778.84 78.8217   4
   0   0  10 2752.56 67.2617   3
   0   0 -10 2751.04 127.157   5
   0   0 -10 2806.20 109.910   6
   0   0 -10 2749.50 82.2894   2
   0   0 -10 2753.56 78.2518   3
   0   0  10 2652.81 98.7530   5
   0   0 -10 2782.53 109.698   7
   0   0  10 2796.72 145.478   2
  -1   0 -10 0.47199 2.10072   7
   1   0  10 0.21391 2.61206   5
  -1   0 -10 1.08193 2.28618   5
  -1   0 -10 -2.0173 2.37456   3
   1   0  10 1.53769 2.39640   2
   1   0  10 -2.5951 1.94200   7
  -1   0 -10 -0.9756 2.16710   2
   1   0  10 -0.1317 2.40253   3
  -1   0 -10 -0.9287 2.01778   6
  -2   0 -10 199.868 9.53187   5
   2   0  10 202.931 9.47000   3
   2   0  10 198.282 7.79580   6
   2   0  10 196.126 8.49178   7
  -2   0 -10 195.879 7.09049   7
  -2   0 -10 202.481 8.03947   2
  -2   0 -10 199.843 7.00998   6
   2   0  10 191.187 9.68349   5
   3   0  10 -0.4655 2.71129   5
   3   0  10 -0.3701 2.05196   7
  -3   0 -10 1.01380 2.24057   5
  -3   0 -10 -3.2471 4.00093   2
   3   0  10 1.51550 2.25591   1
   3   0  10 -0.1673 1.97753   6
   3   0  10 0.04300 4.60347   3
  -3   0 -10 0.71263 2.14965   6
  -4   0 -10 26.0687 5.66515   2
   4   0  10 35.3554 4.14202   1
   4   0  10 32.6649 6.46765   3
  -4   0 -10 31.5045 4.54712   6
   4   0  10 32.2455 4.15462   8
  -4   0 -10 29.9509 4.52866   5
   4   0  10 35.7064 5.00665   7
   4   0  10 28.8796 4.55927   6
   4   0  10 28.2314 4.45413   5
   5   0  10 3.45090 4.32284   8
   5   0  10 -1.6999 3.73826   5
  -5   0 -10 0.92346 2.69854   5
   5   0  10 3.08831 4.50473   3
   5   0  10 0.71755 4.61257   6
   5   0  10 0.24975 4.65286   7
  -5   0 -10 -0.2777 3.70991   2
   6   0  10 318.160 15.5423   3
  -6   0 -10 319.469 14.5944   5
  -6   0 -10 321.451 13.3079   2
   6   0  10 299.472 14.7744   7
   6   0  10 338.248 12.7524   6
   7   0  10 -3.7265 6.59846   7
   7   0  10 -0.1717 8.05876   3
  -7   0 -10 2.59164 4.12826   5
  -7   0 -10 -2.3415 4.71677   2
   7   0  10 2.71748 6.25747   6
   8   0  10 25.0099 9.22929   7
   8   0  10 18.3887 6.84430   6
   8   0  10 20.1678 7.31420   3
  -8   0 -10 24.7404 8.58474   2
   9   0  10 6.50176 9.83877   3
  -9   0 -10 -2.9453 6.06977   2
   9   0  10 2.54143 8.20827   6
   9   0  10 2.26831 8.99301   7
 -11  -1  10 75.6500 8.99252   8
 -11  -1  10 76.9950 9.14510   4
 -11  -1  10 93.8136 11.4001   1
  11  -1 -10 84.1949 11.2654   6
 -11   1  10 106.747 12.1115   1
  11   1 -10 94.0238 11.9925   6
 -10  -1  10 103.115 10.2711   1
  10  -1 -10 83.7043 12.0579   6
 -10  -1  10 99.5688 10.5655   8
 -10  -1  10 86.3112 8.76401   4
 -10   1  10 84.0260 7.89607   4
  10   1 -10 103.139 13.0541   3
  10   1 -10 91.5088 10.8995   6
 -10   1  10 77.4739 7.85421   8
 -10   1  10 102.771 10.8311   1
  -9  -1  10 44.5386 7.21057   1
  -9  -1  10 38.0839 7.66359   4
   9  -1 -10 33.4121 6.98432   6
  -9  -1  10 33.7481 7.65616   8
  -9   1  10 28.1932 7.30751   8
  -9   1  10 26.7467 6.74018   4
  -9   1  10 43.7865 9.45841   1
   9   1 -10 37.6593 7.76129   6
   9   1 -10 48.5600 9.49009   3
  -8  -1  10 737.161 31.7467   4
   8  -1 -10 750.522 32.4697   6
   8  -1 -10 746.366 39.5266   3
  -8  -1  10 772.299 25.6308   1
  -8  -1  10 765.567 33.0903   8
   8   1 -10 779.975 26.5064   3
  -8   1  10 758.783 41.4625   8
   8   1 -10 780.038 28.7249   6
  -8   1  10 738.631 29.4835   4
  -8   1  10 739.406 31.7478   1
  -7  -1  10 84.5254 4.40677   9
  -7  -1  10 85.0649 8.12040   1
  -7  -1  10 82.1698 7.51214   8
   7  -1 -10 97.6305 8.51556   6
   7  -1 -10 93.2033 6.20391   3
  -7  -1  10 72.0148 6.41387   4
  -7  -1  10 82.7903 4.32544   2
   7   1 -10 85.8336 7.81888   6
   7   1 -10 73.2643 7.43862   5
   7   1 -10 91.7693 6.74295   3
  -7   1  10 61.5971 6.77662   8
  -7   1  10 75.6564 6.98482   4
  -7   1  10 88.8019 7.62353   1
   6  -1 -10 29.1409 3.26684   3
  -6  -1  10 34.9652 2.50205   2
   6  -1 -10 30.6169 4.54735   6
  -6  -1  10 33.4049 2.41188   9
  -6  -1  10 29.3938 5.71868   8
  -6  -1  10 30.5094 4.48577   1
  -6  -1  10 32.8059 5.70865   4
   6   1 -10 30.8989 5.04154   6
   6   1 -10 25.1369 4.32831   5
  -6   1  10 35.8894 5.10785   1
  -6   1  10 37.2882 3.51551   9
   6   1 -10 31.6221 4.51024   3
  -6   1  10 27.5678 4.08091   2
  -6   1  10 24.6265 5.25527   4
   5  -1 -10 154.376 8.65545   5
  -5  -1  10 164.428 8.35109   4
  -5  -1  10 165.374 8.90821   1
   5  -1 -10 180.884 25.7702   3
  -5  -1  10 163.245 4.84807   9
   5  -1 -10 148.340 7.32152   6
  -5  -1  10 171.860 5.64055   2
  -5  -1  10 161.146 7.95093   8
   5  -1 -10 160.287 7.21969   9
  -5   1  10 168.838 8.45279   1
   5   1 -10 175.848 11.0457   3
  -5   1  10 163.649 8.23462   4
  -5   1  10 167.721 10.9226   2
  -5   1  10 148.819 8.57657   9
   5   1 -10 163.649 8.41292   5
   4  -1 -10 15.2493 11.2762   1
   4  -1 -10 15.6942 2.97108   9
   4  -1 -10 16.7570 1.92904   3
   4  -1 -10 17.4553 3.76328   6
  -4  -1  10 21.3912 3.61539   4
  -4  -1  10 19.8087 2.01010   2
   4  -1 -10 12.8773 3.41941   5
   4  -1 -10 13.6122 2.34200   3
  -4  -1  10 13.8892 3.44713   1
   4   1 -10 15.2407 1.76306   9
   4   1 -10 11.7488 4.54508   1
  -4   1  10 10.2342 3.29747   4
  -4   1  10 17.4094 2.90282   9
  -4   1  10 15.3779 3.69777   1
   4   1 -10 11.5956 3.41592   5
  -4   1  10 12.3843 3.05106   2
  -3  -1  10 176.547 10.3609   5
   3  -1 -10 177.619 8.63514   6
   3  -1 -10 166.506 6.15704   3
   3  -1 -10 151.668 10.0591   1
  -3  -1  10 168.121 7.16276   1
  -3  -1  10 154.434 6.71604   2
   3  -1 -10 160.347 6.53831   9
   3  -1 -10 161.952 6.11232   2
   3  -1 -10 159.203 7.98910   5
  -3  -1  10 167.576 7.81986   4
  -3   1  10 164.173 8.51020   4
   3   1 -10 167.781 5.83502   2
  -3   1  10 160.205 7.41485   1
  -3   1  10 165.601 6.57035   9
   3   1 -10 153.952 10.1769   1
  -3   1  10 166.369 18.3931   5
   3   1 -10 165.256 9.06079   9
   3   1 -10 177.730 7.79499   5
  -3   1  10 172.291 6.46100   2
   2  -1 -10 129.375 7.93098   1
  -2  -1  10 139.049 5.55043   2
   2  -1 -10 143.580 7.17331   5
   2  -1 -10 134.382 7.16521   3
  -2  -1  10 141.452 6.06728   1
   2  -1 -10 136.527 7.60990   9
   2  -1 -10 149.646 6.17247   2
  -2  -1  10 146.730 7.99894   4
  -2  -1  10 127.280 12.6067   5
   2   1 -10 144.021 7.05330   5
  -2   1  10 132.469 6.76549   5
  -2   1  10 140.560 7.99927   4
  -2   1  10 153.672 6.32489   2
  -2   1  10 141.714 6.61691   1
   2   1 -10 140.993 5.34963   2
   2   1 -10 130.858 8.42951   1
  -2   1  10 148.119 5.89561   9
   2   1 -10 143.000 7.35491   4
   2   1 -10 158.126 9.29723   7
   2   1 -10 150.384 6.44317   9
   1  -1 -10 1189.85 41.5115   9
   1  -1 -10 1208.27 59.3876   7
   1  -1 -10 1102.89 36.2970   3
   1  -1 -10 1139.16 35.6946   5
  -1  -1  10 1131.34 33.5811   1
  -1  -1  10 1150.91 31.4822   4
   1  -1 -10 1152.90 31.1845   2
  -1  -1  10 1155.31 42.0632   5
  -1  -1  10 1149.92 36.8616   2
   1  -1 -10 1150.41 60.8526   1
  -1   1  10 1155.45 46.9076   5
  -1   1  10 1147.72 35.9618   3
  -1   1  10 1133.63 36.3005   1
   1   1 -10 1160.90 42.2912   5
  -1   1  10 1149.29 32.9096   2
   1   1 -10 1176.85 30.3240   4
   1   1 -10 1195.53 40.1750   7
   1   1 -10 1153.92 57.2395   3
  -1   1  10 1191.51 37.7671   4
   1   1 -10 1202.00 33.4917   2
   1   1 -10 1164.11 53.7912   1
   0  -1  10 0.44757 2.48534   4
   0  -1 -10 1.84190 2.06471   3
   0  -1 -10 0.24596 2.01756   9
   0  -1  10 -2.7311 3.92207   5
   0  -1 -10 1.09261 1.35325   6
   0  -1 -10 1.38244 1.18198   7
   0  -1 -10 0.11701 2.85203   5
   0  -1  10 1.43271 1.85646   7
   0  -1  10 -2.5311 1.71712   2
   0  -1 -10 1.49851 2.20972   2
   0   1  10 -2.0849 2.98132   5
   0   1 -10 0.14516 2.42190   3
   0   1 -10 -0.7848 2.45506   5
   0   1  10 0.65028 2.01522   1
   0   1 -10 -0.3518 1.62278   6
   0   1  10 -0.3249 2.07589   3
   0   1 -10 0.09200 1.67374   7
   0   1  10 -0.5883 2.90277   2
   0   1 -10 -0.4456 1.89524   2
   1  -1  10 222.310 8.97938   3
  -1  -1 -10 198.162 7.75488   3
  -1  -1 -10 217.819 10.5563   5
   1  -1  10 199.335 9.55656   7
  -1  -1 -10 214.926 7.81523   7
  -1  -1 -10 209.340 8.10221   6
   1  -1  10 206.424 10.2455   5
   1  -1  10 218.836 8.74370   1
   1  -1  10 217.400 7.99797   4
  -1  -1 -10 213.621 8.75806   9
  -1  -1 -10 203.316 7.98371   2
   1  -1  10 212.938 8.90046   1
  -1   1 -10 217.936 10.0720   2
  -1   1 -10 221.388 10.3862   6
   1   1  10 197.809 11.1350   5
  -1   1 -10 214.516 9.31860   3
   1   1  10 214.936 8.26175   7
  -1   1 -10 215.966 11.8730   5
   1   1  10 215.962 8.16786   3
   1   1  10 216.541 10.8290   2
  -1   1 -10 228.414 11.7083   7
  -2  -1 -10 5.93606 1.91559   6
   2  -1  10 4.96868 3.26555   3
   2  -1  10 5.47418 2.68919   4
   2  -1  10 2.71218 2.23697   7
  -2  -1 -10 3.41181 2.02472   5
   2  -1  10 2.94560 3.03125   6
  -2  -1 -10 1.31147 2.61762   2
   2  -1  10 0.55533 4.67842   5
   2  -1  10 2.38922 1.44569   1
   2   1  10 5.76324 1.98952   6
   2   1  10 6.73846 1.99771   7
  -2   1 -10 3.46537 2.37528   7
   2   1  10 6.11268 3.22146   3
  -2   1 -10 0.50461 2.20691   6
  -2   1 -10 5.04991 2.84717   2
  -2   1 -10 4.92453 2.97274   5
   2   1  10 -0.9884 3.26093   5
   3  -1  10 160.958 8.40544   1
   3  -1  10 143.960 6.92489   6
   3  -1  10 155.261 8.03741   3
   3  -1  10 171.252 8.20652   7
   3  -1  10 154.602 6.60706   4
  -3  -1 -10 146.650 7.63725   5
  -3  -1 -10 164.218 6.07068   6
   3  -1  10 136.861 9.59146   5
  -3  -1 -10 149.509 7.52140   2
   3   1  10 138.449 8.71704   5
   3   1  10 155.737 8.91124   3
   3   1  10 154.733 11.0718   1
  -3   1 -10 155.229 7.83498   2
  -3   1 -10 163.521 7.93566   6
  -3   1 -10 147.829 8.22159   7
  -3   1 -10 158.523 7.85112   5
   3   1  10 162.461 6.42384   7
   3   1  10 144.642 6.57113   6
   3   1  10 148.660 7.85500   8
  -4  -1 -10 200.659 11.3273   6
   4  -1  10 204.336 8.09213   8
   4  -1  10 194.221 8.98056   7
   4  -1  10 197.893 8.00762   1
  -4  -1 -10 187.586 9.62302   2
   4  -1  10 190.494 9.13885   6
  -4  -1 -10 196.452 9.31610   5
   4  -1  10 201.777 10.6847   3
   4   1  10 199.003 29.6512   3
   4   1  10 197.819 12.9983   5
  -4   1 -10 199.598 10.5170   2
   4   1  10 211.931 7.95483   7
   4   1  10 197.269 7.90700   6
  -4   1 -10 190.013 9.40741   5
   5  -1  10 -0.4674 6.05485   3
  -5  -1 -10 0.43365 3.62484   2
  -5  -1 -10 -0.4615 2.63901   5
   5  -1  10 0.21109 3.59461   7
   5  -1  10 2.09739 2.25946   8
   5  -1  10 1.64059 3.57291   6
  -5   1 -10 -0.3232 3.71356   2
   5   1  10 -1.2159 3.01125   7
  -5   1 -10 2.67803 4.85385   5
   5   1  10 3.22698 4.75731   3
   5   1  10 -1.3430 3.96553   6
   5   1  10 -1.2445 4.14744   5
   6  -1  10 11.1597 5.41843   3
   6  -1  10 11.9196 6.12151   6
  -6  -1 -10 13.1660 3.23968   5
   6  -1  10 7.22792 6.19737   7
  -6  -1 -10 11.8856 6.31800   2
   6   1  10 11.8838 5.73772   3
  -6   1 -10 11.7092 6.62552   2
   6   1  10 9.99106 5.32323   6
  -6   1 -10 18.0413 4.62292   5
   6   1  10 12.5241 4.27660   7
  -7  -1 -10 171.716 11.6363   2
   7  -1  10 155.660 11.5378   6
   7  -1  10 162.023 11.2129   3
   7  -1  10 184.826 13.0771   7
  -7   1 -10 184.052 11.1920   2
  -7   1 -10 187.816 9.74438   5
   7   1  10 177.785 9.73063   6
   7   1  10 171.920 11.1187   7
   7   1  10 174.389 12.9777   3
   8  -1  10 3.42916 7.84810   6
  -8  -1 -10 -4.1235 7.19466   2
   8  -1  10 4.50197 6.15907   3
   8  -1  10 1.11482 8.13390   7
   8   1  10 -0.8318 7.11636   7
   8   1  10 0.34303 6.46033   3
   8   1  10 0.33563 4.84017   6
  -8   1 -10 -2.7457 7.96122   2
   9  -1  10 51.9412 11.4643   7
   9  -1  10 57.3262 11.4340   3
   9  -1  10 44.3330 8.68242   6
  -9  -1 -10 51.6759 8.24392   2
   9   1  10 40.7219 10.0730   7
  -9   1 -10 58.4239 8.80524   2
   9   1  10 47.1786 9.28657   3
   9   1  10 32.0823 9.33957   6
 -10  -2  10 87.6457 9.28170   4
 -10  -2  10 79.3450 11.6361   1
 -10  -2  10 75.8992 9.35400   8
  10  -2 -10 92.7947 12.3820   6
  10   2 -10 89.6303 13.4089   6
 -10   2  10 89.9540 12.8904   1
  10   2 -10 107.197 10.1237   3
   9  -2 -10 38.1652 10.8914   6
  -9  -2  10 17.0064 5.68944   8
  -9  -2  10 45.7520 7.30810   1
  -9  -2  10 22.1294 7.86738   4
   9   2 -10 34.0713 8.19750   6
  -9   2  10 25.5106 6.35820   4
  -9   2  10 30.8569 6.54934   8
   9   2 -10 48.2382 9.19201   3
  -9   2  10 27.4787 7.35092   1
  -8  -2  10 104.171 8.30934   1
   8  -2 -10 97.4711 8.09992   6
  -8  -2  10 97.4715 8.91097   4
  -8  -2  10 76.4542 8.63280   8
  -8   2  10 73.1559 7.33585   4
  -8   2  10 89.8596 10.1344   1
  -8   2  10 90.0159 7.76726   8
   8   2 -10 96.4999 9.33867   6
   8   2 -10 103.921 8.50840   3
  -7  -2  10 -0.1933 3.62713   8
  -7  -2  10 -1.2256 3.78512   1
   7  -2 -10 0.49082 1.37153   3
  -7  -2  10 1.48584 3.75009   4
   7  -2 -10 0.60285 3.80298   6
   7   2 -10 0.34661 4.80598   5
  -7   2  10 -0.3282 4.51904   4
   7   2 -10 3.54236 4.51992   6
   7   2 -10 6.77776 4.58323   3
  -7   2  10 3.88041 4.45177   1
   6  -2 -10 15.1028 1.79291   3
  -6  -2  10 12.9922 3.83887   8
  -6  -2  10 19.3287 3.90647   1
  -6  -2  10 11.0655 3.84193   4
   6  -2 -10 16.4155 1.38865   3
   6  -2 -10 19.4493 4.00511   6
  -6   2  10 10.5122 4.71528   1
   6   2 -10 15.5917 6.03095   3
  -6   2  10 13.5882 3.73393   4
   6   2 -10 14.8343 3.97846   5
   5  -2 -10 18.4615 3.34452   9
  -5  -2  10 24.8111 3.59938   1
  -5  -2  10 19.2151 5.45766   8
  -5  -2  10 25.4327 5.20563   4
   5  -2 -10 20.5611 1.50052   3
   5  -2 -10 21.5919 1.28082   3
   5  -2 -10 20.1462 3.43203   6
   5   2 -10 21.8771 7.17420   3
  -5   2  10 15.0596 3.80555   4
   5   2 -10 10.5880 20.1855   1
  -5   2  10 21.3931 4.70144   1
   5   2 -10 20.8564 4.04615   5
  -4  -2  10 51.0494 4.82318   4
   4  -2 -10 53.3992 4.00884   6
   4  -2 -10 51.9997 3.02375   3
   4  -2 -10 48.3382 2.53381   3
  -4  -2  10 50.2284 3.94892   1
  -4  -2  10 49.7996 4.78796   8
   4  -2 -10 47.7946 3.99012   9
  -4   2  10 51.4280 4.89826   2
  -4   2  10 55.2428 4.13542   9
   4   2 -10 45.1765 5.61384   5
  -4   2  10 53.9844 5.67428   1
   4   2 -10 46.0362 5.07788   1
  -4   2  10 46.5759 6.12976   4
   3  -2 -10 0.06532 1.21312   3
  -3  -2  10 1.29926 2.23307   1
  -3  -2  10 0.60414 2.51817   8
   3  -2 -10 -2.9130 2.84836   9
   3  -2 -10 0.42952 3.81724   5
  -3  -2  10 -0.5232 2.44444   4
   3  -2 -10 0.21956 2.18180   6
   3  -2 -10 -0.8379 2.10048   2
   3   2 -10 0.41473 1.18844   9
   3   2 -10 -0.8989 2.91711   1
  -3   2  10 -1.3673 3.29308   4
  -3   2  10 -1.3014 2.16515   2
  -3   2  10 -0.5001 4.67551   1
  -3   2  10 0.64706 2.72958   9
   3   2 -10 1.15898 1.02887   2
   3   2 -10 0.39393 4.08990   5
  -2  -2  10 -0.0054 1.44465   1
   2  -2 -10 1.31427 2.22609   2
   2  -2 -10 1.48856 2.15094   9
   2  -2 -10 1.01147 1.69690   3
  -2  -2  10 0.32586 2.78461   5
   2  -2 -10 0.11397 1.04966   6
   2  -2 -10 2.09594 2.47808   5
   2  -2 -10 3.26771 4.80563   1
  -2  -2  10 0.50856 3.28697   4
  -2   2  10 0.44212 2.93443   2
   2   2 -10 0.23862 2.62040   7
  -2   2  10 -1.5473 2.78827   1
  -2   2  10 0.92955 3.13211   4
   2   2 -10 0.24552 1.66677   2
  -2   2  10 -0.6872 1.11761   3
  -2   2  10 1.45207 3.67325   5
   2   2 -10 0.59728 1.34778   1
   2   2 -10 2.30728 4.47455   4
   2   2 -10 1.43475 3.98542   5
  -2   2  10 -0.8670 2.87307   9
  -1  -2  10 90.8521 4.46260   1
   1  -2 -10 101.006 5.15905   3
   1  -2 -10 102.567 5.62883   7
  -1  -2  10 90.6494 5.19907   4
   1  -2 -10 91.7196 5.10348   9
   1  -2 -10 91.7673 5.36004   5
  -1  -2  10 102.065 7.23403   5
   1  -2 -10 93.4164 4.08327   6
   1  -2 -10 96.8933 6.47001   2
   1   2 -10 87.9788 6.76868   5
  -1   2  10 90.4618 4.76871   3
  -1   2  10 96.3116 5.72105   5
  -1   2  10 102.071 5.57558   9
   1   2 -10 91.9816 4.92340   1
   1   2 -10 107.826 6.63835   7
  -1   2  10 92.6682 6.25676   2
   1   2 -10 93.0788 6.95190   4
   1   2 -10 94.9458 6.76110   3
  -1   2  10 90.8726 5.93873   1
   1   2 -10 88.6027 5.01268   2
   0  -2  10 83.5305 5.19364   7
   0  -2 -10 85.7811 5.00099   9
   0  -2  10 81.8229 6.43284   5
   0  -2 -10 94.1466 5.09145   5
   0  -2 -10 84.1409 5.25399   2
   0  -2 -10 86.3809 4.75122   3
   0  -2  10 85.0899 5.33181   4
   0   2 -10 90.8272 4.85019   2
   0   2  10 80.8628 5.13869   5
   0   2  10 85.9759 5.34656   2
   0   2 -10 84.7991 5.17597   6
   0   2 -10 83.2931 6.05175   7
   0   2 -10 89.9707 6.43105   4
   0   2  10 97.4137 5.59371   3
   0   2  10 88.7987 5.79453   1
   0   2 -10 88.2582 5.99243   3
   0   2 -10 82.8959 6.06256   5
   1  -2  10 13.6308 0.53000   1
  -1  -2 -10 20.4250 3.54184   2
  -1  -2 -10 21.0598 3.37181   9
   1  -2  10 17.3082 3.31319   7
  -1  -2 -10 19.3684 3.97705   3
  -1   2 -10 23.1111 4.59609   7
  -1   2 -10 19.8800 4.03527   2
  -1   2 -10 21.7197 4.24558   6
   1   2  10 24.0904 4.49070   3
   1   2  10 23.6719 3.94359   1
  -1   2 -10 23.7437 5.23766   5
   1   2  10 16.5571 2.88620   5
   2  -2  10 388.062 14.0970   4
   2  -2  10 415.127 15.1320   7
  -2  -2 -10 408.409 12.1334   5
  -2  -2 -10 389.296 11.7278   9
  -2  -2 -10 442.665 12.6149   2
   2  -2  10 428.502 13.1465   3
   2  -2  10 409.615 16.1182   1
   2  -2  10 416.568 17.5721   6
  -2   2 -10 432.520 22.8044   7
   2   2  10 420.444 21.1939   6
   2   2  10 417.487 25.7012   7
  -2   2 -10 430.668 15.0878   2
   2   2  10 432.926 16.6677   5
   2   2  10 427.029 16.9471   3
  -2   2 -10 426.379 23.5999   6
  -2   2 -10 421.551 13.6619   5
   3  -2  10 294.749 12.6377   4
   3  -2  10 294.828 11.7812   3
  -3  -2 -10 282.552 12.3796   5
  -3  -2 -10 293.295 10.8662   2
   3  -2  10 290.888 8.88732   1
   3  -2  10 298.598 11.6382   7
   3  -2  10 282.718 10.8014   6
   3   2  10 292.766 12.5371   7
   3   2  10 296.784 13.4500   3
   3   2  10 291.825 10.9214   6
  -3   2 -10 290.490 11.0632   2
  -3   2 -10 292.645 12.2190   5
   3   2  10 289.390 14.5990   5
   4  -2  10 860.755 29.4550   1
   4  -2  10 928.233 28.7412   6
   4  -2  10 941.282 38.8382   7
  -4  -2 -10 909.160 29.9940   2
   4  -2  10 922.600 37.9160   3
   4  -2  10 877.941 30.8069   4
  -4  -2 -10 852.886 21.1439   5
   4   2  10 943.294 29.1809   7
   4   2  10 943.434 53.7879   5
   4   2  10 955.789 25.6385   3
  -4   2 -10 919.819 30.4217   5
  -4   2 -10 966.746 33.8723   2
   4   2  10 945.191 32.4280   6
   5  -2  10 141.354 8.52475   6
  -5  -2 -10 126.004 8.97586   2
   5  -2  10 126.185 5.92008   4
   5  -2  10 148.631 6.73480   8
   5  -2  10 110.598 8.76206   1
  -5  -2 -10 125.727 5.76478   5
   5  -2  10 135.539 10.0024   3
   5  -2  10 122.781 9.66404   7
  -5   2 -10 130.515 8.91537   2
   5   2  10 121.084 9.18242   3
   5   2  10 130.528 6.59096   6
   5   2  10 119.955 7.19660   7
  -5   2 -10 135.862 9.52418   5
   6  -2  10 77.3829 8.23219   7
   6  -2  10 104.599 8.72549   3
   6  -2  10 97.8875 8.14091   6
  -6  -2 -10 95.1012 8.69074   2
   6   2  10 84.5145 7.76023   7
   6   2  10 90.3349 6.42597   6
   6   2  10 85.2870 10.4300   3
  -6   2 -10 92.0680 9.64701   2
  -6   2 -10 118.036 8.54228   5
   7  -2  10 4.56523 7.93652   3
   7  -2  10 5.80694 5.54205   6
   7  -2  10 7.79043 5.92417   7
  -7  -2 -10 0.00000 4.81469   2
  -7   2 -10 6.31953 5.65652   2
   7   2  10 6.56038 4.52694   7
   7   2  10 2.82927 4.06083   6
   7   2  10 9.79866 6.61441   3
  -7   2 -10 9.54196 4.98694   5
  -8  -2 -10 91.5724 8.79644   2
   8  -2  10 70.8710 10.9421   3
   8  -2  10 70.6029 10.7830   6
   8  -2  10 51.1294 10.7997   7
  -8   2 -10 81.6761 9.34772   2
   8   2  10 65.8991 8.63003   6
   8   2  10 71.5479 9.75991   3
   8   2  10 75.3683 9.67210   7
  -8   2 -10 73.2653 9.54525   5
   9  -2  10 22.7538 8.19382   6
   9  -2  10 34.3176 10.6902   3
  -9  -2 -10 27.0092 9.38950   2
   9  -2  10 5.86812 10.8607   7
  -9   2 -10 20.3192 8.00422   2
   9   2  10 5.34821 11.5243   3
 -10  -3  10 6.35041 6.28681   8
 -10  -3  10 -0.7485 6.24039   1
 -10  -3  10 5.36475 6.27897   4
  10  -3 -10 3.58045 7.11099   6
 -10   3  10 0.33324 10.2560   1
  10   3 -10 4.93549 10.3196   3
  10   3 -10 13.0063 11.2035   6
  -9  -3  10 3.89768 5.27711   4
  -9  -3  10 1.67908 5.54999   1
   9  -3 -10 6.32292 5.88540   6
  -9  -3  10 0.15093 4.98335   8
   9   3 -10 4.05329 7.15831   6
  -9   3  10 3.17631 6.46523   1
   9   3 -10 3.02526 6.36278   3
  -8  -3  10 67.4006 7.53354   4
  -8  -3  10 78.4593 7.81328   1
   8  -3 -10 85.9529 8.16757   6
  -8  -3  10 71.9368 7.70817   8
  -8   3  10 76.4786 7.41329   8
  -8   3  10 73.5242 8.77877   1
   8   3 -10 70.3145 10.3461   3
  -8   3  10 73.7574 7.21186   4
   8   3 -10 75.0373 6.55080   5
   8   3 -10 83.1243 12.2573   6
  -7  -3  10 463.312 20.2355   8
   7  -3 -10 479.253 25.7788   6
  -7  -3  10 472.711 15.4486   1
  -7  -3  10 482.880 19.2384   4
   7   3 -10 474.903 29.8415   5
  -7   3  10 485.178 27.6808   4
   7   3 -10 507.161 25.6133   3
  -7   3  10 495.698 20.2306   1
  -6  -3  10 0.26725 4.45957   1
   6  -3 -10 -0.9855 3.12697   6
   6  -3 -10 0.69786 3.53949   9
  -6  -3  10 0.07536 3.69480   4
  -6  -3  10 0.52763 3.63595   8
   6   3 -10 -2.7529 3.35977   5
   6   3 -10 1.90435 4.72058   3
  -6   3  10 1.62364 6.38180   1
  -6   3  10 0.93847 3.32217   4
  -5  -3  10 290.310 14.2316   8
  -5  -3  10 293.200 13.7995   4
   5  -3 -10 283.569 11.0795   6
  -5  -3  10 291.769 10.2657   1
   5  -3 -10 280.190 14.0603   9
  -5   3  10 265.071 11.5616   4
   5   3 -10 294.837 11.8023   5
  -5   3  10 294.698 15.4727   1
   5   3 -10 311.852 14.7688   3
  -4  -3  10 1.80367 4.10060   8
   4  -3 -10 -0.6624 2.00719   6
   4  -3 -10 1.07094 2.65340   9
  -4  -3  10 -0.1867 3.97606   4
  -4  -3  10 1.30864 2.84536   1
   4   3 -10 2.90036 3.93702   3
  -4   3  10 -2.0214 3.48648   4
   4   3 -10 1.40125 2.44522   1
  -4   3  10 -1.0927 5.50181   1
   4   3 -10 0.16764 3.12224   5
  -3  -3  10 37.0021 5.17052   4
   3  -3 -10 38.3883 4.80061   9
   3  -3 -10 44.8850 2.31066   3
   3  -3 -10 44.2525 3.57895   6
   3  -3 -10 38.7335 4.25844   2
  -3  -3  10 44.1963 4.62911   8
  -3   3  10 44.0988 5.57483   1
  -3   3  10 48.5323 6.38501   4
   3   3 -10 34.1635 3.64043   1
   3   3 -10 40.5350 2.22659   9
   3   3 -10 41.1082 2.30596   2
   3   3 -10 33.4769 5.72329   5
   2  -3 -10 6.55957 1.75260   7
   2  -3 -10 7.05115 3.82847   2
   2  -3 -10 7.04837 1.64189   6
  -2  -3  10 7.30164 2.82197   8
   2  -3 -10 6.23270 1.85959   3
  -2  -3  10 9.19895 2.94881   4
   2  -3 -10 6.66417 2.80475   9
   2   3 -10 7.63016 3.47962   5
  -2   3  10 10.2581 3.82344   1
   2   3 -10 7.47485 1.95301   1
   2   3 -10 5.29505 1.85796   2
  -2   3  10 3.26959 1.70296   3
  -1  -3  10 1.69141 3.17088   8
   1  -3 -10 -1.9648 2.03052   3
   1  -3 -10 0.34352 0.52563   6
  -1  -3  10 -0.5956 2.12241   4
   1  -3 -10 -0.0130 0.26641   7
   1  -3 -10 -0.0130 2.62510   2
   1  -3 -10 0.69603 0.52309   7
   1  -3 -10 -2.0803 3.43704   9
  -1   3  10 -0.5893 2.46868   3
   1   3 -10 0.51262 4.43938   4
   1   3 -10 -0.0977 2.28722   2
  -1   3  10 -0.2410 2.44295   5
  -1   3  10 0.32181 3.37689   1
   1   3 -10 -0.4017 3.16389   5
   0  -3  10 147.391 8.13212   7
   0  -3 -10 145.334 7.36564   9
   0  -3 -10 151.932 6.63550   5
   0  -3 -10 150.199 8.06095   3
   0  -3  10 152.463 6.27962   8
   0  -3 -10 129.902 6.77662   2
   0  -3  10 136.566 6.02391   4
   0   3 -10 139.834 8.27887   5
   0   3 -10 168.700 7.60140   4
   0   3  10 147.782 7.57864   3
   0   3  10 154.831 8.24128   1
   0   3 -10 137.637 6.28672   2
   0   3  10 144.760 6.85425   5
   1  -3  10 267.671 9.72067   4
  -1  -3 -10 251.686 11.0015   2
   1  -3  10 260.594 10.6944   7
  -1  -3 -10 259.001 9.82209   9
  -1  -3 -10 259.363 10.1242   5
  -1  -3 -10 276.089 11.8049   3
   1   3  10 263.737 9.06757   5
   1   3  10 276.769 11.3723   3
  -1   3 -10 264.835 14.1940   4
  -1   3 -10 262.288 13.2934   5
  -1   3 -10 268.203 9.99867   2
   1   3  10 247.579 11.5128   1
   2  -3  10 123.335 7.58829   7
  -2  -3 -10 140.189 6.90489   9
   2  -3  10 134.157 4.46752   1
  -2  -3 -10 133.856 5.76296   5
  -2  -3 -10 126.183 7.04936   2
   2  -3  10 134.440 9.00069   4
   2  -3  10 138.459 8.25059   6
  -2   3 -10 122.395 10.0841   5
  -2   3 -10 127.373 7.17029   2
   2   3  10 143.263 7.75500   3
   2   3  10 124.634 7.02325   5
  -3  -3 -10 572.570 16.5556   9
  -3  -3 -10 545.829 19.9287   5
   3  -3  10 548.690 22.6400   1
   3  -3  10 565.090 17.7884   7
   3  -3  10 570.161 18.4209   6
   3  -3  10 538.864 17.7049   4
  -3  -3 -10 566.839 16.3967   2
   3   3  10 568.615 26.0133   6
   3   3  10 567.121 33.6461   7
   3   3  10 579.727 24.7241   5
  -3   3 -10 557.445 23.7975   5
  -3   3 -10 579.785 17.4678   2
   3   3  10 568.923 23.5810   3
   4  -3  10 49.4900 6.26359   7
  -4  -3 -10 49.8601 3.28975   5
   4  -3  10 55.1157 4.57400   1
   4  -3  10 48.8342 2.98662   4
  -4  -3 -10 44.4060 6.25300   2
   4  -3  10 43.8820 6.96089   6
  -4  -3 -10 52.4535 5.21916   9
   4  -3  10 52.8731 6.18833   3
  -4   3 -10 53.2284 6.66449   5
   4   3  10 41.0503 3.88300   7
   4   3  10 50.8779 3.92844   6
  -4   3 -10 45.2671 5.87746   2
   4   3  10 47.6566 7.66369   3
   5  -3  10 86.1288 9.11756   6
   5  -3  10 93.6837 8.38125   7
  -5  -3 -10 99.8617 8.05426   9
  -5  -3 -10 97.3753 8.36814   2
   5  -3  10 95.6793 8.06305   3
   5  -3  10 86.5977 9.42008   1
   5   3  10 96.8515 6.05840   6
  -5   3 -10 108.363 9.86106   5
   5   3  10 107.636 8.98453   3
  -5   3 -10 116.963 9.87259   2
   5   3  10 96.0940 6.34785   7
   6  -3  10 8.17205 5.41591   3
   6  -3  10 5.62499 5.49960   7
  -6  -3 -10 6.22613 6.44939   2
   6  -3  10 5.11742 5.29880   6
  -6   3 -10 16.3510 5.76477   5
   6   3  10 10.0922 6.09794   3
   6   3  10 5.72355 3.72314   7
   6   3  10 3.43624 4.61374   6
  -6   3 -10 9.11635 5.58572   2
   7  -3  10 95.2584 10.2622   7
   7  -3  10 101.922 9.72452   6
   7  -3  10 112.384 9.67119   3
  -7  -3 -10 96.7424 8.69074   2
  -7   3 -10 121.385 10.1067   5
   7   3  10 97.1904 10.3546   3
  -7   3 -10 110.049 10.4026   2
   8  -3  10 4.80047 10.0790   7
   8  -3  10 -0.7876 9.07311   6
   8  -3  10 2.01678 6.49765   3
  -8  -3 -10 -3.6349 5.72696   2
  -8   3 -10 8.93248 8.62695   5
  -8   3 -10 -0.9921 6.52987   2
   8   3  10 -4.1313 7.01171   3
   9  -3  10 -2.8532 11.3706   7
  -9  -3 -10 7.13790 6.53631   2
   9  -3  10 3.36107 7.29362   6
   9  -3  10 5.04928 7.12281   3
   9   3  10 3.20932 7.87823   3
  -9   3 -10 -9.3189 7.24889   2
 -10  -4  10 1.83260 6.51427   8
  10  -4 -10 1.54946 7.81071   7
  10  -4 -10 -0.7166 7.18840   6
 -10  -4  10 -2.7438 9.08937   4
  10   4 -10 0.29601 7.89623   6
  10   4 -10 -1.3054 8.30742   3
 -10   4  10 7.03594 13.0190   1
   9  -4 -10 80.8199 10.8979   6
   9  -4 -10 88.6972 9.80494   7
  -9  -4  10 82.6782 24.4178   8
  -9  -4  10 89.6136 22.7509   4
   9   4 -10 94.0698 23.6151   6
  -9   4  10 91.7648 10.9941   1
   9   4 -10 85.6197 10.7448   3
   8  -4 -10 267.791 14.4885   7
   8  -4 -10 242.277 16.4834   6
  -8  -4  10 239.849 15.0869   8
  -8  -4  10 230.732 16.2872   4
   8   4 -10 238.919 15.2688   3
  -8   4  10 278.685 16.1954   1
   7  -4 -10 0.65810 4.04200   6
  -7  -4  10 -1.6991 4.34947   4
  -7  -4  10 4.62418 4.51514   8
   7  -4 -10 4.20822 6.10323   7
   7   4 -10 3.03715 3.66464   5
  -7   4  10 -1.6824 4.55384   4
   7   4 -10 0.00000 8.29037   3
  -7   4  10 -7.7558 7.57489   1
   6  -4 -10 7.78103 4.09234   7
   6  -4 -10 0.04101 4.16209   9
  -6  -4  10 12.0772 4.65427   4
  -6  -4  10 5.04695 4.19361   8
   6  -4 -10 16.0712 5.36536   6
  -6   4  10 7.03237 5.13119   4
   6   4 -10 6.00620 5.73725   3
  -6   4  10 4.96231 5.44500   1
   6   4 -10 7.21281 3.94314   5
   5  -4 -10 39.7420 5.49417   7
   5  -4 -10 35.3214 5.24456   6
  -5  -4  10 44.6781 6.69081   4
   5  -4 -10 30.5939 5.01261   9
  -5  -4  10 44.7714 5.58316   8
  -5   4  10 22.0077 6.02873   4
   5   4 -10 33.5582 8.47623   3
  -5   4  10 41.1258 6.68538   1
   5   4 -10 27.9871 6.02594   5
   4  -4 -10 535.128 21.3751   9
  -4  -4  10 569.601 19.8879   4
  -4  -4  10 543.316 25.1835   8
   4  -4 -10 539.068 25.7614   7
   4  -4 -10 548.960 22.0298   6
   4   4 -10 577.819 20.1827   5
  -4   4  10 562.905 24.4570   1
  -4   4  10 534.974 43.2294   6
  -4   4  10 549.269 25.7222   4
   4   4 -10 545.550 29.2394   1
   4   4 -10 586.957 31.1352   3
   3  -4 -10 17.4323 3.79896   9
   3  -4 -10 25.0799 2.65344   6
   3  -4 -10 25.1081 3.23565   7
  -3  -4  10 21.9913 4.04819   8
  -3  -4  10 18.9426 3.97617   4
  -3   4  10 20.7559 5.35061   1
   3   4 -10 17.8667 3.27945   1
   3   4 -10 17.9170 1.45490   2
   3   4 -10 18.9468 1.60806   2
   3   4 -10 22.3652 1.60506   9
  -3   4  10 20.1611 3.16882   6
   3   4 -10 17.2497 4.48158   5
  -2  -4  10 278.733 9.89078   8
  -2  -4  10 268.426 9.68787   4
   2  -4 -10 249.434 11.2165   6
   2  -4 -10 248.689 11.5450   3
   2  -4 -10 243.029 10.9484   2
   2  -4 -10 248.515 12.3278   9
   2  -4 -10 252.555 14.0283   7
   2   4 -10 237.333 7.52044   9
   2   4 -10 269.554 11.5192   5
  -2   4  10 268.912 11.7360   1
  -2   4  10 259.443 9.14103   3
   2   4 -10 245.990 9.43065   1
   2   4 -10 247.812 17.1575   2
  -1  -4  10 320.390 13.9700   4
   1  -4 -10 305.295 13.8238   2
   1  -4 -10 305.542 14.5562   9
   1  -4 -10 324.021 10.8778   7
  -1  -4  10 319.172 15.8101   8
   1  -4 -10 324.793 11.5483   3
   1   4 -10 318.598 8.33878   1
  -1   4  10 318.659 13.1538   1
   1   4 -10 322.849 12.5053   2
  -1   4  10 337.589 10.0439   3
   1   4 -10 327.448 13.4376   5
   1   4 -10 315.638 10.2674   1
   0  -4 -10 629.488 20.9192   9
   0  -4  10 640.374 19.8660   7
   0  -4  10 649.469 24.1594   8
   0  -4 -10 607.868 29.9804   3
   0  -4  10 640.130 29.3653   4
   0  -4 -10 641.241 22.0363   2
   0   4  10 639.300 25.2927   1
   0   4  10 637.207 25.7319   5
   0   4  10 663.845 19.3657   3
   0   4 -10 682.890 20.2999   5
   0   4 -10 672.011 29.1721   4
   1  -4  10 122.666 6.03138   4
  -1  -4 -10 112.829 6.88400   2
   1  -4  10 124.420 7.92519   7
  -1  -4 -10 128.297 6.92338   9
   1  -4  10 124.805 5.92435   8
  -1   4 -10 124.401 8.82941   5
   1   4  10 110.189 6.56061   5
   1   4  10 132.129 7.20534   3
  -1   4 -10 117.557 7.37585   4
   1   4  10 138.539 10.0721   1
   2  -4  10 16.3213 5.89653   7
   2  -4  10 22.2676 2.53706   4
   2  -4  10 23.9379 3.03325   8
  -2  -4 -10 20.3301 3.92166   9
  -2  -4 -10 25.3945 4.46543   2
   2   4  10 24.4918 4.70021   3
  -2   4 -10 18.3246 5.28515   5
   2   4  10 17.8158 2.91048   5
   3  -4  10 551.243 21.1593   7
  -3  -4 -10 544.586 21.1363   9
   3  -4  10 541.093 23.2106   8
   3  -4  10 530.494 36.4436   1
   3  -4  10 533.598 19.5939   6
   3  -4  10 534.966 24.2168   4
  -3  -4 -10 560.758 23.9723   2
   3   4  10 581.849 22.4584   6
  -3   4 -10 581.114 23.6822   5
   3   4  10 590.635 23.9985   7
   3   4  10 613.112 22.4345   3
  -4  -4 -10 2.61390 3.68951   2
   4  -4  10 1.57802 1.33705   4
   4  -4  10 8.09085 4.82594   6
  -4  -4 -10 6.08179 3.80534   9
   4  -4  10 2.03744 1.54162   8
   4  -4  10 4.22230 3.21888   1
   4  -4  10 5.37846 4.75585   7
  -4   4 -10 3.84302 5.13297   5
  -4   4 -10 3.88109 2.61593   1
   4   4  10 -0.2223 4.54419   3
   4   4  10 3.77217 4.37581   6
   4   4  10 3.41436 2.49714   7
   5  -4  10 7.22959 5.35915   7
  -5  -4 -10 -1.6705 3.76118   9
   5  -4  10 -2.2381 4.96130   6
  -5  -4 -10 -4.8221 5.50493   2
   5   4  10 0.26702 5.28197   3
  -5   4 -10 5.15720 5.74517   5
   6  -4  10 155.423 13.3540   7
   6  -4  10 154.860 12.5826   6
  -6  -4 -10 169.294 10.4712   9
  -6  -4 -10 180.696 11.1153   2
  -6   4 -10 206.942 13.2702   5
  -6   4 -10 193.017 12.0866   2
   6   4  10 170.932 13.7076   3
  -7  -4 -10 2.47515 4.71084   9
   7  -4  10 -0.1649 6.30142   6
  -7  -4 -10 4.45153 5.29574   2
   7  -4  10 9.90119 9.59804   7
  -7   4 -10 3.14564 6.42340   2
   7   4  10 -1.8403 6.83618   3
  -7   4 -10 4.89035 6.83669   5
   8  -4  10 47.7191 11.7354   6
   8  -4  10 45.1579 10.2484   7
  -8  -4 -10 49.6822 6.88095   9
  -8  -4 -10 58.4183 9.58091   2
  -8   4 -10 53.5541 9.53391   2
  -8   4 -10 65.6512 12.3040   5
   8   4  10 54.0721 9.63925   3
   9  -5 -10 51.8042 10.9807   7
  -9  -5  10 44.4221 8.28762   4
  -9  -5  10 45.8973 8.56770   8
   9  -5 -10 64.8556 10.7267   6
  -9   5  10 49.9990 9.60051   1
   9   5 -10 51.6719 13.7267   3
   9   5 -10 44.3985 10.1231   6
   8  -5 -10 9.47851 8.04382   7
  -8  -5  10 2.46478 5.26579   8
   8  -5 -10 9.06637 7.58593   6
   8   5 -10 7.65700 11.0503   3
  -8   5  10 12.5727 7.48181   1
   7  -5 -10 4.06111 4.60550   6
  -7  -5  10 -0.7162 4.79726   4
   7  -5 -10 -0.3792 4.55488   7
  -7  -5  10 1.86152 4.79185   8
   7   5 -10 0.67801 9.46091   3
  -7   5  10 2.54549 6.38284   1
  -6  -5  10 -0.3540 4.15049   8
   6  -5 -10 -0.1526 3.60727   6
   6  -5 -10 -3.0517 3.96333   7
  -6  -5  10 -1.0831 4.24661   4
  -6   5  10 0.23384 3.77670   4
   6   5 -10 1.68830 5.47983   5
  -6   5  10 -4.3778 5.54504   1
   6   5 -10 -7.3883 8.95833   3
   5  -5 -10 55.9927 6.55693   7
   5  -5 -10 50.1544 7.48953   9
  -5  -5  10 50.7311 6.26331   8
  -5  -5  10 50.3006 6.10585   4
   5  -5 -10 59.8893 6.26147   6
  -5   5  10 50.0484 7.47105   4
   5   5 -10 55.3366 6.39807   5
  -5   5  10 53.3553 9.63958   1
   5   5 -10 53.1083 10.5438   3
   4  -5 -10 41.1787 6.75069   9
  -4  -5  10 45.9187 5.80493   8
   4  -5 -10 56.2482 5.10397   6
  -4  -5  10 48.6815 5.84860   4
   4  -5 -10 52.8714 5.25850   7
  -4   5  10 40.9386 7.16639   1
  -4   5  10 42.9189 5.86053   4
   4   5 -10 39.2276 7.14558   5
   4   5 -10 40.6494 7.37576   3
   3  -5 -10 418.771 21.7009   6
  -3  -5  10 423.159 17.1739   4
   3  -5 -10 419.691 19.9118   7
  -3  -5  10 416.416 17.6367   8
   3  -5 -10 421.160 14.9292   9
   3   5 -10 423.237 20.4868   5
  -3   5  10 404.823 17.1710   1
   3   5 -10 406.285 30.7356   2
   2  -5 -10 29.3645 3.51901   7
   2  -5 -10 23.6689 2.79382   6
  -2  -5  10 18.4301 3.98025   8
   2  -5 -10 28.5845 6.17430   9
   2  -5 -10 18.3579 5.73883   2
  -2  -5  10 20.8678 5.11808   4
   2   5 -10 25.2786 5.55528   5
  -2   5  10 19.1043 5.87090   1
  -2   5  10 17.3519 4.01090   6
   2   5 -10 19.2367 2.86109   9
  -2   5  10 20.3008 3.30219   3
   2   5 -10 21.4527 3.09611   2
  -1  -5  10 1307.41 43.4935   4
  -1  -5  10 1365.15 54.5025   8
   1  -5 -10 1398.82 56.8700   3
   1  -5 -10 1252.55 41.4274   2
   1  -5 -10 1382.49 65.2997   9
  -1   5  10 1399.47 58.4147   1
   1   5 -10 1376.10 35.6503   5
   1   5 -10 1306.89 51.6874   9
  -1   5  10 1450.24 63.0642   6
   1   5 -10 1347.81 60.1995   1
   1   5 -10 1411.82 64.1393   1
  -1   5  10 1430.98 48.5181   3
   0  -5  10 119.027 6.85519   8
   0  -5 -10 114.994 8.67556   3
   0  -5  10 124.345 6.97050   4
   0  -5  10 108.524 9.04911   7
   0  -5 -10 102.524 7.12477   2
   0  -5 -10 108.522 7.85570   9
   0   5 -10 122.736 9.44467   5
   0   5  10 102.317 7.05671   3
   0   5  10 119.259 9.08958   1
   1  -5  10 443.663 16.3714   4
   1  -5  10 431.466 15.5771   7
   1  -5  10 469.363 15.4460   8
  -1  -5 -10 455.032 16.9584   9
  -1  -5 -10 407.409 17.4831   2
  -1   5 -10 426.184 16.5669   5
   1   5  10 440.359 14.7743   3
   1   5  10 460.251 17.9259   1
  -1   5 -10 440.495 19.3140   4
   1   5  10 422.478 19.7168   5
   2  -5  10 2.02334 2.65349   8
  -2  -5 -10 3.27088 3.67979   2
  -2  -5 -10 -0.9533 3.27403   9
   2  -5  10 0.54917 2.62137   4
   2  -5  10 -1.5633 4.24053   7
   2   5  10 -4.1608 9.11476   1
   2   5  10 2.03208 3.92811   3
  -2   5 -10 -1.0803 5.04525   5
  -3  -5 -10 586.008 25.1099   2
   3  -5  10 586.911 21.9153   6
  -3  -5 -10 615.874 22.9585   9
   3  -5  10 606.561 22.1556   7
  -3   5 -10 636.193 24.5105   5
   3   5  10 644.601 26.6157   3
   4  -5  10 -0.2410 4.93983   7
   4  -5  10 1.02404 4.82410   6
  -4  -5 -10 -1.4788 5.30533   9
  -4  -5 -10 0.69621 4.01471   2
   4   5  10 1.89797 7.36798   3
  -4   5 -10 -1.2340 5.87420   5
   5  -5  10 12.2443 6.30980   6
  -5  -5 -10 19.5067 5.02821   9
  -5  -5 -10 20.1011 5.33750   2
   5  -5  10 15.8349 6.59497   7
  -5   5 -10 14.3546 9.93973   5
   5   5  10 9.61416 6.76840   3
  -6  -5 -10 -1.5018 6.76440   2
   6  -5  10 4.96055 6.79587   7
  -6  -5 -10 7.32885 4.78663   9
   6  -5  10 -1.2793 8.97218   6
   6   5  10 7.39999 6.93253   3
  -6   5 -10 10.8582 10.4304   5
   7  -5  10 163.443 16.2633   7
  -7  -5 -10 182.328 10.5127   9
  -7  -5 -10 170.627 11.4373   2
   7  -5  10 192.591 15.4485   6
   7   5  10 167.465 13.6494   3
  -7   5 -10 176.872 16.2363   5
  -7   5 -10 177.958 13.2185   2
  -8  -6  10 67.3501 9.27602   4
   8  -6 -10 66.0733 10.4623   6
   8  -6 -10 71.3328 9.27640   7
  -8  -6  10 63.3532 9.15792   8
  -8   6  10 66.8733 10.8563   1
   8   6 -10 69.4650 12.0363   3
  -7  -6  10 1.21082 5.40310   4
   7  -6 -10 2.51530 7.29332   7
  -7  -6  10 -3.5956 5.29026   8
   7  -6 -10 -6.6425 6.68486   6
  -7   6  10 5.43107 7.07039   1
   7   6 -10 6.15974 8.23845   3
  -6  -6  10 4.57868 5.18410   8
  -6  -6  10 10.0234 5.21572   4
   6  -6 -10 3.97092 4.43647   7
   6  -6 -10 3.50517 4.45440   6
  -6   6  10 2.91619 6.86220   1
  -6   6  10 2.09542 6.45178   4
   6   6 -10 10.1913 7.81931   3
   6   6 -10 2.02598 6.51447   5
   5  -6 -10 47.1021 5.35745   6
  -5  -6  10 44.1514 6.39892   4
   5  -6 -10 44.5278 6.88072   7
  -5  -6  10 41.3588 6.38574   8
   5  -6 -10 34.2339 7.81514   9
   5   6 -10 39.6611 6.33196   5
   5   6 -10 46.0407 11.7014   3
  -5   6  10 46.9057 8.53416   1
  -5   6  10 30.8346 7.40064   4
  -4  -6  10 71.4419 8.04969   8
   4  -6 -10 71.1886 6.98670   6
  -4  -6  10 61.4499 6.81355   4
   4  -6 -10 58.8867 8.15266   9
   4  -6 -10 75.3833 6.45772   7
   4   6 -10 57.5483 11.2457   3
  -4   6  10 56.6062 9.06478   1
   4   6 -10 62.4227 7.37307   5
   3  -6 -10 0.45525 3.54146   7
  -3  -6  10 2.99798 3.88646   8
  -3  -6  10 -2.9131 3.73692   4
   3  -6 -10 -2.1699 3.37214   6
   3  -6 -10 -2.4763 4.11216   9
   3   6 -10 -3.2210 8.56493   3
   3   6 -10 -2.3554 4.62591   5
  -3   6  10 -3.0213 5.62013   1
   2  -6 -10 -0.1396 3.74910   9
  -2  -6  10 3.32536 3.78936   4
   2  -6 -10 4.94241 2.82009   7
  -2  -6  10 3.40784 3.74562   8
   2   6 -10 -0.9158 4.82132   5
  -2   6  10 -0.0461 5.33184   1
  -1  -6  10 165.458 8.31289   4
  -1  -6  10 174.550 9.32920   8
   1  -6 -10 155.114 8.91501   9
   1  -6 -10 174.102 9.58434   2
  -1   6  10 160.716 11.1767   3
   1   6 -10 154.071 11.9180   5
  -1   6  10 149.171 12.4415   1
   0  -6  10 16.7703 4.63898   4
   0  -6  10 17.9059 7.33235   7
   0  -6 -10 16.9922 5.78018   9
   0  -6 -10 13.5135 4.67241   2
   0  -6  10 19.8484 3.79510   8
   0   6  10 15.7956 6.26175   1
   0   6 -10 13.8112 6.40252   5
   0   6  10 18.3666 5.30051   3
  -1  -6 -10 13.4900 4.68637   2
  -1  -6 -10 14.5889 4.44648   9
   1  -6  10 16.8873 4.08238   4
   1  -6  10 20.8147 7.47996   7
   1  -6  10 19.4753 4.17295   8
  -1   6 -10 14.3629 6.36721   5
   1   6  10 12.1270 6.34892   1
   1   6  10 10.1161 4.45105   3
   2  -6  10 169.166 10.7188   4
   2  -6  10 162.525 11.0021   8
  -2  -6 -10 150.062 8.78363   9
   2  -6  10 165.265 12.2011   7
  -2  -6 -10 173.576 10.3260   2
   2   6  10 167.059 12.3618   1
  -2   6 -10 165.333 12.4166   5
   2   6  10 147.079 9.62226   3
  -3  -6 -10 82.0635 8.67754   2
  -3  -6 -10 98.5181 7.46042   9
   3  -6  10 93.7530 9.43297   7
   3   6  10 88.0265 8.82921   3
  -3   6 -10 109.906 12.6581   5
   4  -6  10 203.557 12.9365   7
   4  -6  10 177.040 12.0181   6
  -4  -6 -10 180.832 10.7651   2
  -4  -6 -10 183.085 9.56448   9
   4   6  10 176.919 13.4907   3
  -4   6 -10 201.610 14.4214   5
  -5  -6 -10 85.6840 7.60956   9
   5  -6  10 75.4218 10.0395   7
   5  -6  10 83.3857 9.53723   6
  -5  -6 -10 76.5614 7.81664   2
   5   6  10 75.8064 9.80163   3
  -5   6 -10 81.5588 14.0822   5
  -6  -6 -10 7.90465 5.31316   9
  -6  -6 -10 7.91442 7.79089   2
   6  -6  10 7.13104 7.85675   7
   6  -6  10 8.10301 10.0620   6
  -6   6 -10 17.3227 12.2309   5
   6   6  10 -1.2167 7.92335   3
  -7  -6 -10 -2.3254 5.42261   2
   7  -6  10 7.73708 7.94534   7
   7  -6  10 9.52460 10.7170   6
  -7  -6 -10 4.70713 5.28073   9
   7   6  10 6.13692 8.36576   3
  -7   6 -10 11.1071 12.8808   5
   7  -7 -10 61.8829 7.78722   6
   7  -7 -10 64.6846 8.42816   7
  -7  -7  10 55.1415 8.64967   4
  -7  -7  10 53.3144 10.7682   8
   7   7 -10 81.3771 15.9360   3
  -7   7  10 53.3314 12.7422   1
  -6  -7  10 -3.1936 8.09932   4
   6  -7 -10 -0.8703 7.10742   7
  -6  -7  10 0.31975 8.30595   8
   6  -7 -10 -0.7002 6.85180   6
   6   7 -10 -1.4190 8.37939   3
  -6   7  10 4.60962 10.4007   1
   5  -7 -10 136.580 9.52432   6
  -5  -7  10 157.798 10.6307   8
  -5  -7  10 133.412 9.99459   4
   5  -7 -10 139.418 11.1577   7
   5  -7 -10 137.184 10.2002   9
  -5   7  10 153.363 25.3769   1
   5   7 -10 146.178 10.2081   5
   5   7 -10 115.610 15.2969   3
  -5   7  10 109.637 10.7294   4
   4  -7 -10 -2.8130 4.83492   7
  -4  -7  10 -3.2745 6.61750   8
  -4  -7  10 -0.4871 6.79791   4
   4  -7 -10 -1.6598 5.21358   9
   4   7 -10 2.06539 5.03787   5
  -4   7  10 -3.9978 7.07400   1
   4   7 -10 1.77459 7.75902   3
  -3  -7  10 7.06596 6.45953   4
   3  -7 -10 7.74100 7.02109   9
  -3  -7  10 3.66145 6.49977   8
   3   7 -10 4.80867 7.60014   5
   3   7 -10 4.96498 10.0775   3
  -3   7  10 6.87668 6.83163   1
  -2  -7  10 74.5854 8.23896   8
   2  -7 -10 84.2277 7.89149   9
  -2  -7  10 78.5477 8.38456   4
  -2   7  10 63.6179 9.18569   1
   2   7 -10 52.3155 10.1451   5
   2   7 -10 67.7030 9.92436   3
  -1  -7  10 188.542 10.0714   8
   1  -7 -10 185.841 11.1190   9
  -1  -7  10 197.302 10.8822   4
  -1   7  10 188.433 14.7745   1
   1   7 -10 176.761 12.1922   5
   0  -7  10 61.1981 8.54488   7
   0  -7 -10 62.2709 7.18120   2
   0  -7  10 76.0855 6.90763   4
   0  -7  10 65.8528 6.94029   8
   0  -7 -10 66.4598 7.05040   9
   0   7  10 44.2674 6.97823   3
   0   7  10 49.8798 10.8820   1
   0   7 -10 54.1274 9.32454   5
  -1  -7 -10 -0.7788 4.02551   9
  -1  -7 -10 -0.9736 4.33313   2
   1  -7  10 5.35409 4.35494   4
   1  -7  10 5.40522 4.27591   8
   1  -7  10 -1.0677 5.07265   7
  -1   7 -10 2.81077 6.42982   5
   1   7  10 1.06926 4.30742   3
   1   7  10 1.87147 9.07036   1
  -2  -7 -10 53.0077 6.63200   9
  -2  -7 -10 50.5209 6.91649   2
   2  -7  10 43.9375 8.18651   7
  -2   7 -10 47.1532 9.62824   5
   2   7  10 43.5812 9.29478   1
   2   7  10 43.2956 7.17843   3
  -3  -7 -10 11.9505 5.60005   2
   3  -7  10 12.8872 7.15954   7
  -3  -7 -10 13.9739 7.29318   9
   3   7  10 8.77337 6.46829   3
   3   7  10 13.8495 11.3886   1
  -3   7 -10 14.8419 8.01092   5
   4  -7  10 4.51376 6.99736   7
  -4  -7 -10 3.15915 5.29293   9
  -4  -7 -10 4.34541 5.25676   2
   4   7  10 7.90764 24.4065   3
  -4   7 -10 6.62031 8.42001   5
   5  -7  10 -3.1607 6.80495   6
  -5  -7 -10 -0.5982 7.06593   9
  -5  -7 -10 4.50190 7.70650   2
   5  -7  10 -2.2327 7.13688   7
   5   7  10 -1.8700 10.6315   3
  -5   7 -10 2.22716 8.67562   5
  -5  -8  10 7.69884 6.55817   8
  -5  -8  10 8.32208 6.43407   4
  -5   8  10 13.6003 13.0963   1
   5   8 -10 5.18646 10.2539   3
   4  -8 -10 154.592 13.5205   9
  -4  -8  10 173.647 12.4385   4
  -4  -8  10 193.694 11.4226   8
   4   8 -10 164.712 17.3724   3
  -4   8  10 164.748 16.5746   1
   4   8 -10 156.869 13.9952   5
  -3  -8  10 54.7610 7.10763   8
  -3  -8  10 55.5357 8.72555   4
   3  -8 -10 42.0441 9.68561   9
   3   8 -10 42.3885 8.51096   5
  -3   8  10 43.8767 13.2814   1
   3   8 -10 32.6149 10.2118   3
  -2  -8  10 21.8437 7.19996   8
  -2  -8  10 23.8514 5.61253   4
   2  -8 -10 17.5252 6.48812   9
  -2   8  10 19.1287 11.3119   1
   2   8 -10 18.4495 10.4780   5
   2   8 -10 14.4465 8.67390   3
  -1  -8  10 8.75476 4.67381   4
  -1  -8  10 5.46282 4.42321   8
   1  -8 -10 7.38206 5.50997   9
  -1   8  10 30.7577 16.8146   1
   1   8 -10 2.67165 7.03582   5
   1   8 -10 5.35482 7.78136   3
   0  -8  10 560.836 27.9520   8
   0  -8 -10 548.742 30.3027   9
   0   8  10 585.946 31.3135   1
   0   8 -10 573.786 34.9945   5
   1  -8  10 28.6584 8.40637   7
  -1  -8 -10 26.8843 6.96333   2
  -1  -8 -10 41.9418 6.70974   9
   1   8  10 35.6824 9.51157   1
  -1   8 -10 21.7968 11.9566   5
  -2  -8 -10 7.77318 8.20232   9
   2  -8  10 10.0228 7.43247   7
  -2  -8 -10 11.7091 5.77357   2
   2   8  10 1.17999 9.04046   3
  -2   8 -10 5.60640 9.13968   5
   2   8  10 8.62548 12.4960   1
   3  -8  10 6.98796 7.45981   7
  -3  -8 -10 2.03385 4.90354   9
  -3  -8 -10 -6.4508 7.26204   2
   3   8  10 0.45336 7.01124   3
   3   8  10 -8.3044 11.7239   1
  -3   8 -10 1.40173 8.24815   5
   4  -8  10 5.76508 7.69339   7
  -4  -8 -10 7.85232 8.38108   2
  -4  -8 -10 9.86015 7.88123   9
   4   8  10 3.91279 10.2837   3
  -4   8 -10 1.34229 22.3154   5
   4   8  10 53.8421 27.3106   1
   2  -9 -10 -1.6958 5.90751   9
  -2  -9  10 -3.8046 7.41335   8
   2   9 -10 6.38167 9.18521   3
   2   9 -10 -7.9114 11.0153   5
  -2   9  10 7.97226 12.7373   1
  -1  -9  10 4.47322 7.10591   8
   1  -9 -10 1.65915 8.40090   9
   1   9 -10 -0.4902 11.1263   5
  -1   9  10 2.08426 11.5524   1
   1   9 -10 1.02636 9.24387   3
   0  -9 -10 3.90820 9.43434   9
   0   9  10 1.15508 9.65206   1
   0   9 -10 12.2159 12.1400   3
   0   9 -10 -3.3894 11.9228   5
   1  -9  10 5.83546 8.40271   7
  -1  -9 -10 1.20946 5.44860   9
   1   9  10 1.73634 11.6738   1
  -1   9 -10 -0.3623 8.31041   5
 -10   0  11 -4.8771 6.91519   8
 -10   0  11 -1.7116 6.52092   1
 -10   0  11 1.36083 4.99554   4
  10   0 -11 5.36564 6.96233   6
   9   0 -11 104.713 9.83879   6
  -9   0  11 98.8817 9.36113   4
  -9   0  11 96.4094 9.20067   1
  -9   0  11 94.4602 9.56480   8
   9   0 -11 113.765 8.75525   3
  -8   0  11 0.63113 4.78834   1
   8   0 -11 2.90687 5.07080   6
  -8   0  11 -2.1264 3.92944   4
  -8   0  11 -0.4374 5.54266   8
   8   0 -11 -3.4997 5.58837   3
  -7   0  11 774.968 45.9332   2
  -7   0  11 775.535 28.4559   4
   7   0 -11 795.423 49.0846   3
   7   0 -11 807.561 27.9454   6
  -7   0  11 782.054 38.2847   9
  -7   0  11 781.502 30.8878   1
  -7   0  11 749.382 23.4377   8
  -6   0  11 0.83115 3.30009   4
  -6   0  11 -0.9268 2.23891   9
  -6   0  11 -3.3272 3.20347   8
   6   0 -11 1.55982 4.86828   5
   6   0 -11 0.82610 3.58658   3
   6   0 -11 -3.9394 4.76627   6
  -6   0  11 4.49455 4.68614   1
  -6   0  11 0.64303 2.56739   2
  -5   0  11 2.10284 3.96219   1
   5   0 -11 0.41982 2.25560   3
  -5   0  11 1.38910 2.12651   9
   5   0 -11 0.97438 3.07927   5
   5   0 -11 -0.7017 2.30646   9
  -5   0  11 -0.5199 2.95341   4
  -5   0  11 0.72688 1.59725   2
   5   0 -11 0.20329 2.82939   6
  -4   0  11 0.07340 1.65657   2
   4   0 -11 -0.1147 1.44298   9
   4   0 -11 0.56554 2.98391   5
   4   0 -11 -1.6256 3.37643   1
  -4   0  11 1.28072 4.07580   4
  -4   0  11 -2.3710 3.71457   1
   4   0 -11 0.55135 1.56824   2
  -4   0  11 -0.1437 1.55326   9
   3   0 -11 59.7457 4.30675   2
  -3   0  11 65.3504 4.12917   2
  -3   0  11 71.0073 4.65332   1
   3   0 -11 60.4986 4.96178   1
   3   0 -11 69.6038 12.3175   3
   3   0 -11 64.6167 6.03788   5
  -3   0  11 62.8513 5.28420   4
   3   0 -11 64.9678 3.93811   9
   2   0 -11 -1.9070 3.61973   5
  -2   0  11 -1.0538 2.85030   1
  -2   0  11 -0.7027 1.72021   2
   2   0 -11 -1.0589 2.79154   3
  -2   0  11 0.04273 3.82361   5
   2   0 -11 -0.6633 2.74020   1
   2   0 -11 -1.3376 2.52927   2
  -2   0  11 2.45193 4.32876   4
   2   0 -11 0.81150 2.54842   7
   2   0 -11 0.90995 1.64703   9
  -1   0  11 433.614 12.6156   2
   1   0 -11 438.553 12.6659   9
  -1   0  11 417.411 15.7685   1
   1   0 -11 433.497 16.6221   7
  -1   0  11 432.702 15.9439   4
   1   0 -11 421.414 13.2411   2
   1   0 -11 430.551 15.2061   5
  -1   0  11 399.322 18.5733   5
   1   0 -11 445.336 17.6708   3
   0   0 -11 -2.0563 3.37344   3
   0   0  11 0.43668 2.17901   2
   0   0  11 -2.8036 2.31112   3
   0   0  11 -0.9821 3.31787   1
   0   0 -11 2.07159 2.23519   7
   0   0 -11 -1.9742 2.21357   2
   0   0 -11 0.59794 1.44228   6
   0   0 -11 -0.4307 2.45859   5
   0   0  11 -2.3298 2.92412   4
   0   0  11 -1.6077 3.83270   5
   1   0  11 1368.81 40.7856   5
  -1   0 -11 1353.97 33.3153   2
   1   0  11 1318.32 61.3487   2
   1   0  11 1276.38 47.1496   7
   1   0  11 1321.21 38.4035   3
  -1   0 -11 1301.87 43.8640   5
   1   0  11 1285.59 49.8326   1
  -1   0 -11 1323.22 75.6021   7
   1   0  11 1256.24 37.2598   4
  -1   0 -11 1343.39 42.8927   6
  -1   0 -11 1324.68 50.0944   3
   2   0  11 1.18283 1.79348   7
  -2   0 -11 -0.7933 2.55064   7
   2   0  11 -0.5130 4.38089   3
  -2   0 -11 3.12009 2.83919   2
   2   0  11 -0.6801 2.70822   5
   2   0  11 0.56107 2.32599   6
  -2   0 -11 3.40836 3.38891   5
  -2   0 -11 0.23675 2.64251   6
   3   0  11 102.202 9.19815   5
  -3   0 -11 132.146 6.59507   6
   3   0  11 121.235 6.21181   6
   3   0  11 118.201 6.91194   7
   3   0  11 124.532 8.52986   3
   3   0  11 131.464 9.25718   1
  -3   0 -11 122.178 6.88457   5
  -3   0 -11 107.438 8.21561   2
  -4   0 -11 -0.1188 4.96535   2
   4   0  11 1.94745 2.85495   7
  -4   0 -11 0.32408 2.54228   5
   4   0  11 -4.2145 5.10919   1
  -4   0 -11 0.39165 2.50727   6
   4   0  11 -2.9141 3.60250   8
   4   0  11 0.95045 3.83300   5
   4   0  11 5.28554 5.87489   3
   4   0  11 -0.4137 3.62302   6
   5   0  11 41.3303 5.96812   6
   5   0  11 34.7318 6.07152   7
   5   0  11 32.2834 7.06179   5
  -5   0 -11 44.9442 6.15963   2
   5   0  11 50.7527 6.80676   3
  -5   0 -11 48.1760 4.82319   5
   6   0  11 0.12270 3.77075   7
   6   0  11 -0.2494 3.76157   6
  -6   0 -11 1.79813 4.77862   2
  -6   0 -11 -1.5549 4.12815   5
   6   0  11 -1.3541 7.31450   3
   7   0  11 37.2536 6.44298   6
  -7   0 -11 43.1936 5.91384   5
  -7   0 -11 40.0925 7.18206   2
   7   0  11 36.2733 15.6496   3
   7   0  11 33.6239 8.06338   7
   8   0  11 0.65876 6.47976   3
   8   0  11 -0.1257 5.35054   6
   8   0  11 -0.9503 5.45218   7
  -8   0 -11 0.76562 5.83416   2
  -9   0 -11 0.30746 6.38038   2
   9   0  11 0.88042 6.41876   6
   9   0  11 3.64930 11.1490   3
   9   0  11 1.99055 6.80713   7
 -10  -1  11 53.2042 8.07828   4
 -10  -1  11 81.0344 9.61353   1
  10  -1 -11 85.1590 9.99566   6
 -10  -1  11 60.4079 8.10315   8
 -10   1  11 58.9888 8.85645   8
  10   1 -11 84.3122 12.5495   6
 -10   1  11 48.1791 8.58611   4
 -10   1  11 65.7176 9.67476   1
  -9  -1  11 82.3636 14.8440   1
  -9  -1  11 67.5200 9.07319   8
  -9  -1  11 76.5913 9.08521   4
   9  -1 -11 101.008 10.7476   6
  -9   1  11 72.7519 8.39137   8
  -9   1  11 91.6764 9.41351   1
   9   1 -11 93.6199 7.81206   3
  -9   1  11 86.8183 7.59108   4
   9   1 -11 82.0904 9.50596   6
   8  -1 -11 209.290 13.3590   6
   8  -1 -11 227.026 15.6089   3
  -8  -1  11 214.172 10.9366   4
  -8  -1  11 223.720 12.5463   1
  -8  -1  11 206.449 10.8677   8
   8   1 -11 216.643 12.3622   6
  -8   1  11 210.755 11.6445   4
   8   1 -11 217.873 13.0630   3
  -8   1  11 223.894 13.0054   8
  -8   1  11 227.942 12.4221   1
  -7  -1  11 523.935 18.6394   1
   7  -1 -11 518.566 18.1762   6
  -7  -1  11 510.323 17.6225   4
   7  -1 -11 496.019 34.4119   3
  -7  -1  11 495.937 17.9474   8
   7   1 -11 525.010 30.6323   3
  -7   1  11 494.025 18.5964   8
   7   1 -11 514.335 21.6696   6
  -7   1  11 501.624 21.2639   4
  -7   1  11 497.562 18.0280   1
   7   1 -11 469.064 30.9543   5
   6  -1 -11 273.941 14.6735   3
  -6  -1  11 262.869 10.1487   2
  -6  -1  11 258.798 11.3411   4
  -6  -1  11 249.887 11.5128   8
   6  -1 -11 237.464 10.3565   6
  -6  -1  11 267.189 10.8614   1
  -6  -1  11 258.902 9.90793   9
  -6   1  11 274.143 12.0655   1
  -6   1  11 253.635 15.4788   9
  -6   1  11 254.018 14.5686   2
   6   1 -11 269.884 14.7002   3
   6   1 -11 263.246 11.1737   5
  -6   1  11 249.127 10.5393   4
   5  -1 -11 105.902 6.48865   3
  -5  -1  11 117.448 4.10827   2
   5  -1 -11 94.7426 5.57958   9
  -5  -1  11 112.046 6.95457   8
  -5  -1  11 111.191 6.27807   1
   5  -1 -11 116.173 7.34055   5
  -5  -1  11 95.8075 7.22727   4
   5  -1 -11 111.627 10.8327   6
  -5   1  11 96.7659 5.90957   9
  -5   1  11 112.075 7.25329   1
  -5   1  11 107.741 6.65240   2
   5   1 -11 112.598 7.84877   5
   5   1 -11 87.1847 3.59339   9
  -5   1  11 108.463 6.78942   4
   5   1 -11 104.091 7.71280   3
  -4  -1  11 49.2111 2.92839   2
   4  -1 -11 44.7902 4.06108   9
   4  -1 -11 37.8576 5.51668   5
   4  -1 -11 47.5578 3.30203   3
   4  -1 -11 55.6634 4.88689   6
  -4  -1  11 50.1431 4.89882   4
  -4  -1  11 48.5811 3.98700   1
  -4   1  11 47.9792 5.85957   1
   4   1 -11 46.9073 3.10465   9
  -4   1  11 48.6207 4.16137   2
  -4   1  11 45.8534 5.09242   4
   4   1 -11 50.1076 5.89242   5
   4   1 -11 36.9384 4.52607   1
   4   1 -11 42.1022 2.61503   2
  -4   1  11 48.0854 3.59878   9
   3  -1 -11 329.484 20.8467   1
   3  -1 -11 326.891 11.8768   9
   3  -1 -11 363.712 11.7829   3
  -3  -1  11 331.286 10.0194   1
  -3  -1  11 345.582 10.1170   2
   3  -1 -11 334.907 11.8444   6
   3  -1 -11 354.276 14.2417   2
  -3  -1  11 350.134 11.3138   4
   3  -1 -11 362.003 14.1979   5
  -3   1  11 349.680 12.0397   9
  -3   1  11 335.824 15.1063   2
   3   1 -11 356.910 15.0696   5
   3   1 -11 354.901 12.4864   9
   3   1 -11 345.217 22.0585   1
   3   1 -11 340.243 18.0880   2
  -3   1  11 339.449 11.2133   1
  -3   1  11 350.974 14.8607   4
  -2  -1  11 438.607 14.0448   2
   2  -1 -11 434.821 23.4198   3
  -2  -1  11 439.652 17.6129   1
   2  -1 -11 444.027 12.5445   9
  -2  -1  11 423.833 13.1530   4
   2  -1 -11 440.726 16.3724   1
   2  -1 -11 425.779 12.7853   5
   2  -1 -11 436.318 24.3915   2
   2   1 -11 479.170 19.9632   3
   2   1 -11 448.682 12.3699   2
   2   1 -11 453.734 16.3582   5
   2   1 -11 460.563 14.0299   9
  -2   1  11 460.414 13.0702   2
   2   1 -11 420.391 17.4762   4
  -2   1  11 452.378 13.8029   4
  -2   1  11 413.268 31.3748   5
   2   1 -11 457.036 23.6370   7
   2   1 -11 435.193 30.0608   1
  -2   1  11 441.447 16.0913   1
   1  -1 -11 84.4191 5.36656   5
   1  -1 -11 74.3852 4.77053   2
   1  -1 -11 77.5171 4.58941   9
  -1  -1  11 68.8759 5.19207   4
  -1  -1  11 72.0331 4.16682   2
   1  -1 -11 74.1644 4.88444   3
   1  -1 -11 84.4999 4.09883   7
  -1  -1  11 72.0426 3.48435   1
  -1  -1  11 74.7746 5.87684   5
   1   1 -11 88.9026 5.91460   5
   1   1 -11 69.6693 4.20427   1
  -1   1  11 81.5659 6.09214   4
  -1   1  11 62.2639 5.72076   5
  -1   1  11 73.5371 5.19138   2
  -1   1  11 74.1035 5.29031   1
   1   1 -11 82.9113 4.92404   7
   1   1 -11 68.0171 5.01430   3
   1   1 -11 68.3043 4.14937   2
  -1   1  11 72.9786 4.66082   3
   0  -1 -11 16.9825 1.93204   7
   0  -1 -11 12.9128 3.59472   9
   0  -1 -11 10.4748 2.70721   3
   0  -1  11 12.7586 3.80231   5
   0  -1  11 12.9936 1.86143   1
   0  -1 -11 14.9615 1.93480   6
   0  -1 -11 9.96834 3.59426   5
   0  -1  11 11.4126 2.52027   7
   0  -1  11 14.7388 2.78256   2
   0  -1 -11 10.0802 2.93213   2
   0  -1  11 13.8476 3.44334   4
   0   1 -11 16.5221 2.76828   6
   0   1  11 18.3899 4.03840   2
   0   1 -11 22.2399 3.73271   5
   0   1  11 12.0540 3.51175   1
   0   1 -11 14.1938 3.25883   7
   0   1  11 15.9487 2.96713   3
   0   1  11 11.6298 3.85640   5
   0   1 -11 14.3294 3.43134   3
   0   1 -11 11.1505 2.70567   2
  -1  -1 -11 28.1933 3.67163   9
   1  -1  11 29.0242 2.47675   1
   1  -1  11 29.8431 4.13913   3
  -1  -1 -11 27.6734 4.71025   2
   1  -1  11 29.1240 2.11564   1
  -1  -1 -11 25.8282 2.30666   7
   1  -1  11 24.0599 4.23921   5
  -1  -1 -11 41.8786 5.09480   3
   1  -1  11 31.7312 4.03740   4
  -1  -1 -11 24.8262 2.17333   6
  -1  -1 -11 27.1883 3.46564   5
   1  -1  11 24.7329 3.76112   7
   1   1  11 20.4095 4.52787   3
   1   1  11 20.8280 3.56756   5
  -1   1 -11 30.3382 3.96506   6
  -1   1 -11 28.1307 3.68174   2
   1   1  11 32.0800 3.76388   1
  -1   1 -11 25.1981 3.98812   5
   1   1  11 26.9744 2.35628   7
  -1   1 -11 27.7690 3.44022   7
   2  -1  11 208.140 8.10619   6
  -2  -1 -11 214.213 6.48109   6
   2  -1  11 199.639 8.32306   7
  -2  -1 -11 203.080 7.99232   5
   2  -1  11 209.677 9.15144   3
   2  -1  11 208.227 9.13613   4
   2  -1  11 214.450 9.62003   1
  -2  -1 -11 201.116 8.48951   2
   2  -1  11 194.852 24.9930   5
  -2   1 -11 210.971 9.98922   2
  -2   1 -11 205.152 11.7728   7
   2   1  11 187.038 9.23637   6
   2   1  11 211.539 9.66612   5
  -2   1 -11 208.201 13.6118   5
   2   1  11 208.136 8.16725   7
  -2   1 -11 208.926 10.9964   6
   2   1  11 222.929 9.30504   3
  -3  -1 -11 6.40252 3.38001   2
   3  -1  11 3.97228 2.85475   6
  -3  -1 -11 6.39728 3.09974   5
   3  -1  11 3.91540 2.81024   7
   3  -1  11 5.66382 2.11264   1
  -3  -1 -11 10.0521 2.22562   6
   3  -1  11 5.25238 3.86210   3
   3  -1  11 11.3804 3.23948   4
  -3   1 -11 3.22451 4.66395   2
  -3   1 -11 5.60564 4.17060   7
   3   1  11 6.22995 2.08640   7
   3   1  11 2.05695 3.21490   1
   3   1  11 7.74952 4.19620   3
  -3   1 -11 8.33587 4.09594   6
   3   1  11 7.62149 2.78584   6
   3   1  11 3.47493 2.87877   5
  -3   1 -11 7.72245 6.30597   5
  -4  -1 -11 1298.37 67.3800   6
   4  -1  11 1373.19 42.6228   8
   4  -1  11 1279.01 44.1628   1
  -4  -1 -11 1238.64 45.1414   5
   4  -1  11 1308.56 36.1193   3
   4  -1  11 1374.15 43.0414   7
  -4  -1 -11 1309.30 49.9200   2
   4  -1  11 1349.98 47.9880   6
   4   1  11 1386.33 59.3063   5
   4   1  11 1295.77 65.8755   6
   4   1  11 1301.67 34.9413   3
   4   1  11 1314.39 62.6048   7
  -4   1 -11 1325.03 43.6781   5
  -4   1 -11 1284.50 37.8084   2
   5  -1  11 977.810 31.5267   6
   5  -1  11 1016.54 55.7560   8
   5  -1  11 991.369 34.8547   3
  -5  -1 -11 934.736 30.4510   2
   5  -1  11 1029.69 39.9648   7
  -5  -1 -11 930.452 44.3386   5
  -5   1 -11 1015.71 32.6803   2
   5   1  11 1011.53 34.4276   3
   5   1  11 1010.19 41.1632   7
   5   1  11 985.308 39.8704   6
  -5   1 -11 986.294 31.9586   5
   6  -1  11 19.2351 6.12077   3
   6  -1  11 10.6003 6.95330   7
  -6  -1 -11 17.7541 3.69496   5
   6  -1  11 15.3433 7.81742   6
  -6  -1 -11 15.3720 5.33855   2
   6   1  11 8.87562 4.36513   7
  -6   1 -11 14.4269 7.40270   2
   6   1  11 13.0002 7.98815   3
  -6   1 -11 18.6358 4.64615   5
   6   1  11 12.1253 5.58226   6
  -7  -1 -11 5.38297 5.21239   2
   7  -1  11 1.44880 4.95318   6
   7  -1  11 0.79630 5.78877   3
   7  -1  11 -0.8661 7.10249   7
   7   1  11 -3.2424 6.20599   7
   7   1  11 1.74051 4.15321   6
  -7   1 -11 1.48014 3.86920   5
   7   1  11 -3.1488 5.81740   3
  -7   1 -11 2.66343 5.48763   2
   8  -1  11 51.5802 8.12148   7
   8  -1  11 51.6609 9.64250   6
   8  -1  11 52.2210 8.88490   3
  -8  -1 -11 55.8006 9.76461   2
  -8   1 -11 58.4875 10.3808   2
   8   1  11 43.2501 7.38526   7
   8   1  11 39.1160 8.55075   3
   8   1  11 37.7102 6.65111   6
   9  -1  11 33.1471 10.5529   6
  -9  -1 -11 52.0426 8.97753   2
   9  -1  11 63.3403 10.6830   3
   9  -1  11 48.6696 9.08058   7
   9   1  11 57.0227 12.4712   3
  -9   1 -11 56.5015 9.08273   2
 -10  -2  11 18.3052 6.77073   4
 -10  -2  11 24.7137 7.74954   1
 -10  -2  11 18.7217 6.83634   8
  10  -2 -11 14.7902 7.35979   6
  10   2 -11 29.3341 7.47943   3
  10   2 -11 27.6904 8.43292   6
 -10   2  11 22.4886 8.03303   1
  -9  -2  11 111.290 9.32583   8
   9  -2 -11 143.864 10.5187   6
  -9  -2  11 122.300 10.9185   4
  -9  -2  11 129.420 10.1024   1
  -9   2  11 103.785 9.56632   4
   9   2 -11 122.866 11.5042   3
   9   2 -11 142.429 11.8195   6
  -9   2  11 140.441 12.5124   1
  -9   2  11 104.417 9.33619   8
  -8  -2  11 19.3607 7.04344   1
   8  -2 -11 9.07907 6.69611   6
  -8  -2  11 2.15718 6.30859   8
  -8  -2  11 1.14258 4.48105   4
   8   2 -11 12.5597 6.28805   5
  -8   2  11 6.69473 5.47762   1
  -8   2  11 12.7781 22.3796   4
   8   2 -11 8.74583 5.93906   6
   8   2 -11 9.92592 5.44435   3
  -8   2  11 5.05450 22.3076   8
  -7  -2  11 43.6606 6.05639   4
   7  -2 -11 41.2334 6.81506   6
  -7  -2  11 51.7648 6.31655   8
  -7  -2  11 35.9487 6.63133   1
  -7   2  11 46.4748 7.95939   1
   7   2 -11 60.4507 8.29338   3
  -7   2  11 34.2953 6.21292   4
   7   2 -11 36.4655 6.54639   5
   6  -2 -11 146.152 7.43296   3
  -6  -2  11 136.523 8.20637   8
   6  -2 -11 159.467 8.09741   6
  -6  -2  11 142.615 8.24979   4
   6  -2 -11 132.433 7.99305   9
   6  -2 -11 141.552 6.40439   3
  -6  -2  11 153.457 8.61910   1
   6   2 -11 135.280 9.06779   5
   6   2 -11 147.293 9.64794   3
  -6   2  11 137.068 8.66000   4
  -6   2  11 143.114 9.19220   1
   5  -2 -11 312.138 12.8038   3
   5  -2 -11 322.425 17.9160   3
   5  -2 -11 324.427 14.4902   9
  -5  -2  11 319.961 12.6268   4
  -5  -2  11 317.768 15.4020   8
   5  -2 -11 317.211 13.4172   6
  -5  -2  11 332.363 11.7922   1
  -5   2  11 326.438 14.6982   4
  -5   2  11 336.748 13.2966   1
   5   2 -11 335.920 18.9649   3
   5   2 -11 343.623 30.7979   5
   4  -2 -11 -0.1180 1.91042   6
  -4  -2  11 -1.9695 2.79853   4
   4  -2 -11 -0.3729 3.20595   9
  -4  -2  11 0.27496 2.86273   1
  -4  -2  11 -1.1189 2.92290   8
   4  -2 -11 -1.1796 1.11235   3
   4  -2 -11 -0.5048 1.50110   3
   4   2 -11 0.31802 3.99261   1
   4   2 -11 0.61674 0.90280   9
   4   2 -11 0.55703 4.33255   5
  -4   2  11 1.08563 3.51329   1
  -4   2  11 -2.1394 4.90010   4
  -3  -2  11 1001.47 25.7748   1
   3  -2 -11 1026.09 47.5403   5
  -3  -2  11 1034.02 28.0709   4
   3  -2 -11 1007.88 33.0009   2
   3  -2 -11 1005.44 32.8837   9
   3  -2 -11 1015.52 37.5709   6
  -3  -2  11 1033.05 31.7590   8
   3  -2 -11 962.660 47.0175   3
   3   2 -11 1073.80 34.5293   9
   3   2 -11 1073.70 48.2672   2
   3   2 -11 1063.60 46.0369   1
   3   2 -11 1023.84 34.2382   5
  -3   2  11 1044.88 39.7542   1
  -3   2  11 1026.87 36.3931   4
   2  -2 -11 14.9704 3.09786   2
   2  -2 -11 15.0958 2.46209   3
   2  -2 -11 9.85177 3.93497   5
  -2  -2  11 7.96321 3.86700   4
   2  -2 -11 13.5721 4.26745   1
  -2  -2  11 14.1310 1.90165   1
   2  -2 -11 16.3812 2.07079   6
   2  -2 -11 13.2948 2.84019   9
  -2   2  11 13.4984 5.38136   4
   2   2 -11 11.4029 3.60874   5
   2   2 -11 10.5374 2.27697   2
   2   2 -11 13.2250 3.58542   7
  -2   2  11 9.38719 3.47853   1
  -2   2  11 5.91804 3.64755   2
  -2   2  11 6.71546 8.04891   9
   2   2 -11 12.9083 2.36436   1
   1  -2 -11 47.9541 4.42134   5
  -1  -2  11 48.7375 4.36558   4
  -1  -2  11 46.4485 2.21597   1
   1  -2 -11 48.4558 2.08586   6
   1  -2 -11 46.9082 3.94118   3
   1  -2 -11 54.2428 3.17469   7
   1  -2 -11 46.7303 4.33541   2
   1  -2 -11 46.0371 4.13543   9
   1   2 -11 48.8684 5.30047   7
  -1   2  11 46.1286 3.50761   3
   1   2 -11 51.8580 5.36187   4
   1   2 -11 48.2101 3.51967   2
  -1   2  11 43.8866 4.52662   5
   1   2 -11 46.2134 5.97430   5
  -1   2  11 43.4850 5.54067   1
   1   2 -11 53.0910 4.48850   6
   0  -2  11 13.4237 3.93310   7
   0  -2  11 16.5033 3.08831   4
   0  -2 -11 17.1934 3.15835   9
   0  -2 -11 13.8255 2.98287   5
   0  -2 -11 17.1099 3.06999   3
   0  -2 -11 15.7901 3.38498   2
   0   2  11 14.8096 2.99019   3
   0   2 -11 9.44448 4.75844   5
   0   2 -11 11.3803 2.65352   2
   0   2 -11 14.9281 4.12533   7
   0   2 -11 17.5887 3.88524   4
   0   2  11 16.8243 4.62300   1
   0   2  11 15.5275 3.91497   5
   0   2 -11 16.1269 3.41183   6
  -1  -2 -11 36.9673 4.83757   9
   1  -2  11 43.8877 4.59433   4
  -1  -2 -11 43.6036 4.37439   5
  -1  -2 -11 40.9873 4.32396   3
   1  -2  11 35.0569 4.06357   7
   1  -2  11 34.3759 0.97410   1
  -1  -2 -11 39.9037 4.40288   2
   1   2  11 28.6820 4.13574   3
   1   2  11 34.0075 3.72042   5
  -1   2 -11 37.6986 4.12788   6
  -1   2 -11 38.8800 4.51426   7
   1   2  11 40.2007 5.71489   1
  -1   2 -11 42.6308 4.24299   2
  -1   2 -11 39.3709 5.03512   5
   2  -2  11 329.952 11.8923   7
   2  -2  11 338.939 13.3535   4
   2  -2  11 336.150 12.0951   3
  -2  -2 -11 332.433 13.7689   9
   2  -2  11 315.800 11.4942   1
  -2  -2 -11 331.093 11.9524   5
  -2  -2 -11 348.431 11.8827   2
   2  -2  11 351.994 13.0139   6
  -2   2 -11 346.523 12.6373   5
   2   2  11 335.528 15.8644   5
   2   2  11 328.843 17.1297   7
   2   2  11 325.230 14.9151   6
   2   2  11 352.718 12.0311   3
  -2   2 -11 319.979 13.7122   2
   3  -2  11 95.1392 4.43012   1
   3  -2  11 77.2247 13.2428   6
   3  -2  11 98.6512 7.23361   3
   3  -2  11 100.398 15.5306   7
  -3  -2 -11 84.9941 6.45771   2
   3  -2  11 96.1131 5.61671   4
  -3  -2 -11 98.5616 5.15556   5
   3   2  11 95.5678 4.24352   6
   3   2  11 90.8036 5.96408   5
  -3   2 -11 101.669 7.35041   5
   3   2  11 94.9254 7.27328   3
  -3   2 -11 98.3668 6.89523   2
   3   2  11 90.2308 4.34442   7
   4  -2  11 43.7104 7.31018   3
   4  -2  11 46.8441 4.45611   4
   4  -2  11 42.4381 5.66413   7
  -4  -2 -11 54.5917 4.09792   5
   4  -2  11 49.0784 4.58407   1
  -4  -2 -11 36.4770 6.39592   2
   4  -2  11 44.6636 5.40978   6
   4   2  11 42.8204 4.27306   7
  -4   2 -11 50.6339 6.22328   5
  -4   2 -11 45.2805 7.04699   2
   4   2  11 54.2932 6.71519   3
   4   2  11 46.5562 4.96397   5
   4   2  11 45.7060 4.19527   6
  -5  -2 -11 409.440 17.8627   5
   5  -2  11 381.883 16.0586   6
   5  -2  11 401.003 15.9216   7
   5  -2  11 400.550 15.2598   4
  -5  -2 -11 402.521 15.2358   2
   5  -2  11 410.340 18.1496   3
   5   2  11 414.377 17.9297   6
   5   2  11 420.590 18.4011   3
   5   2  11 403.828 18.5039   7
  -5   2 -11 407.297 15.1139   5
  -5   2 -11 400.466 18.4068   2
   6  -2  11 118.274 11.2340   3
   6  -2  11 144.953 9.73064   6
  -6  -2 -11 158.462 9.65668   2
   6  -2  11 145.843 11.6109   7
   6   2  11 135.721 8.24009   7
  -6   2 -11 147.955 9.79504   5
  -6   2 -11 137.309 9.99369   2
   6   2  11 144.740 10.9197   3
   6   2  11 140.548 8.56233   6
   7  -2  11 16.9078 8.95154   7
  -7  -2 -11 20.9979 13.4850   2
   7  -2  11 9.69466 5.82814   6
   7  -2  11 42.4958 10.5083   3
  -7   2 -11 7.37389 8.20607   2
   7   2  11 13.8459 6.06870   6
   7   2  11 6.70270 6.11361   7
   7   2  11 17.3985 7.15604   3
  -7   2 -11 21.8024 6.10725   5
   8  -2  11 6.62352 8.93561   6
   8  -2  11 10.1668 7.44389   3
  -8  -2 -11 17.2182 8.60994   2
   8  -2  11 8.46092 7.08929   7
   8   2  11 11.9414 7.73685   3
  -8   2 -11 17.6139 8.00595   5
  -8   2 -11 4.65392 6.28529   2
   9  -2  11 141.765 13.8809   6
   9  -2  11 189.447 15.4223   3
   9  -2  11 143.107 14.8818   7
  -9  -2 -11 192.384 13.0059   2
   9   2  11 193.874 15.0601   3
  -9   2 -11 188.412 15.0177   2
 -10  -3  11 34.0297 10.1714   1
 -10  -3  11 25.5655 7.49858   8
  10  -3 -11 43.1442 10.9000   6
 -10  -3  11 37.7726 7.98957   4
 -10   3  11 33.6007 9.01748   1
  10   3 -11 36.5099 9.76958   6
  -9  -3  11 141.427 12.2540   1
  -9  -3  11 114.450 9.71375   4
   9  -3 -11 149.613 12.3812   6
  -9  -3  11 120.191 10.0212   8
  -9   3  11 124.271 13.6941   1
   9   3 -11 148.142 11.4303   3
   9   3 -11 136.167 12.1599   6
   8  -3 -11 143.296 10.9120   6
  -8  -3  11 165.767 10.0460   1
  -8  -3  11 158.475 10.2001   4
  -8  -3  11 148.711 10.0681   8
  -8   3  11 138.033 9.71340   4
  -8   3  11 144.617 11.0869   1
   8   3 -11 144.295 9.00190   5
   8   3 -11 147.961 12.5873   3
   8   3 -11 166.169 11.8078   6
  -7  -3  11 75.6967 7.78153   1
  -7  -3  11 56.5282 6.67011   4
   7  -3 -11 65.9302 6.66138   6
  -7  -3  11 50.2672 6.56175   8
   7   3 -11 80.1535 8.22878   3
   7   3 -11 56.9218 6.20341   5
  -7   3  11 68.6235 8.32432   1
  -7   3  11 73.1749 9.33225   4
  -6  -3  11 263.073 11.6438   8
  -6  -3  11 279.549 11.2155   1
  -6  -3  11 294.205 15.6248   4
   6  -3 -11 282.858 12.8338   9
   6  -3 -11 265.217 13.0636   6
   6   3 -11 268.976 14.7943   3
  -6   3  11 258.394 11.4607   4
  -6   3  11 262.627 13.0996   1
   6   3 -11 281.197 12.8196   5
  -5  -3  11 99.0758 5.82854   1
  -5  -3  11 86.8350 6.67982   4
   5  -3 -11 91.9630 6.42935   6
   5  -3 -11 84.9204 6.02776   9
  -5  -3  11 92.2231 6.82108   8
   5   3 -11 78.4871 6.49520   5
  -5   3  11 76.9045 7.60566   1
  -5   3  11 86.3535 7.93039   4
   5   3 -11 99.7764 7.98326   3
  -4  -3  11 6.38249 3.49160   4
  -4  -3  11 8.72111 4.58104   8
   4  -3 -11 7.60811 2.42748   6
  -4  -3  11 5.67175 2.27454   1
   4  -3 -11 4.89350 3.87285   9
   4   3 -11 2.82044 2.71670   1
   4   3 -11 2.80013 3.55986   5
  -4   3  11 2.56342 3.90181   4
  -4   3  11 8.75683 4.61265   1
   3  -3 -11 7.78440 2.25845   3
  -3  -3  11 7.68831 4.28017   8
   3  -3 -11 2.54435 2.82825   2
  -3  -3  11 12.8483 4.58006   4
   3  -3 -11 6.26648 2.51035   6
  -3  -3  11 7.77662 1.86820   1
   3  -3 -11 7.16603 2.97457   9
   3   3 -11 3.01200 2.87604   1
   3   3 -11 3.83187 1.23582   2
  -3   3  11 4.57057 3.96720   1
   3   3 -11 3.96889 3.57052   5
   3   3 -11 5.14010 1.43369   9
  -3   3  11 8.18144 4.20272   4
   2  -3 -11 12.3623 2.61448   3
  -2  -3  11 9.07299 3.02511   4
  -2  -3  11 11.2136 3.14732   8
   2  -3 -11 9.24893 1.68399   6
   2  -3 -11 10.3041 3.04955   9
   2  -3 -11 10.8909 4.28745   2
   2  -3 -11 12.3903 1.85245   7
  -2   3  11 10.7293 3.90974   1
  -2   3  11 10.8540 2.23085   3
   2   3 -11 10.7568 5.72568   1
   2   3 -11 8.20730 2.27220   2
   2   3 -11 10.5384 5.23323   5
   1  -3 -11 280.708 11.4845   3
   1  -3 -11 275.260 10.0811   5
  -1  -3  11 262.593 9.63626   8
   1  -3 -11 272.952 15.2729   2
   1  -3 -11 271.733 9.58042   9
  -1  -3  11 287.114 9.51580   4
   1   3 -11 303.537 17.0751   5
  -1   3  11 279.739 11.4729   3
   1   3 -11 272.089 14.2030   2
  -1   3  11 284.679 11.9539   1
   0  -3  11 136.374 6.30451   4
   0  -3 -11 130.571 7.44872   3
   0  -3  11 124.501 6.10758   8
   0  -3 -11 139.028 7.21163   2
   0  -3 -11 141.398 6.97300   9
   0  -3  11 118.595 7.11631   7
   0  -3 -11 140.342 6.61421   5
   0   3  11 150.646 9.12942   1
   0   3  11 129.944 6.90044   3
   0   3 -11 133.947 6.25419   2
   0   3  11 130.863 6.85078   5
   0   3 -11 125.635 9.81321   5
   0   3 -11 143.124 7.62286   4
  -1  -3 -11 202.035 8.81280   9
   1  -3  11 216.693 9.42966   7
  -1  -3 -11 205.311 7.63838   5
   1  -3  11 198.704 9.14026   4
  -1  -3 -11 228.564 10.8378   2
   1   3  11 215.491 10.3080   1
   1   3  11 201.759 9.66509   5
   1   3  11 206.774 8.85753   3
  -1   3 -11 207.088 10.3095   5
  -1   3 -11 199.861 8.52082   2
   2  -3  11 475.048 19.3181   7
  -2  -3 -11 473.017 12.4725   5
  -2  -3 -11 485.450 19.7816   2
   2  -3  11 494.414 18.5746   4
  -2  -3 -11 499.265 16.6871   9
  -2   3 -11 514.382 17.3341   2
   2   3  11 519.834 15.4405   3
  -2   3 -11 510.408 16.7872   5
   2   3  11 503.784 19.4233   5
   3  -3  11 486.020 16.9512   4
   3  -3  11 542.885 22.1493   1
   3  -3  11 534.317 16.8288   6
  -3  -3 -11 548.595 19.0258   2
   3  -3  11 565.521 17.7886   7
  -3  -3 -11 534.600 20.6326   5
  -3  -3 -11 507.311 16.2098   9
   3   3  11 549.449 35.5883   5
   3   3  11 590.995 17.3430   3
   3   3  11 578.621 19.2827   7
  -3   3 -11 542.215 17.0851   2
  -3   3 -11 563.403 21.8329   5
   3   3  11 550.319 23.5226   6
   4  -3  11 146.056 8.93979   6
   4  -3  11 130.376 10.4359   1
   4  -3  11 133.980 6.14671   4
   4  -3  11 134.693 9.15966   7
  -4  -3 -11 133.523 8.16113   2
  -4  -3 -11 149.180 7.98877   9
  -4  -3 -11 137.392 8.38044   5
   4   3  11 137.344 7.18346   6
  -4   3 -11 132.407 9.97099   2
  -4   3 -11 156.034 9.89253   5
   4   3  11 136.673 9.38683   3
   4   3  11 142.472 8.03458   7
   5  -3  11 25.2848 5.94496   3
   5  -3  11 26.9649 6.19096   7
  -5  -3 -11 32.8964 11.2552   2
  -5  -3 -11 22.9767 5.01553   9
   5  -3  11 23.4880 5.68539   6
   5   3  11 18.6328 4.21321   7
   5   3  11 23.2691 6.27643   3
  -5   3 -11 24.1853 6.14727   2
   5   3  11 23.6961 4.09127   6
  -5   3 -11 29.0640 6.24159   5
   6  -3  11 61.5901 9.59027   6
   6  -3  11 51.5052 9.70327   7
  -6  -3 -11 57.0603 6.62915   9
  -6  -3 -11 59.2803 7.07610   2
   6  -3  11 57.1182 7.69405   3
  -6   3 -11 54.8529 7.80250   5
   6   3  11 58.2916 10.2789   3
  -6   3 -11 36.5740 9.34124   2
   7  -3  11 36.7355 10.2960   7
   7  -3  11 44.0907 7.98610   6
  -7  -3 -11 71.9171 9.72185   2
   7  -3  11 57.7343 8.40401   3
  -7   3 -11 41.9373 8.25997   2
   7   3  11 51.3378 8.98723   3
  -7   3 -11 57.1810 8.17814   5
   8  -3  11 250.070 17.2919   6
   8  -3  11 279.801 16.5707   3
  -8  -3 -11 269.493 17.0004   2
   8  -3  11 282.492 19.3715   7
   8   3  11 261.400 20.1614   3
  -8   3 -11 307.030 17.2989   5
  -8   3 -11 320.581 19.9784   2
   9  -4 -11 37.0332 9.71080   7
  -9  -4  11 19.9038 6.73029   8
  -9  -4  11 23.1169 7.06565   4
   9  -4 -11 33.0979 7.24793   6
   9   4 -11 33.1089 8.58365   3
   9   4 -11 34.6162 9.23066   6
  -9   4  11 29.6631 8.52762   1
  -8  -4  11 0.14537 4.93127   4
   8  -4 -11 4.21976 5.43559   7
  -8  -4  11 5.35231 7.18951   8
   8  -4 -11 8.40210 5.41785   6
   8   4 -11 16.7206 8.70767   3
  -8   4  11 1.07915 6.27146   1
   7  -4 -11 -3.2919 4.04259   6
  -7  -4  11 -3.8963 6.33582   4
   7  -4 -11 -0.3130 4.13238   7
  -7  -4  11 -1.7508 4.47283   8
  -7   4  11 1.14665 5.69893   1
  -7   4  11 -0.0837 5.24259   4
   7   4 -11 -0.8224 8.40491   3
   7   4 -11 1.88035 5.54597   5
   6  -4 -11 0.31602 5.07887   7
   6  -4 -11 -0.7594 5.39878   9
   6  -4 -11 3.67665 3.50091   6
  -6  -4  11 -1.7754 3.91227   4
  -6  -4  11 0.51911 3.98660   8
  -6   4  11 -0.2635 5.20197   1
  -6   4  11 2.75672 3.82812   4
   6   4 -11 3.91559 5.53985   3
   6   4 -11 1.11551 5.50062   5
   5  -4 -11 102.991 6.41228   6
  -5  -4  11 87.3845 7.25955   8
   5  -4 -11 105.853 7.16918   7
  -5  -4  11 82.4402 8.04206   4
   5  -4 -11 90.0724 6.84304   9
  -5   4  11 88.0671 8.41445   4
   5   4 -11 94.4214 8.51832   5
   5   4 -11 99.0653 10.6014   3
  -5   4  11 92.1639 9.97595   1
   4  -4 -11 22.0578 3.16549   6
   4  -4 -11 20.3577 4.08333   7
  -4  -4  11 19.1757 5.66654   8
  -4  -4  11 13.8300 4.24981   4
   4  -4 -11 17.3992 4.14975   9
   4   4 -11 14.8498 5.71797   3
  -4   4  11 16.2221 5.73443   1
  -4   4  11 16.8094 6.37091   4
   4   4 -11 13.5465 6.12832   5
  -3  -4  11 148.129 8.00905   8
   3  -4 -11 147.338 7.67969   9
  -3  -4  11 160.849 8.16605   4
   3  -4 -11 158.377 7.68618   6
   3  -4 -11 146.374 7.11451   7
   3  -4 -11 153.788 8.28157   2
  -3   4  11 166.333 12.0036   1
   3   4 -11 136.406 8.93914   9
   3   4 -11 145.669 9.99941   2
   3   4 -11 149.114 10.2369   5
   3   4 -11 146.848 6.96504   1
   2  -4 -11 26.0218 4.32112   2
   2  -4 -11 28.7326 2.34043   7
  -2  -4  11 31.0605 4.16865   8
  -2  -4  11 29.3032 4.12634   4
   2  -4 -11 22.8506 5.00973   9
   2  -4 -11 23.8468 2.77051   3
   2  -4 -11 25.5461 2.39688   6
  -2   4  11 24.6034 2.81251   3
   2   4 -11 22.3616 2.29716   1
   2   4 -11 19.6977 2.73268   2
   2   4 -11 18.5660 4.79080   5
  -2   4  11 17.1783 6.52931   1
  -1  -4  11 20.3714 5.95767   4
   1  -4 -11 7.61088 3.01460   3
   1  -4 -11 3.08355 3.29246   9
  -1  -4  11 17.4890 4.84113   8
   1  -4 -11 10.1838 3.73849   2
  -1   4  11 6.31220 4.56026   1
   1   4 -11 7.68151 3.27990   2
   1   4 -11 9.88827 4.62693   5
  -1   4  11 5.18059 2.36661   3
   0  -4  11 158.498 7.79016   8
   0  -4  11 191.484 7.97281   4
   0  -4 -11 176.856 10.2193   9
   0  -4 -11 185.408 10.0907   3
   0  -4 -11 202.056 9.61498   2
   0  -4  11 169.183 9.91989   7
   0   4 -11 173.429 11.9764   5
   0   4  11 190.989 8.00316   3
   0   4 -11 176.956 7.66262   2
   0   4 -11 183.614 10.7070   4
   0   4  11 183.459 10.1014   1
   1  -4  11 1396.74 49.5219   7
  -1  -4 -11 1494.28 42.8033   2
  -1  -4 -11 1425.56 65.5580   9
   1  -4  11 1436.47 64.4264   8
   1  -4  11 1423.95 56.7703   4
   1   4  11 1479.60 79.7392   5
  -1   4 -11 1474.39 38.1854   2
  -1   4 -11 1542.15 48.2508   5
  -1   4 -11 1526.60 90.4200   4
   1   4  11 1504.15 61.1041   1
   1   4  11 1509.81 59.0051   3
   2  -4  11 70.2790 7.83752   7
   2  -4  11 76.4916 4.74548   8
   2  -4  11 71.9285 4.60455   4
  -2  -4 -11 79.0416 6.44025   2
  -2  -4 -11 79.8333 6.10186   9
  -2   4 -11 81.8483 6.58452   2
   2   4  11 69.4397 6.11241   5
   2   4  11 71.3669 6.54104   3
  -2   4 -11 75.6270 9.21050   5
  -3  -4 -11 105.034 7.46621   2
   3  -4  11 110.992 7.84323   8
   3  -4  11 86.9288 7.66532   6
  -3  -4 -11 100.511 6.92616   9
   3  -4  11 107.517 6.53787   4
   3  -4  11 93.8090 9.23058   7
   3  -4  11 109.314 6.70677   1
  -3   4 -11 118.140 8.14638   2
   3   4  11 109.411 8.27428   3
  -3   4 -11 112.765 10.4507   5
   4  -4  11 18.7304 2.29995   4
  -4  -4 -11 35.0266 11.1716   9
   4  -4  11 28.3407 5.92236   6
  -4  -4 -11 37.4993 11.7132   2
   4  -4  11 16.6466 2.04052   8
   4   4  11 26.2350 6.18202   3
  -4   4 -11 33.1713 7.57001   2
  -4   4 -11 40.7229 20.5642   5
  -5  -4 -11 224.114 11.0654   2
   5  -4  11 242.783 12.6602   6
   5  -4  11 213.458 13.7253   7
  -5  -4 -11 235.650 11.7094   9
   5   4  11 254.363 14.2412   3
  -5   4 -11 250.700 12.8299   2
  -5   4 -11 234.777 13.8152   5
  -6  -4 -11 -2.2944 4.42573   9
  -6  -4 -11 1.23708 4.85332   2
   6  -4  11 -0.6848 8.56767   7
   6  -4  11 6.39204 8.41504   6
  -6   4 -11 -0.4818 8.47315   5
   6   4  11 -6.2674 6.15668   3
  -6   4 -11 -4.7332 8.25995   2
  -7  -4 -11 118.514 10.3471   9
   7  -4  11 128.071 14.0046   7
  -7  -4 -11 112.403 9.49549   2
   7  -4  11 107.353 13.0477   6
  -7   4 -11 141.333 12.0799   5
  -7   4 -11 107.790 13.2277   2
   7   4  11 99.1048 13.1314   3
  -8  -4 -11 26.3294 7.55408   2
  -8  -4 -11 35.9589 6.66791   9
   8  -4  11 29.2744 12.6686   6
   8  -4  11 21.8951 9.56898   7
  -8   4 -11 32.8766 8.62008   5
  -8   4 -11 19.8258 9.40164   2
   8   4  11 25.8975 12.6232   3
  -9  -5  11 100.531 10.5573   8
  -9  -5  11 87.3301 10.0583   4
   9  -5 -11 96.5374 10.5117   6
   9  -5 -11 121.621 13.1358   7
  -9   5  11 92.9452 24.2688   1
   9   5 -11 106.214 12.5849   6
   9   5 -11 110.541 15.9172   3
  -8  -5  11 -4.3484 5.41328   4
   8  -5 -11 5.77569 7.99846   7
  -8  -5  11 -5.0456 5.17796   8
   8  -5 -11 5.10904 5.26698   6
  -8   5  11 0.21251 7.02665   1
   8   5 -11 1.29923 7.83817   3
   7  -5 -11 15.0623 6.73311   6
   7  -5 -11 25.0116 5.94110   7
  -7  -5  11 31.2479 8.05389   8
  -7  -5  11 26.0107 6.29277   4
  -7   5  11 25.7359 7.93755   1
   7   5 -11 11.6562 7.85061   3
  -7   5  11 19.9300 6.53736   4
   7   5 -11 19.6580 5.32298   5
   6  -5 -11 225.015 13.2151   6
  -6  -5  11 230.854 11.6602   8
   6  -5 -11 239.279 13.7068   7
  -6  -5  11 235.886 12.2929   4
   6  -5 -11 214.959 13.1846   9
   6   5 -11 211.103 15.6202   3
  -6   5  11 211.540 15.3984   1
  -6   5  11 202.166 10.6753   4
   6   5 -11 205.483 11.8882   5
   5  -5 -11 -2.1366 4.54784   7
   5  -5 -11 3.98056 6.02683   9
  -5  -5  11 0.54676 4.31616   8
   5  -5 -11 0.97001 4.28278   6
  -5  -5  11 2.78933 4.25365   4
   5   5 -11 0.67751 4.30260   5
  -5   5  11 2.98004 5.52402   1
  -5   5  11 2.22913 6.18907   4
   5   5 -11 -1.4879 8.91259   3
  -4  -5  11 4.24165 4.01476   8
  -4  -5  11 2.68018 3.96538   4
   4  -5 -11 3.76445 3.40552   6
   4  -5 -11 0.79583 3.46067   7
   4  -5 -11 1.46839 5.62668   9
  -4   5  11 6.21287 6.41707   4
  -4   5  11 5.43043 5.64601   1
   4   5 -11 4.76902 6.09490   3
   4   5 -11 6.96489 4.81259   5
   3  -5 -11 33.5710 5.03950   9
  -3  -5  11 24.3823 4.68358   4
   3  -5 -11 33.0327 3.56259   6
   3  -5 -11 31.6081 3.68287   7
  -3  -5  11 26.9180 4.82355   8
   3   5 -11 19.6075 6.95967   5
  -3   5  11 26.2029 6.60630   1
   2  -5 -11 1711.18 60.3091   7
   2  -5 -11 1692.44 57.6185   6
   2  -5 -11 1758.29 72.0434   2
   2  -5 -11 1743.28 78.1182   3
  -2  -5  11 1671.04 59.7780   8
   2  -5 -11 1667.76 66.8915   9
  -2  -5  11 1707.83 57.0169   4
  -2   5  11 1726.14 53.5935   3
   2   5 -11 1752.86 111.349   2
  -2   5  11 1757.91 61.6017   1
   2   5 -11 1681.67 76.3888   1
   2   5 -11 1757.80 52.9972   5
   1  -5 -11 0.39506 3.21605   3
   1  -5 -11 -2.5710 5.27225   2
  -1  -5  11 0.07550 2.90887   8
   1  -5 -11 -1.8415 3.48931   9
  -1  -5  11 4.48171 3.18776   4
   1   5 -11 -0.1500 3.12593   9
   1   5 -11 1.22239 2.43101   2
  -1   5  11 -1.8475 3.21236   3
  -1   5  11 -5.3995 6.91840   1
   1   5 -11 -0.6136 6.71853   5
   0  -5  11 406.461 13.7663   4
   0  -5 -11 392.701 21.9388   9
   0  -5  11 391.980 15.9444   7
   0  -5 -11 395.164 21.4453   2
   0  -5  11 414.892 17.2121   8
   0   5  11 395.678 23.5716   1
   0   5  11 423.631 18.9734   3
   0   5 -11 407.216 17.8330   5
  -1  -5 -11 126.655 7.97178   2
   1  -5  11 108.307 8.61255   7
   1  -5  11 116.126 5.97812   8
  -1  -5 -11 100.212 7.08273   9
   1  -5  11 120.263 6.41077   4
   1   5  11 120.239 9.76439   1
  -1   5 -11 107.982 9.59271   5
  -1   5 -11 105.592 9.96751   4
   1   5  11 106.955 8.13010   3
   2  -5  11 14.1608 3.28999   4
   2  -5  11 8.90297 5.01327   7
   2  -5  11 11.1986 3.30001   8
  -2  -5 -11 12.8165 5.92623   2
  -2  -5 -11 11.4970 4.24702   9
   2   5  11 20.3352 6.52825   1
   2   5  11 3.89526 4.25617   3
  -2   5 -11 14.6473 7.78451   5
  -3  -5 -11 473.363 20.4540   2
   3  -5  11 499.986 18.6736   7
  -3  -5 -11 443.085 20.6585   9
  -3   5 -11 467.266 29.4968   5
   3   5  11 486.571 21.0972   3
   4  -5  11 35.6722 8.73449   6
  -4  -5 -11 48.3661 6.27440   2
  -4  -5 -11 32.3706 5.56882   9
   4  -5  11 32.3711 7.17879   7
  -4   5 -11 58.0943 10.6222   5
   4   5  11 31.9242 7.11319   3
   5  -5  11 4.22991 6.28390   6
  -5  -5 -11 16.1524 7.17133   2
   5  -5  11 4.21865 6.36577   7
  -5  -5 -11 9.25872 4.74839   9
  -5   5 -11 -0.5927 5.87041   2
  -5   5 -11 6.11779 6.85578   5
   5   5  11 8.79500 6.81680   3
  -6  -5 -11 95.9138 10.0818   2
  -6  -5 -11 102.574 8.23136   9
   6  -5  11 86.9520 12.1999   6
   6  -5  11 80.4514 12.3674   7
   6   5  11 105.034 13.2983   3
  -6   5 -11 100.646 11.2423   5
  -6   5 -11 90.3874 10.2785   2
   7  -5  11 14.3961 11.4481   6
  -7  -5 -11 25.5798 6.50039   9
   7  -5  11 26.4607 11.3704   7
  -7  -5 -11 37.3688 6.98777   2
   7   5  11 26.6697 9.17553   3
  -7   5 -11 34.0970 9.25082   5
  -7   5 -11 33.0564 8.80742   2
  -8  -6  11 -0.1734 5.93478   4
   8  -6 -11 2.77952 8.68929   6
  -8  -6  11 6.50493 6.42163   8
   8  -6 -11 4.43506 9.15984   7
   8   6 -11 10.6163 9.52890   3
  -8   6  11 2.94267 7.61732   1
  -7  -6  11 66.2727 8.49142   8
   7  -6 -11 67.3924 9.69431   7
  -7  -6  11 71.5039 8.44921   4
   7  -6 -11 80.5323 9.98583   6
   7   6 -11 69.9564 11.3293   3
  -7   6  11 67.1469 10.3556   1
  -6  -6  11 46.1434 7.08967   4
   6  -6 -11 43.7667 5.95544   6
  -6  -6  11 37.9937 6.85904   8
   6  -6 -11 48.4145 6.15155   7
   6   6 -11 39.0412 8.38751   5
  -6   6  11 50.1878 9.19014   1
  -6   6  11 35.5071 8.10303   4
   6   6 -11 46.6836 12.9431   3
   5  -6 -11 95.7941 6.52689   6
   5  -6 -11 98.2395 8.43782   9
  -5  -6  11 80.5659 7.94601   4
  -5  -6  11 90.8116 8.07683   8
   5  -6 -11 85.6956 7.67459   7
  -5   6  11 82.6862 7.97183   4
   5   6 -11 79.9046 9.64796   5
   5   6 -11 88.8553 13.6110   3
  -5   6  11 80.8032 12.1208   1
   4  -6 -11 17.1297 4.59092   7
  -4  -6  11 10.7233 6.60309   4
   4  -6 -11 11.4109 5.21315   9
   4  -6 -11 12.0850 4.48754   6
  -4  -6  11 14.3384 6.62162   8
  -4   6  11 12.0785 7.23270   1
   4   6 -11 4.58984 9.56102   3
   4   6 -11 7.15767 7.19915   5
  -3  -6  11 26.7845 5.22171   4
   3  -6 -11 27.9512 5.71089   9
  -3  -6  11 25.7867 5.13124   8
   3  -6 -11 38.7552 4.35008   7
   3  -6 -11 31.7168 3.97249   6
  -3   6  11 27.7481 7.41525   1
   3   6 -11 23.5728 7.46184   3
   3   6 -11 17.6738 5.94422   5
  -2  -6  11 2.50765 5.12683   4
  -2  -6  11 0.50771 3.64828   8
   2  -6 -11 0.16036 2.32933   7
   2  -6 -11 2.66704 4.41256   9
   2   6 -11 5.23880 5.34502   5
  -2   6  11 1.39682 5.58745   1
   1  -6 -11 166.682 9.73961   2
  -1  -6  11 176.255 8.55223   4
  -1  -6  11 173.929 8.50634   8
   1  -6 -11 173.788 10.1927   9
  -1   6  11 169.568 11.9340   1
   1   6 -11 164.357 12.8955   5
  -1   6  11 146.891 11.2336   3
   0  -6  11 148.931 8.34130   4
   0  -6 -11 145.626 8.68979   9
   0  -6 -11 144.291 9.96203   2
   0  -6  11 156.031 10.4401   7
   0  -6  11 160.067 8.60959   8
   0   6 -11 166.317 12.8726   5
   0   6  11 149.324 8.55745   3
   0   6  11 156.900 12.7358   1
   1  -6  11 3.64145 3.79132   8
   1  -6  11 -0.9648 4.69475   7
  -1  -6 -11 4.93519 5.82804   9
   1  -6  11 5.09680 3.81969   4
  -1  -6 -11 8.10756 4.61673   2
   1   6  11 -1.0121 4.12845   3
   1   6  11 13.4454 8.89590   1
  -1   6 -11 1.90117 8.65689   5
  -2  -6 -11 -3.7171 5.81654   9
   2  -6  11 -0.9770 2.17590   4
  -2  -6 -11 -1.5762 4.42486   2
   2  -6  11 -3.9742 5.37383   7
   2  -6  11 -2.1375 3.10660   8
   2   6  11 1.91641 6.22407   1
  -2   6 -11 4.04732 6.24368   5
   2   6  11 0.22716 6.56627   3
   3  -6  11 65.9624 8.78499   7
  -3  -6 -11 72.7911 8.27377   9
  -3  -6 -11 70.9968 8.56725   2
   3   6  11 61.6538 9.49065   1
  -3   6 -11 68.3457 10.0854   5
   3   6  11 73.3844 8.54656   3
   4  -6  11 -5.2334 6.07846   6
  -4  -6 -11 4.76084 5.32586   2
   4  -6  11 5.88269 6.57102   7
  -4  -6 -11 7.68048 4.92822   9
   4   6  11 6.93894 6.85302   3
  -4   6 -11 -0.4409 10.1053   5
  -5  -6 -11 107.800 10.4498   2
  -5  -6 -11 97.9639 9.81141   9
   5  -6  11 119.749 11.0046   6
   5  -6  11 104.323 11.3271   7
  -5   6 -11 114.612 12.2329   5
   5   6  11 96.2370 13.1638   3
   6  -6  11 45.3547 12.9232   7
  -6  -6 -11 48.4734 9.49171   2
  -6  -6 -11 46.7909 7.33591   9
   6  -6  11 33.8732 11.8520   6
  -6   6 -11 59.2508 10.6515   5
   6   6  11 36.0420 12.8497   3
  -7  -7  11 8.57653 9.84146   8
  -7  -7  11 12.9033 10.1721   4
  -7   7  11 13.3473 9.17605   1
   7   7 -11 17.4922 10.7684   3
  -6  -7  11 40.7215 7.91893   8
  -6  -7  11 58.8390 10.0378   4
  -6   7  11 60.1147 12.8049   1
   6   7 -11 40.8767 14.2632   3
  -5  -7  11 2.64095 5.25199   4
   5  -7 -11 2.10683 5.50468   9
  -5  -7  11 2.12946 5.30126   8
  -5   7  11 4.22495 7.86680   1
   5   7 -11 1.10317 8.51359   3
  -5   7  11 1.20788 5.54896   4
   5   7 -11 -0.3752 7.93783   5
   4  -7 -11 4.36124 7.95478   9
  -4  -7  11 7.93354 6.90818   4
  -4  -7  11 5.03235 5.21294   8
  -4   7  11 -4.7018 7.31675   1
   4   7 -11 6.71652 8.33445   3
   4   7 -11 2.46171 8.22754   5
  -3  -7  11 -0.3792 6.20441   4
   3  -7 -11 0.44703 4.93910   9
  -3  -7  11 2.38615 6.30161   8
   3   7 -11 -3.6918 10.2919   3
  -3   7  11 -0.7556 6.66607   1
   3   7 -11 -0.0855 8.07236   5
  -2  -7  11 12.4761 6.18254   4
  -2  -7  11 13.4772 6.28159   8
   2  -7 -11 3.92548 4.85851   9
   2   7 -11 6.44086 8.32680   5
  -2   7  11 1.44606 6.39816   1
  -1  -7  11 15.6061 4.62665   8
  -1  -7  11 13.7996 4.48390   4
   1  -7 -11 13.7960 5.51203   9
  -1   7  11 10.3652 10.1776   1
   1   7 -11 8.36519 6.65039   5
   0  -7  11 10.7057 6.74340   7
   0  -7 -11 9.42956 6.91897   9
   0  -7  11 10.4213 4.23021   4
   0  -7 -11 8.75624 7.17348   2
   0  -7  11 10.1127 5.60097   8
   0   7 -11 3.75450 6.89393   5
   0   7  11 2.32875 5.73170   3
   0   7  11 6.03393 9.64761   1
   1  -7  11 1.21886 5.64071   7
   1  -7  11 -3.2952 3.04257   8
   1  -7  11 2.92068 4.38875   4
  -1  -7 -11 3.54114 6.62457   2
  -1  -7 -11 1.18724 6.38568   9
  -1   7 -11 -4.5654 9.64871   5
   1   7  11 4.50337 6.75329   1
   1   7  11 -3.6344 4.41412   3
  -2  -7 -11 101.264 9.97367   2
  -2  -7 -11 99.5500 9.44724   9
   2  -7  11 94.4440 10.4581   7
  -2   7 -11 93.3662 11.4855   5
   2   7  11 78.8757 13.2185   1
   2   7  11 85.2342 8.65672   3
  -3  -7 -11 12.8010 5.86268   9
  -3  -7 -11 13.1772 5.97290   2
   3  -7  11 9.61758 10.0134   7
   3   7  11 11.6947 6.87076   3
   3   7  11 6.11253 8.49475   1
  -3   7 -11 5.47357 8.45319   5
   4  -7  11 293.812 20.7449   7
  -4  -7 -11 310.377 14.4559   9
  -4  -7 -11 297.633 14.5690   2
   4   7  11 281.959 17.6563   3
  -4   7 -11 294.322 20.3919   5
   4   7  11 291.528 19.4767   1
  -5  -7 -11 75.0999 8.86077   2
  -5  -7 -11 75.9011 10.0950   9
   5  -7  11 74.7494 11.4438   7
   5   7  11 49.6985 10.7096   3
  -5   7 -11 83.5566 11.9368   5
  -5  -8  11 7.13963 6.80026   8
   5  -8 -11 7.14526 7.36992   9
  -5  -8  11 11.7757 6.82627   4
   5   8 -11 6.11895 25.2786   3
  -5   8  11 25.4373 12.9682   1
  -4  -8  11 11.9821 8.24220   4
  -4  -8  11 8.85610 5.91755   8
   4  -8 -11 1.85700 6.52889   9
   4   8 -11 7.45558 6.79440   5
   4   8 -11 3.44478 10.2154   3
  -4   8  11 -5.2052 11.5158   1
  -3  -8  11 190.435 14.1148   4
   3  -8 -11 179.942 13.3760   9
  -3  -8  11 199.504 12.0241   8
   3   8 -11 158.660 17.2554   3
  -3   8  11 205.116 17.2538   1
   3   8 -11 202.527 16.7471   5
   2  -8 -11 -0.4298 7.75523   9
  -2  -8  11 3.65783 6.50964   8
  -2  -8  11 -1.6861 4.61130   4
   2   8 -11 -2.2465 7.69195   3
  -2   8  11 5.51917 11.1152   1
   2   8 -11 0.66303 6.44012   5
  -1  -8  11 10.9435 5.00450   4
   1  -8 -11 2.06849 5.58554   9
  -1  -8  11 4.18506 4.73100   8
   1   8 -11 4.93913 7.57883   5
  -1   8  11 7.80676 11.5252   1
   0  -8 -11 28.8236 6.84456   9
   0  -8  11 31.1908 6.21215   4
   0  -8  11 33.5635 7.78136   8
   0   8 -11 21.6059 9.21541   5
   0   8  11 30.9527 9.48669   1
  -1  -8 -11 138.465 10.3043   2
   1  -8  11 136.245 12.3863   7
  -1  -8 -11 145.768 11.3419   9
  -1   8 -11 117.086 15.9164   5
   1   8  11 172.767 15.9655   1
  -2  -8 -11 15.1382 6.35554   9
   2  -8  11 17.5778 10.5198   7
  -2  -8 -11 13.1716 8.62865   2
   2   8  11 20.0173 10.0780   1
   2   8  11 4.77092 9.14432   3
  -2   8 -11 14.6724 12.7758   5
  -3  -8 -11 2.46304 5.80532   2
  -3  -8 -11 -0.3990 5.33128   9
   3  -8  11 -1.6601 7.35388   7
   3   8  11 2.19195 9.47583   3
  -3   8 -11 -4.6228 11.9671   5
   3   8  11 -1.1875 8.38715   1
  10   0 -12 81.7768 12.7193   6
 -10   0  12 66.0465 8.16250   4
 -10   0  12 88.6258 12.1322   1
 -10   0  12 82.4929 10.2532   8
  -9   0  12 -6.3278 7.60454   1
  -9   0  12 -2.2453 4.36302   4
  -9   0  12 -4.4335 6.45971   8
   9   0 -12 1.80540 5.91747   6
  -8   0  12 853.086 35.4801   1
   8   0 -12 830.855 41.7086   6
  -8   0  12 858.205 44.0544   4
  -8   0  12 831.206 26.5658   8
   8   0 -12 844.897 45.2867   3
   7   0 -12 0.00000 3.04522   3
  -7   0  12 -1.3003 9.06481   8
  -7   0  12 0.42893 5.60374   1
  -7   0  12 -2.0512 5.07231   4
   7   0 -12 3.86273 6.15217   6
  -6   0  12 45.9456 5.51237   1
  -6   0  12 47.7816 5.58828   4
  -6   0  12 56.1994 4.28784   2
   6   0 -12 53.3900 5.88359   6
   6   0 -12 51.6728 4.66221   3
  -6   0  12 52.7810 3.97734   9
   6   0 -12 49.1256 6.93064   5
   5   0 -12 -0.3757 2.27263   3
   5   0 -12 -0.2304 2.34148   9
   5   0 -12 0.93695 4.09210   6
  -5   0  12 -2.7743 2.39363   9
  -5   0  12 -1.5414 3.16076   4
   5   0 -12 -3.8116 4.70500   5
  -5   0  12 1.20096 2.47567   2
  -5   0  12 1.85655 3.01213   1
   4   0 -12 57.6675 6.69693   5
   4   0 -12 63.3926 5.30895   3
   4   0 -12 56.6707 5.92176   1
   4   0 -12 54.2579 3.65168   2
  -4   0  12 68.4003 5.34216   1
  -4   0  12 66.1914 5.83749   4
  -4   0  12 75.1087 4.66075   2
   4   0 -12 56.2132 3.94038   9
   3   0 -12 -0.4643 2.28765   9
   3   0 -12 -0.0755 4.25568   5
  -3   0  12 -0.8431 3.45380   1
  -3   0  12 0.00000 2.59795   2
   3   0 -12 3.81314 4.29522   1
   3   0 -12 -2.4712 2.51373   2
   3   0 -12 0.44730 2.13262   3
  -3   0  12 -1.5114 3.06911   4
  -2   0  12 0.62621 2.70215   2
  -2   0  12 -3.2698 4.62963   4
   2   0 -12 -0.3200 2.53041   7
   2   0 -12 1.94539 2.51431   3
   2   0 -12 0.90116 2.77654   2
  -2   0  12 -1.1519 2.94445   1
   2   0 -12 -0.1573 2.55014   9
   2   0 -12 1.08768 3.93899   5
   2   0 -12 4.65959 3.77484   1
   1   0 -12 -2.8268 3.11033   2
  -1   0  12 6.45163 4.78125   4
   1   0 -12 -0.4671 2.45962   7
  -1   0  12 -0.2207 2.88655   2
   1   0 -12 -1.0668 2.92514   9
  -1   0  12 3.12267 2.70869   1
   1   0 -12 -2.9721 3.86094   5
   1   0 -12 0.74682 2.63392   3
   0   0 -12 2411.56 91.2607   6
   0   0 -12 2409.66 105.324   7
   0   0  12 2347.75 76.2456   3
   0   0 -12 2357.45 94.9206   5
   0   0  12 2281.85 76.0274   5
   0   0  12 2363.49 109.069   2
   0   0  12 2407.67 64.5048   4
   0   0 -12 2360.81 131.266   3
   0   0 -12 2438.93 61.7317   2
   0   0  12 2355.63 88.6866   1
   1   0  12 0.95926 2.99638   3
  -1   0 -12 1.02304 2.58668   5
   1   0  12 -4.0171 4.60549   4
   1   0  12 -3.5791 4.65956   5
   1   0  12 -1.4628 1.62207   7
  -1   0 -12 -1.3956 2.47986   7
  -1   0 -12 -0.4031 1.68346   6
   1   0  12 -0.5765 2.68641   1
  -1   0 -12 -1.3038 3.75983   2
  -2   0 -12 680.493 33.2492   6
   2   0  12 658.839 27.6506   7
   2   0  12 655.258 24.1192   3
  -2   0 -12 663.051 27.8467   5
   2   0  12 663.324 36.7811   5
   2   0  12 663.785 32.4228   6
  -2   0 -12 664.440 18.7470   2
  -2   0 -12 681.513 34.0267   7
  -3   0 -12 -1.9028 2.60036   5
   3   0  12 -1.2479 3.86336   3
  -3   0 -12 -5.2197 4.68070   2
   3   0  12 -3.7227 3.66129   5
  -3   0 -12 -0.1600 3.38283   6
   3   0  12 -1.3249 3.13378   7
   3   0  12 -0.1645 3.44938   1
   3   0  12 1.41339 3.15096   6
  -4   0 -12 12.8652 4.42143   5
   4   0  12 3.94178 7.35804   3
   4   0  12 3.55739 2.98496   6
   4   0  12 7.11789 3.21302   7
  -4   0 -12 6.16797 5.49479   2
   5   0  12 -1.4460 4.59365   6
  -5   0 -12 0.39205 4.14917   2
   5   0  12 -2.0055 4.81607   3
   5   0  12 -2.9213 5.00300   7
  -5   0 -12 -2.4924 4.13921   5
  -6   0 -12 5.81463 4.68358   5
   6   0  12 0.70113 7.87363   3
   6   0  12 4.06711 4.56724   7
  -6   0 -12 4.19211 5.04480   2
   6   0  12 4.90916 4.37572   6
   7   0  12 -1.6015 4.51619   7
  -7   0 -12 -0.8476 5.18741   2
   7   0  12 0.00000 4.71203   6
   7   0  12 -2.4170 8.73648   3
   8   0  12 42.8030 8.99428   6
   8   0  12 30.4456 8.69150   7
  -8   0 -12 40.7283 7.85809   2
   8   0  12 49.1097 9.15841   3
  -9   0 -12 2.71043 8.86467   2
   9   0  12 -1.4584 7.63347   3
   9   0  12 3.66131 8.64645   7
   9   0  12 -5.5077 8.38389   6
 -10  -1  12 87.1483 12.0358   1
 -10  -1  12 65.9413 8.47206   4
 -10  -1  12 76.5308 8.79811   8
  10  -1 -12 78.7006 12.2479   6
 -10   1  12 95.5702 10.6511   1
 -10   1  12 65.2949 9.65747   8
  10   1 -12 86.0088 10.8740   6
 -10   1  12 65.2493 9.42933   4
  -9  -1  12 30.6396 8.12568   4
   9  -1 -12 36.1719 7.16412   6
  -9  -1  12 19.7923 7.76020   8
  -9  -1  12 36.5594 7.10581   1
  -9   1  12 53.2725 8.10793   1
  -9   1  12 22.5834 7.28798   8
   9   1 -12 44.5485 6.48232   3
   9   1 -12 40.8124 8.00618   6
  -9   1  12 23.7547 5.72201   4
   8  -1 -12 235.960 12.5113   6
  -8  -1  12 219.903 11.3038   8
  -8  -1  12 223.874 11.3232   4
  -8  -1  12 230.422 11.9138   1
   8   1 -12 229.410 15.1768   3
   8   1 -12 210.975 15.8129   6
  -8   1  12 230.399 11.3049   4
  -8   1  12 224.388 13.2315   1
  -8   1  12 217.198 12.9518   8
  -7  -1  12 53.9889 6.32142   4
  -7  -1  12 48.5527 7.47276   8
   7  -1 -12 55.7191 7.59237   6
   7  -1 -12 62.9828 4.91078   3
  -7  -1  12 81.1579 8.13492   1
  -7   1  12 42.6876 6.95008   4
   7   1 -12 67.8318 6.20812   3
  -7   1  12 72.0171 14.2605   1
   7   1 -12 57.2190 6.47424   5
   7   1 -12 67.0908 7.29042   6
   6  -1 -12 11.4273 3.89572   9
  -6  -1  12 13.9762 5.71535   4
   6  -1 -12 17.0002 3.15610   3
  -6  -1  12 21.2215 2.47158   2
  -6  -1  12 21.5585 6.92424   1
  -6  -1  12 17.3210 4.92991   8
   6  -1 -12 13.8787 5.23589   6
   6   1 -12 7.54743 5.76975   5
   6   1 -12 19.8205 4.22912   3
  -6   1  12 13.5214 4.20440   4
  -6   1  12 20.6249 4.91657   1
  -5  -1  12 284.489 10.9874   1
   5  -1 -12 273.152 16.3268   9
  -5  -1  12 304.494 11.9370   4
   5  -1 -12 275.385 12.1048   5
  -5  -1  12 285.823 9.96384   2
   5  -1 -12 295.334 13.9020   6
   5  -1 -12 297.293 19.4500   3
  -5  -1  12 284.402 11.3014   8
   5  -1 -12 286.370 12.4719   3
   5   1 -12 291.890 16.8003   3
  -5   1  12 287.089 20.1920   9
  -5   1  12 303.811 11.6424   1
   5   1 -12 282.622 11.2479   9
  -5   1  12 284.552 11.8571   4
  -5   1  12 288.546 17.4005   2
   5   1 -12 307.005 12.2674   5
   4  -1 -12 239.197 13.9200   5
  -4  -1  12 249.114 8.94363   2
  -4  -1  12 245.001 10.0002   4
  -4  -1  12 255.610 8.72187   1
   4  -1 -12 253.799 9.08501   2
   4  -1 -12 243.718 8.89643   6
   4  -1 -12 233.573 10.1341   9
   4  -1 -12 258.837 12.6255   3
  -4   1  12 252.191 14.9457   2
  -4   1  12 253.436 14.0954   9
  -4   1  12 247.946 10.0423   1
   4   1 -12 248.760 9.22335   9
   4   1 -12 254.070 9.99239   2
  -4   1  12 262.539 10.4954   4
   4   1 -12 250.558 14.4110   1
   4   1 -12 267.189 12.6170   5
   3  -1 -12 19.5671 3.21374   3
  -3  -1  12 20.5268 2.70451   1
   3  -1 -12 13.0128 2.80699   2
   3  -1 -12 13.5201 5.28138   1
  -3  -1  12 17.2502 2.12813   2
   3  -1 -12 16.2688 2.81551   9
  -3  -1  12 10.5720 4.63778   4
   3  -1 -12 21.1128 2.82832   6
   3  -1 -12 18.9145 4.10873   5
   3   1 -12 20.1523 4.05451   5
  -3   1  12 20.7738 5.74320   4
  -3   1  12 22.5956 3.02744   9
   3   1 -12 12.8138 2.33350   9
  -3   1  12 18.3704 4.70156   1
   3   1 -12 18.2463 2.67206   2
   3   1 -12 17.4104 3.30339   1
  -3   1  12 18.9976 3.87335   2
   3   1 -12 15.9874 3.89471   7
   2  -1 -12 20.3045 3.00559   9
   2  -1 -12 21.5561 4.18199   1
  -2  -1  12 24.6091 2.54561   1
   2  -1 -12 19.3749 4.77290   5
  -2  -1  12 21.3437 3.14238   2
   2  -1 -12 23.9494 3.51612   3
   2  -1 -12 19.9116 3.15073   2
  -2  -1  12 23.5168 5.06784   4
  -2   1  12 18.5327 4.49945   4
  -2   1  12 17.1634 3.05148   2
   2   1 -12 30.7125 3.87470   7
   2   1 -12 22.8242 4.16154   5
   2   1 -12 20.8487 2.60080   2
   2   1 -12 23.8445 2.62512   9
  -2   1  12 21.6969 3.62112   1
   2   1 -12 32.3173 4.06877   3
   2   1 -12 13.6487 3.08340   1
   1  -1 -12 317.885 10.9103   5
   1  -1 -12 312.750 13.4910   3
  -1  -1  12 319.019 10.7381   2
  -1  -1  12 315.516 10.7448   4
   1  -1 -12 338.170 15.6096   7
  -1  -1  12 305.635 11.6946   1
   1  -1 -12 314.631 11.1714   2
   1  -1 -12 337.427 9.84799   9
   1   1 -12 292.131 17.1064   5
  -1   1  12 294.599 11.8979   1
   1   1 -12 311.404 14.1815   3
   1   1 -12 311.063 15.7103   2
  -1   1  12 317.332 11.9807   3
  -1   1  12 307.977 11.6593   4
   1   1 -12 330.207 12.7579   7
  -1   1  12 321.456 16.6529   2
   0  -1 -12 20.8151 2.16335   7
   0  -1  12 18.5676 3.21627   2
   0  -1  12 22.2113 3.18122   7
   0  -1 -12 19.3345 4.22682   5
   0  -1  12 18.4781 3.88123   4
   0  -1 -12 15.6482 3.98544   9
   0  -1 -12 24.3614 2.12479   6
   0  -1 -12 13.2667 4.21937   2
   0  -1  12 22.9559 2.32942   1
   0  -1 -12 23.6707 3.47477   3
   0   1  12 23.7107 3.57260   3
   0   1  12 14.1371 3.93271   1
   0   1 -12 14.1310 2.95781   2
   0   1 -12 20.3704 3.94564   7
   0   1  12 13.1527 4.52778   5
   0   1 -12 12.5871 3.72319   5
   0   1 -12 26.4389 3.98033   6
   1  -1  12 79.7651 3.85791   1
  -1  -1 -12 72.6397 3.58110   7
  -1  -1 -12 71.0731 5.51201   2
  -1  -1 -12 66.9939 4.96483   5
   1  -1  12 65.3107 5.12217   7
   1  -1  12 74.8596 6.35241   4
   1  -1  12 73.7284 6.61609   3
  -1  -1 -12 70.9286 3.34514   6
  -1  -1 -12 70.0767 5.13914   9
   1   1  12 62.4841 5.39498   5
  -1   1 -12 69.5736 5.19252   2
   1   1  12 65.7948 5.46826   3
  -1   1 -12 72.8898 5.80313   5
   1   1  12 67.1829 4.65526   7
  -1   1 -12 73.2433 5.51284   7
   1   1  12 78.7709 5.97798   1
  -1   1 -12 81.4178 5.42968   6
   2  -1  12 127.120 8.38723   3
  -2  -1 -12 133.026 5.72683   6
  -2  -1 -12 110.823 7.79699   2
   2  -1  12 136.429 5.34250   1
  -2  -1 -12 123.978 6.35685   5
   2  -1  12 110.865 6.67071   7
   2  -1  12 124.483 6.42427   6
   2  -1  12 120.287 6.73528   4
  -2   1 -12 120.924 7.63509   7
  -2   1 -12 120.295 7.07380   2
   2   1  12 121.348 8.30680   3
  -2   1 -12 126.901 8.16173   6
  -2   1 -12 127.875 7.48816   5
   2   1  12 115.098 6.49712   7
   2   1  12 114.348 7.45804   5
   3  -1  12 239.675 10.6534   4
   3  -1  12 258.405 11.5333   1
  -3  -1 -12 259.771 11.1089   2
   3  -1  12 246.210 11.7095   3
   3  -1  12 253.330 10.8421   7
   3  -1  12 251.978 11.4649   6
  -3  -1 -12 256.649 9.36717   5
  -3  -1 -12 254.146 11.6337   6
  -3   1 -12 273.275 16.9930   5
  -3   1 -12 237.529 10.3255   2
   3   1  12 248.995 15.3240   7
   3   1  12 232.841 17.5995   5
   3   1  12 245.992 11.0714   3
   3   1  12 245.152 9.09127   6
   4  -1  12 18.0646 3.49970   1
   4  -1  12 18.4610 4.92067   4
   4  -1  12 20.4711 5.23142   6
  -4  -1 -12 14.4750 4.52437   2
  -4  -1 -12 20.3622 3.32389   5
   4  -1  12 22.3829 5.33610   3
   4  -1  12 10.9396 3.92951   7
  -4  -1 -12 24.5329 4.22540   6
   4   1  12 23.2884 4.08298   6
   4   1  12 20.4449 5.67863   3
  -4   1 -12 26.8275 4.76094   5
   4   1  12 16.7034 4.16560   7
  -4   1 -12 21.4419 4.84449   2
  -5  -1 -12 13.8613 6.71270   2
  -5  -1 -12 15.3587 3.95514   5
   5  -1  12 16.4028 5.73950   3
   5  -1  12 12.7445 5.97761   7
   5  -1  12 15.5583 5.94626   6
   5   1  12 7.60137 4.45887   6
  -5   1 -12 16.9186 4.56037   5
   5   1  12 10.2838 5.74508   3
   5   1  12 7.65564 4.73304   7
  -5   1 -12 9.45244 6.76405   2
  -6  -1 -12 -0.0383 4.79090   2
   6  -1  12 -0.2523 5.39718   3
  -6  -1 -12 2.14480 2.51838   5
   6  -1  12 2.48574 6.34505   6
   6  -1  12 0.90504 4.86733   7
  -6   1 -12 0.53141 7.03229   2
  -6   1 -12 3.28505 5.63905   5
   6   1  12 -0.6529 3.53004   7
   6   1  12 0.98092 3.68196   6
   6   1  12 -6.4918 7.95821   3
   7  -1  12 85.2413 8.49770   6
  -7  -1 -12 78.4844 8.73232   2
   7  -1  12 76.9677 8.87414   7
   7  -1  12 112.570 12.1538   3
   7   1  12 68.8716 8.57862   7
   7   1  12 74.7254 7.39221   6
  -7   1 -12 103.964 8.94375   5
   7   1  12 87.8508 10.3815   3
  -7   1 -12 88.1393 9.00235   2
   8  -1  12 6.84662 5.97728   6
   8  -1  12 7.32720 9.70433   3
   8  -1  12 9.55074 8.97678   7
  -8  -1 -12 1.53396 5.95314   2
   8   1  12 18.6184 8.27741   3
   8   1  12 3.46120 5.46391   6
  -8   1 -12 8.96546 8.56024   2
   8   1  12 -1.3847 5.07482   7
  10  -2 -12 0.58972 9.20842   6
 -10  -2  12 -0.0759 5.89797   4
 -10  -2  12 8.50899 6.92768   1
 -10  -2  12 -0.3412 5.85152   8
  10   2 -12 -0.8492 7.20825   6
  10   2 -12 -5.1848 8.59877   3
 -10   2  12 2.19079 9.39111   1
   9  -2 -12 4.65322 7.87979   6
  -9  -2  12 2.37600 5.15191   8
  -9  -2  12 8.61227 7.38207   4
  -9  -2  12 0.00000 7.66323   1
  -9   2  12 15.7449 5.25786   4
   9   2 -12 3.56959 8.25604   3
   9   2 -12 8.49466 9.45262   6
  -9   2  12 3.39921 5.94297   1
  -8  -2  12 10.1176 6.84030   8
  -8  -2  12 21.4257 5.60370   1
  -8  -2  12 9.62121 6.98405   4
   8  -2 -12 21.2102 5.67790   6
   8   2 -12 18.0921 7.73204   3
  -8   2  12 11.6584 6.05890   8
   8   2 -12 6.30044 6.51014   5
   8   2 -12 16.2641 11.6742   6
  -8   2  12 11.1624 6.16525   4
  -8   2  12 23.7881 6.49437   1
  -7  -2  12 2.51308 4.05992   4
  -7  -2  12 0.11374 3.82342   8
   7  -2 -12 0.23422 3.80499   6
  -7  -2  12 -2.9431 3.73019   1
  -7   2  12 -0.2024 5.32177   4
  -7   2  12 2.11223 4.78447   1
   7   2 -12 0.30966 4.04908   5
   7   2 -12 -2.0783 6.22735   3
  -6  -2  12 102.725 6.76517   1
   6  -2 -12 69.7169 6.30296   9
   6  -2 -12 83.5252 3.67324   3
  -6  -2  12 82.8382 7.07456   8
  -6  -2  12 84.6066 7.09780   4
   6  -2 -12 73.9521 6.13546   6
   6   2 -12 91.8749 7.37113   5
   6   2 -12 91.6493 7.52746   3
  -6   2  12 91.0399 7.77581   1
  -6   2  12 84.1506 6.85575   4
   5  -2 -12 7.25164 1.55922   3
   5  -2 -12 2.57701 3.74695   9
  -5  -2  12 8.56146 3.14797   1
   5  -2 -12 6.66924 3.96655   6
  -5  -2  12 6.03244 3.73071   8
   5  -2 -12 6.70586 1.82724   3
  -5  -2  12 4.06658 4.86805   4
  -5   2  12 3.85530 3.90918   4
   5   2 -12 8.74358 5.46018   3
   5   2 -12 5.24153 5.28877   5
  -5   2  12 6.91749 6.00224   1
   4  -2 -12 506.126 20.0965   5
  -4  -2  12 491.570 18.1840   1
   4  -2 -12 517.801 22.4001   2
   4  -2 -12 505.708 21.6510   9
  -4  -2  12 469.805 21.5659   8
  -4  -2  12 476.165 18.1187   4
   4  -2 -12 480.025 24.9740   3
   4  -2 -12 460.445 18.8576   6
   4   2 -12 511.363 19.5464   9
   4   2 -12 520.059 22.4208   5
  -4   2  12 519.639 19.4401   1
  -4   2  12 493.134 22.1790   4
   4   2 -12 499.151 19.0490   2
   4   2 -12 478.804 27.2245   1
   3  -2 -12 15.8140 3.83724   5
   3  -2 -12 18.0097 2.51730   3
  -3  -2  12 18.2241 2.31464   1
   3  -2 -12 16.9559 3.14624   9
   3  -2 -12 18.7226 3.87076   6
  -3  -2  12 23.0626 4.01732   4
   3  -2 -12 16.4129 3.31177   2
   3   2 -12 16.0213 2.11902   9
   3   2 -12 16.4181 4.24917   5
   3   2 -12 12.0466 3.55533   1
   3   2 -12 14.9214 2.24667   2
  -3   2  12 16.8268 4.37755   1
  -3   2  12 17.3046 4.71151   4
   2  -2 -12 24.4252 2.66701   3
   2  -2 -12 17.2270 3.44378   2
   2  -2 -12 27.3253 2.41224   6
   2  -2 -12 20.0258 3.66051   5
  -2  -2  12 28.8662 2.30599   1
   2  -2 -12 21.2704 3.39082   9
  -2  -2  12 20.0168 3.71731   4
   2   2 -12 17.4737 2.62078   1
   2   2 -12 20.3917 2.50920   2
   2   2 -12 20.2062 4.31811   5
  -2   2  12 27.1228 4.39049   1
   2   2 -12 28.0069 3.09788   9
  -2   2  12 26.5210 5.01507   4
  -1  -2  12 545.799 18.2209   4
   1  -2 -12 577.346 30.5718   2
  -1  -2  12 503.842 23.4236   1
   1  -2 -12 553.019 18.1531   9
   1  -2 -12 584.086 18.1405   7
   1  -2 -12 562.504 24.4201   6
   1  -2 -12 546.915 18.8240   3
   1  -2 -12 543.379 18.5179   5
   1  -2 -12 542.461 21.6531   6
   1   2 -12 577.495 27.6817   2
  -1   2  12 561.836 18.9677   1
   1   2 -12 587.632 39.6822   6
   1   2 -12 561.142 30.9427   5
  -1   2  12 568.838 17.2350   3
   1   2 -12 568.216 69.2993   7
   0  -2 -12 363.207 12.5855   2
   0  -2  12 345.901 13.0041   7
   0  -2 -12 352.091 11.0594   9
   0  -2 -12 347.542 15.9796   3
   0  -2 -12 353.915 11.0945   5
   0  -2  12 338.859 11.3474   4
   0   2 -12 386.163 15.1230   5
   0   2 -12 377.359 26.9975   7
   0   2 -12 359.815 22.4064   6
   0   2  12 352.416 10.9261   3
   0   2  12 351.371 17.2506   1
   0   2  12 339.878 17.0708   5
   0   2 -12 374.938 11.1866   2
   1  -2  12 73.8879 5.71421   4
  -1  -2 -12 73.9646 5.01772   5
   1  -2  12 71.8559 1.73341   1
  -1  -2 -12 79.2743 6.52204   2
   1  -2  12 68.3625 6.02788   7
  -1  -2 -12 70.5665 6.33265   9
  -1   2 -12 72.4846 5.31349   2
   1   2  12 60.7161 5.79835   5
   1   2  12 69.6048 6.81332   1
  -1   2 -12 89.7118 7.81536   5
   1   2  12 84.7128 5.99218   3
   2  -2  12 67.8648 5.47070   4
   2  -2  12 83.9957 6.10280   7
  -2  -2 -12 72.6090 5.66243   9
  -2  -2 -12 83.4544 4.41157   6
   2  -2  12 85.3121 4.20759   1
  -2  -2 -12 86.9948 5.58382   5
  -2  -2 -12 74.2791 5.95596   2
   2   2  12 73.5539 3.75322   7
   2   2  12 82.9857 6.56934   3
  -2   2 -12 77.8194 6.11815   2
   2   2  12 63.5404 5.81674   5
  -2   2 -12 81.5529 7.80698   5
  -3  -2 -12 -0.8403 3.46407   2
   3  -2  12 1.11586 2.56384   4
   3  -2  12 3.22662 2.79947   1
   3  -2  12 1.95053 5.46991   3
   3  -2  12 -0.5390 4.69019   7
   3  -2  12 -2.1372 3.14676   6
  -3  -2 -12 -2.5863 2.88250   5
  -3  -2 -12 -0.1160 1.82304   6
  -3  -2 -12 1.86646 3.45393   9
  -3   2 -12 -4.2242 3.49198   2
   3   2  12 -1.5253 1.82670   6
   3   2  12 -1.0936 3.70798   5
  -3   2 -12 2.38782 3.95072   5
   3   2  12 0.52901 4.07651   3
   3   2  12 1.14351 1.90618   7
  -4  -2 -12 666.413 23.7266   2
  -4  -2 -12 673.869 22.8133   5
   4  -2  12 666.696 29.5785   1
   4  -2  12 678.619 25.3237   7
   4  -2  12 678.793 26.8854   3
   4  -2  12 718.290 25.4379   6
   4  -2  12 672.554 26.3968   4
   4   2  12 697.765 34.8032   7
  -4   2 -12 705.353 30.9749   5
   4   2  12 740.065 21.9525   3
  -4   2 -12 670.220 22.5833   2
   4   2  12 698.364 30.1266   6
   5  -2  12 9.49182 4.88944   6
  -5  -2 -12 13.0991 4.93349   2
  -5  -2 -12 12.4237 3.01348   5
   5  -2  12 11.5103 2.87657   4
   5  -2  12 4.74822 6.53709   7
   5  -2  12 6.34090 5.21091   3
   5   2  12 10.6927 4.11316   6
  -5   2 -12 12.6471 5.09670   5
   5   2  12 7.34501 2.94154   7
  -5   2 -12 8.08197 4.93031   2
   5   2  12 13.4204 6.09631   3
  -6  -2 -12 161.215 11.4756   2
   6  -2  12 148.524 10.9382   3
   6  -2  12 136.997 11.3010   6
   6  -2  12 140.429 10.4729   7
   6   2  12 157.498 11.7799   3
   6   2  12 153.612 9.27893   7
   6   2  12 149.936 8.29241   6
  -6   2 -12 167.661 11.4411   5
  -6   2 -12 152.460 10.7087   2
   7  -2  12 -0.4122 7.83015   6
   7  -2  12 1.90660 6.01590   7
  -7  -2 -12 4.11321 5.49858   2
   7  -2  12 1.18787 6.44910   3
  -7   2 -12 8.69062 7.36332   5
   7   2  12 0.52640 9.41741   3
  -7   2 -12 0.20247 8.25026   2
   8  -2  12 5.48754 7.25535   3
   8  -2  12 2.72408 6.45111   6
  -8  -2 -12 2.12811 6.35133   2
   8  -2  12 1.69997 7.04958   7
  -8   2 -12 3.25228 6.67298   2
   8   2  12 5.55177 7.32577   3
  -8   2 -12 3.06227 5.39003   5
 -10  -3  12 2.79794 6.13701   8
 -10  -3  12 -3.4272 6.62765   1
  10  -3 -12 2.62292 7.14091   6
 -10  -3  12 -3.0641 6.18077   4
 -10   3  12 3.21354 10.2322   1
  10   3 -12 1.34976 11.1409   3
  10   3 -12 -10.750 8.19884   6
   9  -3 -12 23.3266 7.01957   6
  -9  -3  12 17.3691 6.60700   8
  -9  -3  12 25.6427 6.95749   4
  -9  -3  12 19.6822 8.71089   1
  -9   3  12 13.8985 7.46190   1
   9   3 -12 28.3002 10.9210   6
   9   3 -12 30.5812 7.88445   3
   8  -3 -12 79.0046 9.41379   6
  -8  -3  12 79.3866 8.14938   4
  -8  -3  12 83.0082 8.31059   8
  -8  -3  12 99.4203 9.64255   1
  -8   3  12 72.3610 8.14191   4
   8   3 -12 71.8065 8.51251   5
   8   3 -12 90.7872 11.1915   3
  -8   3  12 87.6393 11.1409   1
  -7  -3  12 61.9839 7.12584   4
  -7  -3  12 64.4105 7.14976   8
   7  -3 -12 69.5480 7.87544   6
  -7  -3  12 67.8666 6.57884   1
  -7   3  12 64.8931 9.71716   1
   7   3 -12 81.6678 8.61220   3
  -7   3  12 52.6439 7.27726   4
   7   3 -12 66.5044 6.96715   5
   6  -3 -12 7.43830 4.79112   6
  -6  -3  12 -0.9585 4.08295   4
   6  -3 -12 1.61822 3.49049   9
  -6  -3  12 -1.6508 4.03350   8
  -6  -3  12 -2.8672 4.48303   1
   6   3 -12 -0.2434 4.97514   3
  -6   3  12 0.69406 7.05910   1
  -6   3  12 -4.0432 3.64603   4
   6   3 -12 -0.7845 3.80813   5
  -5  -3  12 27.7506 5.00893   8
  -5  -3  12 26.9709 4.91822   4
  -5  -3  12 38.5420 4.90166   1
   5  -3 -12 29.1350 4.42480   9
   5  -3 -12 32.2728 3.99283   6
  -5   3  12 24.8142 5.74247   1
   5   3 -12 30.3162 5.11355   5
  -5   3  12 30.3821 5.36155   4
   5   3 -12 33.0711 6.03982   3
  -4  -3  12 11.2342 5.22124   4
  -4  -3  12 16.0140 5.32884   8
   4  -3 -12 12.4439 3.43153   6
  -4  -3  12 14.2854 3.27550   1
   4  -3 -12 13.2422 4.50088   9
   4   3 -12 8.52942 4.13373   1
   4   3 -12 10.1431 5.61785   5
  -4   3  12 8.18765 5.98111   4
  -3  -3  12 226.376 10.1527   4
   3  -3 -12 235.724 7.56811   6
   3  -3 -12 233.923 10.3037   9
  -3  -3  12 238.376 8.26738   1
   3  -3 -12 230.090 9.28434   2
  -3  -3  12 220.197 9.52866   8
   3  -3 -12 222.804 10.9917   3
   3   3 -12 230.040 8.75854   2
  -3   3  12 234.531 13.1842   1
   3   3 -12 230.084 11.8238   1
   3   3 -12 245.571 12.6125   5
  -3   3  12 218.605 11.5112   4
   3   3 -12 244.604 12.1265   9
   2  -3 -12 21.8336 2.17611   6
   2  -3 -12 20.0200 3.80432   9
   2  -3 -12 20.2316 2.78738   3
  -2  -3  12 19.5849 3.77513   8
   2  -3 -12 20.7837 2.18618   7
  -2  -3  12 25.0274 3.88893   4
   2  -3 -12 17.9111 3.79248   2
  -2   3  12 18.2916 2.79691   3
  -2   3  12 18.0644 5.93197   1
   2   3 -12 15.5480 2.67022   2
   2   3 -12 17.3642 1.94621   1
   2   3 -12 12.5687 5.69334   5
   1  -3 -12 574.549 17.4788   2
  -1  -3  12 566.058 26.1096   8
  -1  -3  12 553.307 16.0730   4
   1  -3 -12 562.851 29.0699   3
   1  -3 -12 542.960 17.0007   9
   1  -3 -12 569.304 15.8680   5
   1   3 -12 572.287 36.2634   5
   1   3 -12 567.226 33.3460   2
  -1   3  12 595.049 22.6555   1
  -1   3  12 561.900 28.6291   3
   0  -3  12 90.9451 5.49183   4
   0  -3 -12 82.2634 5.27602   3
   0  -3 -12 94.8188 5.73310   5
   0  -3 -12 88.4705 7.86735   2
   0  -3 -12 90.8564 6.68621   9
   0  -3  12 75.5186 6.21349   7
   0   3 -12 90.3162 7.40044   5
   0   3  12 83.0923 6.86482   1
   0   3 -12 79.6331 6.59854   4
   0   3  12 79.5222 6.17809   3
   0   3 -12 89.9494 5.44393   2
  -1  -3 -12 182.405 9.43039   2
   1  -3  12 176.353 9.01069   7
  -1  -3 -12 199.224 7.80625   5
   1  -3  12 189.572 8.06131   4
  -1  -3 -12 174.030 9.33646   9
   1   3  12 191.528 9.89580   1
  -1   3 -12 189.670 8.41631   2
   1   3  12 210.102 9.12906   3
  -1   3 -12 176.270 10.9460   5
   1   3  12 180.522 9.90866   5
  -2  -3 -12 339.452 11.5472   5
  -2  -3 -12 362.504 12.0472   9
   2  -3  12 351.376 13.2219   4
   2  -3  12 358.776 15.0429   7
  -2  -3 -12 351.416 12.4018   2
  -2   3 -12 374.461 14.3168   5
  -2   3 -12 346.283 12.3549   2
   2   3  12 323.196 16.1979   5
   2   3  12 354.019 17.6243   3
  -3  -3 -12 626.851 19.5951   2
  -3  -3 -12 593.874 19.4269   5
   3  -3  12 590.455 31.5447   1
   3  -3  12 606.780 18.4298   7
   3  -3  12 594.080 23.7036   4
  -3  -3 -12 608.689 18.6329   9
   3  -3  12 626.340 18.5349   6
   3   3  12 594.357 35.4266   7
  -3   3 -12 624.117 18.3183   2
   3   3  12 633.050 21.0913   3
  -3   3 -12 593.490 31.1723   5
   3   3  12 588.404 29.7124   6
   3   3  12 599.418 30.6793   5
   4  -3  12 96.0981 68.2274   6
   4  -3  12 90.2272 74.4985   7
  -4  -3 -12 83.0504 4.82112   5
  -4  -3 -12 83.0869 7.08657   2
   4  -3  12 86.1082 4.66656   4
  -4  -3 -12 85.8386 7.71917   9
   4   3  12 69.7974 9.35328   3
  -4   3 -12 72.3570 9.47635   5
  -4   3 -12 66.2423 7.32732   2
   5  -3  12 2.44521 4.87058   6
   5  -3  12 0.25167 4.91135   7
  -5  -3 -12 0.52939 4.41177   2
   5  -3  12 -4.3468 7.02231   3
  -5  -3 -12 0.18594 4.13226   9
  -5   3 -12 -1.8438 5.00690   2
  -5   3 -12 2.43316 5.32326   5
   5   3  12 1.43725 7.84805   3
  -6  -3 -12 22.6741 6.12510   2
   6  -3  12 18.2854 6.68743   3
   6  -3  12 22.6475 8.41660   6
   6  -3  12 11.2943 6.52066   7
  -6  -3 -12 11.7202 7.24643   9
   6   3  12 20.2199 7.42656   3
  -6   3 -12 30.6356 8.89614   5
  -6   3 -12 22.9672 6.81602   2
  -7  -3 -12 360.116 22.2521   2
   7  -3  12 338.255 22.1452   7
   7  -3  12 360.055 18.9877   6
  -7  -3 -12 358.720 19.0452   9
   7  -3  12 363.523 20.0199   3
  -7   3 -12 384.671 26.7483   5
  -7   3 -12 382.268 19.7954   2
   7   3  12 356.218 19.2028   3
   8  -3  12 22.3003 8.09975   3
   8  -3  12 10.1603 8.04984   7
  -8  -3 -12 12.4413 6.86939   9
   8  -3  12 8.07946 7.94293   6
  -8  -3 -12 6.00252 9.89946   2
  -8   3 -12 13.9890 7.65570   2
  -8   3 -12 11.3120 7.57830   5
   8   3  12 4.19364 8.00274   3
  -9  -4  12 30.0694 7.26768   8
  -9  -4  12 33.2335 7.48366   4
   9  -4 -12 53.3371 8.21461   6
   9  -4 -12 38.7560 7.87741   7
  -9   4  12 26.1308 10.9330   1
   9   4 -12 31.8930 11.9499   6
   8  -4 -12 329.418 20.2907   6
  -8  -4  12 325.569 20.6636   4
   8  -4 -12 310.282 23.8948   7
  -8  -4  12 306.145 18.3537   8
   8   4 -12 351.068 18.9979   3
  -8   4  12 313.969 19.5844   1
  -8   4  12 271.295 15.3748   4
  -7  -4  12 16.9601 5.49144   8
  -7  -4  12 14.1048 7.16448   4
   7  -4 -12 12.9416 4.99183   7
   7  -4 -12 11.9720 6.35638   6
   7   4 -12 -1.3095 8.95058   3
   7   4 -12 8.26669 4.81242   5
  -7   4  12 8.19869 4.45119   4
  -7   4  12 14.6782 6.70867   1
  -6  -4  12 19.2667 5.24373   8
  -6  -4  12 19.6106 5.23900   4
   6  -4 -12 14.1451 6.22902   9
   6  -4 -12 20.6985 4.43682   6
   6  -4 -12 21.7444 4.60400   7
  -6   4  12 15.1525 8.19132   1
   6   4 -12 8.90087 6.35931   5
   6   4 -12 15.1345 6.72024   3
  -6   4  12 15.2174 4.82721   4
   5  -4 -12 12.4284 3.54364   7
   5  -4 -12 6.20486 4.05431   9
  -5  -4  12 8.89110 5.88570   4
  -5  -4  12 10.8794 4.51935   8
   5  -4 -12 9.44750 3.19497   6
  -5   4  12 5.50048 4.64361   4
   5   4 -12 4.33239 17.0786   3
   5   4 -12 8.11972 6.18306   5
  -5   4  12 4.14377 5.20338   1
  -4  -4  12 703.036 28.4208   8
   4  -4 -12 702.929 24.5881   9
   4  -4 -12 693.559 36.2810   7
  -4  -4  12 683.204 23.5978   4
   4  -4 -12 694.048 31.2510   6
   4   4 -12 704.644 30.6926   5
  -4   4  12 695.980 32.2713   1
  -4   4  12 694.510 33.0077   4
  -3  -4  12 8.20171 3.70816   4
   3  -4 -12 14.0694 5.25836   9
  -3  -4  12 19.5533 4.11408   8
   3  -4 -12 10.9744 4.39847   2
   3  -4 -12 11.2546 2.79807   7
   3  -4 -12 16.4059 2.11372   3
   3  -4 -12 14.8323 2.63223   6
   3   4 -12 8.22769 4.57336   5
  -3   4  12 17.0653 5.70138   1
   3   4 -12 9.83811 1.69390   2
  -2  -4  12 278.117 12.5027   8
   2  -4 -12 282.746 16.1399   2
   2  -4 -12 274.302 11.6085   6
   2  -4 -12 279.208 13.4854   7
   2  -4 -12 261.738 12.6409   9
  -2  -4  12 286.697 10.8131   4
   2  -4 -12 265.339 10.6074   3
  -2   4  12 304.664 13.7913   1
  -2   4  12 298.895 14.1147   3
   2   4 -12 299.747 12.8310   5
   2   4 -12 285.732 13.6345   1
   2   4 -12 280.816 11.3629   2
  -1  -4  12 15.3091 3.53893   8
   1  -4 -12 13.1875 3.56344   3
   1  -4 -12 11.0472 3.83246   9
   1  -4 -12 14.9645 4.10593   2
  -1  -4  12 15.6349 3.62755   4
   1   4 -12 8.74026 4.82877   5
  -1   4  12 18.4331 6.80547   1
  -1   4  12 13.6345 3.77110   3
   1   4 -12 7.78368 3.39965   2
   0  -4 -12 63.5092 5.64418   9
   0  -4 -12 62.7666 5.78587   3
   0  -4  12 62.0368 5.61334   8
   0  -4  12 61.1199 6.42535   7
   0  -4  12 63.8780 4.94868   4
   0  -4 -12 61.5387 5.86743   2
   0   4 -12 72.8740 7.62446   5
   0   4  12 71.8413 5.44538   3
   0   4 -12 57.3529 5.80345   2
   0   4  12 43.7935 7.61876   1
   1  -4  12 -3.8700 5.66811   7
  -1  -4 -12 2.58626 3.61890   9
  -1  -4 -12 -1.2325 3.63537   2
   1  -4  12 -0.5257 3.33863   4
   1  -4  12 0.38531 2.39147   8
   1   4  12 1.74924 3.62465   3
  -1   4 -12 -0.7372 4.59691   5
  -1   4 -12 5.33237 3.63241   2
   1   4  12 -3.6631 4.07348   5
  -1   4 -12 3.76070 3.72047   4
   1   4  12 4.10060 4.89369   1
   2  -4  12 5.43770 2.37547   4
  -2  -4 -12 4.08775 3.68509   9
   2  -4  12 3.67442 4.33280   7
   2  -4  12 2.77734 2.23333   8
  -2  -4 -12 5.07754 4.03611   2
   2   4  12 12.0629 7.20908   1
   2   4  12 -0.1629 3.69530   5
   2   4  12 3.02510 3.92752   3
  -2   4 -12 7.64442 7.11418   5
  -2   4 -12 5.20143 4.04178   2
   3  -4  12 16.6439 2.49240   8
   3  -4  12 15.6580 5.03813   6
  -3  -4 -12 11.1060 4.52668   2
  -3  -4 -12 9.96874 4.12175   9
   3  -4  12 13.2509 6.80511   7
   3  -4  12 12.0692 3.00593   4
  -3   4 -12 12.5668 5.99648   5
  -3   4 -12 11.9134 4.91424   2
   3   4  12 25.0126 67.9919   3
   4  -4  12 2.95428 4.67611   6
  -4  -4 -12 7.39301 4.55305   2
   4  -4  12 6.10496 5.20050   7
  -4  -4 -12 7.28472 4.35137   9
   4   4  12 4.94560 7.40130   3
  -4   4 -12 5.24099 5.09275   2
  -4   4 -12 7.79157 5.72366   5
   5  -4  12 67.5828 8.48434   6
  -5  -4 -12 68.5822 7.05073   9
   5  -4  12 84.4437 9.13850   7
  -5  -4 -12 73.9474 7.37662   2
   5   4  12 73.6892 8.89217   3
  -5   4 -12 76.4156 10.9071   5
  -5   4 -12 74.5469 8.55124   2
   6  -4  12 368.130 18.0202   6
  -6  -4 -12 372.833 19.6035   2
   6  -4  12 369.312 21.3546   7
  -6  -4 -12 390.707 21.9063   9
  -6   4 -12 409.267 29.5851   2
   6   4  12 381.899 21.7720   3
  -6   4 -12 443.453 23.7127   5
   7  -4  12 1.18076 9.52957   6
  -7  -4 -12 1.49810 8.33220   2
  -7  -4 -12 9.23570 7.71334   9
   7  -4  12 1.94546 10.1305   7
  -7   4 -12 13.0892 23.7920   2
  -7   4 -12 5.43044 9.68312   5
   7   4  12 -0.6806 7.22445   3
   9  -5 -12 21.4124 7.42882   6
  -9  -5  12 17.0161 9.77040   8
   9  -5 -12 17.6843 7.81550   7
  -9  -5  12 10.2138 6.79578   4
  -9   5  12 15.0977 8.67793   1
   9   5 -12 24.7189 10.3172   3
  -8  -5  12 0.00000 12.9823   4
   8  -5 -12 -4.9587 5.16350   6
   8  -5 -12 -0.7604 5.40840   7
  -8  -5  12 1.53947 12.7769   8
   8   5 -12 -0.4328 8.10597   3
  -8   5  12 6.46413 10.0310   1
   7  -5 -12 278.256 14.9102   6
  -7  -5  12 258.404 18.9802   4
  -7  -5  12 254.628 17.1118   8
   7  -5 -12 262.043 17.0247   7
  -7   5  12 231.828 16.3094   1
   7   5 -12 258.843 15.4428   5
  -7   5  12 227.163 16.6113   4
   7   5 -12 311.503 23.7421   3
  -6  -5  12 10.4561 5.37456   4
   6  -5 -12 11.7110 6.06452   7
   6  -5 -12 8.09698 5.51788   6
   6  -5 -12 8.66533 5.16793   9
  -6  -5  12 9.54915 5.43269   8
  -6   5  12 1.26090 4.66161   4
   6   5 -12 4.35154 6.78822   5
  -6   5  12 2.64687 9.02948   1
   6   5 -12 11.5666 7.44101   3
   5  -5 -12 309.127 15.1702   7
  -5  -5  12 293.000 15.7861   4
  -5  -5  12 300.922 14.7695   8
   5  -5 -12 279.220 13.6854   6
   5  -5 -12 266.705 15.3760   9
   5   5 -12 305.757 15.1243   5
  -5   5  12 291.530 18.1035   4
  -5   5  12 297.273 17.8721   1
   5   5 -12 288.040 18.9905   3
  -4  -5  12 1.85436 4.07812   4
   4  -5 -12 3.63775 3.35536   6
   4  -5 -12 9.80684 3.65928   7
  -4  -5  12 7.59311 4.33548   8
   4  -5 -12 10.5077 6.08282   9
  -4   5  12 3.93848 8.25995   1
  -4   5  12 6.45761 5.19435   4
   4   5 -12 6.32964 6.82892   5
   4   5 -12 6.91635 8.81206   3
  -3  -5  12 105.151 7.52876   8
   3  -5 -12 108.648 8.18495   7
   3  -5 -12 104.344 6.59961   6
  -3  -5  12 115.437 7.57901   4
   3  -5 -12 105.944 7.69087   9
  -3   5  12 111.598 9.84529   1
   3   5 -12 105.970 10.0335   5
  -2  -5  12 132.019 8.65099   8
   2  -5 -12 127.991 8.01707   9
  -2  -5  12 120.871 8.32046   4
   2  -5 -12 117.012 8.17682   2
   2  -5 -12 120.145 7.11992   3
  -2   5  12 114.352 6.35428   3
  -2   5  12 147.166 11.5256   1
   2   5 -12 112.899 7.43861   2
   2   5 -12 127.835 9.71073   5
  -1  -5  12 163.901 8.16709   8
   1  -5 -12 167.288 12.5829   3
   1  -5 -12 164.757 9.11899   2
  -1  -5  12 168.585 8.15552   4
   1  -5 -12 169.199 8.82738   9
   1   5 -12 146.905 9.41585   2
  -1   5  12 154.772 8.95959   3
  -1   5  12 165.198 10.9393   1
   1   5 -12 163.641 11.8740   5
   0  -5 -12 231.569 10.7276   2
   0  -5  12 219.586 11.6526   7
   0  -5 -12 244.986 10.5934   9
   0  -5  12 252.554 11.8495   8
   0  -5  12 263.920 10.9266   4
   0   5 -12 258.020 14.4900   5
   0   5  12 242.375 11.4816   3
   0   5 -12 224.538 13.6163   2
   0   5  12 271.948 14.4422   1
   1  -5  12 2.49847 6.35326   7
   1  -5  12 -2.2336 3.50437   4
  -1  -5 -12 -1.3070 5.66209   2
  -1  -5 -12 0.39782 3.82823   9
   1  -5  12 2.85615 3.57862   8
   1   5  12 3.10035 5.31942   1
  -1   5 -12 -3.0649 7.35715   5
  -1   5 -12 -1.9263 5.04332   2
   1   5  12 2.90152 3.88231   3
  -2  -5 -12 677.597 24.2338   2
   2  -5  12 692.191 29.6148   4
   2  -5  12 719.656 23.4966   7
  -2  -5 -12 684.706 29.0810   9
   2  -5  12 706.889 37.1912   8
   2   5  12 742.238 38.0825   3
  -2   5 -12 728.970 24.8604   5
  -2   5 -12 721.234 26.4745   2
   2   5  12 699.072 27.7252   1
  -3  -5 -12 153.486 9.94547   9
  -3  -5 -12 141.740 10.2133   2
   3  -5  12 140.169 15.7916   8
   3  -5  12 140.186 10.8959   4
   3  -5  12 164.025 11.0414   7
  -3   5 -12 153.148 9.89028   2
   3   5  12 156.393 10.4490   3
   3   5  12 159.508 11.7784   1
  -3   5 -12 174.817 12.1146   5
   4  -5  12 54.5738 8.34255   7
  -4  -5 -12 56.8989 7.01591   2
   4  -5  12 53.7005 9.81733   6
  -4  -5 -12 59.5162 6.72191   9
  -4   5 -12 47.2718 7.53591   2
   4   5  12 54.4244 8.31644   3
  -4   5 -12 56.6720 9.03629   5
   5  -5  12 66.8444 9.37416   7
  -5  -5 -12 77.2083 7.43718   9
   5  -5  12 59.3618 8.63185   6
  -5  -5 -12 82.2287 9.40754   2
   5   5  12 63.7139 9.39286   3
  -5   5 -12 53.0747 8.38698   2
  -5   5 -12 63.2150 12.0539   5
   6  -5  12 49.9183 11.2243   6
  -6  -5 -12 42.9968 7.28592   2
   6  -5  12 28.4019 11.2480   7
  -6  -5 -12 44.5113 6.88333   9
  -6   5 -12 51.5360 12.0850   5
  -6   5 -12 36.4641 11.0819   2
   6   5  12 22.6761 8.23434   3
  -7  -5 -12 1.43339 7.73810   9
   7  -5  12 0.64586 11.5625   6
   7  -5  12 -2.8616 10.6882   7
  -7  -5 -12 5.01977 5.91069   2
  -7   5 -12 2.17461 10.8906   5
  -7   5 -12 4.01118 11.5007   2
   7   5  12 -4.1974 10.6948   3
  -8  -6  12 2.13234 16.3107   8
  -8  -6  12 -3.2266 14.2176   4
   8  -6 -12 2.98659 8.49081   6
   8  -6 -12 7.54786 9.03520   7
   8   6 -12 2.17002 9.58916   3
  -8   6  12 32.0754 33.8206   1
   7  -6 -12 2.57481 7.37362   7
  -7  -6  12 -6.6118 5.60573   8
  -7  -6  12 -2.2882 5.55563   4
   7  -6 -12 0.22806 6.99933   6
   7   6 -12 1.55747 11.8318   3
  -7   6  12 21.2157 25.2382   1
  -6  -6  12 1.05510 5.37955   8
   6  -6 -12 2.97388 4.13916   6
  -6  -6  12 2.51908 5.45309   4
   6  -6 -12 1.47482 5.72792   9
   6  -6 -12 1.42714 4.34988   7
  -6   6  12 -4.7171 9.73079   1
   6   6 -12 -3.5879 11.2315   3
   6   6 -12 2.55306 5.22943   5
  -6   6  12 -1.9817 7.22453   4
  -5  -6  12 1.27942 4.81320   8
  -5  -6  12 -2.0116 4.77723   4
   5  -6 -12 2.47182 5.08585   7
   5  -6 -12 1.60691 4.60255   6
   5  -6 -12 -0.7971 5.30367   9
   5   6 -12 -1.6289 7.90956   3
  -5   6  12 -5.3153 9.31398   1
  -5   6  12 -1.9503 5.14131   4
   5   6 -12 -3.5234 5.32764   5
   4  -6 -12 2.99888 4.88502   9
  -4  -6  12 -5.7337 6.15191   4
  -4  -6  12 -2.8624 6.22330   8
   4  -6 -12 -0.8429 2.66742   6
   4   6 -12 1.05832 4.99410   5
  -4   6  12 7.62038 7.01544   1
   4   6 -12 -4.3302 6.79579   3
  -3  -6  12 50.8892 6.26353   4
  -3  -6  12 52.8081 6.52230   8
   3  -6 -12 46.0853 6.50861   9
  -3   6  12 54.6207 8.98696   1
   3   6 -12 51.4925 7.91363   5
  -2  -6  12 46.2646 6.97542   4
   2  -6 -12 38.2438 6.52939   2
  -2  -6  12 47.1328 5.90638   8
   2  -6 -12 37.4052 7.51180   9
  -2   6  12 55.0534 10.3435   1
   2   6 -12 42.0724 7.48292   5
   1  -6 -12 112.553 9.69899   2
  -1  -6  12 115.430 7.55320   8
  -1  -6  12 114.720 8.27566   4
   1  -6 -12 123.668 8.37572   9
   1   6 -12 102.546 11.5344   5
   1   6 -12 106.645 7.81015   2
  -1   6  12 97.3740 7.44748   3
  -1   6  12 111.364 10.5498   1
   0  -6 -12 596.610 28.4104   9
   0  -6  12 629.919 27.1214   4
   0  -6  12 628.482 26.2056   8
   0  -6 -12 625.562 31.8429   2
   0  -6  12 614.428 23.6652   7
   0   6  12 616.003 35.3458   1
   0   6 -12 621.505 38.7792   5
   0   6  12 643.868 31.3609   3
  -1  -6 -12 39.4641 6.29810   2
  -1  -6 -12 41.4580 6.09355   9
   1  -6  12 38.0470 5.23788   8
   1  -6  12 39.6986 5.24481   4
   1  -6  12 26.5416 8.18278   7
   1   6  12 28.5330 7.86164   1
   1   6  12 41.4016 5.99247   3
  -1   6 -12 31.9634 7.93518   5
  -2  -6 -12 299.518 16.7008   2
   2  -6  12 290.279 14.4519   8
  -2  -6 -12 297.597 13.9122   9
   2  -6  12 296.778 17.6691   7
   2  -6  12 282.885 15.1537   4
   2   6  12 305.415 17.3534   1
   2   6  12 285.821 19.5617   3
  -2   6 -12 300.016 20.7731   5
  -3  -6 -12 193.217 12.0843   9
  -3  -6 -12 182.593 12.4067   2
   3  -6  12 150.537 13.4924   7
   3   6  12 206.344 63.2523   3
   3   6  12 157.999 13.2138   1
  -3   6 -12 156.305 14.9470   5
  -4  -6 -12 390.626 18.1944   2
   4  -6  12 398.542 27.0323   7
  -4  -6 -12 388.172 20.6776   9
   4   6  12 419.880 20.3786   3
  -4   6 -12 413.632 24.3451   5
  -5  -6 -12 4.90295 7.85329   9
  -5  -6 -12 -0.7812 7.87192   2
   5  -6  12 9.93968 9.70862   6
   5  -6  12 10.2824 7.48123   7
   5   6  12 -5.3233 7.58834   3
  -5   6 -12 12.4205 11.4563   5
   6  -6  12 15.9268 11.6254   6
  -6  -6 -12 28.3628 8.93628   2
  -6  -6 -12 23.1341 8.21698   9
   6  -6  12 19.4417 12.4131   7
  -6   6 -12 27.2407 9.67506   5
  -6   6 -12 11.9832 8.47315   2
   6   6  12 19.6092 9.35382   3
  -6  -7  12 -2.0731 5.85235   8
  -6  -7  12 3.83432 6.10700   4
  -6   7  12 8.36967 8.57222   1
   6   7 -12 -0.8826 13.2742   3
  -5  -7  12 147.363 10.8614   4
  -5  -7  12 141.650 12.4426   8
   5  -7 -12 129.507 10.2124   9
   5   7 -12 123.163 10.7275   5
   5   7 -12 125.369 13.5468   3
  -5   7  12 142.420 12.1083   4
  -5   7  12 132.839 13.1909   1
   4  -7 -12 6.77493 7.83752   9
  -4  -7  12 -1.8330 6.89141   4
  -4  -7  12 -0.1015 4.81840   8
   4   7 -12 -3.2775 11.2967   3
   4   7 -12 -2.2826 5.99830   5
  -4   7  12 2.34112 7.75833   1
  -3  -7  12 33.0582 8.01336   4
  -3  -7  12 33.0315 7.96424   8
   3  -7 -12 30.2966 6.62486   9
   3   7 -12 40.9462 9.33908   3
  -3   7  12 32.8373 9.06851   1
   3   7 -12 40.5510 7.94381   5
   2  -7 -12 110.262 10.3528   9
  -2  -7  12 113.406 16.0801   8
  -2  -7  12 132.596 17.7891   4
   2   7 -12 106.968 12.5864   5
  -2   7  12 123.793 11.7273   1
  -1  -7  12 197.754 9.80499   4
  -1  -7  12 211.086 13.2985   8
   1  -7 -12 191.277 12.7582   2
   1  -7 -12 186.569 11.8283   9
   1   7 -12 201.570 13.5492   5
  -1   7  12 181.809 14.0267   1
   0  -7  12 167.574 9.77200   4
   0  -7  12 145.806 9.07397   8
   0  -7 -12 143.802 9.94119   2
   0  -7 -12 154.605 9.66233   9
   0  -7  12 133.819 11.9170   7
   0   7  12 161.036 12.8743   1
   0   7 -12 149.513 12.1994   5
   1  -7  12 41.0107 8.18573   7
   1  -7  12 67.9156 6.51982   8
  -1  -7 -12 63.7022 7.78940   2
  -1  -7 -12 60.1869 7.34461   9
   1   7  12 63.5020 7.28338   3
   1   7  12 52.3607 11.7583   1
  -1   7 -12 60.4953 12.9580   5
   2  -7  12 163.511 12.8615   7
  -2  -7 -12 169.656 10.8864   2
  -2  -7 -12 182.601 12.7739   9
  -2   7 -12 177.813 16.5371   5
   2   7  12 149.823 12.5041   3
   2   7  12 186.010 14.1321   1
   3  -7  12 89.8134 10.9571   7
  -3  -7 -12 93.2803 10.3477   2
  -3  -7 -12 86.9936 10.2689   9
   3   7  12 78.3075 11.8088   3
  -3   7 -12 78.4158 14.2349   5
   3   7  12 90.0882 12.0445   1
  -4  -7 -12 15.1206 6.23519   9
   4  -7  12 17.9677 8.93762   7
  -4  -7 -12 21.0372 6.96199   2
   4   7  12 21.2868 10.0459   1
   4   7  12 15.1378 8.03591   3
  -4   7 -12 17.2014 9.63216   5
  -5  -7 -12 21.7501 6.43200   9
   5  -7  12 12.8681 8.44253   7
  -5  -7 -12 26.1765 7.00237   2
   5   7  12 27.1804 11.6185   3
  -5   7 -12 34.4138 13.4048   5
   5  -8 -12 12.1312 18.7666   9
  -5  -8  12 10.8390 6.80179   4
   5   8 -12 -1.2302 14.4138   3
  -5   8  12 5.21479 9.29897   1
  -4  -8  12 104.336 10.0243   8
   4  -8 -12 99.0541 10.4125   9
  -4  -8  12 107.029 10.5721   4
   4   8 -12 106.258 11.6434   5
  -4   8  12 137.078 19.7956   1
   4   8 -12 118.308 14.7399   3
   3  -8 -12 13.3468 6.97531   9
  -3  -8  12 24.1824 6.76425   8
  -3  -8  12 13.5953 6.29486   4
  -3   8  12 7.74416 12.7590   1
   3   8 -12 8.82564 9.45084   3
   3   8 -12 4.78467 7.60911   5
  -2  -8  12 9.40491 5.55411   4
  -2  -8  12 10.0001 7.55191   8
   2  -8 -12 7.13970 6.43237   9
   2   8 -12 14.8062 11.8527   3
   2   8 -12 10.0865 7.47498   5
  -2   8  12 4.25821 12.0378   1
  -1  -8  12 2.83960 4.55656   8
  -1  -8  12 4.46565 4.68260   4
   1  -8 -12 1.14188 7.47473   9
   1   8 -12 4.29035 7.65523   5
  -1   8  12 5.31375 7.87818   1
   0  -8 -12 26.8393 7.79115   2
   0  -8 -12 38.0422 7.41112   9
   0   8  12 73.1139 23.0329   1
   0   8 -12 35.4176 9.72803   5
  -1  -8 -12 -1.6812 5.70885   2
   1  -8  12 -1.8725 6.59836   7
  -1  -8 -12 -3.5252 5.60865   9
  -1   8 -12 1.54859 8.00461   5
   1   8  12 -3.9929 7.64399   1
  -2  -8 -12 51.9794 7.74777   9
   2  -8  12 52.1162 9.32482   7
  -2  -8 -12 51.6495 8.07195   2
   2   8  12 49.8737 14.4540   1
  -2   8 -12 47.6381 14.9620   5
   3  -8  12 15.1876 9.35045   7
  -3  -8 -12 12.2391 9.82555   2
  -3  -8 -12 18.2472 7.02055   9
  -3   8 -12 20.9877 49.1866   5
   3   8  12 11.2931 11.1738   3
   3   8  12 4.26751 24.7153   1
  10   0 -13 -4.5182 6.90737   6
 -10   0  13 -3.6818 7.63625   8
 -10   0  13 -0.8258 6.60663   1
 -10   0  13 -2.5410 5.23752   4
   9   0 -13 527.515 26.7755   6
  -9   0  13 541.972 27.1625   1
  -9   0  13 544.979 29.0769   8
  -9   0  13 537.452 24.9673   4
   8   0 -13 -1.1947 7.17556   6
  -8   0  13 -3.8321 6.38839   4
  -8   0  13 -7.1372 6.25776   8
   8   0 -13 0.31834 4.87856   3
  -8   0  13 -2.3050 4.68931   1
   7   0 -13 230.522 12.7813   5
   7   0 -13 245.020 13.6434   3
  -7   0  13 229.747 11.1768   8
   7   0 -13 251.123 15.4114   6
  -7   0  13 227.330 12.3912   4
  -7   0  13 238.755 12.0881   1
   6   0 -13 0.75331 1.96779   9
  -6   0  13 2.76392 2.89590   2
   6   0 -13 0.64610 4.01181   3
   6   0 -13 -1.5423 3.87675   5
  -6   0  13 0.00000 5.05949   1
   6   0 -13 -2.7755 5.13647   6
  -6   0  13 -1.3921 5.07536   4
  -6   0  13 0.07307 2.88989   9
  -5   0  13 623.839 18.7741   4
   5   0 -13 636.834 22.7428   6
  -5   0  13 656.117 27.3566   2
   5   0 -13 669.748 27.1054   5
  -5   0  13 645.284 28.9601   9
   5   0 -13 644.937 45.7542   3
   5   0 -13 643.260 36.9041   9
  -5   0  13 650.496 59.0441   1
  -4   0  13 -1.3933 4.83279   4
  -4   0  13 2.40002 4.14298   1
   4   0 -13 2.74368 2.70280   2
   4   0 -13 -6.0355 12.0234   1
   4   0 -13 1.79602 2.48021   3
  -4   0  13 -0.3340 1.93762   2
   4   0 -13 3.15149 3.75609   5
   4   0 -13 0.56907 1.73264   9
   3   0 -13 332.058 14.8058   9
   3   0 -13 340.758 18.1025   2
   3   0 -13 312.508 21.0135   1
  -3   0  13 348.224 12.8430   4
   3   0 -13 340.941 22.6214   3
  -3   0  13 345.529 11.1196   1
   3   0 -13 345.877 12.7005   5
  -3   0  13 348.362 15.5545   2
  -2   0  13 0.49804 2.05365   2
  -2   0  13 2.84397 5.18749   4
   2   0 -13 0.50335 4.33622   5
   2   0 -13 -0.4469 3.03664   7
   2   0 -13 -0.9418 4.05920   1
   2   0 -13 0.00000 2.13888   2
   2   0 -13 2.75731 2.16026   9
   2   0 -13 -0.7845 3.71047   3
  -2   0  13 0.04547 3.11887   1
   1   0 -13 0.35558 3.07297   5
  -1   0  13 0.99887 3.57614   4
   1   0 -13 -3.0791 2.81551   3
  -1   0  13 3.00437 2.51991   2
   1   0 -13 -1.0957 2.63681   6
   1   0 -13 1.11743 3.41269   2
   1   0 -13 0.08229 1.85963   7
   1   0 -13 2.75277 2.39735   9
  -1   0  13 -0.6663 2.01654   1
   0   0 -13 1.46556 1.92698   6
   0   0  13 0.67039 3.66585   4
   0   0 -13 -4.2848 3.93021   2
   0   0 -13 0.03862 2.96917   5
   0   0 -13 -0.0801 2.76774   7
   0   0  13 0.83189 2.98731   3
   0   0  13 0.18674 2.83856   1
   1   0  13 114.256 8.35497   4
   1   0  13 110.849 6.25833   1
  -1   0 -13 98.3479 5.84446   7
  -1   0 -13 109.543 6.83741   5
   1   0  13 111.394 6.94091   3
   1   0  13 94.8228 5.14186   7
  -1   0 -13 98.6449 6.33979   6
  -1   0 -13 109.504 7.17939   2
   2   0  13 0.19885 1.98534   7
   2   0  13 7.64091 5.43349   3
  -2   0 -13 1.30176 3.10616   6
  -2   0 -13 0.43833 3.22596   2
  -2   0 -13 3.72788 5.98465   5
  -2   0 -13 -1.3872 2.99954   7
   3   0  13 107.788 7.60337   7
  -3   0 -13 103.715 8.36747   2
   3   0  13 105.486 8.02137   3
  -3   0 -13 115.622 7.58142   5
   3   0  13 113.027 9.21556   1
  -3   0 -13 99.5085 6.36411   6
   3   0  13 99.4353 7.30727   6
   4   0  13 -2.4005 2.76495   6
   4   0  13 5.51542 6.77396   3
  -4   0 -13 0.00000 3.09265   5
  -4   0 -13 -2.5544 5.58286   2
   4   0  13 -2.4852 2.97524   7
   5   0  13 3.14840 5.16073   7
  -5   0 -13 3.74480 4.68007   5
   5   0  13 -0.7616 4.91732   6
   5   0  13 4.65585 5.29856   3
  -5   0 -13 1.40413 4.46257   2
  -6   0 -13 0.00000 7.13748   2
  -6   0 -13 5.13716 3.43084   5
   6   0  13 -0.3367 4.38337   7
   6   0  13 -2.6738 5.79100   6
   6   0  13 -1.5546 8.26428   3
   7   0  13 174.368 16.6132   7
  -7   0 -13 191.309 11.9108   2
   7   0  13 173.620 13.9706   6
   7   0  13 155.211 14.2456   3
  -8   0 -13 1.73046 5.71282   2
   8   0  13 -1.6807 8.25584   7
   8   0  13 3.71140 7.03976   3
   8   0  13 0.19908 5.31869   6
  10  -1 -13 15.7816 7.48921   6
 -10  -1  13 15.2325 6.42705   8
 -10  -1  13 19.2400 7.25127   1
 -10  -1  13 8.85196 6.40665   4
 -10   1  13 10.6229 8.29655   8
 -10   1  13 16.3807 10.4397   1
  10   1 -13 14.7977 8.28833   6
 -10   1  13 5.46310 7.75298   4
   9  -1 -13 16.3643 8.63202   6
  -9  -1  13 -1.2681 7.46756   4
  -9  -1  13 21.4291 8.48917   1
  -9  -1  13 6.29461 7.69484   8
  -9   1  13 0.90085 6.94108   8
   9   1 -13 -3.0173 8.57921   6
  -9   1  13 3.45686 6.92025   4
   9   1 -13 7.60168 5.25009   3
  -9   1  13 2.78415 8.05853   1
  -8  -1  13 3.22630 4.88579   1
  -8  -1  13 -0.3044 4.36698   4
  -8  -1  13 0.92662 4.46617   8
   8  -1 -13 0.23739 4.73785   6
   8   1 -13 -0.4782 4.87857   5
   8   1 -13 1.07619 6.12495   3
   8   1 -13 2.07675 5.25902   6
  -8   1  13 -0.2782 4.32804   8
  -8   1  13 -1.4574 4.72700   1
  -8   1  13 -0.5973 4.08176   4
   7  -1 -13 578.072 26.2710   6
  -7  -1  13 561.567 20.6132   4
   7  -1 -13 582.739 41.2695   3
  -7  -1  13 591.542 26.9666   8
  -7  -1  13 582.863 19.8206   1
   7   1 -13 585.523 30.3903   6
  -7   1  13 574.717 23.4228   1
   7   1 -13 589.355 30.9689   5
   7   1 -13 583.144 33.5696   3
  -7   1  13 545.020 28.9766   4
   6  -1 -13 176.158 10.2356   5
  -6  -1  13 184.203 9.51743   4
  -6  -1  13 184.993 9.68390   8
   6  -1 -13 186.870 9.11424   6
   6  -1 -13 167.382 9.57426   9
  -6  -1  13 182.001 8.89603   1
  -6  -1  13 187.983 7.27618   2
   6  -1 -13 189.896 9.10091   3
   6  -1 -13 189.789 12.4484   3
  -6   1  13 188.077 9.91120   1
   6   1 -13 187.398 13.7368   3
  -6   1  13 177.740 10.2969   4
   6   1 -13 172.642 9.91917   5
  -5  -1  13 -0.3066 2.76450   1
   5  -1 -13 0.86923 2.54527   3
   5  -1 -13 -0.1129 2.25297   9
  -5  -1  13 1.81732 3.51040   4
   5  -1 -13 -0.4642 2.62862   3
  -5  -1  13 2.12268 2.76207   2
   5  -1 -13 0.28217 2.97670   6
   5  -1 -13 0.47796 3.57038   5
   5   1 -13 0.58018 1.82099   9
   5   1 -13 1.13873 3.40818   3
  -5   1  13 -2.1400 5.09544   1
  -5   1  13 -1.2792 3.61093   4
   5   1 -13 -0.4195 5.32073   5
  -4  -1  13 164.335 8.94498   2
   4  -1 -13 182.755 7.94413   2
   4  -1 -13 178.388 10.5391   6
  -4  -1  13 171.461 9.38871   4
  -4  -1  13 179.978 7.79469   1
   4  -1 -13 169.289 9.91767   3
   4  -1 -13 162.067 6.97452   9
   4  -1 -13 174.840 9.73727   5
  -4   1  13 176.166 7.92208   9
   4   1 -13 180.888 6.01227   2
  -4   1  13 203.098 9.67522   4
  -4   1  13 197.584 9.15940   1
   4   1 -13 177.984 8.09126   9
   4   1 -13 198.906 10.3698   5
  -4   1  13 179.970 11.2827   2
   4   1 -13 155.354 11.0575   1
   3  -1 -13 45.9524 4.26369   3
  -3  -1  13 55.3719 5.39932   4
  -3  -1  13 53.1575 4.80972   1
   3  -1 -13 34.8368 5.22960   1
   3  -1 -13 54.7311 5.63325   5
   3  -1 -13 54.8133 4.19783   9
  -3  -1  13 53.1832 3.48589   2
   3  -1 -13 52.0055 4.32605   2
   3   1 -13 44.6602 5.30946   1
  -3   1  13 55.1017 7.28764   4
  -3   1  13 71.7331 12.1059   1
   3   1 -13 51.0980 5.50066   5
   3   1 -13 47.2591 3.74983   2
   3   1 -13 49.4585 3.54958   9
  -3   1  13 52.6671 5.15938   2
   2  -1 -13 366.330 17.1495   7
   2  -1 -13 341.292 13.5387   9
   2  -1 -13 348.916 11.8725   3
   2  -1 -13 339.073 12.5664   5
   2  -1 -13 319.290 20.4835   1
   2  -1 -13 352.976 19.1266   2
  -2  -1  13 360.571 13.5240   1
  -2  -1  13 360.165 12.0878   4
  -2  -1  13 353.437 9.80061   2
   2   1 -13 359.941 13.0397   5
  -2   1  13 363.349 12.4313   1
   2   1 -13 349.602 10.7157   9
  -2   1  13 343.976 30.0098   2
  -2   1  13 344.762 14.8031   4
   2   1 -13 368.268 18.0462   7
   2   1 -13 345.741 16.7711   1
   2   1 -13 360.173 12.2721   2
   1  -1 -13 34.0317 2.99758   6
   1  -1 -13 32.8453 3.18542   7
   1  -1 -13 36.9296 4.56392   5
   1  -1 -13 33.5387 3.82580   9
   1  -1 -13 38.1139 4.89548   3
  -1  -1  13 33.4015 4.48965   2
  -1  -1  13 34.9747 3.08322   1
  -1  -1  13 37.4965 4.80282   4
   1  -1 -13 33.0947 4.91388   2
   1   1 -13 29.1675 4.29184   2
   1   1 -13 32.2945 4.82992   5
   1   1 -13 35.0629 4.70135   7
  -1   1  13 29.2961 4.35427   3
   1   1 -13 31.5898 4.51739   6
  -1   1  13 43.4254 6.77794   4
  -1   1  13 44.7495 4.96055   1
   0  -1 -13 12.1825 10.7804   3
   0  -1 -13 12.0187 3.29129   9
   0  -1  13 20.8727 4.27095   4
   0  -1  13 14.7054 3.41016   2
   0  -1 -13 14.4230 3.57029   2
   0  -1 -13 12.5690 4.35162   5
   0  -1 -13 13.7771 2.17168   7
   0  -1 -13 16.0257 2.10105   6
   0   1  13 13.9252 3.49326   3
   0   1  13 15.5312 4.15247   1
   0   1 -13 15.4731 4.17769   7
   0   1 -13 13.1098 3.12954   2
   0   1 -13 16.5516 3.99282   6
   0   1 -13 13.4437 5.06202   5
  -1  -1 -13 27.1067 5.80497   5
   1  -1  13 13.4117 2.99626   7
   1  -1  13 27.7624 8.58902   4
  -1  -1 -13 14.4963 3.67343   9
   1  -1  13 14.2230 3.99501   3
  -1  -1 -13 11.5636 4.77796   2
  -1  -1 -13 19.3327 2.44488   7
   1  -1  13 20.4652 2.61475   1
  -1  -1 -13 18.9220 2.32953   6
   1   1  13 16.0128 3.98160   3
  -1   1 -13 8.88931 4.98944   5
  -1   1 -13 17.1041 3.97790   6
   1   1  13 23.5686 4.71052   1
  -1   1 -13 19.4151 3.33235   7
  -1   1 -13 13.4591 3.65061   2
   2  -1  13 208.308 8.99746   4
   2  -1  13 200.279 9.75716   3
   2  -1  13 183.486 11.9895   7
  -2  -1 -13 210.778 8.91517   5
  -2  -1 -13 193.148 9.12603   2
  -2  -1 -13 203.382 7.16959   6
   2  -1  13 219.137 8.09367   1
  -2   1 -13 207.527 10.2912   5
  -2   1 -13 179.938 11.9308   6
   2   1  13 190.236 9.33399   7
  -2   1 -13 179.777 8.78911   2
   2   1  13 216.236 9.95928   3
   2   1  13 162.656 10.9393   5
  -2   1 -13 202.188 12.7630   7
   3  -1  13 40.1281 8.29396   3
   3  -1  13 44.6525 4.96488   4
  -3  -1 -13 42.0896 6.06301   2
   3  -1  13 32.4512 5.40679   7
   3  -1  13 40.0636 4.21780   1
   3  -1  13 33.5089 5.21773   6
  -3  -1 -13 44.5101 4.10574   6
  -3  -1 -13 42.1960 5.06651   5
   3   1  13 47.4611 6.22823   3
  -3   1 -13 35.9201 5.45660   2
  -3   1 -13 37.8383 5.22684   5
   3   1  13 29.8084 5.98477   5
   3   1  13 27.7608 3.48256   6
   3   1  13 31.5012 3.72324   7
   4  -1  13 475.617 19.7761   7
  -4  -1 -13 470.530 22.8211   6
  -4  -1 -13 458.959 17.8309   2
   4  -1  13 481.002 15.1467   6
   4  -1  13 474.016 20.5265   3
   4  -1  13 477.426 22.0751   4
   4  -1  13 499.789 20.9715   1
  -4  -1 -13 432.753 18.5744   5
   4   1  13 501.985 21.5536   6
  -4   1 -13 468.837 21.7505   5
   4   1  13 486.793 27.2481   7
   4   1  13 483.011 18.2109   3
  -4   1 -13 478.661 16.0900   2
  -5  -1 -13 433.039 13.3671   5
   5  -1  13 437.330 21.5685   4
   5  -1  13 443.222 17.9639   6
  -5  -1 -13 427.226 16.4986   2
   5  -1  13 427.745 21.4957   7
   5  -1  13 428.200 16.5284   3
   5   1  13 460.112 18.2646   3
  -5   1 -13 444.782 15.1286   5
  -5   1 -13 445.247 16.2499   2
   5   1  13 414.492 20.3417   6
   5   1  13 442.448 18.5150   7
   6  -1  13 26.3752 5.66112   4
  -6  -1 -13 25.2210 8.21818   5
   6  -1  13 29.7515 7.55171   6
   6  -1  13 15.4303 7.45605   7
  -6  -1 -13 28.1699 9.61380   2
   6  -1  13 21.3563 9.04347   3
  -6   1 -13 17.4447 6.61643   5
   6   1  13 15.7488 4.55445   6
  -6   1 -13 24.0818 6.52611   2
   6   1  13 37.1136 7.84660   3
   6   1  13 29.7644 6.59341   7
  -7  -1 -13 -6.8234 7.96259   2
   7  -1  13 -1.3314 8.89797   3
   7  -1  13 -1.2028 7.65021   7
   7  -1  13 3.28982 7.41227   6
  -7   1 -13 3.14827 5.94634   2
   7   1  13 3.28971 6.81365   3
  -7   1 -13 -2.4955 5.94331   5
  -8  -1 -13 48.4093 8.35428   2
   8  -1  13 41.0482 9.96509   6
   8  -1  13 45.8497 8.46163   7
   8  -1  13 50.7260 11.4558   3
   8   1  13 44.8762 9.12946   3
  -8   1 -13 51.0354 10.6937   2
 -10  -2  13 10.1775 9.63238   1
 -10  -2  13 2.62312 6.68260   4
  10  -2 -13 9.54610 9.90167   6
 -10  -2  13 3.06735 6.42187   8
  10   2 -13 -2.8891 10.6631   6
 -10   2  13 -0.0796 6.62790   1
  -9  -2  13 18.7670 6.39939   4
  -9  -2  13 26.1320 6.69447   8
   9  -2 -13 21.6511 6.42976   6
  -9  -2  13 30.6208 6.97653   1
  -9   2  13 16.8264 7.13204   8
  -9   2  13 28.9258 7.33866   1
   9   2 -13 24.7492 9.01244   3
  -9   2  13 20.5974 7.40585   4
   9   2 -13 29.5709 7.95926   6
  -8  -2  13 39.6501 8.32275   8
   8  -2 -13 60.9371 7.24338   6
  -8  -2  13 45.0799 8.62117   4
  -8  -2  13 52.6177 6.96395   1
   8   2 -13 50.2603 9.09608   3
   8   2 -13 49.8570 10.0921   6
  -8   2  13 50.3186 6.65514   8
   8   2 -13 49.6406 6.93932   5
  -8   2  13 51.2375 6.67881   4
  -8   2  13 63.0372 9.91487   1
  -7  -2  13 108.180 9.41266   8
   7  -2 -13 121.063 9.10446   6
  -7  -2  13 134.659 8.35744   1
  -7  -2  13 107.697 8.34599   4
  -7   2  13 104.053 7.94842   4
  -7   2  13 119.457 10.4526   1
   7   2 -13 108.776 9.74135   5
   7   2 -13 113.547 10.0809   3
  -6  -2  13 24.6919 5.58331   1
   6  -2 -13 16.2824 5.15913   9
   6  -2 -13 13.5613 5.26540   6
  -6  -2  13 13.7437 4.69096   4
  -6  -2  13 16.1455 4.88405   8
   6   2 -13 12.3596 4.85733   5
  -6   2  13 18.9205 7.21654   1
  -6   2  13 17.5968 6.16680   4
   6   2 -13 22.2630 5.52878   3
   5  -2 -13 0.88899 1.74062   3
  -5  -2  13 -0.0385 3.35737   4
   5  -2 -13 -2.8702 3.82145   9
   5  -2 -13 -0.7383 2.64866   6
   5  -2 -13 0.13718 1.82825   3
  -5  -2  13 -1.2024 4.02847   1
  -5  -2  13 -4.4023 3.42833   8
  -5   2  13 3.44934 4.01718   4
   5   2 -13 0.81889 3.84489   5
   5   2 -13 1.20345 4.18737   3
  -5   2  13 -0.9857 4.11474   1
  -4  -2  13 10.8842 3.91287   8
   4  -2 -13 9.97776 3.28770   2
  -4  -2  13 7.20706 4.91064   4
  -4  -2  13 15.4962 3.60091   1
   4  -2 -13 16.5631 2.97477   6
   4  -2 -13 12.1561 2.26324   3
   4  -2 -13 14.4411 4.28554   5
   4  -2 -13 12.0146 4.37743   9
   4   2 -13 9.99316 2.04786   2
   4   2 -13 9.76165 4.15383   5
   4   2 -13 10.5872 1.69538   9
  -4   2  13 11.7451 6.43159   4
  -4   2  13 13.4523 5.84590   1
   4   2 -13 3.10024 3.39351   1
  -3  -2  13 396.071 16.6824   1
  -3  -2  13 421.208 15.9104   4
   3  -2 -13 408.474 14.8607   5
   3  -2 -13 413.801 15.8646   2
   3  -2 -13 400.030 19.7105   6
   3  -2 -13 433.714 20.8787   9
   3  -2 -13 420.795 14.3054   3
   3   2 -13 413.350 25.8055   9
   3   2 -13 435.591 22.2983   5
   3   2 -13 417.101 17.9639   2
  -3   2  13 411.827 18.6610   4
  -3   2  13 412.870 20.5806   1
   3   2 -13 407.274 23.8083   1
  -2  -2  13 4.87265 3.13788   4
   2  -2 -13 4.07889 1.81150   6
   2  -2 -13 7.11896 1.84321   7
  -2  -2  13 5.11543 1.65116   1
   2  -2 -13 4.02102 2.97756   3
   2  -2 -13 5.59819 3.28038   5
   2  -2 -13 2.08265 2.67032   9
   2  -2 -13 0.57229 4.00293   2
   2   2 -13 3.09806 2.64473   2
   2   2 -13 1.08233 1.85008   9
   2   2 -13 7.13059 5.34373   5
  -2   2  13 5.85708 4.43402   4
   2   2 -13 3.58090 2.23605   1
  -2   2  13 4.35238 4.77984   1
   1  -2 -13 208.705 10.5697   3
   1  -2 -13 221.140 7.24346   6
   1  -2 -13 222.220 9.58054   2
  -1  -2  13 226.791 9.10367   4
  -1  -2  13 205.563 7.54925   1
   1  -2 -13 224.117 7.89095   6
   1  -2 -13 232.913 10.0596   9
   1  -2 -13 238.485 9.67169   7
   1  -2 -13 217.451 9.17818   5
  -1   2  13 212.662 9.53409   3
  -1   2  13 210.937 10.8594   1
   1   2 -13 208.661 15.2120   5
   1   2 -13 208.144 7.70936   2
   0  -2 -13 5.84973 4.62219   2
   0  -2 -13 8.70520 0.44089   6
   0  -2 -13 14.3505 3.54848   9
   0  -2 -13 17.4158 4.68692   3
   0  -2  13 9.88744 4.60825   7
   0  -2  13 11.7125 4.32732   4
   0  -2 -13 13.9986 4.42365   5
   0  -2 -13 6.45631 0.50068   6
   0   2 -13 14.7338 3.17644   2
   0   2  13 26.9152 6.86368   1
   0   2 -13 18.2198 4.41399   5
   1  -2  13 254.789 5.92404   1
   1  -2  13 235.830 6.52343   1
   1  -2  13 252.408 9.36861   4
   1  -2  13 281.714 10.9887   7
  -1  -2 -13 258.354 12.9875   2
  -1  -2 -13 264.706 12.6117   9
  -1  -2 -13 278.496 9.67526   5
   1   2  13 247.735 27.2759   5
   1   2  13 285.611 21.3718   1
   1   2  13 285.636 10.6077   3
  -1   2 -13 264.748 23.8394   2
  -1   2 -13 258.766 11.6242   5
   2  -2  13 1.77212 4.46837   7
  -2  -2 -13 6.57281 3.75775   5
   2  -2  13 8.04290 1.81952   1
  -2  -2 -13 9.32821 2.30636   6
   2  -2  13 -0.1278 3.98283   4
  -2  -2 -13 6.14377 3.55145   9
  -2  -2 -13 3.34491 3.56406   2
   2  -2  13 7.06763 1.93448   1
  -2   2 -13 2.93123 4.93578   2
   2   2  13 9.23373 5.82638   3
  -2   2 -13 4.27721 4.09593   5
   2   2  13 5.86009 4.59905   5
   3  -2  13 14.7283 4.31334   7
   3  -2  13 18.8838 5.09501   3
  -3  -2 -13 21.4924 2.57362   6
   3  -2  13 16.1927 2.77021   1
  -3  -2 -13 8.23847 5.51058   9
   3  -2  13 9.16563 5.12570   6
  -3  -2 -13 18.9570 3.93912   5
   3  -2  13 14.2245 3.47117   4
  -3  -2 -13 21.9215 4.83969   2
  -3   2 -13 10.9527 5.92414   2
  -3   2 -13 17.5657 6.34173   5
   3   2  13 8.24651 4.55696   5
   3   2  13 14.6885 5.09141   3
   3   2  13 14.6827 2.20531   6
   3   2  13 11.9275 2.21479   7
   4  -2  13 8.06633 5.57464   1
  -4  -2 -13 1.18628 4.36337   2
   4  -2  13 3.21262 4.09931   7
   4  -2  13 4.07257 3.89731   4
   4  -2  13 5.35188 4.10048   6
   4  -2  13 -0.9531 6.47663   3
  -4  -2 -13 6.78587 3.32554   5
   4   2  13 4.72178 7.04442   3
  -4   2 -13 2.27224 4.59760   2
  -4   2 -13 3.36025 6.38653   5
   4   2  13 2.65489 2.95059   6
   4   2  13 2.84627 3.03854   7
   5  -2  13 574.700 22.2311   6
   5  -2  13 543.163 26.4668   4
  -5  -2 -13 548.132 29.7592   5
   5  -2  13 544.493 24.9860   3
  -5  -2 -13 579.356 21.2665   2
   5  -2  13 582.576 26.7914   7
  -5   2 -13 598.896 28.1293   5
   5   2  13 567.153 26.8873   3
  -5   2 -13 592.166 23.5635   2
   6  -2  13 41.1999 33.2343   6
   6  -2  13 55.0386 35.5535   7
  -6  -2 -13 23.2891 6.18038   2
   6  -2  13 18.7149 6.89473   3
  -6   2 -13 11.4499 6.32067   2
   6   2  13 16.3848 7.14134   3
  -6   2 -13 24.4565 7.80268   5
   7  -2  13 13.9261 6.74627   7
   7  -2  13 8.54336 6.35968   6
  -7  -2 -13 6.64712 5.98796   2
   7  -2  13 16.9069 10.2020   3
  -7   2 -13 6.15179 9.12697   2
  -7   2 -13 13.0421 7.74492   5
   7   2  13 9.68698 10.0079   3
   8  -2  13 -9.2630 10.4736   3
  -8  -2 -13 2.46071 6.24316   2
   8  -2  13 -4.8138 9.05546   6
   8  -2  13 0.15291 9.35445   7
  -8   2 -13 -3.6204 6.57828   2
   8   2  13 0.59923 7.39206   3
  10  -3 -13 167.901 14.7236   6
 -10  -3  13 146.661 13.2100   8
 -10  -3  13 217.912 17.8360   1
 -10  -3  13 165.805 12.3458   4
  10   3 -13 174.700 20.1624   3
  10   3 -13 173.092 17.1826   6
 -10   3  13 181.280 17.6540   1
  -9  -3  13 117.940 9.98048   1
   9  -3 -13 124.966 10.1770   6
  -9  -3  13 134.719 20.7575   8
  -9  -3  13 122.923 21.3428   4
  -9   3  13 89.7318 10.9810   4
   9   3 -13 109.714 11.1365   3
  -9   3  13 86.6870 9.85988   8
  -9   3  13 109.421 11.4547   1
   9   3 -13 114.316 11.9262   6
  -8  -3  13 3.75728 5.28180   8
  -8  -3  13 1.62471 6.64187   1
   8  -3 -13 23.8954 7.34900   6
  -8  -3  13 9.47239 5.45081   4
   8   3 -13 -3.8542 6.50315   5
   8   3 -13 14.7121 14.1603   3
  -8   3  13 -2.9681 6.08779   4
  -8   3  13 8.05171 6.30374   1
  -7  -3  13 27.8599 6.02113   4
  -7  -3  13 32.6975 6.16610   8
   7  -3 -13 42.0478 7.94877   6
  -7  -3  13 37.4207 6.95331   1
  -7   3  13 20.8412 8.50574   1
   7   3 -13 23.3221 5.73534   5
  -7   3  13 17.6301 5.02383   4
   7   3 -13 38.3424 7.47189   3
  -6  -3  13 158.973 9.52829   4
   6  -3 -13 172.235 9.27668   9
  -6  -3  13 176.064 18.4240   1
   6  -3 -13 179.498 9.92228   6
  -6  -3  13 153.353 10.3401   8
  -6   3  13 162.963 10.2444   4
   6   3 -13 165.111 9.91977   5
  -6   3  13 168.699 11.8435   1
   6   3 -13 167.072 10.9397   3
   5  -3 -13 22.0347 4.34156   9
  -5  -3  13 25.5319 6.40780   4
  -5  -3  13 24.3950 6.38205   8
   5  -3 -13 23.5341 4.50185   6
  -5  -3  13 34.4990 4.90074   1
   5   3 -13 33.9018 6.38748   3
   5   3 -13 27.7428 6.64581   5
  -5   3  13 20.3017 5.35020   4
  -5   3  13 30.5187 6.16170   1
   4  -3 -13 2.11710 3.70982   2
   4  -3 -13 14.6565 3.80372   9
  -4  -3  13 18.8885 5.78404   4
  -4  -3  13 13.7942 4.23838   8
   4  -3 -13 17.4481 3.57528   6
   4   3 -13 10.0722 0.99289   2
   4   3 -13 15.1704 4.86016   5
  -4   3  13 18.7457 6.82312   4
   4   3 -13 7.32065 4.26809   1
  -4   3  13 18.4455 5.57480   1
   4   3 -13 13.5144 1.28745   9
   3  -3 -13 0.74619 4.38717   2
   3  -3 -13 7.72354 2.41081   6
  -3  -3  13 3.85321 3.31895   4
  -3  -3  13 7.00880 2.22457   1
   3  -3 -13 1.95733 4.31264   9
   3  -3 -13 7.74539 1.94991   3
  -3  -3  13 4.88021 3.49505   8
   3   3 -13 3.54194 3.08259   1
  -3   3  13 13.7642 4.98413   4
   3   3 -13 5.00792 1.90010   2
   3   3 -13 3.17003 1.82789   9
   3   3 -13 9.29931 5.99274   5
  -3   3  13 4.93728 4.49186   1
   2  -3 -13 437.451 23.4374   6
  -2  -3  13 439.915 14.7545   4
   2  -3 -13 431.193 27.4650   7
  -2  -3  13 431.549 17.8162   8
   2  -3 -13 444.421 19.0892   5
   2  -3 -13 438.446 20.9269   9
   2  -3 -13 435.566 17.7322   2
   2  -3 -13 415.447 21.1966   3
   2   3 -13 437.141 18.6523   5
  -2   3  13 437.460 19.3670   3
   2   3 -13 432.573 18.9499   2
  -2   3  13 455.542 22.3425   1
   2   3 -13 459.420 27.4559   1
   1  -3 -13 69.3489 5.32811   3
   1  -3 -13 59.2322 6.49801   2
  -1  -3  13 73.9530 5.64485   8
  -1  -3  13 72.0896 6.27392   4
   1  -3 -13 77.2739 5.92717   5
   1  -3 -13 73.4990 5.75732   9
   1   3 -13 70.9787 5.17717   2
  -1   3  13 79.5141 5.63604   3
  -1   3  13 88.4357 8.26131   1
   1   3 -13 73.9642 8.14890   5
   0  -3  13 878.389 30.6476   7
   0  -3 -13 859.386 50.7829   3
   0  -3 -13 827.241 30.3872   5
   0  -3 -13 816.594 22.4290   2
   0  -3 -13 849.675 31.2593   9
   0  -3  13 840.153 28.9482   4
   0   3  13 862.921 30.5455   3
   0   3 -13 926.658 29.6833   5
   0   3  13 865.153 24.6871   1
   0   3 -13 870.309 34.6129   2
   1  -3  13 0.23265 2.54576   4
  -1  -3 -13 1.84855 6.43045   2
   1  -3  13 0.87929 3.45550   7
  -1  -3 -13 -1.5747 3.44160   5
  -1  -3 -13 -1.5657 5.66205   9
  -1   3 -13 1.08986 4.69711   5
   1   3  13 0.88515 3.42278   3
  -1   3 -13 -1.4880 3.12221   2
   1   3  13 4.83562 4.27591   1
   2  -3  13 326.625 12.7326   7
  -2  -3 -13 329.952 11.8537   9
  -2  -3 -13 330.214 13.7592   5
  -2  -3 -13 319.027 12.2317   2
   2  -3  13 323.734 13.6884   4
   2   3  13 327.854 13.4100   3
  -2   3 -13 307.064 14.0858   2
   2   3  13 319.819 13.7805   1
   2   3  13 306.481 21.3125   5
  -2   3 -13 341.794 14.9930   5
  -3  -3 -13 111.717 7.62856   9
  -3  -3 -13 119.550 8.20959   2
   3  -3  13 110.171 6.38724   4
   3  -3  13 123.982 8.76004   7
   3  -3  13 123.302 8.27639   6
  -3  -3 -13 137.768 6.91477   5
   3   3  13 126.836 10.3260   3
  -3   3 -13 122.657 8.38274   2
  -3   3 -13 139.614 9.67736   5
   4  -3  13 71.3360 4.83269   4
   4  -3  13 54.8948 8.56155   7
   4  -3  13 56.2873 7.98327   6
  -4  -3 -13 65.2412 4.59111   5
  -4  -3 -13 54.2047 6.17000   9
  -4  -3 -13 61.9924 8.03605   2
   4   3  13 69.1375 7.94994   3
  -4   3 -13 60.5954 8.64972   2
  -4   3 -13 70.8770 7.95758   5
   5  -3  13 130.772 11.6677   7
   5  -3  13 158.318 11.0017   3
  -5  -3 -13 160.674 11.1294   2
  -5  -3 -13 165.852 10.5627   9
   5  -3  13 148.062 11.4628   6
   5   3  13 163.061 11.4965   3
  -5   3 -13 142.352 11.8086   2
  -5   3 -13 171.821 12.7617   5
  -6  -3 -13 26.6830 6.56602   2
   6  -3  13 31.8012 7.64989   3
  -6  -3 -13 30.0728 6.49557   9
   6  -3  13 27.5654 7.27161   7
   6  -3  13 17.2095 6.70676   6
  -6   3 -13 31.5545 7.42181   5
  -6   3 -13 27.6520 7.26148   2
   6   3  13 32.7425 8.03782   3
   7  -3  13 4.00591 6.55239   6
  -7  -3 -13 1.54126 8.13492   9
   7  -3  13 -1.8377 6.74847   3
  -7  -3 -13 0.07355 6.08603   2
   7  -3  13 3.35658 7.02268   7
  -7   3 -13 7.68950 9.17721   5
   7   3  13 15.9453 24.0020   3
  -7   3 -13 13.9639 9.70708   2
   8  -3  13 191.739 13.8348   7
   8  -3  13 177.969 13.1153   6
  -8  -3 -13 207.935 13.7177   9
   8  -3  13 199.056 15.4357   3
  -8  -3 -13 207.110 12.6564   2
  -8   3 -13 210.496 17.9258   5
   8   3  13 196.171 14.6453   3
  -8   3 -13 212.458 14.0563   2
   9  -4 -13 -5.5227 5.99042   6
  -9  -4  13 -1.2868 5.81318   4
   9  -4 -13 -3.4305 6.27275   7
  -9  -4  13 0.71817 8.46466   8
   9   4 -13 3.29549 11.1969   3
  -9   4  13 2.84153 7.06458   1
   9   4 -13 -0.3449 10.9340   6
   8  -4 -13 11.4651 7.71031   6
  -8  -4  13 2.82529 7.55178   8
   8  -4 -13 4.28929 7.33574   7
  -8  -4  13 2.81826 7.58032   4
   8   4 -13 -1.4857 6.98004   5
  -8   4  13 2.12921 9.44571   1
   8   4 -13 -1.3361 7.11844   3
  -8   4  13 1.12956 4.34705   4
   7  -4 -13 37.6757 7.28548   6
  -7  -4  13 38.1588 6.58250   8
   7  -4 -13 46.0099 7.67233   7
  -7  -4  13 44.2007 6.76402   4
  -7   4  13 39.0031 6.96111   4
   7   4 -13 33.9636 7.97546   5
  -7   4  13 34.3549 10.0409   1
   7   4 -13 51.3831 8.89060   3
   6  -4 -13 13.6524 4.17621   7
  -6  -4  13 3.95856 4.66154   4
   6  -4 -13 10.7032 6.47617   9
   6  -4 -13 9.66979 5.28011   6
  -6  -4  13 17.4452 6.84743   8
   6   4 -13 3.59004 9.45016   3
   6   4 -13 2.77744 6.61347   5
  -6   4  13 -0.3508 7.80454   1
  -6   4  13 7.19568 4.88955   4
   5  -4 -13 122.835 7.47827   6
  -5  -4  13 115.618 8.35055   4
   5  -4 -13 114.709 8.67866   7
  -5  -4  13 115.317 8.49435   8
   5  -4 -13 109.789 7.67876   9
  -5   4  13 122.998 9.19847   4
  -5   4  13 101.021 9.50497   1
   5   4 -13 116.570 8.96471   5
   5   4 -13 110.877 9.89068   3
   4  -4 -13 33.4489 4.10150   6
   4  -4 -13 37.2685 4.36412   7
  -4  -4  13 30.0049 6.51060   8
  -4  -4  13 25.1064 6.45839   4
   4  -4 -13 21.0635 4.60058   9
  -4   4  13 29.0878 6.09992   4
  -4   4  13 33.4616 8.46213   1
   4   4 -13 23.2374 5.79406   5
   3  -4 -13 51.8786 6.66332   9
   3  -4 -13 52.9264 3.38878   3
   3  -4 -13 43.5285 6.61325   2
   3  -4 -13 60.9766 3.95767   7
  -3  -4  13 56.8589 5.75445   8
   3  -4 -13 50.0477 4.20436   6
  -3  -4  13 50.5655 5.60967   4
  -3   4  13 47.7483 6.67615   4
   3   4 -13 41.5693 3.30177   2
   3   4 -13 46.3999 3.00920   9
  -3   4  13 46.4934 7.17792   1
   3   4 -13 65.2084 7.33070   5
   2  -4 -13 107.661 4.76955   7
   2  -4 -13 109.764 5.89204   6
   2  -4 -13 109.849 5.73068   3
   2  -4 -13 96.1684 7.13105   2
  -2  -4  13 114.815 7.14248   8
  -2  -4  13 98.4870 6.79821   4
   2  -4 -13 101.183 6.94727   9
  -2   4  13 109.977 8.80929   1
   2   4 -13 102.736 5.28270   2
  -2   4  13 99.5974 6.55627   3
   2   4 -13 119.335 9.07017   5
  -1  -4  13 91.0568 7.41917   4
   1  -4 -13 79.2148 6.45299   9
   1  -4 -13 82.8599 6.77615   3
  -1  -4  13 91.2224 9.03926   8
   1  -4 -13 89.8481 7.87117   2
   1   4 -13 85.2680 9.32707   5
  -1   4  13 92.4401 6.02877   3
   1   4 -13 82.9126 5.74896   2
  -1   4  13 97.0375 8.45472   1
   0  -4  13 112.911 6.44550   4
   0  -4  13 106.336 7.15944   8
   0  -4  13 119.347 8.34524   7
   0  -4 -13 109.240 7.19821   9
   0  -4 -13 108.796 8.44175   2
   0   4  13 115.789 6.86985   3
   0   4  13 117.383 8.91459   1
   0   4 -13 108.626 8.92362   5
   0   4 -13 107.420 7.17732   2
  -1  -4 -13 1261.74 46.7003   2
   1  -4  13 1221.52 52.3869   4
   1  -4  13 1240.41 48.6528   7
  -1  -4 -13 1279.66 43.4960   9
   1  -4  13 1206.80 50.0544   8
   1   4  13 1302.89 54.9042   1
  -1   4 -13 1278.47 37.9221   2
   1   4  13 1301.60 56.5696   3
  -1   4 -13 1353.78 45.6316   5
   2  -4  13 80.8560 5.48854   4
  -2  -4 -13 77.8764 6.56279   9
  -2  -4 -13 77.8891 8.02163   2
   2  -4  13 73.4269 7.43009   7
   2  -4  13 80.4527 4.96334   8
  -2   4 -13 73.0739 9.61057   5
   2   4  13 81.1551 10.0949   1
  -2   4 -13 76.5380 7.03111   2
   2   4  13 73.2894 7.15726   3
   3  -4  13 10.7143 3.36507   8
   3  -4  13 5.79146 6.80369   7
  -3  -4 -13 4.73329 4.17208   9
   3  -4  13 10.9720 3.31980   4
  -3  -4 -13 10.0778 4.83208   2
   3   4  13 11.3483 5.48065   3
  -3   4 -13 14.6984 8.07125   5
  -3   4 -13 5.77472 6.77442   2
  -4  -4 -13 7.62014 6.66494   9
   4  -4  13 6.08385 5.55101   6
  -4  -4 -13 6.28356 4.88929   2
   4  -4  13 2.21932 5.36262   7
  -4   4 -13 4.31652 7.72508   2
   4   4  13 0.32219 5.58691   3
  -4   4 -13 6.18972 8.62711   5
  -5  -4 -13 30.9693 6.34907   2
   5  -4  13 30.8828 7.21154   6
   5  -4  13 28.5899 7.34806   7
  -5  -4 -13 28.2099 6.05304   9
  -5   4 -13 36.5886 9.77432   2
  -5   4 -13 42.4375 8.36974   5
   5   4  13 47.1434 8.34654   3
   6  -4  13 3.40605 9.29257   6
   6  -4  13 4.86529 6.65376   7
  -6  -4 -13 5.93245 5.87013   2
  -6  -4 -13 3.96885 7.62705   9
  -6   4 -13 11.0736 7.34638   5
   6   4  13 -0.1767 9.93775   3
  -6   4 -13 9.41300 11.7900   2
   7  -4  13 59.4027 12.3330   6
   7  -4  13 52.2426 9.88953   7
  -7  -4 -13 47.0208 8.42208   2
  -7  -4 -13 62.1010 8.32480   9
   7   4  13 62.8224 11.0067   3
  -7   4 -13 76.8637 10.5648   5
  -7   4 -13 64.6240 10.0452   2
   8  -5 -13 6.33686 5.51275   6
  -8  -5  13 2.57592 5.91481   8
  -8  -5  13 3.62996 6.03212   4
   8  -5 -13 4.94023 5.79404   7
  -8   5  13 3.21575 7.60756   1
   8   5 -13 5.56207 8.54126   3
   7  -5 -13 19.6419 6.74493   6
  -7  -5  13 7.30826 7.79547   4
  -7  -5  13 11.0982 5.99101   8
   7  -5 -13 18.4745 7.27619   7
   7   5 -13 8.09856 7.58270   5
  -7   5  13 16.5332 7.60630   1
   7   5 -13 10.2632 8.35500   3
  -7   5  13 9.35041 5.32015   4
  -6  -5  13 478.022 18.4080   8
   6  -5 -13 482.305 29.9625   9
  -6  -5  13 530.658 29.3424   4
   6  -5 -13 520.529 23.1830   6
   6  -5 -13 477.741 31.6508   7
  -6   5  13 468.756 25.0641   4
   6   5 -13 494.708 35.7388   5
   6   5 -13 519.792 32.2323   3
  -6   5  13 503.833 30.9830   1
  -5  -5  13 24.4480 5.65667   4
   5  -5 -13 41.9888 5.88974   7
   5  -5 -13 32.7479 6.06560   9
  -5  -5  13 31.2874 6.01180   8
   5  -5 -13 31.5537 5.08175   6
  -5   5  13 26.2348 6.50200   4
  -5   5  13 24.6325 7.37430   1
   5   5 -13 28.5469 6.46225   5
   5   5 -13 33.4948 8.14772   3
   4  -5 -13 70.0080 5.44647   6
   4  -5 -13 60.2839 6.74280   9
  -4  -5  13 64.3345 6.80002   4
  -4  -5  13 69.5794 7.00545   8
   4  -5 -13 75.5565 5.46879   7
  -4   5  13 76.4884 11.0498   1
   4   5 -13 59.1587 9.11763   5
  -4   5  13 55.9298 9.29200   4
   3  -5 -13 13.8589 5.36332   2
  -3  -5  13 13.9930 4.56043   4
  -3  -5  13 12.3719 5.92477   8
   3  -5 -13 10.0662 2.53343   6
   3  -5 -13 5.06447 6.01820   9
   3  -5 -13 11.5819 2.61413   7
  -3   5  13 13.9648 6.43922   1
   3   5 -13 18.1028 5.97780   5
  -2  -5  13 9.29077 5.31853   8
  -2  -5  13 8.88144 5.31398   4
   2  -5 -13 3.35698 4.16071   2
   2  -5 -13 11.1052 5.81621   9
   2   5 -13 3.88993 2.96922   2
   2   5 -13 3.29481 5.18290   5
  -2   5  13 2.75522 7.49493   1
   1  -5 -13 46.4232 7.48624   2
   1  -5 -13 58.6468 7.43675   9
  -1  -5  13 71.8099 5.93838   4
  -1  -5  13 60.9954 5.72239   8
  -1   5  13 61.5939 5.69691   3
  -1   5  13 51.0646 7.70060   1
   1   5 -13 54.3200 7.67483   5
   1   5 -13 67.0881 5.08663   2
   0  -5  13 7.50520 3.47228   4
   0  -5  13 2.72887 4.82394   7
   0  -5 -13 6.26827 4.40486   9
   0  -5 -13 7.93770 4.65907   2
   0  -5  13 6.86996 3.36577   8
   0   5  13 6.21173 7.55071   1
   0   5 -13 1.93458 4.92796   2
   0   5 -13 -1.9759 7.35173   5
   0   5  13 5.11321 4.86249   3
   1  -5  13 4.61920 4.02906   8
  -1  -5 -13 2.52359 4.33296   2
   1  -5  13 -1.2119 4.47046   7
   1  -5  13 1.35964 2.71373   4
  -1  -5 -13 -1.5952 5.59769   9
  -1   5 -13 1.80008 5.31522   5
   1   5  13 -0.5884 3.94015   3
   1   5  13 3.41555 7.95615   1
  -1   5 -13 1.13470 5.51090   2
   2  -5  13 1.51980 5.39459   7
   2  -5  13 5.15881 3.74936   4
  -2  -5 -13 4.54118 4.63006   2
   2  -5  13 14.6789 4.12275   8
  -2  -5 -13 2.06754 6.12409   9
  -2   5 -13 2.20400 8.24654   5
   2   5  13 5.60356 4.74387   3
  -2   5 -13 3.27766 4.67835   2
   2   5  13 1.22332 8.55064   1
  -3  -5 -13 94.4717 9.52585   2
  -3  -5 -13 96.2375 9.13872   9
   3  -5  13 88.1625 9.23036   7
  -3   5 -13 93.7251 10.1034   2
  -3   5 -13 121.615 12.9671   5
   3   5  13 84.9922 10.1854   3
   3   5  13 102.082 10.4891   1
  -4  -5 -13 4.14331 4.83007   9
   4  -5  13 -4.2500 5.63623   6
   4  -5  13 7.62869 8.56488   7
  -4  -5 -13 -0.9647 4.92304   2
  -4   5 -13 2.54656 9.48457   5
  -4   5 -13 1.91650 5.84939   2
   4   5  13 -5.7867 8.15144   3
   5  -5  13 15.8629 7.06869   6
   5  -5  13 6.63291 7.04023   7
  -5  -5 -13 6.04488 5.70978   2
  -5  -5 -13 10.2846 5.33930   9
  -5   5 -13 6.75863 7.36237   5
   5   5  13 7.49846 9.58042   3
  -5   5 -13 2.17573 6.62179   2
  -6  -5 -13 25.0505 7.12478   2
   6  -5  13 24.8221 10.7680   7
   6  -5  13 25.8644 10.3300   6
  -6  -5 -13 28.7480 6.52847   9
  -6   5 -13 23.1059 11.4260   2
   6   5  13 23.4392 8.48009   3
  -6   5 -13 24.9552 8.68929   5
  -7  -6  13 0.38342 8.42040   8
  -7  -6  13 4.97436 6.13933   4
  -7   6  13 4.37538 10.9222   1
   7   6 -13 12.9737 12.6757   3
  -6  -6  13 7.98102 7.87776   8
   6  -6 -13 3.31799 5.74527   9
  -6  -6  13 -1.0833 5.40015   4
   6   6 -13 7.68132 5.89161   5
   6   6 -13 -5.5932 8.05679   3
  -6   6  13 9.11277 10.6029   1
  -6   6  13 0.75860 8.10959   4
  -5  -6  13 46.0555 8.69861   8
  -5  -6  13 42.5492 6.77997   4
   5  -6 -13 44.9899 7.16753   9
   5   6 -13 25.9980 9.08645   5
  -5   6  13 29.4321 9.11671   4
   5   6 -13 45.4224 10.0580   3
  -5   6  13 55.7922 11.8421   1
  -4  -6  13 4.99406 7.93933   8
  -4  -6  13 5.61790 8.91960   4
   4  -6 -13 2.03890 5.08856   9
   4   6 -13 58.3961 30.6556   5
  -4   6  13 -6.3864 6.71348   1
  -4   6  13 0.98776 31.1801   4
   4   6 -13 5.24734 7.72089   3
   3  -6 -13 496.183 23.1565   9
  -3  -6  13 492.927 18.8517   4
  -3  -6  13 490.762 20.6157   8
  -3   6  13 501.023 23.4147   1
   3   6 -13 517.984 24.0918   5
   2  -6 -13 5.61626 7.07466   2
  -2  -6  13 9.38437 6.23587   4
  -2  -6  13 2.62377 4.31806   8
   2  -6 -13 3.26458 4.83274   9
   2   6 -13 6.79685 6.22397   5
  -2   6  13 4.54103 6.41286   1
  -1  -6  13 126.930 10.5992   4
  -1  -6  13 130.582 10.1140   8
   1  -6 -13 99.2723 8.05476   9
   1  -6 -13 111.276 8.76090   2
   1   6 -13 103.124 8.79715   2
   1   6 -13 109.761 10.4169   5
  -1   6  13 133.506 13.0059   1
   0  -6  13 144.049 11.1598   7
   0  -6 -13 132.842 10.6064   2
   0  -6 -13 133.791 9.06038   9
   0  -6  13 149.572 8.62010   8
   0  -6  13 142.409 8.80443   4
   0   6 -13 142.088 11.7929   5
   0   6  13 140.972 13.4332   1
   0   6 -13 121.983 8.85520   2
   0   6  13 122.323 9.19370   3
   1  -6  13 19.7612 6.33198   7
  -1  -6 -13 29.7101 12.3599   2
  -1  -6 -13 24.2618 11.8331   9
   1  -6  13 26.7276 5.09701   8
   1  -6  13 19.9400 3.82824   4
   1   6  13 13.1569 5.05614   3
   1   6  13 14.9853 9.65084   1
  -1   6 -13 20.5620 6.92200   2
  -1   6 -13 16.0841 7.15546   5
  -2  -6 -13 8.01904 6.96234   9
   2  -6  13 8.33961 8.89606   7
  -2  -6 -13 21.5598 7.82401   2
   2   6  13 12.3691 7.62465   3
   2   6  13 16.7197 7.67000   1
  -2   6 -13 8.73171 7.24828   2
  -2   6 -13 13.3862 7.73488   5
   3  -6  13 129.727 18.2261   7
  -3  -6 -13 124.922 9.09967   9
  -3  -6 -13 122.762 9.56555   2
   3   6  13 122.026 10.4553   3
   3   6  13 110.049 12.3020   1
  -3   6 -13 123.672 10.0977   2
  -3   6 -13 136.861 12.8251   5
  -4  -6 -13 5.31625 8.07837   2
   4  -6  13 -3.1748 6.70498   7
  -4  -6 -13 -0.4323 7.40139   9
  -4   6 -13 2.07402 7.91146   5
  -4   6 -13 7.39062 9.05075   2
   4   6  13 7.06285 7.92626   1
   4   6  13 13.5186 24.1473   3
  -5  -6 -13 437.827 16.9015   9
  -5  -6 -13 390.693 19.0162   2
   5  -6  13 377.441 30.4296   7
  -5   6 -13 389.178 25.7703   2
  -5   6 -13 453.608 26.4697   5
   5   6  13 358.334 27.2594   3
   6  -7 -13 17.0812 7.39195   9
  -6  -7  13 16.2661 7.06367   4
  -6  -7  13 7.09040 6.59602   8
  -6   7  13 12.2949 8.71389   1
   6   7 -13 12.8040 10.1642   3
  -5  -7  13 17.0195 8.64983   8
  -5  -7  13 15.6039 8.61459   4
   5  -7 -13 3.77196 9.30385   9
   5   7 -13 15.7945 10.2084   3
  -5   7  13 -2.2782 8.68364   4
  -5   7  13 10.7423 9.04855   1
   5   7 -13 10.7697 9.49715   5
  -4  -7  13 6.33417 5.37462   8
   4  -7 -13 6.38124 5.99927   9
  -4  -7  13 4.04006 5.33074   4
   4   7 -13 3.14396 8.68488   3
   4   7 -13 3.07009 6.91330   5
  -4   7  13 6.31449 8.24697   1
  -3  -7  13 33.1276 7.73671   4
   3  -7 -13 24.1284 8.77326   9
  -3  -7  13 20.7145 5.93863   8
  -3   7  13 23.6667 8.98268   1
   3   7 -13 16.6724 7.83968   5
   3   7 -13 13.2565 8.81809   3
  -2  -7  13 538.284 28.3449   8
  -2  -7  13 537.296 33.1884   4
   2  -7 -13 526.829 26.7397   9
  -2   7  13 521.410 27.7047   1
   2   7 -13 558.451 28.9619   5
   1  -7 -13 -1.4198 7.36504   2
  -1  -7  13 10.9310 4.47614   8
   1  -7 -13 4.26756 5.43454   9
  -1  -7  13 6.40724 4.24001   4
   1   7 -13 -2.0893 6.36849   5
  -1   7  13 6.95720 7.40112   1
   0  -7 -13 30.1255 8.53768   2
   0  -7  13 33.4405 5.08682   4
   0  -7 -13 19.3209 7.87870   9
   0  -7  13 34.4636 5.08750   8
   0   7  13 31.1282 11.5542   1
   0   7 -13 32.0423 10.9082   5
  -1  -7 -13 7.80997 7.68333   2
  -1  -7 -13 4.55627 7.20933   9
   1  -7  13 -3.2344 6.14294   7
  -1   7 -13 -1.1037 6.78644   5
   1   7  13 -2.6248 4.77238   3
   1   7  13 7.43742 7.34490   1
  -2  -7 -13 278.377 18.6624   2
  -2  -7 -13 285.839 19.7901   9
   2  -7  13 283.455 16.4740   7
   2   7  13 304.121 19.1693   1
  -2   7 -13 288.990 25.0714   5
   2   7  13 275.882 15.3664   3
   3  -7  13 1.98773 7.45960   7
  -3  -7 -13 7.09494 5.85556   2
  -3  -7 -13 -1.9454 5.33723   9
   3   7  13 -6.6572 11.1254   1
   3   7  13 4.67041 9.16449   3
  -3   7 -13 7.18107 11.9795   5
   4  -7  13 164.898 13.2830   7
  -4  -7 -13 157.248 14.3263   2
  -4  -7 -13 171.722 11.9460   9
  -4   7 -13 168.398 14.5282   5
   4   7  13 179.349 14.9992   3
   4   7  13 165.551 17.3748   1
   4  -8 -13 0.07261 21.4463   9
  -4  -8  13 2.72442 8.77364   8
  -4  -8  13 3.32627 6.32054   4
  -4   8  13 -2.4997 12.5767   1
   4   8 -13 -5.1620 13.9301   3
   4   8 -13 6.98335 10.3974   5
  -3  -8  13 18.6799 6.34417   4
  -3  -8  13 20.9926 8.45626   8
   3  -8 -13 15.6676 9.23106   9
   3   8 -13 5.78793 11.6547   5
  -3   8  13 17.5364 12.4001   1
   3   8 -13 19.4589 9.66469   3
  -2  -8  13 -7.1916 7.01692   4
   2  -8 -13 1.42242 5.95281   9
  -2  -8  13 -4.0001 7.17932   8
   2   8 -13 11.5476 9.00480   3
  -2   8  13 0.00000 8.48806   1
   2   8 -13 -1.9329 8.66501   5
   1  -8 -13 8.81872 5.96762   9
  -1  -8  13 2.64684 4.56863   4
  -1  -8  13 -1.6278 6.53687   8
  -1   8  13 8.86860 8.22701   1
   1   8 -13 -1.4243 7.29829   5
   0  -8 -13 24.8765 7.27240   9
   0  -8 -13 22.9181 7.57224   2
   0   8 -13 34.0115 9.33054   5
   0   8  13 27.9053 13.5061   1
  -1  -8 -13 115.813 11.2203   9
  -1  -8 -13 104.773 9.72773   2
   1  -8  13 104.562 13.8842   7
  -1   8 -13 123.529 13.0190   5
   1   8  13 130.436 13.3099   1
  -2  -8 -13 1.49634 6.12960   9
  -2  -8 -13 2.67648 8.47347   2
   2  -8  13 -1.1234 20.2186   7
  -2   8 -13 4.02195 15.4391   5
   2   8  13 2.45655 8.19246   1
 -10   0  14 9.68193 7.70500   1
 -10   0  14 2.83968 8.55645   4
 -10   0  14 5.38425 8.79533   8
  10   0 -14 4.61088 7.71298   6
  -9   0  14 -2.0056 7.08473   4
  -9   0  14 -2.1857 4.89256   8
  -9   0  14 -1.8864 5.77276   1
   9   0 -14 1.85693 6.10352   6
  -8   0  14 216.049 11.8505   1
  -8   0  14 183.401 10.9000   4
  -8   0  14 192.675 11.2831   8
   8   0 -14 228.490 12.3220   6
  -7   0  14 -3.0189 4.15360   1
   7   0 -14 0.83308 6.80468   5
   7   0 -14 -0.8759 4.68384   3
   7   0 -14 -0.8226 4.57857   6
  -7   0  14 -3.3858 4.04381   4
  -7   0  14 0.38873 4.12808   8
  -6   0  14 571.208 21.9498   4
   6   0 -14 595.095 18.1079   6
  -6   0  14 592.148 19.9569   2
   6   0 -14 561.853 36.3739   3
  -6   0  14 543.888 31.1964   9
   6   0 -14 528.169 28.1127   9
   6   0 -14 524.279 29.0702   5
  -6   0  14 590.367 23.1002   1
   5   0 -14 -1.5007 2.85616   3
   5   0 -14 1.85691 3.96302   5
  -5   0  14 -1.7437 2.39521   2
  -5   0  14 -1.7913 3.67398   4
   5   0 -14 -0.8360 1.88732   9
  -5   0  14 -0.4700 4.46237   1
   4   0 -14 126.628 8.38844   5
   4   0 -14 127.270 8.28729   3
  -4   0  14 134.216 7.20869   1
  -4   0  14 135.779 7.36379   2
   4   0 -14 114.697 6.19522   9
  -4   0  14 130.402 9.04080   4
   4   0 -14 123.133 7.55238   2
   3   0 -14 -2.4874 3.70294   3
   3   0 -14 -1.0230 4.57258   1
   3   0 -14 -1.9437 4.07585   7
  -3   0  14 -4.7068 5.25565   4
   3   0 -14 -0.5250 3.53183   5
   3   0 -14 -0.7248 2.14976   2
  -3   0  14 -1.1207 2.28145   2
   3   0 -14 -0.7318 1.96210   9
  -3   0  14 -0.0849 3.80915   1
  -2   0  14 30.3991 4.41336   1
   2   0 -14 19.4570 5.05622   1
   2   0 -14 27.0209 3.55810   7
   2   0 -14 20.0021 3.85481   3
  -2   0  14 21.7600 3.51606   2
   2   0 -14 17.9888 3.07467   9
   2   0 -14 22.6182 5.59766   5
  -2   0  14 32.5587 5.38028   4
   2   0 -14 20.6951 3.41075   2
   1   0 -14 -1.2352 2.78481   6
   1   0 -14 -1.1144 2.62491   2
   1   0 -14 -0.6355 2.49162   9
   1   0 -14 0.23349 3.60906   5
  -1   0  14 -0.3797 3.89041   4
  -1   0  14 -1.5981 2.95766   1
   1   0 -14 -1.9437 2.85368   7
   0   0 -14 26.4508 3.76741   7
   0   0 -14 21.4413 4.70139   9
   0   0 -14 24.2566 4.39689   5
   0   0  14 17.5167 3.93955   3
   0   0 -14 23.0133 2.94130   6
   0   0 -14 16.4776 3.73156   2
   0   0  14 20.8348 6.20498   1
   0   0  14 20.6752 6.15584   4
  -1   0 -14 3.41229 3.29329   7
  -1   0 -14 -0.0777 2.01218   6
   1   0  14 -0.7457 2.52303   7
  -1   0 -14 0.51207 3.13969   2
   1   0  14 2.86285 3.54707   3
  -1   0 -14 -1.0102 3.13495   5
   1   0  14 -4.0977 3.10508   1
   1   0  14 -0.3338 5.39317   4
  -2   0 -14 123.971 7.49007   5
   2   0  14 100.091 8.69853   3
  -2   0 -14 123.202 6.31889   6
   2   0  14 129.753 7.10734   1
  -2   0 -14 115.545 7.44487   2
  -2   0 -14 105.998 8.37206   7
   2   0  14 103.639 7.42041   7
   2   0  14 115.807 8.62845   4
  -3   0 -14 0.67788 5.45724   2
   3   0  14 -0.4493 2.33159   6
   3   0  14 -3.2873 4.18563   3
   3   0  14 8.14835 4.74571   1
   3   0  14 -3.1848 2.33447   7
  -3   0 -14 2.47624 3.11314   6
   4   0  14 89.0712 9.98005   3
   4   0  14 92.8724 7.23010   7
  -4   0 -14 84.7882 9.01952   2
   4   0  14 98.1733 6.29661   6
  -4   0 -14 98.9297 7.84741   5
  -5   0 -14 -3.1410 4.80597   2
  -5   0 -14 3.25463 4.92974   5
   5   0  14 -3.1293 5.56496   3
   5   0  14 -1.0552 5.06862   6
   5   0  14 -0.6612 5.22927   7
   6   0  14 13.0852 5.04835   7
   6   0  14 0.30529 9.06348   3
   6   0  14 9.19132 6.58840   6
  -6   0 -14 12.7049 8.08693   2
  -6   0 -14 18.9399 5.71097   5
   7   0  14 5.71450 7.37293   7
  -7   0 -14 -0.1161 8.15982   2
   7   0  14 -0.3693 6.90237   6
   7   0  14 -8.6009 9.63369   3
   8   0  14 22.5988 12.4523   3
  -8   0 -14 22.7571 7.88896   2
  10  -1 -14 -1.6471 6.76898   6
 -10  -1  14 7.83649 6.68223   1
 -10  -1  14 3.03404 8.78874   8
 -10  -1  14 -1.6351 5.77166   4
 -10   1  14 2.53326 5.79974   8
  10   1 -14 6.75289 10.8610   6
 -10   1  14 1.19037 7.81849   4
 -10   1  14 -0.1180 7.12795   1
  -9  -1  14 47.2059 7.77946   1
  -9  -1  14 28.0712 6.92861   8
  -9  -1  14 33.3602 7.23832   4
   9  -1 -14 47.0968 8.01240   6
  -9   1  14 31.2389 7.33348   1
  -9   1  14 22.9581 8.10347   8
   9   1 -14 42.8932 8.23710   6
  -9   1  14 24.4742 8.09050   4
  -8  -1  14 -1.9310 6.67166   1
  -8  -1  14 -0.3070 4.87538   4
   8  -1 -14 1.23966 7.04456   6
  -8  -1  14 0.46963 6.82912   8
   8   1 -14 -0.9954 5.42450   6
   8   1 -14 3.96651 6.56439   3
  -8   1  14 3.03169 6.44493   8
  -8   1  14 -0.4727 4.95263   1
  -8   1  14 -0.9440 6.16275   4
   8   1 -14 4.81613 36.0077   5
   7  -1 -14 17.7857 3.81668   3
  -7  -1  14 11.9882 6.61418   4
  -7  -1  14 24.9218 5.29430   1
   7  -1 -14 16.9948 4.98937   6
  -7  -1  14 14.5840 5.20445   8
   7   1 -14 32.5854 7.97861   6
  -7   1  14 16.2621 5.39296   1
  -7   1  14 13.7172 4.94181   4
   7   1 -14 24.4854 6.58519   3
   7   1 -14 7.39646 6.76572   5
   6  -1 -14 25.5986 3.88365   3
  -6  -1  14 22.5021 5.06333   4
   6  -1 -14 32.4880 5.03909   6
   6  -1 -14 21.0703 5.45964   5
   6  -1 -14 22.8927 4.66081   9
  -6  -1  14 30.9015 4.79790   1
  -6  -1  14 18.6662 6.45457   8
   6   1 -14 32.3523 6.41810   3
   6   1 -14 23.9165 7.06500   5
  -6   1  14 30.2228 7.02572   1
  -6   1  14 20.6009 5.05936   4
  -5  -1  14 125.909 7.81609   1
   5  -1 -14 139.607 8.94615   5
   5  -1 -14 141.179 6.89997   9
   5  -1 -14 139.831 8.07808   6
  -5  -1  14 122.422 8.98478   4
   5  -1 -14 140.204 9.58639   3
   5  -1 -14 144.333 7.37752   3
  -5  -1  14 151.733 5.83167   2
  -5   1  14 151.601 9.54904   1
  -5   1  14 144.841 8.79257   4
   5   1 -14 139.555 9.96072   5
   5   1 -14 130.118 6.85296   9
  -4  -1  14 496.914 17.7023   2
   4  -1 -14 445.875 19.7075   5
  -4  -1  14 496.966 19.1238   4
   4  -1 -14 470.169 19.5830   2
   4  -1 -14 473.893 17.8698   9
   4  -1 -14 481.428 25.5930   3
  -4  -1  14 498.655 16.6026   1
   4  -1 -14 501.712 19.7200   6
   4   1 -14 507.951 16.2567   5
  -4   1  14 506.300 16.3647   4
  -4   1  14 513.103 19.5717   1
   4   1 -14 473.692 31.2081   1
   4   1 -14 482.451 26.9538   2
   4   1 -14 490.712 18.0694   9
   3  -1 -14 -2.2874 3.51744   2
   3  -1 -14 -2.0073 5.12942   5
  -3  -1  14 -1.5672 2.74673   2
  -3  -1  14 -3.3107 2.84515   1
   3  -1 -14 -3.1883 3.40605   9
  -3  -1  14 -3.1879 4.78438   4
   3  -1 -14 1.43312 2.43092   3
   3   1 -14 1.17471 2.62680   2
   3   1 -14 -3.6300 4.89560   5
  -3   1  14 -2.1739 4.17305   4
  -3   1  14 -3.6945 4.37323   1
   3   1 -14 1.43774 3.01068   1
   3   1 -14 2.41543 2.59678   9
   2  -1 -14 -1.8936 2.65368   2
   2  -1 -14 2.34100 2.84508   7
   2  -1 -14 -0.7355 3.35015   5
   2  -1 -14 -1.3802 2.69080   3
   2  -1 -14 -0.1560 3.68448   9
  -2  -1  14 1.12710 3.65153   4
  -2  -1  14 0.41352 2.68565   1
  -2  -1  14 -4.1947 3.28237   2
   2  -1 -14 1.72279 3.82203   1
   2   1 -14 0.20118 3.08188   2
  -2   1  14 0.86012 4.05230   4
  -2   1  14 -0.9037 4.22909   1
   2   1 -14 -2.0972 2.95565   7
   2   1 -14 1.15546 5.05137   5
   2   1 -14 0.85132 3.40268   1
   2   1 -14 -1.3750 3.02508   9
   1  -1 -14 366.060 13.8073   9
  -1  -1  14 374.343 12.2861   1
   1  -1 -14 359.606 12.5211   5
  -1  -1  14 379.703 12.8812   4
   1  -1 -14 383.485 26.0783   7
   1  -1 -14 373.599 15.1984   3
  -1  -1  14 388.814 15.0256   2
   1  -1 -14 384.894 14.6862   6
   1  -1 -14 378.847 11.9036   2
  -1   1  14 397.677 13.9686   4
   1   1 -14 352.291 13.2068   5
   1   1 -14 391.442 12.0078   2
   1   1 -14 358.205 22.4222   6
   1   1 -14 383.836 29.3620   7
  -1   1  14 364.271 15.3545   1
  -1   1  14 369.076 11.6882   3
   1   1 -14 365.621 11.9947   9
   0  -1 -14 22.9039 3.89850   9
   0  -1 -14 16.5113 3.89092   2
   0  -1 -14 14.7011 2.29765   6
   0  -1 -14 22.2090 2.56900   7
   0  -1  14 24.0897 2.70770   1
   0  -1  14 17.6275 5.67282   4
   0  -1 -14 16.1812 3.90865   5
   0   1 -14 22.1894 4.46634   6
   0   1 -14 16.6986 3.59631   2
   0   1  14 17.7672 3.88945   3
   0   1  14 24.9747 6.68543   4
   0   1  14 20.5378 4.62350   1
   0   1 -14 22.2891 5.85161   5
   0   1 -14 21.7397 3.71640   7
   1  -1  14 33.7468 4.54541   7
  -1  -1 -14 38.6864 7.80728   5
   1  -1  14 53.5972 8.98839   4
  -1  -1 -14 40.7164 3.22540   7
  -1  -1 -14 34.9701 4.60965   9
   1  -1  14 42.6758 2.87578   1
   1  -1  14 27.9564 5.05034   3
  -1  -1 -14 36.1311 4.86096   2
   1  -1  14 42.5103 3.41578   1
  -1  -1 -14 42.4259 3.17434   6
  -1   1 -14 42.3737 6.52855   5
  -1   1 -14 44.8078 5.30116   7
   1   1  14 39.2772 5.13552   3
  -1   1 -14 32.3817 5.56514   2
  -1   1 -14 40.6399 5.05346   6
   1   1  14 46.1631 4.79623   1
  -2  -1 -14 11.7280 4.32392   2
   2  -1  14 7.56692 2.66203   1
   2  -1  14 8.21631 4.40259   3
   2  -1  14 10.9286 5.30817   4
  -2  -1 -14 12.0924 4.53497   5
  -2  -1 -14 11.7554 2.72651   6
   2  -1  14 5.44570 3.98817   7
   2  -1  14 12.7555 3.18553   1
  -2   1 -14 18.5045 5.75598   5
   2   1  14 8.18680 2.39486   7
  -2   1 -14 11.3578 5.34110   2
   2   1  14 14.0490 3.90234   1
   2   1  14 12.0502 4.62914   3
   3  -1  14 623.484 20.9366   7
  -3  -1 -14 614.149 25.3212   5
  -3  -1 -14 626.959 19.8137   2
   3  -1  14 629.691 23.8565   3
   3  -1  14 630.098 29.7010   6
   3  -1  14 626.518 24.8913   4
  -3  -1 -14 629.261 34.6048   6
   3  -1  14 649.224 24.9783   1
   3   1  14 597.927 32.2022   7
  -3   1 -14 646.909 24.2881   5
  -3   1 -14 636.400 24.4835   2
   3   1  14 602.162 44.8254   6
   3   1  14 642.025 27.6498   3
   4  -1  14 19.2539 5.64665   4
  -4  -1 -14 15.4072 5.06932   2
   4  -1  14 12.2714 5.72018   7
  -4  -1 -14 19.8407 3.74087   5
   4  -1  14 16.9865 4.34763   6
   4  -1  14 19.2849 5.84523   3
   4   1  14 10.1825 4.09062   7
  -4   1 -14 17.7542 4.87862   5
   4   1  14 10.1290 3.87517   6
   4   1  14 19.8611 7.87228   3
  -4   1 -14 12.9602 5.32968   2
  -5  -1 -14 3.98932 4.99824   2
   5  -1  14 8.03553 4.77589   7
   5  -1  14 13.6784 4.40648   4
  -5  -1 -14 20.4586 6.30297   5
   5  -1  14 10.4786 6.02538   3
   5  -1  14 10.6456 6.45867   6
   5   1  14 5.65537 4.79786   6
  -5   1 -14 7.27279 5.60708   2
   5   1  14 13.8688 6.24876   3
   5   1  14 5.37460 4.78507   7
   6  -1  14 2.47196 5.01287   7
  -6  -1 -14 -0.9516 7.72959   2
   6  -1  14 -0.3426 4.88178   6
   6  -1  14 -7.6210 8.71215   3
  -6   1 -14 -2.5002 4.33796   5
   6   1  14 -3.3371 6.24132   3
  -6   1 -14 1.96239 5.76938   2
   7  -1  14 165.327 12.6037   6
  -7  -1 -14 175.152 13.5487   2
   7  -1  14 152.151 11.9164   7
   7  -1  14 151.239 13.4305   3
   7   1  14 143.916 12.3681   3
  -7   1 -14 140.277 11.5267   2
  -7   1 -14 162.075 15.2617   5
  -8  -1 -14 -2.3737 9.15562   2
   8  -1  14 1.54242 8.85355   7
   8  -1  14 0.68061 7.93961   3
   8  -1  14 -0.8018 5.84619   6
  -8   1 -14 -0.4970 9.37397   2
   8   1  14 1.42242 7.74942   3
 -10  -2  14 21.6351 7.97843   1
 -10  -2  14 18.9105 7.63212   4
 -10  -2  14 20.3738 10.1416   8
  10  -2 -14 16.4636 8.18092   6
 -10   2  14 21.5129 9.70021   1
  10   2 -14 18.1681 9.14357   6
  -9  -2  14 51.4368 8.08383   4
   9  -2 -14 67.4026 8.53531   6
  -9  -2  14 53.6820 8.17545   8
  -9  -2  14 79.6415 8.73110   1
   9   2 -14 72.3582 10.9553   3
  -9   2  14 54.9333 10.9724   1
   9   2 -14 83.2536 10.2251   6
  -9   2  14 42.4228 8.43307   4
  -9   2  14 68.4745 7.87179   8
  -8  -2  14 209.552 14.0093   4
  -8  -2  14 215.688 12.1629   8
   8  -2 -14 210.086 12.9876   6
  -8  -2  14 223.723 23.6471   1
   8   2 -14 247.409 14.3169   6
  -8   2  14 195.899 13.0861   4
  -8   2  14 232.957 13.1514   1
   8   2 -14 228.334 17.7498   3
   8   2 -14 194.130 15.0602   5
  -7  -2  14 39.2390 8.18515   1
   7  -2 -14 37.0110 5.65570   6
  -7  -2  14 29.6985 7.59094   4
  -7  -2  14 33.9901 7.70935   8
  -7   2  14 32.5294 8.39589   1
  -7   2  14 37.5184 5.98024   4
   7   2 -14 37.8307 6.55883   5
   7   2 -14 33.8056 8.44299   3
   6  -2 -14 244.158 10.5424   6
  -6  -2  14 232.661 9.98098   1
   6  -2 -14 218.168 10.4201   9
  -6  -2  14 209.950 11.9755   8
  -6  -2  14 211.497 10.9621   4
  -6   2  14 220.570 13.1012   1
   6   2 -14 219.190 14.0375   5
   6   2 -14 243.369 13.1052   3
  -6   2  14 212.510 12.9853   4
   5  -2 -14 34.8059 5.23242   9
   5  -2 -14 42.8099 5.39756   6
  -5  -2  14 38.6277 5.58617   4
  -5  -2  14 45.5744 4.73022   1
   5  -2 -14 36.5647 2.87726   3
  -5  -2  14 45.8407 5.93971   8
  -5   2  14 47.0114 6.52850   1
  -5   2  14 40.5137 6.03104   4
   5   2 -14 44.6418 6.22941   5
  -4  -2  14 287.046 12.4332   8
  -4  -2  14 271.953 10.5664   1
   4  -2 -14 272.956 11.8875   5
   4  -2 -14 266.658 13.4239   3
   4  -2 -14 283.439 11.4297   6
   4  -2 -14 271.196 13.2671   9
  -4  -2  14 286.888 11.5075   4
   4  -2 -14 260.319 12.7333   2
   4   2 -14 279.842 11.2793   9
   4   2 -14 262.419 16.9379   1
   4   2 -14 277.539 13.6143   5
   4   2 -14 286.246 16.6987   2
  -4   2  14 285.157 14.4457   1
  -4   2  14 272.118 15.3468   4
   3  -2 -14 -0.7144 4.27530   2
   3  -2 -14 4.45135 2.76830   6
  -3  -2  14 4.35887 2.64296   1
  -3  -2  14 0.78234 3.36839   4
   3  -2 -14 4.69245 2.12250   3
   3  -2 -14 3.94725 3.54982   5
   3  -2 -14 0.34539 2.85388   9
  -3   2  14 3.62290 6.13171   4
  -3   2  14 0.67136 3.72373   1
   3   2 -14 0.99247 2.42996   2
   3   2 -14 2.30361 3.60181   1
   3   2 -14 0.56083 2.22066   9
   3   2 -14 0.90083 3.91776   5
   2  -2 -14 1.95676 3.15302   2
   2  -2 -14 -1.4846 4.00742   9
   2  -2 -14 -0.3164 1.82799   6
   2  -2 -14 1.77560 2.13275   7
   2  -2 -14 4.25481 3.29339   3
  -2  -2  14 -0.4019 3.02659   4
  -2  -2  14 -0.6600 1.96414   1
   2  -2 -14 3.37422 3.36074   5
   2   2 -14 -0.9010 2.14871   1
  -2   2  14 -1.4663 3.40756   1
   2   2 -14 0.61942 2.88703   2
   2   2 -14 2.09663 3.93070   5
  -2   2  14 -5.3602 6.06023   4
   2   2 -14 0.68933 2.84695   9
  -1  -2  14 957.551 31.7921   1
   1  -2 -14 1012.79 31.9859   6
   1  -2 -14 1019.28 27.4409   2
   1  -2 -14 1035.75 42.4144   7
  -1  -2  14 1022.28 36.8483   4
   1  -2 -14 975.633 29.6821   5
   1  -2 -14 974.703 50.2660   3
   1  -2 -14 1052.25 41.5194   6
   1  -2 -14 1056.77 33.3125   9
   1   2 -14 1029.78 25.9906   2
  -1   2  14 1026.59 36.2734   1
  -1   2  14 990.709 51.5593   3
   1   2 -14 1099.07 40.5248   5
   0  -2 -14 1264.67 40.2109   9
   0  -2 -14 1215.12 32.2925   5
   0  -2  14 1239.39 41.3593   4
   0  -2  14 1271.61 35.9288   7
   0  -2 -14 1276.69 34.5380   2
   0  -2 -14 1121.24 31.8758   6
   0  -2 -14 1151.20 33.5727   6
   0   2  14 1275.13 39.1013   1
   0   2  14 1241.05 46.0257   3
   0   2 -14 1202.81 44.3432   2
   0   2 -14 1271.53 51.5030   5
  -1  -2 -14 6.22772 3.76192   2
   1  -2  14 3.15009 0.72227   1
  -1  -2 -14 3.56894 3.04012   5
   1  -2  14 3.80898 0.62122   1
  -1  -2 -14 1.79556 3.39415   9
   1  -2  14 5.66917 3.35444   4
   1  -2  14 -1.6811 4.23362   7
  -1   2 -14 2.97439 3.30188   2
   1   2  14 3.53383 3.72157   3
  -1   2 -14 0.45373 4.06901   5
   1   2  14 8.46743 24.5500   1
   2  -2  14 425.158 19.9622   1
  -2  -2 -14 426.071 16.0223   5
  -2  -2 -14 419.125 18.6201   2
   2  -2  14 425.596 16.5095   7
  -2  -2 -14 416.943 17.9797   9
   2  -2  14 437.830 19.6492   1
  -2  -2 -14 430.408 16.4338   6
   2  -2  14 414.084 14.9592   4
  -2   2 -14 439.623 20.4065   5
  -2   2 -14 448.029 17.6293   2
   2   2  14 456.946 19.8529   1
   2   2  14 455.759 16.0086   3
  -3  -2 -14 242.578 12.0871   6
  -3  -2 -14 262.353 13.2152   2
  -3  -2 -14 249.227 10.5070   5
   3  -2  14 252.893 10.4526   4
   3  -2  14 259.723 13.4465   3
   3  -2  14 253.900 9.76855   1
   3  -2  14 259.312 11.3788   7
   3  -2  14 247.489 11.3142   6
  -3  -2 -14 256.963 11.5674   9
   3   2  14 229.383 12.8263   7
   3   2  14 252.748 13.4104   3
  -3   2 -14 271.800 14.4617   5
  -3   2 -14 263.629 11.6632   2
   4  -2  14 1.11747 5.79407   7
   4  -2  14 3.60443 3.98987   6
   4  -2  14 -3.6293 4.78426   3
  -4  -2 -14 -2.1064 3.33848   5
  -4  -2 -14 -1.8482 6.26559   2
   4  -2  14 0.93159 4.07318   4
  -4   2 -14 -2.0787 4.50488   5
   4   2  14 2.31897 5.41798   3
  -4   2 -14 -4.6467 6.41388   2
  -5  -2 -14 231.106 16.0618   5
   5  -2  14 226.441 13.0342   3
   5  -2  14 234.916 12.7739   7
  -5  -2 -14 255.461 13.6523   2
   5  -2  14 219.092 12.5434   4
   5  -2  14 220.428 12.8493   6
  -5   2 -14 225.383 12.4813   2
  -5   2 -14 243.738 13.4489   5
   5   2  14 214.376 14.8785   3
   6  -2  14 193.490 12.9515   6
   6  -2  14 203.708 14.6066   3
  -6  -2 -14 213.512 12.2636   2
   6  -2  14 209.596 14.2961   7
  -6   2 -14 197.146 13.7449   2
   6   2  14 189.574 15.1428   3
  -6   2 -14 198.648 12.5271   5
  -7  -2 -14 8.18636 8.72400   2
   7  -2  14 5.57571 7.26734   3
   7  -2  14 7.96219 8.36041   6
   7  -2  14 6.26748 8.73450   7
   7   2  14 0.34994 10.5652   3
  -7   2 -14 5.11436 9.04376   2
  -7   2 -14 14.0752 5.92444   5
   8  -2  14 -1.6264 9.38527   6
  -8  -2 -14 -0.0325 8.99230   2
   8  -2  14 -3.4740 7.02220   7
   8  -2  14 -1.1846 7.48760   3
   8   2  14 4.96446 8.25940   3
  -8   2 -14 7.65906 6.83602   2
   9  -3 -14 112.887 11.7595   6
  -9  -3  14 89.7037 9.76125   4
  -9  -3  14 120.190 13.7932   1
  -9  -3  14 97.6557 11.7976   8
  -9   3  14 82.5955 8.42075   4
   9   3 -14 120.584 13.5140   3
   9   3 -14 108.291 11.7406   6
  -9   3  14 72.3605 8.03667   8
  -9   3  14 73.6135 14.6491   1
  -8  -3  14 11.0280 5.33407   1
  -8  -3  14 13.6811 8.01369   8
  -8  -3  14 3.02341 5.51232   4
   8  -3 -14 9.43837 5.44285   6
  -8   3  14 11.1843 6.64853   1
   8   3 -14 14.5240 9.66578   3
  -8   3  14 4.05639 4.77048   4
   8   3 -14 7.02385 5.60157   5
   7  -3 -14 113.552 8.01010   6
   7  -3 -14 96.9951 7.85961   9
  -7  -3  14 103.467 10.2833   8
  -7  -3  14 107.721 9.06832   4
  -7  -3  14 122.929 9.21726   1
  -7   3  14 119.894 10.0707   1
   7   3 -14 125.778 10.4733   3
  -7   3  14 87.7370 9.21104   4
   7   3 -14 97.3290 10.1843   5
   6  -3 -14 1.80302 4.82200   6
   6  -3 -14 -2.9327 5.45409   9
  -6  -3  14 5.93314 3.70558   1
  -6  -3  14 1.42006 6.00936   8
  -6  -3  14 1.15623 5.98728   4
  -6   3  14 -1.4581 4.33843   4
   6   3 -14 -0.2419 5.54571   3
   6   3 -14 3.82327 4.82838   5
  -6   3  14 -1.2569 4.96938   1
  -5  -3  14 393.364 17.5772   8
  -5  -3  14 384.291 18.0874   1
  -5  -3  14 389.909 15.2192   4
   5  -3 -14 396.179 19.6206   9
   5  -3 -14 409.693 19.5069   6
  -5   3  14 415.021 16.7360   4
   5   3 -14 408.939 23.6954   3
   5   3 -14 419.079 17.9886   5
  -5   3  14 401.894 33.2878   1
   4  -3 -14 310.035 10.4346   3
  -4  -3  14 312.954 14.8319   1
  -4  -3  14 313.376 13.3980   4
   4  -3 -14 322.197 17.5479   2
   4  -3 -14 338.339 15.7970   9
  -4  -3  14 318.705 14.2793   8
   4  -3 -14 301.733 15.1593   6
   4   3 -14 346.792 14.3076   5
  -4   3  14 340.697 16.7901   1
  -4   3  14 313.545 15.1212   4
   3  -3 -14 242.443 9.92540   9
  -3  -3  14 227.248 11.4380   8
  -3  -3  14 239.700 10.6661   4
   3  -3 -14 243.356 9.57390   6
   3  -3 -14 243.840 10.4697   2
  -3  -3  14 215.394 10.9484   1
   3  -3 -14 225.744 13.8875   3
   3   3 -14 228.636 9.45592   9
   3   3 -14 259.100 14.0344   5
  -3   3  14 252.743 12.3355   1
  -3   3  14 239.239 11.8280   4
   3   3 -14 225.034 13.2489   2
  -2  -3  14 8.59453 3.72148   8
   2  -3 -14 10.4576 3.98234   2
   2  -3 -14 14.0003 3.42142   3
   2  -3 -14 14.0765 1.82105   7
   2  -3 -14 14.5278 1.75093   6
   2  -3 -14 16.6732 2.05483   7
   2  -3 -14 13.1971 5.33299   5
   2  -3 -14 3.67877 3.50837   9
  -2  -3  14 17.5518 5.16403   4
  -2   3  14 10.2057 5.10627   4
   2   3 -14 9.53919 3.08369   2
   2   3 -14 12.3916 4.99486   5
  -2   3  14 9.47757 2.42929   3
  -2   3  14 11.8345 4.96287   1
   2   3 -14 8.18992 1.69929   1
   1  -3 -14 556.205 31.8729   3
  -1  -3  14 555.569 22.2196   4
   1  -3 -14 590.843 24.3833   9
   1  -3 -14 583.761 23.2631   5
   1  -3 -14 609.581 22.8269   2
   1   3 -14 581.617 21.8127   2
  -1   3  14 626.479 25.0407   1
  -1   3  14 568.715 21.8310   3
   1   3 -14 575.208 37.6243   5
   0  -3 -14 2.44265 3.11262   5
   0  -3  14 1.20232 3.07585   4
   0  -3 -14 4.76048 4.01639   2
   0  -3  14 -0.7672 5.19046   7
   0  -3 -14 0.56092 5.00392   9
   0   3 -14 -0.5743 4.14253   2
   0   3 -14 2.49833 4.42813   5
   0   3  14 4.42433 4.16521   1
   0   3  14 2.65776 3.29681   3
  -1  -3 -14 63.8206 5.18266   5
  -1  -3 -14 40.3924 6.29751   9
  -1  -3 -14 54.0665 7.11959   2
   1  -3  14 47.5520 6.81913   7
   1  -3  14 48.8668 5.49432   4
  -1   3 -14 49.0466 6.44187   2
   1   3  14 49.3186 7.01941   3
   1   3  14 49.6474 6.50790   1
  -1   3 -14 52.1199 8.23209   5
   2  -3  14 55.8654 5.47856   4
  -2  -3 -14 63.1157 6.53403   2
   2  -3  14 58.3222 6.44455   7
  -2  -3 -14 65.5541 5.72214   5
  -2  -3 -14 51.4822 7.07289   9
  -2   3 -14 63.2658 6.45156   2
   2   3  14 65.0354 6.83816   3
   2   3  14 72.6809 7.71410   1
  -2   3 -14 59.8649 7.44237   5
  -3  -3 -14 2.79799 5.68654   9
  -3  -3 -14 6.12850 4.64421   2
   3  -3  14 6.00605 3.81501   4
   3  -3  14 8.70857 4.61621   7
  -3  -3 -14 5.55175 3.48050   5
   3   3  14 10.1263 5.35088   3
  -3   3 -14 8.77966 7.43080   5
  -3   3 -14 11.3158 4.80891   2
  -4  -3 -14 2.61381 4.29155   9
   4  -3  14 -0.8588 4.73952   7
  -4  -3 -14 4.54437 4.74379   2
  -4  -3 -14 4.21045 3.22562   5
   4  -3  14 -0.3928 3.23188   4
   4  -3  14 -1.4207 6.23314   6
  -4   3 -14 -1.0126 4.67546   2
   4   3  14 0.09071 7.94103   3
  -4   3 -14 4.07379 7.45624   5
  -5  -3 -14 220.225 11.8008   2
  -5  -3 -14 211.256 11.2092   9
   5  -3  14 204.920 12.4524   7
   5  -3  14 185.531 12.8723   6
   5   3  14 208.941 13.3396   3
  -5   3 -14 247.856 13.0843   2
  -5   3 -14 222.326 13.7994   5
  -6  -3 -14 86.3053 8.93492   2
   6  -3  14 81.0253 9.65588   7
   6  -3  14 79.9461 9.70447   3
   6  -3  14 75.5028 9.00058   6
  -6  -3 -14 68.7518 9.74222   9
  -6   3 -14 62.7655 8.86561   2
   6   3  14 68.5349 12.2192   3
  -7  -3 -14 50.4710 8.18113   2
   7  -3  14 38.3621 8.99710   7
   7  -3  14 44.7414 8.93939   6
  -7  -3 -14 56.2916 7.99464   9
   7  -3  14 51.1870 9.59131   3
   7   3  14 53.2563 9.83003   3
  -7   3 -14 44.8103 11.3984   2
  -7   3 -14 55.5592 8.49199   5
  -9  -4  14 -3.8035 8.84530   8
   9  -4 -14 2.00709 9.37370   6
  -9  -4  14 2.41839 9.21010   4
   9  -4 -14 7.79026 7.03318   7
   9   4 -14 2.13491 12.3656   3
  -9   4  14 2.22303 7.44067   1
   9   4 -14 17.6514 8.71055   6
  -8  -4  14 28.5842 7.21727   4
   8  -4 -14 37.5858 6.98185   6
  -8  -4  14 26.8575 6.95834   8
  -8   4  14 26.1878 7.93064   4
   8   4 -14 42.9753 11.9110   3
  -8   4  14 28.8756 8.48697   1
   8   4 -14 35.6877 7.05584   5
  -7  -4  14 36.1062 6.93129   8
   7  -4 -14 67.0834 6.95421   6
   7  -4 -14 50.9563 7.20999   9
   7  -4 -14 54.8462 8.08808   7
  -7  -4  14 54.8091 7.51769   4
   7   4 -14 36.9991 8.56659   5
  -7   4  14 51.4202 10.9477   1
   7   4 -14 65.5872 12.5195   3
  -7   4  14 38.5550 8.25944   4
   6  -4 -14 153.305 9.10078   6
  -6  -4  14 163.210 11.5159   4
  -6  -4  14 158.155 10.2847   8
   6  -4 -14 155.971 11.0915   7
   6  -4 -14 138.255 9.15999   9
  -6   4  14 149.490 10.1023   4
   6   4 -14 138.341 13.7144   3
   6   4 -14 138.116 11.3808   5
  -6   4  14 178.284 20.5736   1
   5  -4 -14 54.9222 5.80766   7
   5  -4 -14 56.3500 7.48996   6
  -5  -4  14 49.4305 6.62355   4
   5  -4 -14 49.4414 6.08982   9
  -5  -4  14 45.1771 6.54004   8
   5   4 -14 48.2019 7.12561   5
  -5   4  14 49.2888 7.28975   4
   5   4 -14 42.8523 7.90197   3
  -5   4  14 64.1495 8.50607   1
   4  -4 -14 294.496 16.0640   9
   4  -4 -14 314.541 19.3621   6
  -4  -4  14 295.882 13.1163   4
  -4  -4  14 304.231 15.3341   8
   4  -4 -14 301.116 16.2036   7
  -4   4  14 307.018 18.4157   1
   4   4 -14 330.174 15.4443   5
  -4   4  14 295.207 16.7279   4
   3  -4 -14 56.4108 6.07309   9
   3  -4 -14 41.6047 3.38975   6
   3  -4 -14 67.7343 6.65326   2
  -3  -4  14 58.3964 7.20699   8
   3  -4 -14 49.2760 4.36739   7
  -3  -4  14 70.0009 7.48146   4
  -3   4  14 54.9020 8.99271   4
   3   4 -14 56.9438 8.83619   5
  -2  -4  14 214.432 11.2231   8
   2  -4 -14 192.863 10.8372   9
  -2  -4  14 204.050 9.56202   4
   2  -4 -14 197.620 15.3288   3
   2  -4 -14 204.133 11.7189   2
   2   4 -14 209.572 11.9431   5
   2   4 -14 217.306 7.69975   2
  -2   4  14 211.494 13.3326   1
  -2   4  14 207.233 12.6662   3
   1  -4 -14 86.7969 7.85597   9
   1  -4 -14 79.4786 7.39072   3
  -1  -4  14 104.996 6.86557   4
   1  -4 -14 95.8502 7.50031   2
  -1  -4  14 95.1836 7.42471   8
  -1   4  14 90.7913 9.82914   1
  -1   4  14 82.8803 6.18552   3
   1   4 -14 80.8377 6.09408   2
   1   4 -14 73.1270 9.46904   5
   0  -4 -14 43.5235 6.66420   9
   0  -4 -14 40.0700 7.09031   2
   0  -4  14 37.8636 5.57242   4
   0  -4  14 46.7490 5.80177   8
   0  -4  14 35.7907 7.40787   7
   0   4 -14 45.5304 7.19202   5
   0   4 -14 36.6471 5.71596   2
   0   4  14 43.9636 6.74704   1
   0   4  14 41.9144 5.19294   3
  -1  -4 -14 30.7040 5.45227   9
   1  -4  14 35.1257 4.33485   8
   1  -4  14 31.2563 5.83528   7
  -1  -4 -14 38.3128 5.99490   2
   1  -4  14 42.2411 4.47665   4
  -1   4 -14 29.4033 6.25283   2
   1   4  14 37.1746 5.70930   3
   1   4  14 38.6983 8.74735   1
  -1   4 -14 39.0377 8.74955   5
   2  -4  14 2.96547 2.72364   8
  -2  -4 -14 -2.5047 5.97761   2
  -2  -4 -14 3.70009 4.31082   9
   2  -4  14 2.97671 2.60853   4
   2  -4  14 3.40670 4.75946   7
  -2   4 -14 6.30148 5.80430   5
  -2   4 -14 0.37446 5.90064   2
   2   4  14 1.68310 6.44698   3
   2   4  14 4.39113 5.85276   1
   3  -4  14 70.5229 9.34447   7
  -3  -4 -14 64.1064 6.83213   9
   3  -4  14 67.8057 5.06405   4
   3  -4  14 70.6771 5.31332   8
  -3  -4 -14 58.6794 7.05810   2
  -3   4 -14 72.3053 8.70377   5
  -3   4 -14 62.6012 7.35784   2
   3   4  14 79.6398 8.25962   3
   4  -4  14 354.684 16.0751   6
  -4  -4 -14 372.925 15.6934   2
   4  -4  14 377.075 22.6118   7
  -4  -4 -14 345.455 17.2571   9
  -4   4 -14 377.433 18.2427   5
  -4   4 -14 369.350 16.4596   2
   4   4  14 349.171 17.4926   3
   5  -4  14 30.5343 7.13413   6
  -5  -4 -14 29.1333 8.44826   2
  -5  -4 -14 24.0627 8.10379   9
   5  -4  14 25.4579 9.54469   7
   5   4  14 32.3559 10.4123   3
  -5   4 -14 28.6769 7.43486   2
  -5   4 -14 31.9598 10.4173   5
   6  -4  14 125.042 11.4495   6
   6  -4  14 133.564 12.1548   7
  -6  -4 -14 157.233 10.3430   9
  -6  -4 -14 138.165 12.2621   2
  -6   4 -14 143.303 13.6846   2
   6   4  14 121.597 12.2489   3
  -6   4 -14 138.366 14.2677   5
  -7  -4 -14 7.41709 6.55847   2
  -7  -4 -14 0.59758 6.38516   9
   7  -4  14 2.64465 8.05233   7
   7  -4  14 -2.5781 9.97089   6
  -7   4 -14 24.9822 10.9027   5
   7   4  14 3.09146 8.53729   3
  -7   4 -14 4.32516 7.51491   2
   8  -5 -14 2.42582 5.94523   7
  -8  -5  14 3.75708 6.13393   4
  -8  -5  14 0.86300 8.68417   8
   8  -5 -14 2.96638 5.48771   6
  -8   5  14 3.55764 7.65080   1
   8   5 -14 2.01441 12.1297   3
   7  -5 -14 58.7028 10.4149   6
   7  -5 -14 62.2812 8.64537   7
  -7  -5  14 47.6374 7.81512   8
  -7  -5  14 33.7313 7.25244   4
  -7   5  14 47.2859 7.34133   4
   7   5 -14 41.1437 9.33088   5
  -7   5  14 61.9407 9.66231   1
   7   5 -14 54.0691 13.1428   3
  -6  -5  14 -8.6903 7.13802   4
   6  -5 -14 -4.7270 7.51462   9
   6  -5 -14 0.69495 5.76099   7
   6  -5 -14 2.37807 5.12044   6
  -6  -5  14 5.65649 5.29391   8
  -6   5  14 -4.8114 5.27416   4
   6   5 -14 0.04061 7.66201   5
   6   5 -14 -3.2901 7.93240   3
  -6   5  14 4.20243 6.99598   1
   5  -5 -14 36.2580 5.13663   6
  -5  -5  14 33.6966 7.61128   4
   5  -5 -14 23.5574 5.83347   9
   5  -5 -14 34.5812 5.48139   7
  -5  -5  14 26.4034 7.60967   8
  -5   5  14 25.4009 29.8774   4
  -5   5  14 39.7524 8.09973   1
   5   5 -14 24.4688 7.98905   3
   5   5 -14 29.6067 6.75161   5
   4  -5 -14 32.5194 5.91671   9
  -4  -5  14 30.4064 5.87569   4
  -4  -5  14 29.0985 7.23937   8
   4   5 -14 19.0716 6.43832   5
  -4   5  14 25.0138 7.40824   1
  -4   5  14 30.8359 7.10515   4
   3  -5 -14 7.03979 5.09496   2
  -3  -5  14 0.91934 5.90327   4
  -3  -5  14 1.44914 5.75819   8
   3  -5 -14 4.57231 4.52767   9
   3   5 -14 3.73684 5.45599   5
  -3   5  14 7.98053 8.54700   1
   2  -5 -14 24.9217 5.46677   2
   2  -5 -14 24.8098 5.19749   9
  -2  -5  14 21.0378 6.18061   4
  -2  -5  14 23.0854 4.89887   8
  -2   5  14 20.0362 6.61217   1
   2   5 -14 24.2284 6.75349   5
  -1  -5  14 82.2731 7.46860   8
  -1  -5  14 85.8755 6.63602   4
   1  -5 -14 86.0283 7.62028   2
   1  -5 -14 81.5878 7.22630   9
  -1   5  14 67.1124 6.06790   3
  -1   5  14 91.7802 10.9161   1
   1   5 -14 83.8446 9.13521   5
   1   5 -14 71.6224 6.08848   2
   0  -5 -14 43.5291 7.92757   2
   0  -5  14 42.5643 5.08046   4
   0  -5  14 36.4511 6.93681   7
   0  -5 -14 33.2867 7.18993   9
   0  -5  14 48.4177 5.30654   8
   0   5  14 37.2819 7.43900   1
   0   5 -14 51.3295 7.95471   5
   0   5  14 35.8883 6.31530   3
   0   5 -14 31.7350 4.85187   2
   1  -5  14 26.6298 4.21238   4
  -1  -5 -14 19.1191 5.55660   2
  -1  -5 -14 24.6069 5.48523   9
   1  -5  14 29.4936 5.10457   8
   1  -5  14 14.4025 5.62006   7
   1   5  14 27.0049 5.47354   3
  -1   5 -14 23.4160 7.22805   5
   1   5  14 32.8192 7.55469   1
  -1   5 -14 15.3939 6.43557   2
  -2  -5 -14 75.8939 7.69943   2
   2  -5  14 82.1190 6.95435   4
  -2  -5 -14 92.9948 7.72863   9
   2  -5  14 85.9766 9.11109   7
   2  -5  14 86.3762 6.07925   8
  -2   5 -14 85.7971 9.78490   5
   2   5  14 73.4143 9.24267   3
   2   5  14 80.4194 11.4826   1
  -2   5 -14 67.4213 9.08497   2
  -3  -5 -14 435.267 19.2848   2
  -3  -5 -14 454.817 18.2563   9
   3  -5  14 447.627 20.5127   7
  -3   5 -14 448.518 22.2614   2
  -3   5 -14 461.098 23.5534   5
   3   5  14 459.152 24.0755   3
   3   5  14 481.821 22.0397   1
  -4  -5 -14 12.4462 5.48013   9
  -4  -5 -14 9.10528 5.82263   2
   4  -5  14 13.3078 9.06700   7
   4   5  14 11.5640 6.95339   3
  -4   5 -14 12.6757 7.60183   5
  -4   5 -14 4.53574 6.52659   2
  -5  -5 -14 -0.6961 5.60020   2
   5  -5  14 -1.9855 6.73613   7
  -5  -5 -14 3.61231 5.41642   9
   5  -5  14 0.12263 6.69186   6
   5   5  14 -1.3509 6.85923   3
  -5   5 -14 9.64422 10.8558   5
  -5   5 -14 3.55635 9.60704   2
   6  -5  14 28.6030 11.7496   6
   6  -5  14 18.1655 11.6955   7
  -6  -5 -14 24.0195 7.88253   2
  -6  -5 -14 37.6384 7.50315   9
  -6   5 -14 27.8083 9.41439   2
   6   5  14 35.9042 13.1881   3
  -6   5 -14 41.2546 13.8503   5
  -7  -6  14 -2.2077 5.98957   8
  -7  -6  14 0.32137 9.17482   4
  -7   6  14 -1.1722 7.68459   1
   7   6 -14 2.24509 9.64537   3
  -6  -6  14 -1.4376 7.83437   8
  -6  -6  14 0.74412 7.97891   4
   6  -6 -14 6.35419 8.56751   9
   6   6 -14 8.66844 9.41543   3
   6   6 -14 0.84570 8.70934   5
  -6   6  14 -2.8295 8.34199   4
  -6   6  14 6.23607 11.1399   1
  -5  -6  14 22.1712 7.95306   4
   5  -6 -14 17.6075 8.31767   9
  -5  -6  14 20.9154 6.19771   8
   5   6 -14 22.1028 12.2945   3
  -5   6  14 13.3687 6.73586   4
  -5   6  14 10.1667 10.9412   1
   5   6 -14 13.7681 6.63620   5
   4  -6 -14 196.947 13.0029   9
  -4  -6  14 202.193 11.1767   4
  -4  -6  14 207.288 11.7872   8
   4   6 -14 193.528 16.3904   3
   4   6 -14 187.630 14.0422   5
  -4   6  14 187.562 16.6121   4
  -4   6  14 189.160 14.0986   1
   3  -6 -14 -0.9787 4.74963   9
  -3  -6  14 -0.4576 6.51844   8
  -3  -6  14 -1.3341 4.51269   4
  -3   6  14 -1.0375 6.59508   1
   3   6 -14 -0.5481 8.33225   5
  -2  -6  14 498.886 25.8962   4
   2  -6 -14 522.923 23.4483   2
  -2  -6  14 534.804 23.1815   8
   2  -6 -14 504.053 24.9585   9
  -2   6  14 515.231 32.6496   1
   2   6 -14 541.555 31.2895   5
   1  -6 -14 61.2755 8.65412   9
  -1  -6  14 54.7810 6.20974   4
  -1  -6  14 58.7296 6.28809   8
   1  -6 -14 65.7340 10.1849   2
   1   6 -14 56.7986 8.79695   5
  -1   6  14 64.4926 9.45195   1
   0  -6  14 211.890 11.2720   4
   0  -6  14 204.744 11.5066   8
   0  -6 -14 194.899 11.0256   2
   0  -6 -14 224.132 12.2044   9
   0   6 -14 192.857 10.0357   2
   0   6 -14 198.818 13.3327   5
   0   6  14 207.465 13.6981   1
   0   6  14 196.191 12.1179   3
  -1  -6 -14 119.571 9.16872   9
   1  -6  14 116.633 10.4403   7
  -1  -6 -14 116.611 9.44824   2
   1  -6  14 123.878 9.43505   8
   1  -6  14 132.734 7.41680   4
  -1   6 -14 116.758 13.3766   5
  -1   6 -14 112.017 10.0995   2
   1   6  14 125.643 11.5631   1
   1   6  14 112.227 8.90530   3
  -2  -6 -14 127.271 9.74503   2
  -2  -6 -14 120.788 10.4438   9
   2  -6  14 120.750 10.8993   7
   2   6  14 128.290 13.9764   1
  -2   6 -14 126.561 11.9800   5
  -2   6 -14 106.197 9.27881   2
   2   6  14 113.660 9.48323   3
  -3  -6 -14 2.89749 8.17959   2
   3  -6  14 8.40213 7.20519   7
  -3  -6 -14 7.77548 5.66300   9
   3   6  14 6.02530 11.4757   1
   3   6  14 4.52650 6.12744   3
  -3   6 -14 10.3732 8.37662   5
  -3   6 -14 8.36576 6.33299   2
   4  -6  14 16.7211 8.23437   7
  -4  -6 -14 30.7101 8.61617   9
  -4  -6 -14 24.9130 9.31628   2
   4   6  14 35.5645 12.3443   1
  -4   6 -14 26.3950 12.1325   5
  -4   6 -14 6.92630 7.17141   2
   4   6  14 15.6381 7.57337   3
  -5  -6 -14 -6.2687 8.18012   9
   5  -6  14 -7.2521 10.2476   7
  -5  -6 -14 -3.7974 6.19072   2
  -5   6 -14 1.86596 8.54348   5
  -5   6 -14 4.43358 10.6911   2
   5   6  14 0.61688 7.97361   3
   6  -7 -14 2.46559 9.42849   9
  -6  -7  14 2.15463 9.39655   8
  -6  -7  14 -0.5323 9.12761   4
  -6   7  14 -4.1394 8.61820   1
   6   7 -14 -10.743 10.2860   3
  -5  -7  14 40.2540 7.75535   8
   5  -7 -14 34.2916 8.12339   9
  -5  -7  14 31.7716 9.56088   4
  -5   7  14 39.4085 10.7344   1
   5   7 -14 33.2799 14.9426   3
  -5   7  14 16.5434 7.53374   4
   5   7 -14 34.5702 8.63346   5
  -4  -7  14 60.4038 9.42509   8
   4  -7 -14 40.2191 10.1012   9
  -4  -7  14 60.8002 7.85432   4
  -4   7  14 58.4103 11.0627   1
   4   7 -14 28.6458 11.3556   5
  -4   7  14 38.3743 8.67112   4
   4   7 -14 53.7368 11.1106   3
  -3  -7  14 71.8586 8.02351   4
  -3  -7  14 72.1939 7.97847   8
   3  -7 -14 68.1734 8.65475   9
   3   7 -14 62.9285 9.80452   5
  -3   7  14 61.5960 10.9575   1
  -2  -7  14 11.6174 5.42031   8
   2  -7 -14 11.4271 8.51262   9
  -2  -7  14 17.4462 5.50706   4
  -2   7  14 7.99286 11.3717   1
   2   7 -14 10.7301 10.9349   5
  -1  -7  14 38.5619 7.05947   8
   1  -7 -14 20.5011 7.07059   2
   1  -7 -14 37.2135 7.01787   9
  -1  -7  14 35.5007 5.79881   4
  -1   7  14 29.1573 11.9761   1
   1   7 -14 28.5594 8.66461   5
   0  -7  14 76.3297 6.51247   4
   0  -7  14 70.0378 6.27268   8
   0  -7 -14 55.2902 7.96658   2
   0  -7 -14 65.4398 7.92561   9
   0   7 -14 64.8650 13.0533   5
   0   7  14 65.8044 11.1550   1
  -1  -7 -14 40.7697 7.54457   2
   1  -7  14 24.0609 8.25877   7
  -1  -7 -14 35.8011 6.96139   9
  -1   7 -14 47.5596 9.95902   5
  -1   7 -14 24.8713 8.44340   2
   1   7  14 34.2949 9.56541   1
   2  -7  14 5.97300 9.68255   7
  -2  -7 -14 -5.1606 8.08195   2
  -2  -7 -14 2.08527 7.94934   9
   2   7  14 1.66092 8.11187   1
  -2   7 -14 -0.4554 7.42550   5
  -2   7 -14 0.77031 5.93603   2
   2   7  14 -3.0572 7.83598   3
  -3  -7 -14 100.475 9.45534   2
  -3  -7 -14 92.4625 8.96092   9
   3  -7  14 91.9527 13.3134   7
   3   7  14 86.8118 12.8850   1
  -3   7 -14 111.685 13.0085   5
   3   7  14 86.5278 10.6520   3
  -3   7 -14 90.6587 9.75597   2
  -3  -8  14 130.385 11.7851   4
  -3  -8  14 149.324 12.2253   8
   3  -8 -14 128.077 11.4621   9
   3   8 -14 150.095 50.4546   3
   3   8 -14 113.446 15.5763   5
  -3   8  14 129.993 31.2898   1
   2  -8 -14 138.862 13.0386   9
  -2  -8  14 136.671 11.1498   4
  -2  -8  14 120.167 9.85762   8
   2   8 -14 127.068 13.5324   5
  -2   8  14 115.574 14.4768   1
  -1  -8  14 19.9685 8.02771   4
   1  -8 -14 16.4058 9.55901   9
  -1  -8  14 20.5484 8.21446   8
   1   8 -14 16.7557 9.24707   5
  -1   8  14 21.5175 23.1536   1
   0  -8 -14 154.933 10.7999   9
   0  -8 -14 158.056 13.1268   2
   0   8 -14 152.246 16.3786   5
   0   8  14 166.789 14.8368   1
   1  -8  14 -6.0364 8.17323   7
  -1  -8 -14 3.11921 6.82722   2
  -1  -8 -14 3.54786 6.74923   9
  -1   8 -14 6.51352 9.46761   5
   1   8  14 7.67857 13.5764   1
 -10   0  15 -3.4921 7.34262   1
  10   0 -15 -4.4622 7.16274   6
 -10   0  15 -0.6147 8.40961   4
 -10   0  15 8.50497 6.87081   8
  -9   0  15 3.01760 5.60125   8
  -9   0  15 9.47795 6.36173   1
  -9   0  15 9.23868 5.86703   4
   9   0 -15 18.6553 7.12827   6
  -8   0  15 4.05423 4.94153   8
  -8   0  15 -0.0392 4.65441   4
  -8   0  15 3.61476 5.10447   1
   8   0 -15 -2.1761 5.31527   6
  -7   0  15 11.7957 6.89730   8
   7   0 -15 26.3271 5.78500   3
   7   0 -15 23.6796 7.48902   6
  -7   0  15 9.07817 6.61746   4
   7   0 -15 18.6950 6.08048   5
  -7   0  15 15.1844 6.64771   1
   6   0 -15 -1.0080 3.18588   9
   6   0 -15 1.06365 4.36972   5
   6   0 -15 -0.6575 4.72562   3
   6   0 -15 -1.4198 3.95098   6
  -6   0  15 -1.6097 3.71493   1
  -6   0  15 2.78101 5.86999   4
  -5   0  15 254.147 10.8030   1
  -5   0  15 230.960 11.1586   4
   5   0 -15 236.552 13.5107   3
  -5   0  15 229.282 11.4050   2
   5   0 -15 226.925 12.3601   9
   5   0 -15 237.356 12.6644   5
  -4   0  15 -0.3694 3.92343   4
   4   0 -15 -0.2625 4.08691   5
  -4   0  15 -4.0315 3.07468   1
  -4   0  15 -0.3040 4.22537   2
   4   0 -15 0.30184 3.18515   2
   4   0 -15 -0.0384 2.09912   9
   4   0 -15 -6.8270 3.23515   3
  -3   0  15 486.696 16.8281   4
   3   0 -15 499.135 24.7590   7
  -3   0  15 477.696 19.2817   2
   3   0 -15 442.244 32.6071   1
   3   0 -15 472.133 23.7528   9
  -3   0  15 477.436 18.2919   1
   3   0 -15 498.108 16.0424   5
   3   0 -15 469.682 22.7684   2
   2   0 -15 0.27139 2.71923   2
  -2   0  15 -0.4541 4.28924   4
   2   0 -15 2.50667 4.56442   1
  -2   0  15 -1.8563 3.66499   1
   2   0 -15 -1.5046 3.74656   5
   2   0 -15 0.39217 2.51225   9
   2   0 -15 1.81411 2.54064   7
   1   0 -15 41.6417 4.25518   7
  -1   0  15 43.4148 4.00741   1
   1   0 -15 40.0873 6.36808   5
   1   0 -15 39.0104 5.20462   9
   1   0 -15 39.7872 5.46786   2
   1   0 -15 45.9758 4.46256   6
  -1   0  15 37.9591 7.23029   4
   0   0 -15 -0.5166 3.01096   9
   0   0  15 1.40906 3.22526   1
   0   0 -15 0.80115 2.29070   7
   0   0  15 0.95818 4.25679   4
   0   0 -15 1.92230 3.13556   2
   0   0  15 -0.3037 3.41232   3
   0   0 -15 1.35726 4.91865   5
   0   0 -15 3.10359 2.18776   6
   1   0  15 31.8599 3.67411   1
  -1   0 -15 36.9605 4.43576   7
  -1   0 -15 31.4694 4.82991   2
   1   0  15 26.6289 3.81504   7
  -1   0 -15 34.9157 6.18915   5
   1   0  15 40.1740 5.79401   4
  -1   0 -15 33.0648 4.22550   6
   1   0  15 35.9980 6.53993   3
  -2   0 -15 3.56299 4.91327   5
   2   0  15 -4.3555 3.91057   1
   2   0  15 -5.0697 5.81020   3
  -2   0 -15 3.51208 3.91244   2
   2   0  15 6.01125 8.69510   4
  -2   0 -15 3.66008 2.60224   6
  -2   0 -15 0.28094 3.45403   7
   2   0  15 -0.1612 2.18750   7
   2   0  15 1.64479 2.69004   1
  -3   0 -15 47.4775 7.55858   2
   3   0  15 51.4907 6.99278   3
  -3   0 -15 54.3830 6.98863   5
   3   0  15 44.1260 4.48330   7
   3   0  15 57.6457 6.35610   4
  -4   0 -15 -3.7499 5.11720   5
   4   0  15 0.57123 3.00802   6
  -4   0 -15 3.55621 6.60263   2
   4   0  15 2.93983 7.32303   3
   4   0  15 0.32931 4.48179   7
   5   0  15 389.622 16.5616   6
   5   0  15 373.120 17.2770   7
   5   0  15 419.217 19.9634   3
  -5   0 -15 386.226 21.3026   5
  -5   0 -15 397.309 21.2732   2
   6   0  15 1.23289 6.52371   7
  -6   0 -15 1.95945 8.14689   2
   6   0  15 -1.0461 6.05599   6
  -6   0 -15 3.61174 4.07547   5
   6   0  15 -8.5686 9.31994   3
   7   0  15 36.1865 9.16227   3
  -7   0 -15 49.3431 10.6802   2
  10  -1 -15 78.9640 12.2523   6
 -10  -1  15 68.7742 11.5173   8
 -10  -1  15 96.9234 10.4811   1
 -10  -1  15 71.1844 11.6087   4
 -10   1  15 64.1697 8.69244   4
  10   1 -15 90.9360 11.4465   6
 -10   1  15 77.2423 10.5793   1
 -10   1  15 46.6339 8.20244   8
  -9  -1  15 14.1210 6.72572   1
   9  -1 -15 13.3503 6.91353   6
  -9  -1  15 16.9263 6.18019   4
  -9  -1  15 15.6770 6.25033   8
  -9   1  15 0.96703 5.51405   4
   9   1 -15 22.6024 7.51767   6
  -9   1  15 8.50532 5.94522   8
  -9   1  15 14.9684 6.64751   1
  -8  -1  15 62.0760 8.88307   1
  -8  -1  15 48.8394 7.50655   8
  -8  -1  15 40.0330 8.77805   4
   8  -1 -15 51.8195 9.00250   6
   8   1 -15 41.9087 9.76267   6
   8   1 -15 54.1810 8.38377   3
  -8   1  15 30.4486 6.33079   4
  -8   1  15 46.9612 9.28553   1
  -8   1  15 34.3838 6.53728   8
   8   1 -15 39.8342 7.57824   5
  -7  -1  15 15.9687 5.28864   4
  -7  -1  15 10.0726 5.09457   8
  -7  -1  15 18.1895 6.51233   1
   7  -1 -15 9.61047 6.41405   6
   7   1 -15 23.6898 7.09444   3
   7   1 -15 16.4833 5.88448   6
  -7   1  15 12.7331 5.11814   4
  -7   1  15 12.3925 5.32820   1
   7   1 -15 13.3169 5.58934   5
   6  -1 -15 104.203 8.89179   5
   6  -1 -15 110.288 8.97790   3
  -6  -1  15 111.972 8.13606   1
  -6  -1  15 105.846 8.23495   8
  -6  -1  15 104.440 9.24085   4
   6  -1 -15 116.664 8.65600   6
   6  -1 -15 88.7882 6.54867   9
   6   1 -15 115.341 8.97248   3
  -6   1  15 119.335 9.50221   1
   6   1 -15 93.5932 8.46065   5
  -6   1  15 122.588 8.66298   4
  -5  -1  15 7.76143 3.06134   2
   5  -1 -15 7.47908 4.70158   6
  -5  -1  15 3.92368 4.23741   1
  -5  -1  15 0.00000 3.88971   4
   5  -1 -15 3.31888 2.71003   9
   5  -1 -15 2.97258 4.33030   5
   5  -1 -15 5.42607 3.56264   3
   5   1 -15 10.4799 2.58781   9
  -5   1  15 1.63095 4.28919   4
   5   1 -15 0.61957 4.45684   5
  -5   1  15 5.72805 4.42910   1
   4  -1 -15 5.10767 2.94391   6
   4  -1 -15 -2.8669 5.54564   5
  -4  -1  15 9.90924 4.29541   4
  -4  -1  15 6.55032 2.38287   2
   4  -1 -15 1.35298 3.73848   3
   4  -1 -15 3.44431 3.74901   9
   4  -1 -15 2.38903 2.76062   2
  -4  -1  15 5.25320 2.78955   1
  -4   1  15 5.20042 5.47685   1
   4   1 -15 2.46213 2.80903   2
   4   1 -15 12.0295 6.15068   1
  -4   1  15 6.29914 4.65508   4
   4   1 -15 5.89609 6.23418   5
   4   1 -15 3.76403 2.76237   9
   3  -1 -15 936.300 29.9511   7
   3  -1 -15 888.433 27.2296   2
  -3  -1  15 813.468 24.2671   1
   3  -1 -15 852.367 26.7678   9
  -3  -1  15 877.013 36.6163   2
  -3  -1  15 828.101 28.6526   4
   3  -1 -15 828.104 43.1324   3
   3  -1 -15 827.387 23.9376   5
  -3   1  15 880.809 26.8396   4
   3   1 -15 886.593 26.5815   9
   3   1 -15 883.995 46.7917   5
   3   1 -15 894.789 48.2056   2
  -3   1  15 867.561 37.4896   1
   3   1 -15 834.206 54.5211   1
  -2  -1  15 1001.61 33.3540   1
  -2  -1  15 1065.22 29.8037   4
   2  -1 -15 1050.94 26.7514   5
   2  -1 -15 1110.07 29.9485   2
   2  -1 -15 1013.47 47.8420   3
   2  -1 -15 1065.39 35.5324   9
   2  -1 -15 1134.65 36.6964   7
  -2  -1  15 1067.02 46.9404   2
   2   1 -15 1067.55 52.1884   2
   2   1 -15 1113.03 40.7850   5
  -2   1  15 1036.39 34.3803   4
   2   1 -15 1013.94 70.8451   1
   2   1 -15 1081.04 28.7778   9
  -2   1  15 1086.39 39.0868   1
  -1  -1  15 126.818 7.98935   4
   1  -1 -15 139.169 8.57802   7
   1  -1 -15 123.972 7.32797   2
   1  -1 -15 132.387 5.95107   6
  -1  -1  15 131.833 6.16193   1
   1  -1 -15 126.659 7.86830   5
   1  -1 -15 125.640 6.91608   9
   1   1 -15 134.941 11.2806   5
  -1   1  15 131.734 11.1804   4
   1   1 -15 143.571 10.9196   6
   1   1 -15 129.942 6.80475   2
   1   1 -15 131.793 12.2066   7
   1   1 -15 138.669 6.70721   9
  -1   1  15 129.431 7.29186   1
   0  -1 -15 296.930 12.3086   5
   0  -1  15 308.049 11.9790   4
   0  -1 -15 291.738 11.4221   7
   0  -1  15 284.962 11.8259   1
   0  -1 -15 281.134 13.5165   9
   0  -1 -15 297.889 11.6918   2
   0  -1 -15 299.893 16.2485   6
   0   1  15 301.589 11.3049   3
   0   1 -15 286.848 17.9224   6
   0   1  15 321.640 13.0870   4
   0   1 -15 294.110 10.6544   2
   0   1 -15 284.793 18.1129   7
   0   1 -15 299.296 13.0266   5
   0   1  15 300.653 15.2259   1
  -1  -1 -15 9.13416 4.75129   5
   1  -1  15 8.02205 2.51745   1
  -1  -1 -15 10.3201 3.27289   6
  -1  -1 -15 9.88320 3.03019   7
  -1  -1 -15 1.70828 5.05771   2
   1  -1  15 1.95826 3.69845   7
   1  -1  15 9.20792 2.34488   1
   1  -1  15 8.88037 4.51412   4
  -1  -1 -15 6.35939 3.68250   9
   1   1  15 10.7248 4.70035   1
  -1   1 -15 15.0212 5.99540   5
   1   1  15 8.37347 4.13146   3
  -1   1 -15 1.49085 4.85578   2
  -2  -1 -15 160.942 9.12004   6
   2  -1  15 176.504 9.97062   4
   2  -1  15 142.295 7.58162   7
   2  -1  15 160.941 8.44333   1
   2  -1  15 149.750 9.36990   3
  -2  -1 -15 173.175 8.56693   5
  -2  -1 -15 159.161 9.97790   2
   2  -1  15 174.094 9.35416   1
  -2   1 -15 164.438 9.44555   5
   2   1  15 136.238 10.5651   7
   2   1  15 148.110 9.32659   3
   2   1  15 173.646 9.65511   1
  -2   1 -15 139.830 9.62446   2
   3  -1  15 23.8683 3.93611   1
   3  -1  15 14.0837 4.52488   4
  -3  -1 -15 15.3005 3.91015   5
   3  -1  15 13.3643 5.29467   3
  -3  -1 -15 17.7312 5.10085   2
   3  -1  15 14.4862 3.90597   7
  -3  -1 -15 24.4050 6.02979   6
  -3   1 -15 16.7101 6.41072   5
  -3   1 -15 9.21302 4.68869   2
   3   1  15 14.2394 7.46550   3
   3   1  15 10.2263 2.47961   7
  -4  -1 -15 138.286 7.84380   5
   4  -1  15 136.058 8.20559   4
  -4  -1 -15 113.473 10.0610   2
   4  -1  15 117.671 8.07616   6
   4  -1  15 113.669 10.8749   3
   4  -1  15 113.077 7.97876   7
   4   1  15 130.998 7.63310   6
   4   1  15 128.673 10.2495   3
  -4   1 -15 113.840 10.1320   2
  -4   1 -15 136.187 10.0190   5
   4   1  15 115.288 7.06358   7
   5  -1  15 3.97867 6.31255   3
  -5  -1 -15 7.53045 4.79797   5
  -5  -1 -15 6.99969 5.50920   2
   5  -1  15 3.47652 4.23884   4
   5  -1  15 -4.1260 6.03093   7
   5  -1  15 5.60864 6.04956   6
   5   1  15 0.72306 6.17657   3
  -5   1 -15 2.04577 5.39895   2
  -5   1 -15 2.62230 4.64184   5
   6  -1  15 29.9851 9.53160   6
  -6  -1 -15 32.9748 9.45499   2
   6  -1  15 29.5458 8.16902   7
   6  -1  15 31.7967 8.20984   3
  -6   1 -15 43.8735 8.01940   5
   6   1  15 30.2210 8.19297   3
  -6   1 -15 37.2066 7.55659   2
  -7  -1 -15 -0.3605 6.29550   2
   7  -1  15 3.83204 8.19504   7
   7  -1  15 3.02358 7.77730   6
   7  -1  15 -3.3845 7.42314   3
  -7   1 -15 -1.8278 5.99591   2
   7   1  15 2.27512 7.36921   3
  -9  -2  15 176.869 13.9079   8
  -9  -2  15 213.364 16.2737   1
   9  -2 -15 194.582 16.1343   6
  -9  -2  15 173.409 14.6781   4
  -9   2  15 206.915 14.3401   4
   9   2 -15 206.892 16.5681   6
   9   2 -15 224.432 20.0747   3
  -9   2  15 181.263 16.4078   8
   9   2 -15 205.730 16.8995   5
  -9   2  15 189.887 15.1905   1
  -8  -2  15 -1.5469 5.00236   4
   8  -2 -15 -1.9360 6.81984   6
  -8  -2  15 -0.1117 5.04026   8
  -8  -2  15 -0.9439 6.78610   1
   8   2 -15 0.57570 8.28640   3
  -8   2  15 0.20271 5.72761   1
  -8   2  15 -1.7574 6.75943   4
   8   2 -15 -0.1554 5.26870   5
   8   2 -15 -4.9396 6.34719   6
  -7  -2  15 371.047 19.2439   8
  -7  -2  15 377.907 21.1952   1
   7  -2 -15 398.925 20.6773   6
   7  -2 -15 393.309 21.7537   9
  -7  -2  15 361.053 20.3048   4
   7   2 -15 392.623 26.4619   3
  -7   2  15 369.573 17.8723   4
  -7   2  15 375.978 20.4323   1
   7   2 -15 368.499 28.7664   5
   6  -2 -15 22.2265 7.07061   9
  -6  -2  15 -3.6802 4.35685   4
  -6  -2  15 -1.4411 4.17927   8
  -6  -2  15 4.90715 3.74029   1
   6  -2 -15 1.25421 4.90100   6
  -6   2  15 3.80274 4.96134   1
  -6   2  15 1.54085 4.44161   4
   6   2 -15 1.41505 6.93640   5
   6   2 -15 -1.4813 4.88259   3
   5  -2 -15 523.898 21.6307   5
  -5  -2  15 510.291 19.9443   4
   5  -2 -15 532.900 21.4231   6
  -5  -2  15 519.042 22.1803   8
  -5  -2  15 526.579 23.9998   1
   5  -2 -15 512.344 28.6332   9
  -5   2  15 511.330 22.2313   4
   5   2 -15 520.759 19.7757   5
  -5   2  15 498.548 22.7806   1
   4  -2 -15 50.8888 6.27112   5
   4  -2 -15 36.3335 4.62887   9
   4  -2 -15 51.6100 4.84677   6
  -4  -2  15 39.7272 8.07228   8
   4  -2 -15 48.9849 4.50227   3
   4  -2 -15 33.1891 5.59834   2
  -4  -2  15 34.1907 7.66738   4
  -4  -2  15 47.6304 4.67359   1
   4   2 -15 40.9967 6.17298   5
  -4   2  15 47.5788 6.85571   4
  -4   2  15 41.6644 7.37539   1
   4   2 -15 40.4482 3.38938   2
   4   2 -15 41.0414 3.26740   9
   3  -2 -15 195.551 10.7499   5
   3  -2 -15 209.997 9.29848   2
  -3  -2  15 190.953 10.4218   4
   3  -2 -15 188.887 8.65415   9
   3  -2 -15 209.282 10.4437   3
   3  -2 -15 211.844 8.50423   6
  -3  -2  15 213.803 7.81984   1
   3   2 -15 175.303 14.4620   1
   3   2 -15 200.975 11.7114   5
   3   2 -15 209.519 8.06685   2
   3   2 -15 210.513 7.26855   9
  -3   2  15 222.485 12.3800   1
  -3   2  15 204.250 11.1755   4
   2  -2 -15 10.8695 3.06359   3
   2  -2 -15 16.4184 3.09128   7
   2  -2 -15 13.5852 2.40766   6
  -2  -2  15 12.9893 5.42024   4
   2  -2 -15 10.0571 3.65057   9
   2  -2 -15 11.4084 3.96128   2
  -2  -2  15 16.1258 2.24741   1
   2  -2 -15 7.24188 5.33520   5
   2   2 -15 15.0749 3.63879   9
  -2   2  15 17.9719 5.52766   4
   2   2 -15 8.26595 2.53252   1
   2   2 -15 12.7360 4.94344   5
   2   2 -15 7.41865 2.68012   2
  -2   2  15 14.7935 4.58676   1
  -1  -2  15 68.8940 3.62991   1
   1  -2 -15 68.2937 3.28744   7
   1  -2 -15 75.7784 3.00319   6
   1  -2 -15 65.8255 5.83448   9
  -1  -2  15 66.5917 6.94591   4
   1  -2 -15 71.5971 6.29959   5
   1  -2 -15 69.0831 3.90529   6
   1  -2 -15 59.2597 5.97925   2
   1   2 -15 73.1590 7.30489   5
  -1   2  15 67.1564 8.89721   4
  -1   2  15 71.0975 6.05093   3
  -1   2  15 67.3642 32.7560   1
   1   2 -15 65.8238 5.04284   2
   0  -2  15 301.540 11.3065   4
   0  -2 -15 302.387 9.80362   6
   0  -2 -15 303.537 7.85590   6
   0  -2 -15 295.285 12.5930   2
   0  -2 -15 306.861 11.5134   5
   0  -2 -15 314.003 14.4208   9
   0   2  15 315.519 12.0729   1
   0   2 -15 324.375 13.3615   5
   0   2  15 314.050 14.2208   3
   0   2 -15 300.217 16.1948   2
  -1  -2 -15 264.482 10.4615   5
   1  -2  15 248.123 13.5270   7
   1  -2  15 302.988 14.4513   4
  -1  -2 -15 287.211 11.5197   2
  -1  -2 -15 263.778 10.8808   9
   1   2  15 297.246 11.8468   3
  -1   2 -15 290.223 12.7915   5
  -1   2 -15 284.533 11.0463   2
   1   2  15 288.351 12.5203   1
   2  -2  15 0.92384 1.63257   1
   2  -2  15 -2.5933 3.33398   7
  -2  -2 -15 -1.0579 3.05437   5
  -2  -2 -15 0.78858 4.12547   2
  -2  -2 -15 0.34010 3.64757   9
   2  -2  15 1.41921 3.36624   4
   2  -2  15 0.41604 1.29546   1
  -2  -2 -15 0.57404 1.35752   6
  -2   2 -15 4.50458 6.44589   5
  -2   2 -15 -1.5679 36.8866   2
   2   2  15 2.25456 4.43035   1
   2   2  15 0.13526 4.37010   3
   3  -2  15 174.720 10.5144   7
  -3  -2 -15 167.526 10.4113   9
   3  -2  15 172.542 10.8547   3
  -3  -2 -15 177.223 8.16370   5
   3  -2  15 185.784 9.40762   4
  -3  -2 -15 182.476 10.2479   2
  -3   2 -15 205.439 11.3399   5
  -3   2 -15 203.194 10.6212   2
   3   2  15 199.715 11.1690   3
  -4  -2 -15 -1.5320 4.40170   9
   4  -2  15 3.24006 4.56976   7
   4  -2  15 4.23927 5.40027   3
  -4  -2 -15 4.31520 4.88738   2
   4  -2  15 5.92194 5.90933   6
   4  -2  15 14.3693 6.12871   4
   4   2  15 6.66869 5.79394   3
  -4   2 -15 -2.1244 6.65999   2
  -4   2 -15 9.10181 6.99772   5
  -5  -2 -15 29.5650 6.82241   2
   5  -2  15 7.87587 7.22951   6
   5  -2  15 28.6139 7.36997   3
  -5   2 -15 38.8958 7.91017   5
   5   2  15 23.9123 7.45642   3
  -5   2 -15 24.8705 8.47431   2
   6  -2  15 15.1606 6.40448   7
  -6  -2 -15 34.0928 9.65447   2
   6  -2  15 39.2776 8.41800   3
   6  -2  15 19.6661 6.38066   6
  -6   2 -15 19.6812 9.08394   2
   6   2  15 20.8063 10.7390   3
  -6   2 -15 34.3435 8.65912   5
  -7  -2 -15 261.290 15.4603   2
   7  -2  15 238.618 17.2357   6
   7  -2  15 233.041 19.2602   7
   7  -2  15 245.432 16.2337   3
   7   2  15 266.706 21.1149   3
  -7   2 -15 235.374 20.8569   2
  -7   2 -15 254.998 21.3026   5
  -9  -3  15 -1.9202 8.34690   8
  -9  -3  15 3.48781 8.37607   1
   9  -3 -15 -2.9065 8.54561   6
  -9  -3  15 1.67025 8.53288   4
  -9   3  15 -1.3922 7.28885   8
   9   3 -15 -0.6624 10.3055   3
  -9   3  15 0.91320 9.79017   1
   9   3 -15 -6.8504 10.6780   6
  -9   3  15 -0.7083 5.38232   4
  -8  -3  15 40.1087 6.70568   1
  -8  -3  15 21.9188 11.6102   4
   8  -3 -15 42.3169 8.70308   6
  -8  -3  15 31.0614 12.1938   8
  -8   3  15 25.0524 7.81391   4
   8   3 -15 23.9769 9.10138   5
   8   3 -15 45.0395 8.56247   3
  -8   3  15 31.0516 7.91229   1
   7  -3 -15 4.88931 6.42043   9
  -7  -3  15 16.4700 6.45533   1
  -7  -3  15 9.59353 5.52782   8
   7  -3 -15 18.7709 4.97293   6
  -7  -3  15 7.14316 7.40035   4
  -7   3  15 8.51433 29.5512   4
   7   3 -15 16.7573 6.27754   5
   7   3 -15 6.78284 6.44593   3
  -7   3  15 19.1969 6.65107   1
   6  -3 -15 345.674 16.6665   9
   6  -3 -15 393.351 16.4665   6
  -6  -3  15 370.881 19.3750   1
  -6  -3  15 360.129 18.8643   8
  -6  -3  15 333.490 15.6112   4
   6   3 -15 373.345 19.5390   3
  -6   3  15 348.148 15.4239   4
  -6   3  15 360.546 15.6794   1
   6   3 -15 383.066 18.6083   5
  -5  -3  15 34.7165 5.97695   4
   5  -3 -15 33.0032 6.28720   9
  -5  -3  15 44.8520 4.57000   1
  -5  -3  15 39.6402 6.20501   8
   5  -3 -15 47.2115 5.37510   6
   5   3 -15 42.1807 7.17356   3
  -5   3  15 44.5529 7.21516   1
  -5   3  15 31.2360 8.16499   4
   5   3 -15 32.4392 7.88778   5
  -4  -3  15 103.559 9.23507   8
   4  -3 -15 124.935 8.38885   6
   4  -3 -15 111.958 7.39605   9
  -4  -3  15 120.584 5.89687   1
  -4  -3  15 114.652 8.09168   4
   4  -3 -15 119.238 7.81940   2
  -4   3  15 113.930 9.30171   4
  -4   3  15 116.881 9.50605   1
   4   3 -15 96.5014 9.98406   5
  -3  -3  15 30.3789 6.22985   4
   3  -3 -15 26.2559 5.73236   9
   3  -3 -15 28.5307 3.56951   6
   3  -3 -15 17.1455 5.02241   5
   3  -3 -15 21.4460 4.65150   2
   3  -3 -15 25.2157 3.53363   3
  -3  -3  15 29.0702 3.04501   1
  -3  -3  15 24.7957 5.01564   8
  -3   3  15 33.1265 7.72339   1
   3   3 -15 21.0706 7.27893   5
   3   3 -15 22.0065 3.11027   2
   3   3 -15 23.5368 3.05672   9
  -3   3  15 27.9554 6.25077   4
   2  -3 -15 9.61125 1.54493   7
   2  -3 -15 7.27793 3.75453   3
  -2  -3  15 9.49287 4.03900   8
   2  -3 -15 10.0752 5.71895   2
   2  -3 -15 9.46588 1.48168   6
   2  -3 -15 8.93446 4.21794   5
  -2  -3  15 15.9558 4.28214   4
   2  -3 -15 12.9601 1.77010   7
   2  -3 -15 7.32797 5.30681   9
  -2   3  15 14.4673 6.89214   1
   2   3 -15 6.43114 3.38996   2
  -2   3  15 11.2683 7.35799   4
  -2   3  15 6.12761 2.42307   3
   2   3 -15 8.82777 5.02680   5
   1  -3 -15 565.145 20.4734   9
  -1  -3  15 556.341 24.1812   4
   1  -3 -15 581.340 21.9285   2
   1  -3 -15 557.918 24.8092   5
  -1   3  15 565.550 24.2862   3
   1   3 -15 630.145 40.4832   5
   1   3 -15 572.026 27.2392   2
  -1   3  15 598.578 30.2017   1
   0  -3  15 55.4373 6.45582   7
   0  -3  15 73.3991 6.75925   4
   0  -3 -15 56.0368 5.97315   9
   0  -3 -15 68.3706 6.72928   5
   0  -3 -15 58.0751 6.38254   2
   0   3  15 64.6230 6.85375   3
   0   3  15 65.2402 8.25191   1
   0   3 -15 57.9459 5.42929   2
   0   3 -15 60.2489 9.01543   5
   1  -3  15 3.49388 4.48818   4
  -1  -3 -15 -0.2201 5.84260   2
   1  -3  15 -0.2354 5.11824   7
  -1  -3 -15 1.45555 3.84985   9
  -1  -3 -15 -1.0999 2.80896   5
   1   3  15 -0.6922 3.82233   3
  -1   3 -15 5.19029 6.86534   5
  -1   3 -15 2.46669 3.66960   2
   1   3  15 2.64446 4.75383   1
  -2  -3 -15 39.4316 7.35170   2
  -2  -3 -15 54.9260 5.03075   5
   2  -3  15 51.4594 7.62916   7
   2  -3  15 50.8563 5.81111   4
  -2  -3 -15 39.6346 7.28207   9
   2   3  15 46.9266 8.14598   3
  -2   3 -15 40.1953 7.15186   2
  -2   3 -15 59.8121 7.58361   5
   2   3  15 69.5226 9.34954   1
  -3  -3 -15 -5.9051 6.26420   2
   3  -3  15 5.32696 3.07460   4
  -3  -3 -15 -1.2460 4.16325   9
  -3  -3 -15 6.85475 3.06802   5
   3  -3  15 4.73422 6.58829   7
  -3   3 -15 4.60328 5.51395   5
   3   3  15 4.98560 7.56868   3
  -3   3 -15 3.66553 4.80688   2
  -4  -3 -15 213.215 11.8175   2
   4  -3  15 189.599 13.3962   4
   4  -3  15 217.379 12.0681   7
  -4  -3 -15 216.115 9.48669   5
   4  -3  15 228.970 12.3143   6
  -4  -3 -15 226.150 12.3873   9
  -4   3 -15 237.916 13.1808   5
  -4   3 -15 206.055 12.0307   2
   4   3  15 209.739 12.8817   3
   5  -3  15 7.05770 5.93367   7
   5  -3  15 13.9576 6.08545   6
  -5  -3 -15 14.8397 6.19851   2
  -5  -3 -15 16.3253 7.89942   9
  -5   3 -15 24.4096 9.09064   5
  -5   3 -15 14.3747 6.65936   2
   5   3  15 9.92978 9.61990   3
   6  -3  15 3.83617 9.06596   7
  -6  -3 -15 10.6734 8.58610   2
   6  -3  15 5.15226 7.45996   3
   6  -3  15 8.98070 8.96644   6
  -6  -3 -15 5.63271 6.10892   9
  -6   3 -15 -0.5916 9.11818   2
   6   3  15 2.21678 10.1445   3
  -6   3 -15 10.6641 9.09859   5
  -7  -3 -15 0.97879 6.77153   2
   7  -3  15 1.90247 6.69728   6
  -7  -3 -15 6.40900 8.77331   9
   7  -3  15 3.70506 9.62169   7
   7  -3  15 -2.5309 7.24332   3
  -7   3 -15 4.79289 16.6868   2
  -7   3 -15 0.66289 9.76293   5
   7   3  15 -2.9148 7.67012   3
  -8  -4  15 5.74701 6.02804   8
   8  -4 -15 6.46848 7.84553   7
  -8  -4  15 11.7703 6.24267   4
   8  -4 -15 12.6950 5.85530   6
   8   4 -15 3.54548 11.5401   3
  -8   4  15 4.25366 5.41702   4
   8   4 -15 3.07091 6.05867   5
  -8   4  15 8.68583 7.60211   1
   7  -4 -15 36.2895 8.47244   9
  -7  -4  15 35.9995 8.90183   8
  -7  -4  15 41.6588 9.17725   4
   7  -4 -15 60.8895 8.14668   7
   7  -4 -15 45.3631 6.23055   6
  -7   4  15 38.6800 7.30049   4
   7   4 -15 47.3062 7.77400   5
  -7   4  15 54.9079 9.06769   1
   7   4 -15 43.9072 9.16087   3
   6  -4 -15 11.1592 5.10823   9
   6  -4 -15 20.0658 5.81518   7
   6  -4 -15 12.5631 5.58434   6
  -6  -4  15 12.9026 5.59808   4
  -6  -4  15 6.47929 5.29821   8
  -6   4  15 63.2030 27.4089   4
   6   4 -15 16.8421 7.89227   3
  -6   4  15 22.9869 7.14808   1
   5  -4 -15 31.1226 4.84889   6
   5  -4 -15 26.3245 7.14396   9
   5  -4 -15 34.5485 5.03993   7
  -5  -4  15 37.8509 7.69857   8
  -5  -4  15 40.7638 7.75526   4
  -5   4  15 15.5764 8.52849   4
   5   4 -15 34.6191 7.98246   3
   5   4 -15 29.9466 8.60220   5
  -5   4  15 26.2921 7.30048   1
  -4  -4  15 16.7012 4.96436   4
  -4  -4  15 17.8831 5.07855   8
   4  -4 -15 19.7760 3.49420   6
   4  -4 -15 9.86070 4.72734   9
   4  -4 -15 19.8953 3.03409   7
   4   4 -15 12.8079 5.86518   5
  -4   4  15 14.4363 6.53186   1
  -4   4  15 23.8236 6.57163   4
  -3  -4  15 67.8680 6.72490   8
   3  -4 -15 46.8105 3.44811   7
   3  -4 -15 70.6425 6.78171   2
  -3  -4  15 65.9924 6.64096   4
   3  -4 -15 58.0490 7.42484   9
   3  -4 -15 45.2885 3.74507   6
   3   4 -15 71.2508 9.57724   5
  -3   4  15 70.2813 8.36074   1
  -2  -4  15 16.3591 4.61761   8
   2  -4 -15 19.5684 5.00976   2
  -2  -4  15 11.3837 5.69629   4
   2  -4 -15 11.0608 4.49502   9
   2   4 -15 11.6216 2.80164   2
  -2   4  15 15.5596 16.2105   1
   2   4 -15 13.9375 5.84395   5
  -2   4  15 15.1477 3.59430   3
   1  -4 -15 1.17217 4.32508   2
   1  -4 -15 3.18548 3.96969   9
  -1  -4  15 0.14905 4.83904   4
  -1  -4  15 1.56740 3.44447   8
  -1   4  15 0.95016 4.00462   3
   1   4 -15 3.23452 7.28073   5
  -1   4  15 1.09278 4.89666   1
   1   4 -15 -0.0817 2.73743   2
   0  -4  15 25.5764 4.46326   8
   0  -4 -15 20.2838 5.35227   2
   0  -4  15 23.6701 4.59781   4
   0  -4  15 15.0947 5.63214   7
   0  -4 -15 20.0662 6.31078   9
   0   4 -15 11.3531 7.90734   5
   0   4  15 33.5799 8.08272   1
   0   4  15 25.2219 4.58376   3
   0   4 -15 17.6060 4.02483   2
  -1  -4 -15 994.042 39.0968   9
   1  -4  15 1026.43 47.9921   7
   1  -4  15 965.348 39.6081   4
   1  -4  15 988.232 45.6033   8
  -1  -4 -15 1016.44 41.1171   2
   1   4  15 985.217 41.7784   1
  -1   4 -15 976.372 37.2571   5
  -1   4 -15 1003.25 42.6141   2
   1   4  15 1015.05 65.8375   3
  -2  -4 -15 12.2583 5.20496   2
   2  -4  15 11.3367 4.32848   8
   2  -4  15 6.07148 5.13814   7
   2  -4  15 10.5689 4.21187   4
  -2  -4 -15 8.59222 4.83179   9
  -2   4 -15 9.66424 6.11670   5
  -2   4 -15 2.87755 4.40652   2
   2   4  15 4.30687 5.01972   3
   2   4  15 5.27665 6.00353   1
  -3  -4 -15 10.2484 5.10193   9
   3  -4  15 13.1604 3.97585   4
  -3  -4 -15 13.6886 5.72456   2
   3  -4  15 15.6003 8.07810   7
   3  -4  15 13.4259 3.13487   8
  -3   4 -15 15.8574 7.50720   2
   3   4  15 20.4245 9.22722   1
   3   4  15 16.0287 8.32613   3
  -3   4 -15 23.1866 7.20706   5
  -4  -4 -15 -3.4364 5.23585   9
   4  -4  15 -0.5571 5.59771   7
  -4  -4 -15 -4.9897 7.33845   2
   4   4  15 1.33060 6.30809   3
  -4   4 -15 1.49595 14.9818   5
  -4   4 -15 3.93944 5.74244   2
  -5  -4 -15 118.243 11.4569   2
   5  -4  15 106.903 12.6415   7
   5  -4  15 107.767 10.4690   6
  -5  -4 -15 117.152 9.52501   9
   5   4  15 120.456 11.7746   3
  -5   4 -15 126.932 12.8440   2
  -5   4 -15 149.088 12.1463   5
  -6  -4 -15 22.4623 7.37289   2
  -6  -4 -15 19.8017 6.99298   9
   6  -4  15 9.88789 7.16797   6
   6  -4  15 13.1980 7.87715   7
  -6   4 -15 13.1763 10.6677   2
  -6   4 -15 29.2250 8.11463   5
   6   4  15 29.1632 9.02352   3
  -8  -5  15 6.47474 9.07110   4
  -8  -5  15 1.56982 6.43962   8
   8   5 -15 1.82212 9.27225   3
  -8   5  15 -1.5729 7.62970   1
  -7  -5  15 35.9462 9.80182   8
   7  -5 -15 34.0776 7.44974   9
  -7  -5  15 34.5816 7.68840   4
  -7   5  15 39.3214 9.34626   1
  -7   5  15 20.6692 8.85404   4
   7   5 -15 25.6222 12.9855   3
   7   5 -15 22.3521 9.32405   5
   6  -5 -15 164.857 10.6809   9
  -6  -5  15 167.729 10.9658   4
  -6  -5  15 169.730 11.1725   8
  -6   5  15 144.012 11.5196   4
   6   5 -15 169.581 11.5107   5
  -6   5  15 162.626 13.1088   1
   6   5 -15 153.853 15.9578   3
  -5  -5  15 19.6970 5.97010   8
   5  -5 -15 23.2641 7.85985   9
  -5  -5  15 25.9983 7.96105   4
   5   5 -15 22.8015 11.3215   3
  -5   5  15 15.8970 8.62242   4
  -5   5  15 17.1879 7.38694   1
   5   5 -15 11.5829 8.68237   5
   4  -5 -15 21.4641 7.29624   9
  -4  -5  15 23.2578 5.77224   8
  -4  -5  15 17.7660 7.19283   4
  -4   5  15 26.8267 9.13878   4
  -4   5  15 23.8231 10.8296   1
   4   5 -15 28.4609 8.95047   5
   3  -5 -15 0.63038 6.57930   9
  -3  -5  15 8.71694 6.34797   4
  -3  -5  15 0.67532 4.34170   8
   3  -5 -15 4.23592 5.00112   2
   3   5 -15 3.41747 8.03330   5
  -3   5  15 4.88976 8.57992   1
   2  -5 -15 27.2341 7.11936   9
  -2  -5  15 33.3052 5.50853   4
  -2  -5  15 30.9821 5.50277   8
   2  -5 -15 30.1555 7.68826   2
   2   5 -15 31.8204 7.14370   5
  -2   5  15 26.0382 7.05783   1
  -1  -5  15 192.577 11.4851   4
   1  -5 -15 207.638 11.9987   9
  -1  -5  15 198.042 10.5078   8
   1  -5 -15 193.622 11.8244   2
  -1   5  15 192.781 12.1818   3
  -1   5  15 220.050 13.5237   1
   1   5 -15 195.036 10.3403   2
   1   5 -15 215.724 13.1140   5
   0  -5  15 43.8923 5.16636   4
   0  -5  15 47.8816 6.29417   8
   0  -5 -15 37.0103 7.64270   9
   0  -5  15 26.7484 7.03225   7
   0  -5 -15 47.8580 6.84129   2
   0   5  15 24.1250 6.23816   3
   0   5 -15 37.2520 7.71282   5
   0   5 -15 32.2588 6.28471   2
   0   5  15 46.5500 8.00274   1
   1  -5  15 17.5479 5.07566   4
   1  -5  15 24.0602 5.21183   8
  -1  -5 -15 22.6834 5.97713   2
   1  -5  15 13.7525 7.69481   7
  -1  -5 -15 19.4513 5.46175   9
  -1   5 -15 16.2987 9.36307   5
  -1   5 -15 17.1413 16.9494   2
   1   5  15 11.9839 6.87774   3
   1   5  15 22.9038 7.02827   1
  -2  -5 -15 150.171 10.0309   9
   2  -5  15 154.845 11.2294   7
   2  -5  15 159.266 10.3686   8
   2  -5  15 146.672 10.0593   4
  -2  -5 -15 168.732 10.4499   2
   2   5  15 163.527 11.7654   3
   2   5  15 159.044 12.3464   1
  -2   5 -15 140.465 9.77826   2
  -2   5 -15 182.184 13.0507   5
   3  -5  15 0.47963 8.78601   7
  -3  -5 -15 1.93836 8.01087   2
  -3  -5 -15 2.04297 7.35120   9
   3   5  15 -2.8347 8.08837   3
   3   5  15 4.69195 7.50364   1
  -3   5 -15 -0.4485 5.37288   2
  -3   5 -15 7.43690 6.95182   5
  -4  -5 -15 97.1290 9.21915   2
  -4  -5 -15 93.3217 8.72227   9
   4  -5  15 78.7474 12.0800   7
   4   5  15 88.9262 12.1815   3
  -4   5 -15 83.9567 11.7202   2
   4   5  15 89.6088 11.2840   1
  -4   5 -15 97.7224 12.9978   5
  -5  -5 -15 -0.5862 5.44507   9
  -5  -5 -15 6.27964 6.23784   2
   5  -5  15 1.73858 7.11332   7
  -5   5 -15 2.07086 7.73626   5
  -5   5 -15 1.84308 7.42087   2
   5   5  15 5.87167 10.3128   3
  -7  -6  15 40.5206 8.64863   8
  -7  -6  15 38.0091 8.63807   4
   7   6 -15 56.3837 15.6505   3
  -7   6  15 49.5628 10.4044   1
  -6  -6  15 7.86983 6.41124   8
   6  -6 -15 5.48410 6.23266   9
  -6  -6  15 6.47197 6.25456   4
  -6   6  15 5.88172 6.80394   4
  -6   6  15 -5.6375 10.7780   1
   6   6 -15 1.31097 9.30781   5
   6   6 -15 7.53176 13.4273   3
   5  -6 -15 -1.9090 5.78759   9
  -5  -6  15 0.96240 5.89270   8
  -5  -6  15 3.85747 5.60319   4
   5   6 -15 3.98889 8.62848   3
   5   6 -15 6.76199 6.69396   5
  -5   6  15 1.52372 11.0338   1
  -5   6  15 5.51354 9.30873   4
  -4  -6  15 1.53448 7.40815   8
  -4  -6  15 1.14883 5.14031   4
   4  -6 -15 -0.8080 5.55463   9
  -4   6  15 2.92596 6.60388   4
  -4   6  15 -6.6586 10.4035   1
   4   6 -15 -1.2444 6.38017   5
   4   6 -15 -2.6671 7.95782   3
  -3  -6  15 435.815 27.0784   8
   3  -6 -15 437.116 21.2817   9
  -3  -6  15 442.319 21.0128   4
   3   6 -15 431.734 22.3773   5
  -3   6  15 461.918 26.2251   1
   2  -6 -15 15.9645 8.35128   2
  -2  -6  15 40.7589 7.75932   8
   2  -6 -15 28.1684 6.50299   9
  -2  -6  15 26.3218 5.68475   4
   2   6 -15 27.4870 8.12276   5
  -2   6  15 23.2221 7.90289   1
   1  -6 -15 38.5930 8.17970   9
  -1  -6  15 42.9233 6.03082   8
   1  -6 -15 36.6020 6.98909   2
  -1  -6  15 51.7124 6.04823   4
   1   6 -15 34.7603 8.28369   5
  -1   6  15 43.6575 8.95667   1
   0  -6 -15 32.2236 6.90410   2
   0  -6  15 31.0319 6.45341   4
   0  -6  15 25.6674 6.27699   8
   0  -6 -15 28.6117 6.30356   9
   0   6  15 29.6923 10.9436   1
   0   6 -15 20.1073 5.16390   2
   0   6 -15 27.1551 8.18750   5
   1  -6  15 26.1965 9.36575   7
   1  -6  15 22.2122 4.38580   4
  -1  -6 -15 15.2306 5.88248   9
   1  -6  15 14.8492 5.38157   8
  -1  -6 -15 16.5791 6.21150   2
  -1   6 -15 5.46925 7.37478   2
   1   6  15 9.29995 5.30509   3
   1   6  15 19.4569 7.60425   1
  -1   6 -15 16.2454 10.2567   5
  -2  -6 -15 14.9895 6.03921   9
   2  -6  15 6.24091 6.93632   7
  -2  -6 -15 17.9420 6.65076   2
  -2   6 -15 6.71211 10.9809   5
   2   6  15 12.3994 11.0494   1
  -2   6 -15 3.08443 8.19808   2
   2   6  15 5.88538 5.97051   3
  -3  -6 -15 10.9414 5.92384   9
  -3  -6 -15 18.0869 8.81721   2
   3  -6  15 5.18991 7.31373   7
  -3   6 -15 -0.1216 8.70049   2
   3   6  15 8.94355 8.99775   3
   3   6  15 6.31521 8.17090   1
  -3   6 -15 7.31650 10.4667   5
  -4  -6 -15 31.7789 10.2001   2
  -4  -6 -15 31.2715 9.67039   9
   4  -6  15 27.6986 8.92602   7
  -4   6 -15 34.2169 9.33143   5
  -4   6 -15 29.6138 16.0554   2
   4   6  15 20.6792 8.65422   3
   4   6  15 36.4602 12.9927   1
  -5  -7  15 2.72141 6.03577   8
   5  -7 -15 4.86173 6.75300   9
  -5  -7  15 7.82436 6.43659   4
   5   7 -15 0.54758 10.5135   3
  -5   7  15 7.37472 10.4782   4
   5   7 -15 1.34288 7.29396   5
  -5   7  15 -3.1358 8.60320   1
   4  -7 -15 4.33925 6.37680   9
  -4  -7  15 9.95140 8.08496   8
  -4  -7  15 7.62729 8.23097   4
  -4   7  15 2.99290 9.80283   4
   4   7 -15 0.90109 10.8364   5
  -4   7  15 -2.5577 8.40648   1
   4   7 -15 -4.3193 12.5149   3
  -3  -7  15 44.9226 8.96731   8
   3  -7 -15 61.2985 20.3221   9
  -3  -7  15 43.7632 7.29772   4
   3   7 -15 44.3953 12.3277   5
  -3   7  15 44.0127 13.6911   1
  -2  -7  15 412.151 23.6710   8
   2  -7 -15 414.444 24.5364   9
  -2  -7  15 425.195 24.7522   4
  -2   7  15 467.232 30.9097   1
   2   7 -15 460.117 27.7524   5
  -1  -7  15 4.03751 6.38363   4
   1  -7 -15 5.31471 5.88074   9
   1  -7 -15 -1.9117 8.14383   2
  -1  -7  15 4.36172 6.17965   8
   1   7 -15 4.77658 19.7163   5
  -1   7  15 0.28270 7.97084   1
   0  -7  15 21.3116 7.72295   8
   0  -7 -15 17.3469 6.33964   9
   0  -7  15 29.5929 5.45122   4
   0  -7 -15 26.7318 9.29450   2
   0   7 -15 13.7472 11.5034   5
   0   7  15 23.6119 9.58224   1
  -1  -7 -15 0.83789 5.66342   2
  -1  -7 -15 -0.6217 5.34203   9
   1  -7  15 11.6129 10.5087   7
   1   7  15 -2.9151 7.72555   1
  -1   7 -15 0.85766 7.68814   5
   2  -7  15 -1.2696 6.82711   7
  -2  -7 -15 8.98399 6.47395   2
  -2  -7 -15 7.86793 6.39121   9
  -2   7 -15 -3.5609 7.71076   5
  -2   7 -15 3.75356 8.71355   2
   2   7  15 5.42317 11.3975   1
   2   7  15 -3.6515 6.08671   3
   3  -7  15 -0.9832 7.72366   7
  -3  -7 -15 1.35359 10.0268   2
  -3  -7 -15 3.24971 6.28673   9
  -3   7 -15 -0.3157 7.96436   5
   3   7  15 -10.641 11.4763   1
   3   7  15 17.1107 10.4331   3
  -3   7 -15 -0.0381 9.96197   2
   1  -8 -15 0.53208 6.17559   9
   1   8 -15 -4.6378 8.50050   5
  -1   8  15 1.59331 8.17062   1
  -9   0  16 -1.5217 8.60952   1
  -9   0  16 0.72614 5.64399   4
  -9   0  16 -3.0360 8.11361   8
   9   0 -16 4.75056 9.27724   6
  -8   0  16 9.63101 7.52463   1
  -8   0  16 1.74291 7.28045   4
  -8   0  16 7.13304 5.34175   8
   8   0 -16 5.49135 9.36271   6
   7   0 -16 3.64905 5.43736   3
  -7   0  16 -2.6545 4.74968   4
   7   0 -16 2.07743 6.97585   6
   7   0 -16 -2.8573 7.50998   5
  -7   0  16 2.36086 6.34157   1
  -7   0  16 0.99016 4.91150   8
   6   0 -16 44.2178 6.86094   5
   6   0 -16 43.3342 6.77011   3
   6   0 -16 38.6248 5.88280   6
  -6   0  16 55.8642 6.29258   1
   6   0 -16 33.8042 4.45568   9
  -6   0  16 37.6886 7.68026   4
  -5   0  16 -2.2204 3.46608   1
  -5   0  16 -3.7420 4.17089   4
   5   0 -16 -0.0836 2.51567   2
   5   0 -16 -2.4869 4.65751   5
   5   0 -16 2.99786 3.33477   9
   4   0 -16 441.905 18.9557   9
  -4   0  16 455.429 17.8269   4
   4   0 -16 449.198 17.4453   5
   4   0 -16 447.252 19.6252   2
  -4   0  16 415.688 13.4980   1
   3   0 -16 -0.9196 2.89428   2
   3   0 -16 -3.3772 3.80127   9
  -3   0  16 -1.4529 6.11392   4
   3   0 -16 -1.5331 6.08410   5
   3   0 -16 -2.1206 5.71322   1
  -3   0  16 3.79023 4.29060   1
  -2   0  16 2179.66 60.7681   4
   2   0 -16 2243.63 76.7500   2
   2   0 -16 2313.98 67.0030   5
   2   0 -16 2291.15 77.8343   9
   2   0 -16 2331.31 105.715   7
  -2   0  16 2128.05 87.7383   1
   1   0 -16 1.05347 3.44437   7
  -1   0  16 3.63337 4.77688   4
   1   0 -16 2.04713 3.66991   5
   1   0 -16 0.07827 3.10461   2
   1   0 -16 -0.7122 2.99838   9
   1   0 -16 -1.0504 3.57908   6
  -1   0  16 5.06613 3.54614   1
   0   0  16 74.2560 7.31474   4
   0   0 -16 55.1935 6.30849   9
   0   0 -16 66.2633 6.85705   2
   0   0 -16 78.1192 6.97378   5
   0   0 -16 75.2232 5.21755   6
   0   0  16 70.8587 5.39398   1
   0   0 -16 82.6080 5.20964   7
  -1   0 -16 1.92769 2.47234   7
  -1   0 -16 0.43311 3.78253   2
   1   0  16 -0.7504 3.41752   1
   1   0  16 5.48934 5.81079   3
  -1   0 -16 4.03266 3.54020   6
   1   0  16 -0.1909 4.38202   4
  -1   0 -16 0.61797 5.34713   5
  -2   0 -16 876.620 38.8980   6
   2   0  16 904.932 47.3128   1
   2   0  16 883.801 32.4215   3
   2   0  16 854.501 45.1180   1
  -2   0 -16 856.564 40.6484   7
   2   0  16 891.173 28.3238   4
  -2   0 -16 875.022 38.4244   5
   2   0  16 869.729 48.8896   7
  -2   0 -16 896.820 34.7563   2
  -3   0 -16 -3.5619 5.31769   5
  -3   0 -16 0.38816 4.37524   2
   3   0  16 -3.6647 6.95209   3
   3   0  16 3.83244 4.66362   4
   3   0  16 -0.3158 2.54824   7
  -4   0 -16 136.977 9.74821   2
   4   0  16 117.810 11.6372   3
   4   0  16 122.450 8.37275   6
   4   0  16 114.661 8.25994   7
  -4   0 -16 141.183 9.51209   5
   4   0  16 149.932 9.43345   4
  -5   0 -16 4.74980 8.37649   5
  -5   0 -16 3.46666 7.91260   2
   5   0  16 -3.5244 5.35301   7
   5   0  16 -2.8340 5.95662   3
   5   0  16 -0.0816 5.24475   6
  -6   0 -16 424.143 21.3791   2
   6   0  16 456.726 26.4367   3
   7   0  16 -2.2771 7.64589   3
  -7   0 -16 0.00000 9.26572   2
  -9  -1  16 169.915 14.3432   1
  -9  -1  16 163.704 13.2250   4
  -9  -1  16 165.961 13.3930   8
   9  -1 -16 182.639 12.3898   6
   9   1 -16 200.466 14.2184   6
  -9   1  16 161.109 13.0309   8
  -9   1  16 178.703 13.2253   1
  -9   1  16 151.929 13.5768   4
   8  -1 -16 84.0949 10.8908   6
  -8  -1  16 83.6520 9.04549   8
  -8  -1  16 83.0637 8.35273   1
  -8  -1  16 69.0310 8.47704   4
  -8   1  16 70.9434 9.84784   8
   8   1 -16 91.6214 9.58211   3
  -8   1  16 69.8130 9.81154   4
   8   1 -16 89.4508 11.3686   6
  -8   1  16 96.0769 10.8294   1
   8   1 -16 77.6997 11.0786   5
  -7  -1  16 22.5811 5.99913   8
   7  -1 -16 20.6318 4.30986   9
  -7  -1  16 34.0442 7.47707   1
  -7  -1  16 19.7152 7.33360   4
   7  -1 -16 30.5590 11.4683   6
   7   1 -16 17.8487 6.12451   5
  -7   1  16 31.0807 6.33705   1
   7   1 -16 25.5832 6.53722   6
  -7   1  16 24.5436 7.52322   4
   7   1 -16 27.0123 7.66126   3
   6  -1 -16 24.5159 17.6856   6
   6  -1 -16 15.0365 5.83234   5
   6  -1 -16 27.3273 4.81068   3
  -6  -1  16 13.6196 6.87479   8
  -6  -1  16 14.4202 5.28121   4
   6  -1 -16 10.4555 4.65854   9
  -6   1  16 16.9493 5.33806   1
   6   1 -16 22.7034 6.72970   3
  -6   1  16 8.39397 6.61027   4
   6   1 -16 20.4312 6.05411   5
  -5  -1  16 260.973 12.1502   4
   5  -1 -16 267.248 15.8385   5
  -5  -1  16 275.286 12.6844   1
   5  -1 -16 294.097 13.8406   6
   5  -1 -16 257.055 16.5534   9
  -5   1  16 271.298 12.5130   4
   5   1 -16 271.491 16.8621   9
  -5   1  16 267.214 11.9372   1
   5   1 -16 292.346 13.3647   5
  -4  -1  16 1199.60 53.9474   2
   4  -1 -16 1133.57 71.4919   3
  -4  -1  16 1124.03 42.0960   4
   4  -1 -16 1217.24 74.6353   2
  -4  -1  16 1136.03 48.8599   1
   4  -1 -16 1213.87 60.8406   5
   4  -1 -16 1162.75 57.2421   6
   4  -1 -16 1214.91 62.9761   9
  -4   1  16 1182.09 45.3430   1
   4   1 -16 1229.77 59.8469   9
  -4   1  16 1153.87 38.5389   4
   4   1 -16 1256.62 61.3541   2
   4   1 -16 1225.50 53.3642   5
   3  -1 -16 12.5983 3.99154   7
  -3  -1  16 14.6446 3.01145   1
   3  -1 -16 4.37290 5.64896   5
   3  -1 -16 8.70696 3.49295   3
   3  -1 -16 7.80541 4.87484   2
  -3  -1  16 7.42437 7.18172   4
   3  -1 -16 8.78390 4.56711   9
  -3   1  16 5.89548 5.07847   4
  -3   1  16 9.64764 4.17967   1
   3   1 -16 4.82644 2.57707   9
   3   1 -16 8.69326 4.84229   5
   3   1 -16 6.34697 3.78984   2
   3   1 -16 6.33954 3.66762   1
   2  -1 -16 7.62741 3.37799   7
   2  -1 -16 6.26023 3.71599   2
   2  -1 -16 2.25679 4.09062   5
  -2  -1  16 -0.2078 4.26944   4
   2  -1 -16 0.39512 3.20319   9
  -2  -1  16 4.82837 3.10384   1
   2   1 -16 3.56505 3.06074   2
   2   1 -16 -1.7876 5.87671   5
  -2   1  16 -0.8548 4.67655   4
   2   1 -16 2.31712 2.81353   9
  -2   1  16 3.27937 5.10777   1
  -1  -1  16 513.495 15.4285   1
   1  -1 -16 504.321 17.6645   2
   1  -1 -16 548.035 34.5248   7
   1  -1 -16 520.932 18.9440   5
  -1  -1  16 503.227 16.1412   4
   1  -1 -16 497.820 16.2705   9
   1  -1 -16 542.866 31.7466   6
   1   1 -16 491.833 19.2665   9
  -1   1  16 545.792 17.9740   4
   1   1 -16 511.870 22.0321   2
   1   1 -16 538.205 19.4926   5
  -1   1  16 549.187 22.3862   1
   0  -1 -16 42.1425 3.71120   6
   0  -1 -16 39.2751 5.03745   9
   0  -1  16 43.7761 3.73795   1
   0  -1  16 43.3831 6.09824   4
   0  -1 -16 47.7578 3.82472   7
   0  -1 -16 39.3249 6.46953   5
   0  -1 -16 44.5453 5.45597   2
   0   1 -16 54.6854 6.53560   5
   0   1  16 39.8720 5.76273   1
   0   1 -16 40.5748 5.08199   2
   0   1  16 42.1864 5.33939   3
   0   1  16 46.1674 6.82541   4
  -1  -1 -16 12.3857 4.32319   2
   1  -1  16 11.0294 3.42790   7
  -1  -1 -16 12.1869 4.08177   5
   1  -1  16 15.9737 2.71509   1
  -1  -1 -16 12.0702 2.74247   6
   1  -1  16 15.6517 2.91249   1
   1  -1  16 15.5766 6.61764   4
  -1  -1 -16 7.98249 3.97645   9
  -1  -1 -16 13.0488 2.71997   7
   1   1  16 12.9010 4.67694   3
   1   1  16 7.46951 4.59501   1
  -1   1 -16 7.79528 5.33434   2
  -1   1 -16 10.0457 6.26020   5
   1   1  16 13.4740 5.41288   4
  -2  -1 -16 2.85338 4.03743   9
   2  -1  16 2.30351 5.06674   1
   2  -1  16 3.17746 4.14864   4
  -2  -1 -16 1.66865 4.81875   5
  -2  -1 -16 1.45511 4.21451   2
   2  -1  16 2.05466 4.21926   7
   2  -1  16 2.04305 2.84891   1
   2  -1  16 3.48855 6.45048   3
  -2   1 -16 4.57492 4.65849   5
   2   1  16 0.47688 4.36837   3
   2   1  16 -0.3162 2.37742   7
   2   1  16 4.50267 3.80075   1
  -2   1 -16 1.61875 5.89726   2
   3  -1  16 113.158 10.5063   3
  -3  -1 -16 128.881 19.8959   5
  -3  -1 -16 105.137 9.86064   2
   3  -1  16 110.428 8.13591   7
   3  -1  16 132.800 9.25532   1
   3  -1  16 131.123 20.1957   4
   3   1  16 120.788 9.65608   3
  -3   1 -16 126.603 10.0980   5
  -3   1 -16 120.655 9.02580   2
   4  -1  16 95.6823 10.8622   3
  -4  -1 -16 95.4582 7.10891   5
   4  -1  16 82.3043 8.30418   7
   4  -1  16 96.1548 8.30300   6
   4  -1  16 99.4614 9.15065   4
  -4  -1 -16 87.3303 9.75055   2
  -4   1 -16 114.752 8.83660   5
   4   1  16 103.083 9.84080   3
  -4   1 -16 93.4217 10.1053   2
  -5  -1 -16 5.15881 7.90019   2
  -5  -1 -16 0.82153 4.97265   5
   5  -1  16 -0.0406 4.83014   6
   5  -1  16 4.55038 4.50680   4
   5  -1  16 4.44543 6.65804   7
   5  -1  16 7.59365 9.21840   3
  -5   1 -16 5.76237 6.67214   5
  -5   1 -16 4.14556 5.58583   2
   5   1  16 0.70416 6.44093   3
   6  -1  16 12.8042 7.79622   6
   6  -1  16 9.11013 7.79994   3
   6  -1  16 6.23073 7.70298   7
  -6  -1 -16 10.6406 6.79596   2
  -6   1 -16 18.1055 5.60913   5
  -6   1 -16 8.40982 6.34247   2
   6   1  16 10.2934 7.58666   3
   7  -1  16 76.5524 10.7453   3
  -7  -1 -16 60.6262 9.55598   2
  -7   1 -16 45.3527 8.96725   2
   7   1  16 51.2861 10.4453   3
   9  -2 -16 4.94701 8.21656   6
  -9  -2  16 -2.0468 8.63706   4
  -9  -2  16 7.99143 10.8029   1
  -9  -2  16 -1.7875 6.02532   8
  -9   2  16 -2.4470 7.81157   4
   9   2 -16 -4.5030 9.14799   5
  -9   2  16 -4.1204 7.68689   8
  -9   2  16 -4.7835 6.58775   1
   9   2 -16 5.61688 10.5078   6
  -8  -2  16 242.855 17.4911   8
  -8  -2  16 263.660 19.1075   1
   8  -2 -16 251.054 18.2429   6
  -8  -2  16 263.344 14.7419   4
   8   2 -16 277.796 15.7786   6
  -8   2  16 250.957 16.3077   4
  -8   2  16 237.431 17.7228   1
   8   2 -16 267.423 22.6215   3
   8   2 -16 252.198 15.5094   5
   7  -2 -16 97.2018 8.85362   9
  -7  -2  16 108.028 7.98938   1
   7  -2 -16 125.795 8.51480   6
  -7  -2  16 110.143 10.7374   4
  -7  -2  16 107.959 10.9019   8
  -7   2  16 117.769 10.0639   1
  -7   2  16 117.001 10.3581   4
   7   2 -16 113.895 12.2739   3
   7   2 -16 118.088 11.5156   5
   6  -2 -16 28.9788 6.10533   9
  -6  -2  16 27.8397 5.96378   4
  -6  -2  16 29.1466 4.89982   1
   6  -2 -16 28.0770 5.99076   6
  -6  -2  16 23.2948 7.49282   8
  -6   2  16 25.5875 6.04430   4
  -6   2  16 28.4139 6.38733   1
   6   2 -16 26.7900 6.47906   5
   6   2 -16 29.0954 6.31971   3
  -5  -2  16 -3.4406 4.08452   1
   5  -2 -16 -3.6548 3.93875   6
   5  -2 -16 -3.2157 4.58405   5
  -5  -2  16 -0.1139 4.13839   4
   5  -2 -16 -2.4148 4.49436   9
  -5  -2  16 -0.4165 5.93977   8
   5   2 -16 -2.1796 6.82708   5
  -5   2  16 0.84514 4.73735   4
  -5   2  16 -3.7086 4.57449   1
   4  -2 -16 31.1892 5.79841   5
   4  -2 -16 28.3970 4.64222   2
   4  -2 -16 36.1405 3.76009   6
  -4  -2  16 35.6898 5.74551   4
  -4  -2  16 33.1960 4.36607   1
   4  -2 -16 27.8641 4.45878   9
   4   2 -16 30.5815 3.39900   9
   4   2 -16 31.3488 3.52037   2
  -4   2  16 28.7960 6.37902   4
  -4   2  16 35.7150 7.59084   1
   3  -2 -16 18.2877 4.80855   5
  -3  -2  16 23.3470 3.33182   1
   3  -2 -16 12.9036 4.13230   9
   3  -2 -16 21.5362 3.13077   7
   3  -2 -16 17.1354 5.73742   2
   3  -2 -16 12.6183 3.99615   3
   3  -2 -16 21.3460 3.44011   6
  -3  -2  16 15.2140 4.67114   4
  -3   2  16 14.6320 5.62759   4
  -3   2  16 15.4559 5.21227   1
   3   2 -16 9.32063 3.11816   9
   3   2 -16 14.9728 3.54523   2
   3   2 -16 13.0536 5.23143   5
   2  -2 -16 2206.35 79.3071   7
  -2  -2  16 2040.59 79.0052   1
  -2  -2  16 2194.51 69.8829   4
   2  -2 -16 2211.91 82.4673   2
   2  -2 -16 2006.14 121.016   3
   2  -2 -16 2142.68 93.5545   6
   2  -2 -16 2157.49 77.5241   9
   2  -2 -16 2165.84 83.7549   5
  -2   2  16 2205.42 86.6010   1
   2   2 -16 2153.87 98.4392   2
   2   2 -16 2212.34 82.0734   9
   2   2 -16 2283.97 77.6020   5
  -2   2  16 2127.67 76.5580   4
   1  -2 -16 147.293 6.36865   6
   1  -2 -16 129.219 7.81799   9
   1  -2 -16 146.168 8.58151   6
   1  -2 -16 154.853 8.77876   5
   1  -2 -16 146.225 10.6126   7
   1  -2 -16 133.529 8.31519   2
  -1  -2  16 149.925 9.39235   4
  -1  -2  16 144.606 5.90507   1
  -1   2  16 145.384 8.23803   3
  -1   2  16 175.026 9.93297   1
   1   2 -16 156.431 7.54055   2
   1   2 -16 158.943 10.7625   5
  -1   2  16 138.784 10.0723   4
   0  -2 -16 187.630 9.97010   5
   0  -2  16 183.850 9.14347   4
   0  -2 -16 147.920 8.46026   9
   0  -2 -16 173.419 9.44990   2
   0  -2 -16 165.805 5.75208   6
   0  -2 -16 168.225 4.92804   6
   0   2  16 156.148 8.56265   3
   0   2  16 189.635 14.4336   1
   0   2 -16 168.352 9.04700   2
   0   2 -16 178.022 10.6591   5
  -1  -2 -16 2.59557 3.45296   5
  -1  -2 -16 2.80780 5.50343   9
  -1  -2 -16 5.17559 5.87009   2
   1  -2  16 -0.7406 3.37087   7
  -1  -2 -16 1.16618 0.51635   6
   1  -2  16 8.27078 5.45271   4
   1   2  16 0.00000 3.71230   1
  -1   2 -16 1.11159 5.35840   2
   1   2  16 3.19955 4.23971   3
  -1   2 -16 0.08325 4.58979   5
  -2  -2 -16 48.7813 7.87783   2
   2  -2  16 53.4344 6.55981   4
  -2  -2 -16 45.3296 7.17692   9
   2  -2  16 47.1572 5.84297   7
  -2  -2 -16 56.6585 5.51507   5
  -2   2 -16 55.9139 7.04854   5
  -2   2 -16 37.3630 7.30099   2
   2   2  16 54.5806 6.66032   1
   2   2  16 43.2171 8.10378   3
  -3  -2 -16 34.6726 6.27688   2
  -3  -2 -16 31.1947 5.59612   5
   3  -2  16 30.8593 6.02880   4
  -3  -2 -16 22.4049 5.41485   9
   3  -2  16 26.3404 5.29053   7
  -3   2 -16 26.6342 7.63043   2
   3   2  16 32.7815 6.29532   1
  -3   2 -16 35.7026 8.39052   5
   3   2  16 28.6351 6.75225   3
   4  -2  16 2.12339 4.40568   6
   4  -2  16 9.84601 5.31794   4
  -4  -2 -16 8.40344 3.38817   5
  -4  -2 -16 10.9693 7.31766   9
  -4  -2 -16 6.44222 7.56978   2
   4  -2  16 5.01388 6.52993   7
   4  -2  16 16.6110 8.65227   3
  -4   2 -16 6.86431 5.49907   5
   4   2  16 7.11605 6.47083   3
  -4   2 -16 6.37102 5.76096   2
   5  -2  16 9.89490 9.62566   3
  -5  -2 -16 16.0962 8.78511   2
   5  -2  16 7.31060 5.17548   6
   5  -2  16 11.9731 5.75316   7
  -5  -2 -16 6.10032 5.90234   9
  -5   2 -16 19.0490 6.33334   5
   5   2  16 19.6587 7.46428   3
  -5   2 -16 7.60873 10.9006   2
   6  -2  16 11.9377 7.81957   3
   6  -2  16 8.67579 8.65351   7
  -6  -2 -16 13.4878 7.05522   2
   6  -2  16 6.07562 8.58973   6
  -6   2 -16 1.30573 9.18614   2
   6   2  16 8.50208 7.73110   3
  -6   2 -16 18.1837 6.47021   5
  -7  -2 -16 0.93307 6.72953   2
   7  -2  16 1.85656 6.09754   6
   7  -2  16 -4.9219 10.4442   3
   7  -2  16 8.71974 9.11725   7
   7   2  16 5.54902 22.3006   3
  -7   2 -16 -0.8880 6.93001   2
   9  -3 -16 7.61512 9.11414   6
  -9  -3  16 -2.8067 6.25707   8
  -9  -3  16 1.98485 6.36261   4
  -9  -3  16 1.66450 8.56930   1
   9   3 -16 -2.1699 11.2213   6
   9   3 -16 -2.8407 6.30932   5
   9   3 -16 -1.9868 7.44547   3
  -9   3  16 -3.7393 5.47971   8
  -9   3  16 -2.6860 7.02729   1
  -9   3  16 -2.5175 7.98739   4
  -8  -3  16 115.642 10.0393   1
  -8  -3  16 95.5170 9.80246   4
  -8  -3  16 85.5620 9.64092   8
   8  -3 -16 110.092 10.4100   6
  -8   3  16 74.4140 10.1404   4
   8   3 -16 87.8565 10.7202   3
   8   3 -16 89.6271 11.9373   5
  -8   3  16 75.1658 12.0581   1
  -7  -3  16 43.4237 7.27039   4
   7  -3 -16 63.2912 8.00983   6
  -7  -3  16 54.6523 7.56032   8
  -7  -3  16 56.5361 7.88651   1
   7   3 -16 62.6367 11.4390   3
  -7   3  16 60.3053 7.73015   4
  -7   3  16 62.3723 8.72541   1
   7   3 -16 55.3456 8.22809   5
   6  -3 -16 17.5831 5.53244   6
  -6  -3  16 18.8805 4.56607   1
  -6  -3  16 18.2397 6.33873   4
  -6  -3  16 11.0598 7.67904   8
   6  -3 -16 3.92850 6.27573   9
  -6   3  16 10.4824 6.24471   1
  -6   3  16 6.61051 5.49662   4
   6   3 -16 9.65617 5.96405   5
   6   3 -16 14.0179 9.30304   3
  -5  -3  16 171.672 7.90963   1
   5  -3 -16 152.016 9.79673   9
   5  -3 -16 188.919 13.4655   6
  -5  -3  16 165.503 12.6694   8
  -5  -3  16 175.274 11.4147   4
   5   3 -16 173.339 11.2968   5
  -5   3  16 158.290 12.2027   4
  -5   3  16 176.268 11.6106   1
  -4  -3  16 46.6396 4.25143   1
  -4  -3  16 37.4481 5.89557   4
  -4  -3  16 32.3458 5.71645   8
   4  -3 -16 34.3260 6.78006   2
   4  -3 -16 44.3906 4.61158   6
   4  -3 -16 32.8360 5.35374   9
  -4   3  16 31.1543 8.67085   4
  -4   3  16 53.0731 8.97621   1
   4   3 -16 43.2967 7.05764   5
  -3  -3  16 30.8839 5.37182   4
   3  -3 -16 25.9543 5.61284   5
   3  -3 -16 18.9712 2.79507   6
  -3  -3  16 16.5615 2.29793   1
   3  -3 -16 20.2078 4.86099   2
  -3  -3  16 16.7658 6.31323   8
   3  -3 -16 31.0553 5.04385   9
  -3   3  16 20.3819 6.42781   4
   3   3 -16 25.8916 3.53425   9
   3   3 -16 19.3963 3.44822   2
  -3   3  16 31.5933 6.42103   1
   3   3 -16 21.9774 6.08501   5
   2  -3 -16 12.2401 4.54804   3
  -2  -3  16 11.0510 4.45571   4
  -2  -3  16 8.98212 4.32622   8
   2  -3 -16 12.4414 4.72982   2
   2  -3 -16 11.4073 5.72979   9
   2  -3 -16 9.70393 4.46012   5
   2   3 -16 11.4408 3.66042   9
   2   3 -16 7.17587 3.79079   2
  -2   3  16 15.9841 6.11597   4
  -2   3  16 18.3293 5.50136   1
   2   3 -16 11.5733 5.58106   5
  -1  -3  16 94.5208 7.96821   4
   1  -3 -16 87.1317 7.43843   2
   1  -3 -16 79.5189 6.74833   9
   1  -3 -16 90.3017 8.17045   5
  -1   3  16 90.9755 7.94204   1
  -1   3  16 85.3407 6.79782   3
   1   3 -16 80.4087 5.72940   2
   1   3 -16 87.9748 10.0192   5
   0  -3  16 22.5595 4.57412   4
   0  -3 -16 16.0943 5.06952   2
   0  -3 -16 7.12188 6.00569   9
   0  -3 -16 25.5103 5.77042   5
   0   3  16 19.7947 5.51770   1
   0   3 -16 17.2582 5.33543   2
   0   3 -16 18.8643 7.74501   5
   0   3  16 17.1930 4.46815   3
  -1  -3 -16 31.9374 5.65247   5
   1  -3  16 27.2946 6.72836   7
  -1  -3 -16 23.6573 5.17328   9
  -1  -3 -16 24.9631 5.54320   2
   1  -3  16 30.0954 4.63617   4
   1   3  16 24.2258 6.70340   3
   1   3  16 26.9728 7.69944   1
  -1   3 -16 27.3836 6.49128   5
  -1   3 -16 11.8479 5.93281   2
  -2  -3 -16 -5.1250 4.60819   9
  -2  -3 -16 -3.1006 3.17465   5
  -2  -3 -16 4.30466 6.41345   2
   2  -3  16 0.19925 4.70718   4
   2  -3  16 2.63781 6.17775   7
  -2   3 -16 -0.4029 4.20975   2
   2   3  16 -4.3413 7.03358   1
   2   3  16 -0.6898 4.58349   3
  -2   3 -16 -2.9355 7.29487   5
  -3  -3 -16 375.131 17.7737   9
  -3  -3 -16 361.705 19.4355   5
   3  -3  16 368.539 18.3032   4
  -3  -3 -16 361.447 18.5549   2
   3  -3  16 356.316 15.7225   7
  -3   3 -16 377.892 17.1964   2
  -3   3 -16 362.249 21.3282   5
   3   3  16 415.985 18.7032   1
   3   3  16 390.070 22.0959   3
   4  -3  16 6.45327 29.9094   7
  -4  -3 -16 1.84625 5.40139   9
  -4  -3 -16 -1.3793 5.38353   2
  -4   3 -16 2.69041 8.18634   5
   4   3  16 -0.0897 6.48115   3
  -4   3 -16 5.05399 7.75165   2
  -5  -3 -16 105.833 9.35882   9
   5  -3  16 98.7038 9.73120   6
   5  -3  16 113.674 12.2613   7
  -5  -3 -16 106.852 9.92922   2
   5   3  16 102.064 11.4173   3
  -5   3 -16 122.649 10.7782   5
  -5   3 -16 96.6097 11.8701   2
   6  -3  16 -1.9884 8.42943   6
  -6  -3 -16 -2.2725 6.01078   2
  -6  -3 -16 -0.8748 5.84428   9
   6  -3  16 -1.2046 6.21033   7
  -6   3 -16 1.75273 9.14156   2
  -6   3 -16 -3.9751 6.33907   5
   6   3  16 -2.6088 7.78506   3
  -8  -4  16 50.6217 10.2314   4
   8  -4 -16 51.8508 7.38846   6
  -8  -4  16 51.5004 10.2071   8
   8  -4 -16 50.8737 7.68758   7
   8   4 -16 43.2422 10.7173   5
   8   4 -16 54.2441 10.4043   3
  -8   4  16 25.7990 8.90859   4
  -8   4  16 45.7536 9.60963   1
   7  -4 -16 11.8087 5.77200   7
  -7  -4  16 3.79539 6.08895   4
  -7  -4  16 3.43779 5.89634   8
   7  -4 -16 16.5714 5.92151   9
   7  -4 -16 9.17010 5.76464   6
   7   4 -16 10.9163 11.4713   3
  -7   4  16 10.6663 7.56307   1
  -7   4  16 7.07536 6.39139   4
   7   4 -16 5.99238 6.62642   5
   6  -4 -16 42.4280 6.62797   7
  -6  -4  16 46.1977 9.08672   8
   6  -4 -16 32.3309 8.08235   9
  -6  -4  16 49.8307 7.68576   4
   6  -4 -16 52.1559 6.74056   6
   6   4 -16 48.8360 8.02091   5
  -6   4  16 59.4862 9.03868   1
  -6   4  16 35.7998 7.30348   4
   6   4 -16 49.1101 9.43482   3
   5  -4 -16 -2.8093 4.47882   9
   5  -4 -16 0.00000 3.88523   7
  -5  -4  16 0.07434 4.55577   4
  -5  -4  16 -1.0789 4.41018   8
   5  -4 -16 1.35825 6.51986   6
  -5   4  16 -5.2766 7.96765   4
   5   4 -16 4.41227 5.79103   5
  -5   4  16 -3.2113 5.98211   1
  -4  -4  16 301.469 14.6036   8
   4  -4 -16 330.933 15.6833   2
  -4  -4  16 312.498 15.6439   4
   4  -4 -16 266.192 16.8726   9
  -4   4  16 288.704 16.3753   4
  -4   4  16 325.418 16.1353   1
   4   4 -16 317.242 17.2750   5
   3  -4 -16 4.56057 4.32472   9
   3  -4 -16 3.67575 4.59071   2
  -3  -4  16 9.38056 6.31405   8
  -3  -4  16 7.19423 4.54364   4
  -3   4  16 4.18710 8.03649   1
  -3   4  16 7.26047 6.20459   4
   3   4 -16 3.63793 5.62437   5
  -2  -4  16 6.60407 4.24307   8
  -2  -4  16 -1.1807 3.88432   4
   2  -4 -16 5.15777 4.33185   9
   2  -4 -16 2.00948 6.38825   2
   2   4 -16 1.49202 3.44701   2
   2   4 -16 4.80232 7.70028   5
  -2   4  16 4.87171 6.14605   3
  -2   4  16 7.12585 5.90270   1
   1  -4 -16 28.9945 5.98911   2
   1  -4 -16 31.3823 5.58967   9
  -1  -4  16 33.6520 5.24088   8
  -1  -4  16 41.0805 5.42772   4
   1   4 -16 41.6804 9.20775   5
  -1   4  16 36.0570 4.50763   3
   1   4 -16 26.5365 4.28580   2
  -1   4  16 37.7444 8.66915   1
   0  -4 -16 138.645 8.86280   9
   0  -4  16 139.099 8.91449   8
   0  -4  16 146.090 8.76676   4
   0  -4 -16 114.526 8.78941   2
   0   4  16 143.823 9.31995   3
   0   4 -16 140.184 12.5122   5
   0   4  16 137.589 10.4452   1
   0   4 -16 135.754 8.52583   2
   1  -4  16 10.8464 3.83874   8
  -1  -4 -16 5.94730 5.16244   2
   1  -4  16 -0.0774 4.74598   7
   1  -4  16 3.28865 3.46313   4
  -1  -4 -16 2.96384 4.83970   9
  -1   4 -16 5.49372 5.99763   5
   1   4  16 6.26463 5.53880   1
  -1   4 -16 6.90771 4.43574   2
   1   4  16 2.37821 4.52427   3
   2  -4  16 17.2394 3.93128   8
   2  -4  16 9.76893 5.67447   7
  -2  -4 -16 11.4508 5.59725   2
  -2  -4 -16 11.3790 5.24222   9
   2  -4  16 20.7255 3.90224   4
   2   4  16 13.0135 6.58134   1
   2   4  16 20.2376 6.24933   3
  -2   4 -16 10.4264 7.19214   2
  -2   4 -16 9.10984 8.97988   5
   3  -4  16 8.69322 8.15507   7
  -3  -4 -16 -2.5390 5.27948   2
  -3  -4 -16 7.42606 7.02504   9
  -3   4 -16 3.35408 5.45015   2
  -3   4 -16 -1.0186 8.69248   5
   3   4  16 4.52638 9.43622   1
   3   4  16 6.44580 5.99511   3
  -4  -4 -16 192.969 11.4265   9
   4  -4  16 171.063 12.2520   7
  -4  -4 -16 179.168 11.9571   2
  -4   4 -16 185.041 13.1856   5
  -4   4 -16 167.082 13.9388   2
   4   4  16 200.011 14.5690   3
   5  -4  16 32.8506 8.00323   6
  -5  -4 -16 35.2222 7.40684   9
  -5  -4 -16 29.7159 7.46733   2
   5  -4  16 30.5365 10.6868   7
  -5   4 -16 48.2147 11.5154   5
   5   4  16 39.3266 9.04701   3
  -5   4 -16 31.6098 21.3872   2
  -6  -4 -16 158.125 11.3703   2
   6  -4  16 148.083 13.3943   7
  -6  -4 -16 146.194 13.2675   9
   6  -4  16 152.685 14.0007   6
  -6   4 -16 137.899 12.7052   2
   6   4  16 134.047 13.6581   3
  -6   4 -16 141.831 13.4239   5
  -7  -5  16 41.9482 8.13844   8
  -7  -5  16 39.1133 10.1851   4
   7  -5 -16 50.7912 11.2426   9
   7   5 -16 41.0108 10.7120   3
  -7   5  16 47.3111 9.62028   1
  -7   5  16 25.6136 9.62506   4
   7   5 -16 33.9198 10.4453   5
  -6  -5  16 -2.5035 5.46732   4
  -6  -5  16 -5.0698 7.84109   8
   6  -5 -16 0.74846 5.66783   9
  -6   5  16 -2.5400 7.17230   1
   6   5 -16 6.54869 6.24764   5
  -6   5  16 -2.6513 6.14382   4
   6   5 -16 -0.9625 8.63942   3
  -5  -5  16 9.56691 5.91699   8
  -5  -5  16 18.9747 6.30704   4
   5  -5 -16 12.4047 5.93767   9
   5   5 -16 10.9617 6.90482   5
  -5   5  16 19.2873 7.66404   1
  -5   5  16 11.3252 6.76788   4
   5   5 -16 6.90269 8.23180   3
   4  -5 -16 84.2474 8.16491   9
  -4  -5  16 99.3613 8.65562   8
  -4  -5  16 86.2870 8.18509   4
  -4   5  16 93.6702 10.6006   1
  -4   5  16 88.1815 9.67609   4
   4   5 -16 88.3310 9.77596   5
  -3  -5  16 24.3525 5.68911   4
   3  -5 -16 27.0533 5.99510   9
   3  -5 -16 21.2763 6.08963   2
  -3  -5  16 24.4482 5.69114   8
  -3   5  16 26.1901 7.71356   1
   3   5 -16 15.9775 9.23494   5
  -3   5  16 21.7668 7.35090   4
  -2  -5  16 7.18123 6.07511   4
   2  -5 -16 -1.3307 4.55646   9
   2  -5 -16 0.07328 5.01194   2
  -2  -5  16 3.29943 5.94083   8
  -2   5  16 0.70626 8.48035   1
   2   5 -16 2.47443 5.95111   5
   1  -5 -16 300.671 17.1733   2
  -1  -5  16 312.945 17.7726   8
  -1  -5  16 298.511 17.5299   4
   1  -5 -16 297.434 16.4986   9
  -1   5  16 295.349 16.7095   1
   1   5 -16 308.144 15.7339   5
   1   5 -16 293.083 17.4875   2
   0  -5  16 -4.2348 4.92740   4
   0  -5 -16 2.82000 4.81768   9
   0  -5 -16 1.77111 5.21397   2
   0  -5  16 3.05029 5.12005   8
   0   5  16 -0.5153 8.50754   1
   0   5 -16 7.23707 6.39942   5
   0   5 -16 -4.6446 5.41504   2
   0   5  16 2.13700 5.69588   3
  -1  -5 -16 6.59303 5.45277   2
   1  -5  16 -0.0770 5.44919   7
   1  -5  16 2.07059 3.24566   8
   1  -5  16 3.98778 4.75896   4
  -1  -5 -16 -1.1841 4.77457   9
  -1   5 -16 -0.8135 8.80682   5
   1   5  16 0.33267 8.73233   1
   1   5  16 7.75348 6.92877   3
  -1   5 -16 2.92319 4.51044   2
  -2  -5 -16 1.07481 5.20830   9
   2  -5  16 4.02881 5.84978   7
  -2  -5 -16 3.07842 5.51146   2
   2   5  16 0.96042 5.36320   3
  -2   5 -16 -3.4252 4.86899   2
  -2   5 -16 3.72292 9.55563   5
   2   5  16 -2.6085 6.51134   1
  -3  -5 -16 80.9223 9.84659   9
   3  -5  16 75.6852 11.8763   7
  -3  -5 -16 68.7407 10.4777   2
   3   5  16 69.9848 9.33111   3
   3   5  16 70.5527 10.5002   1
  -3   5 -16 49.9789 7.98103   2
  -3   5 -16 69.9931 12.7944   5
  -4  -5 -16 0.82640 7.87674   9
  -4  -5 -16 -1.6722 5.92802   2
   4  -5  16 -0.3400 9.21364   7
  -4   5 -16 2.74217 10.4863   5
   4   5  16 -0.1713 6.74941   3
  -4   5 -16 -3.0753 6.20226   2
   4   5  16 5.99476 7.74845   1
  -5  -5 -16 40.0391 9.22188   9
   5  -5  16 32.0363 9.24637   7
  -5  -5 -16 37.4272 8.29739   2
   5   5  16 34.3854 10.1647   3
  -5   5 -16 41.3721 9.32929   5
  -5   5 -16 30.7029 9.10766   2
  -6  -6  16 1.75995 6.69018   4
  -6  -6  16 9.42652 9.41632   8
   6  -6 -16 -1.9698 6.45627   9
   6   6 -16 2.65908 6.90585   5
   6   6 -16 -6.9523 10.0010   3
  -6   6  16 5.97285 11.4545   1
  -6   6  16 10.1072 7.45946   4
  -5  -6  16 -4.6139 8.05445   4
  -5  -6  16 3.41618 8.48087   8
   5  -6 -16 -4.7536 8.55176   9
   5   6 -16 -3.7311 9.29740   5
  -5   6  16 -6.5732 10.8536   1
   5   6 -16 5.50363 8.98820   3
  -5   6  16 -0.5596 6.95373   4
  -4  -6  16 155.736 11.9138   4
   4  -6 -16 148.908 12.1603   9
  -4  -6  16 156.107 11.8760   8
  -4   6  16 161.899 40.7143   4
  -4   6  16 134.131 15.7430   1
   4   6 -16 146.477 12.4905   5
  -3  -6  16 1.08491 5.08311   8
   3  -6 -16 2.46534 5.91159   9
  -3  -6  16 5.21953 5.27869   4
  -3   6  16 -2.7781 10.4383   1
   3   6 -16 1.87197 7.11867   5
   2  -6 -16 52.5580 9.41276   9
   2  -6 -16 51.1490 7.96858   2
  -2  -6  16 56.0278 9.84533   4
  -2  -6  16 56.2045 10.3269   8
  -2   6  16 57.7159 10.4276   1
   2   6 -16 61.7884 9.71979   5
   1  -6 -16 8.63916 5.73826   9
   1  -6 -16 5.45583 5.97835   2
  -1  -6  16 16.9214 6.48214   8
  -1  -6  16 15.1962 6.36855   4
  -1   6  16 13.1006 7.57062   1
   1   6 -16 10.1101 7.61929   5
   0  -6  16 42.7070 6.86960   4
   0  -6 -16 40.8219 6.92254   9
   0  -6  16 54.7835 7.15896   8
   0  -6 -16 39.3998 7.31292   2
   0   6 -16 35.8321 8.86712   5
   0   6  16 53.6559 9.74983   1
  -1  -6 -16 11.0083 6.37522   9
  -1  -6 -16 7.99124 6.45138   2
   1  -6  16 2.31719 6.73613   7
  -1   6 -16 4.59002 7.39385   2
  -1   6 -16 4.44164 7.45782   5
   1   6  16 4.28483 10.5079   1
   1   6  16 -0.2595 5.01481   3
  -2  -6 -16 78.4396 8.80213   9
  -2  -6 -16 71.7975 9.15623   2
   2  -6  16 78.6325 10.2015   7
  -2   6 -16 70.7512 13.6329   5
   2   6  16 103.416 11.8947   1
  -2   6 -16 73.0084 10.4421   2
   2   6  16 82.7828 11.0855   3
   3  -6  16 37.0418 11.8229   7
  -3  -6 -16 33.7522 7.42235   9
  -3  -6 -16 29.6695 10.1903   2
  -3   6 -16 23.0702 7.78016   2
   3   6  16 23.6576 7.99623   3
   3   6  16 40.6609 9.70720   1
  -3   6 -16 40.5625 12.7440   5
  -4  -6 -16 21.5296 9.52495   2
   4  -6  16 1.86684 8.09623   7
  -4  -6 -16 11.7884 9.91274   9
   4   6  16 2.10522 8.65964   3
  -4   6 -16 13.8720 9.59709   5
   4   6  16 15.1441 9.31441   1
  -4   6 -16 12.6386 8.36488   2
  -4  -7  16 16.5675 6.90450   4
  -4  -7  16 13.4108 6.64244   8
   4  -7 -16 11.7842 9.20848   9
  -4   7  16 9.30746 8.65901   4
   4   7 -16 4.99573 8.48617   5
  -4   7  16 12.1721 13.3973   1
   4   7 -16 16.1411 11.0778   3
  -3  -7  16 8.05892 5.64329   8
  -3  -7  16 1.71117 7.49480   4
   3  -7 -16 2.46219 6.16784   9
   3   7 -16 4.96893 11.2337   5
  -3   7  16 6.40312 8.52610   1
  -2  -7  16 26.5793 9.61309   4
   2  -7 -16 14.4190 9.62723   9
  -2  -7  16 21.7268 10.8561   8
   2  -7 -16 18.8866 8.09941   2
  -2   7  16 23.0642 9.61356   1
   2   7 -16 13.5795 9.29538   5
  -1  -7  16 46.4488 6.43541   8
   1  -7 -16 32.9151 9.89963   9
   1  -7 -16 33.4243 7.76032   2
  -1  -7  16 45.5841 7.88147   4
  -1   7  16 37.0046 9.66426   1
   1   7 -16 28.8887 9.48960   5
   0  -7 -16 3.40587 8.88213   2
   0  -7 -16 13.3222 8.15317   9
   0   7  16 -0.0888 8.07954   1
   0   7 -16 3.21829 11.5866   5
  -1  -7 -16 59.0743 11.1869   2
   1  -7  16 56.9285 10.9036   7
  -1  -7 -16 57.9197 8.18151   9
  -1   7 -16 58.9815 10.7099   5
   1   7  16 59.8548 14.7783   1
   2  -7  16 4.51319 8.42578   7
  -2  -7 -16 7.47557 6.76179   2
  -2  -7 -16 3.27244 7.36635   9
  -2   7 -16 8.20329 18.4129   5
   2   7  16 5.96499 8.42358   1
  -9   0  17 73.4524 9.51466   8
  -9   0  17 76.2445 9.41875   4
  -8   0  17 3.56585 7.50808   1
   8   0 -17 3.11865 6.77628   5
  -8   0  17 -2.4263 5.26633   4
   8   0 -17 -8.9508 7.88383   6
  -8   0  17 5.00106 7.94620   8
   7   0 -17 25.2463 6.95158   5
  -7   0  17 34.8639 6.17402   1
  -7   0  17 19.5730 7.79343   4
  -7   0  17 19.8088 6.14403   8
   7   0 -17 28.8198 8.15147   6
  -6   0  17 -0.7830 4.71051   4
   6   0 -17 -1.8565 4.21227   6
   6   0 -17 -0.8506 5.31365   3
  -6   0  17 4.82437 5.26151   1
   6   0 -17 2.20106 7.46850   5
   5   0 -17 5.42761 2.74768   9
  -5   0  17 8.91040 4.06689   1
   5   0 -17 5.46118 5.25410   5
   5   0 -17 8.96294 4.10016   2
  -5   0  17 6.21772 6.57114   4
  -4   0  17 -2.9718 3.23265   1
   4   0 -17 -2.3536 4.20354   2
   4   0 -17 -5.9430 4.80244   5
  -4   0  17 -0.0410 4.47182   4
   4   0 -17 -0.4980 3.96251   9
  -3   0  17 1546.74 49.9072   4
   3   0 -17 1489.35 79.8912   5
   3   0 -17 1516.21 49.3733   2
   3   0 -17 1488.55 54.3782   9
  -3   0  17 1437.42 50.0887   1
   2   0 -17 -4.2267 4.63289   2
   2   0 -17 0.04094 3.03383   6
   2   0 -17 -0.4071 4.97569   7
   2   0 -17 -6.4219 6.10251   5
  -2   0  17 -2.3107 4.30417   1
  -2   0  17 -9.9587 6.74936   4
   2   0 -17 0.93679 4.36245   9
  -1   0  17 152.885 11.0772   4
   1   0 -17 119.972 8.50597   9
   1   0 -17 131.443 8.16331   2
  -1   0  17 131.230 7.48158   1
   1   0 -17 131.211 9.16100   7
   1   0 -17 119.142 9.56266   5
   1   0 -17 126.661 7.84067   6
   0   0 -17 0.32037 3.62126   6
   0   0  17 0.70524 2.52412   1
   0   0 -17 0.68982 3.45437   9
   0   0 -17 -1.2453 2.59217   7
   0   0  17 -0.3312 6.49501   4
   0   0 -17 1.19985 3.66931   2
   0   0 -17 2.59695 5.77282   5
  -1   0 -17 398.305 36.0863   6
  -1   0 -17 375.184 14.8961   9
  -1   0 -17 412.718 21.5937   2
   1   0  17 404.752 15.4957   4
   1   0  17 420.425 15.1113   3
   1   0  17 402.377 23.8825   1
  -1   0 -17 427.403 18.7908   5
  -1   0 -17 418.918 31.4550   7
   2   0  17 2.46705 3.47693   7
   2   0  17 -2.0743 4.64107   4
  -2   0 -17 -1.0507 6.00969   2
  -2   0 -17 -2.9447 3.99921   5
   2   0  17 -0.9016 4.12263   1
   2   0  17 -3.7236 4.61637   3
  -3   0 -17 10.5281 6.14068   5
   3   0  17 5.82795 3.30365   7
   3   0  17 21.0447 6.53745   1
   3   0  17 15.9745 5.72205   4
   3   0  17 8.34244 7.58103   3
  -3   0 -17 8.49505 5.12363   2
   4   0  17 1.48760 5.46613   4
  -4   0 -17 1.30153 4.51784   5
   4   0  17 -0.3360 8.29266   3
  -4   0 -17 -0.6541 5.12372   2
  -5   0 -17 18.7464 6.91788   5
   5   0  17 21.9070 8.35114   4
  -5   0 -17 13.7466 8.91955   2
   5   0  17 19.2559 7.73602   3
  -6   0 -17 -2.9301 6.36803   2
   6   0  17 1.50341 6.89968   3
   7   0  17 7.59233 7.55539   3
  -9  -1  17 5.67403 6.31138   1
  -9  -1  17 2.71349 6.12635   8
  -9  -1  17 4.12477 6.14754   4
   9  -1 -17 2.82704 9.15875   6
  -9   1  17 4.38922 8.88106   1
  -9   1  17 0.69076 5.83616   4
  -9   1  17 1.93450 5.75755   8
   9   1 -17 -11.619 9.91864   6
  -8  -1  17 0.73522 8.19360   4
   8  -1 -17 -0.3136 5.34048   6
  -8  -1  17 4.09624 5.34434   1
  -8  -1  17 3.29890 5.95269   8
  -8   1  17 3.03097 5.83318   4
  -8   1  17 8.01380 5.76535   8
   8   1 -17 1.36363 9.06105   5
  -8   1  17 6.32878 7.97243   1
   8   1 -17 6.10495 8.99910   6
   7  -1 -17 26.7203 5.85903   6
  -7  -1  17 26.2666 7.23911   1
  -7  -1  17 28.3536 8.38678   8
  -7  -1  17 18.1456 6.00029   4
  -7   1  17 22.4580 6.28479   1
   7   1 -17 19.3451 6.49249   6
   7   1 -17 21.9374 8.01813   3
  -7   1  17 25.1445 6.41756   4
   7   1 -17 18.7611 8.86707   5
   6  -1 -17 28.8035 6.68749   6
   6  -1 -17 9.81952 4.82152   9
   6  -1 -17 13.3477 7.98426   5
  -6  -1  17 18.4073 5.91002   8
  -6  -1  17 22.6148 6.11742   1
  -6  -1  17 19.4557 5.88120   4
  -6   1  17 23.9584 5.77667   1
   6   1 -17 7.40500 5.79359   5
  -6   1  17 16.0178 7.40703   4
   6   1 -17 33.9645 7.57447   3
   5  -1 -17 154.157 8.90483   6
  -5  -1  17 143.083 10.6973   4
   5  -1 -17 134.641 10.0059   5
  -5  -1  17 150.038 8.80817   1
   5  -1 -17 156.469 9.39850   2
   5  -1 -17 142.848 8.19742   9
  -5   1  17 139.829 9.15870   1
   5   1 -17 137.386 10.3092   5
  -5   1  17 132.644 9.78494   4
   4  -1 -17 -2.6304 3.19972   2
  -4  -1  17 -3.5799 6.10400   4
   4  -1 -17 0.19048 3.08800   9
   4  -1 -17 -2.0931 4.52404   5
  -4  -1  17 1.78862 2.85582   1
   4  -1 -17 0.35367 3.00667   6
   4   1 -17 -0.1910 3.51930   2
  -4   1  17 7.86247 4.40493   1
   4   1 -17 -8.4331 6.73181   5
   4   1 -17 -3.3022 3.44540   9
  -4   1  17 -1.6501 4.85872   4
   3  -1 -17 133.172 7.66415   2
  -3  -1  17 123.772 8.76469   4
   3  -1 -17 120.492 8.87929   5
   3  -1 -17 122.375 10.1147   7
   3  -1 -17 104.172 7.51751   9
  -3  -1  17 119.339 5.90969   1
  -3   1  17 111.644 7.80743   1
   3   1 -17 113.713 6.08576   9
  -3   1  17 101.957 10.4468   4
   3   1 -17 122.437 9.17318   5
   3   1 -17 116.582 6.95956   2
   2  -1 -17 729.051 42.2826   7
  -2  -1  17 672.350 25.7244   1
   2  -1 -17 728.961 27.2556   2
  -2  -1  17 725.927 20.6299   4
   2  -1 -17 726.721 26.2979   5
   2  -1 -17 712.473 19.4801   9
   2  -1 -17 721.991 40.5502   6
   2   1 -17 689.641 48.3205   9
  -2   1  17 725.256 29.4981   4
  -2   1  17 688.768 30.3164   1
   2   1 -17 752.721 33.3773   5
   2   1 -17 756.571 25.4419   2
   1  -1 -17 108.571 7.14072   6
   1  -1 -17 112.262 9.21806   5
   1  -1 -17 109.800 8.33257   7
   1  -1 -17 92.6813 7.73968   9
  -1  -1  17 110.053 6.69746   1
  -1  -1  17 114.689 9.34487   4
   1  -1 -17 92.2255 7.16673   2
   1   1 -17 97.6332 8.40692   5
  -1   1  17 112.700 8.04847   1
  -1   1  17 116.617 9.43471   4
   1   1 -17 95.4480 6.63746   2
   1   1 -17 98.9002 7.04716   9
   0  -1 -17 157.379 9.20145   5
   0  -1 -17 165.594 9.52970   9
   0  -1 -17 152.569 8.11842   7
   0  -1 -17 155.801 7.79136   6
   0  -1  17 157.769 10.7478   4
   0  -1 -17 128.024 8.31205   2
   0  -1  17 163.722 6.80683   1
   0   1  17 162.818 10.5658   4
   0   1 -17 169.470 10.1801   5
   0   1  17 165.907 9.18468   1
   0   1  17 149.702 8.82551   3
   0   1 -17 154.564 8.53857   2
  -1  -1 -17 61.2641 6.25000   9
   1  -1  17 61.5868 5.74679   7
  -1  -1 -17 72.1517 8.21176   2
  -1  -1 -17 82.7255 8.00542   5
   1  -1  17 66.4159 4.66946   1
   1  -1  17 75.4652 7.46649   4
  -1   1 -17 70.0012 7.75256   2
   1   1  17 73.4010 6.24490   1
  -1   1 -17 80.9724 9.02447   5
   1   1  17 67.7749 6.98732   3
   1   1  17 74.1255 8.20501   4
   2  -1  17 28.6424 3.83930   1
   2  -1  17 18.9654 5.77466   3
  -2  -1 -17 17.5020 5.41595   2
   2  -1  17 27.6911 7.28953   4
  -2  -1 -17 23.9490 4.72802   5
  -2  -1 -17 30.5946 5.59190   9
   2  -1  17 19.3788 4.20310   7
  -2   1 -17 26.8103 5.97556   5
   2   1  17 36.7331 6.52973   1
   2   1  17 24.2140 6.04348   3
  -2   1 -17 23.2008 6.91216   2
  -3  -1 -17 47.8445 7.00718   5
   3  -1  17 47.8527 9.24650   3
  -3  -1 -17 36.7285 6.78523   2
   3  -1  17 40.1851 6.48051   7
   3  -1  17 39.8716 7.75877   4
   3  -1  17 41.5153 5.26819   1
   3   1  17 57.4227 6.84024   1
  -3   1 -17 59.8060 7.31091   5
  -3   1 -17 39.1104 8.27642   2
   3   1  17 44.6587 7.40203   3
   4  -1  17 54.5910 8.50581   3
   4  -1  17 57.3304 8.45052   4
  -4  -1 -17 55.3797 7.89620   2
  -4  -1 -17 72.4005 6.65779   5
   4  -1  17 50.8265 7.64193   7
  -4   1 -17 52.6205 9.60311   2
   4   1  17 58.9455 8.76799   3
  -4   1 -17 69.7972 9.31225   5
  -5  -1 -17 -2.4801 8.28446   2
   5  -1  17 -0.5681 4.63730   7
   5  -1  17 -2.7479 9.33060   3
   5  -1  17 1.78071 4.67639   6
  -5   1 -17 -1.5816 5.81184   2
   5   1  17 -0.8579 6.63370   3
  -5   1 -17 -8.7265 6.82037   5
  -6  -1 -17 37.5509 7.91853   2
   6  -1  17 31.1398 8.84774   3
  -6   1 -17 50.4665 8.87846   5
   6   1  17 35.6930 9.02137   3
  -6   1 -17 33.9459 8.21892   2
  -9  -2  17 -2.9593 6.50298   8
  -9  -2  17 5.55289 6.78747   4
   9  -2 -17 3.36521 8.48884   6
  -9  -2  17 -1.9112 8.61359   1
  -9   2  17 3.54107 5.77930   8
   9   2 -17 -4.7294 7.72000   6
   9   2 -17 -1.5837 7.09669   5
  -9   2  17 1.65771 7.13982   1
  -9   2  17 -1.1536 5.78448   4
  -8  -2  17 9.36457 5.44433   1
   8  -2 -17 17.7980 5.84991   6
  -8  -2  17 10.6827 6.29887   4
  -8  -2  17 7.00843 6.12262   8
   8   2 -17 10.5866 7.00888   3
   8   2 -17 13.7517 7.48920   6
   8   2 -17 13.5674 6.89853   5
  -8   2  17 5.12336 6.02069   4
  -8   2  17 16.6700 6.73559   1
  -7  -2  17 122.362 10.1157   4
  -7  -2  17 126.159 9.26115   1
   7  -2 -17 144.330 11.0061   6
  -7  -2  17 122.361 10.2971   8
   7  -2 -17 121.001 9.05126   9
  -7   2  17 140.620 10.8258   1
   7   2 -17 126.677 10.4584   3
  -7   2  17 127.683 10.0642   4
   7   2 -17 126.222 10.8733   5
   6  -2 -17 0.26081 5.29750   9
  -6  -2  17 2.50239 4.91110   8
  -6  -2  17 0.30435 4.67718   4
   6  -2 -17 4.73576 5.22915   6
  -6  -2  17 -0.7358 3.61000   1
   6   2 -17 -5.4346 7.93704   3
  -6   2  17 2.04816 5.15293   4
   6   2 -17 -1.1659 5.45570   5
  -6   2  17 3.04184 5.34085   1
  -5  -2  17 8.19886 4.56879   1
  -5  -2  17 9.87577 5.07043   4
   5  -2 -17 9.90841 4.47830   6
  -5  -2  17 14.6201 5.36308   8
   5  -2 -17 3.36007 3.84253   9
   5  -2 -17 6.74088 7.48318   5
  -5   2  17 13.0297 5.45604   1
   5   2 -17 6.18324 7.57380   5
  -5   2  17 5.48692 5.45119   4
   4  -2 -17 48.1997 8.81128   2
  -4  -2  17 69.1163 7.25313   4
   4  -2 -17 70.1085 4.83308   6
   4  -2 -17 61.7304 7.33313   5
   4  -2 -17 64.1377 6.88366   9
  -4  -2  17 72.4865 5.43747   1
   4   2 -17 54.0917 7.43299   5
  -4   2  17 65.2471 9.76753   4
  -4   2  17 74.3776 7.63036   1
   3  -2 -17 0.33158 4.07795   5
   3  -2 -17 4.79716 5.57789   2
  -3  -2  17 2.97942 4.23294   4
   3  -2 -17 7.23894 3.12049   6
  -3  -2  17 7.34888 2.80532   1
   3  -2 -17 6.57812 5.29487   9
  -3   2  17 7.95396 5.63129   4
  -3   2  17 6.71511 4.90590   1
   3   2 -17 0.83588 3.51885   2
   3   2 -17 5.21197 6.94632   5
   3   2 -17 2.35549 3.32156   9
   2  -2 -17 23.0223 6.50691   2
   2  -2 -17 20.3874 5.29807   5
  -2  -2  17 15.2706 2.31030   1
   2  -2 -17 20.4764 2.75332   6
  -2  -2  17 31.3281 5.60338   4
   2  -2 -17 30.3694 5.05563   9
  -2   2  17 38.9371 7.23522   4
   2   2 -17 21.1551 4.82288   2
   2   2 -17 15.3589 4.42988   9
  -2   2  17 25.9364 5.56146   1
   2   2 -17 29.8250 6.39094   5
   1  -2 -17 190.954 9.97235   2
  -1  -2  17 207.360 11.1295   4
   1  -2 -17 209.963 10.6366   9
   1  -2 -17 201.688 10.3594   5
  -1   2  17 218.401 10.5565   1
   1   2 -17 219.054 11.9936   5
  -1   2  17 178.758 11.7059   3
   1   2 -17 210.140 10.4833   2
  -1   2  17 205.035 12.2334   4
   0  -2 -17 180.046 10.3388   9
   0  -2  17 170.201 9.38881   4
   0  -2 -17 171.775 9.74272   2
   0  -2 -17 178.497 10.4447   5
   0   2  17 197.420 10.1821   1
   0   2 -17 171.135 8.85859   2
   0   2  17 185.079 9.41107   3
   0   2 -17 183.858 11.1330   5
   0   2  17 184.347 11.4370   4
  -1  -2 -17 91.9042 7.57163   9
  -1  -2 -17 107.731 8.33655   5
   1  -2  17 109.657 7.73554   4
  -1  -2 -17 96.3305 8.00826   2
   1  -2  17 94.4615 7.32822   7
   1   2  17 109.856 8.09482   1
   1   2  17 84.8554 8.85150   3
  -1   2 -17 91.8050 8.51072   2
  -1   2 -17 111.159 10.3769   5
  -2  -2 -17 -0.1495 4.63111   2
   2  -2  17 -0.1581 10.3298   7
  -2  -2 -17 2.99218 4.39742   9
  -2  -2 -17 0.46477 5.14113   5
   2  -2  17 4.39476 5.58436   4
  -2   2 -17 1.98883 5.20061   5
   2   2  17 2.65388 7.12607   3
  -2   2 -17 3.11176 4.55240   2
  -3  -2 -17 16.8292 5.80551   2
   3  -2  17 30.3936 5.16548   4
   3  -2  17 22.8587 21.6352   7
  -3  -2 -17 22.2026 7.25652   9
  -3  -2 -17 26.6512 4.74745   5
  -3   2 -17 23.2924 6.25618   5
   3   2  17 33.3357 6.73650   1
   3   2  17 31.3459 9.03863   3
  -3   2 -17 20.1385 5.82277   2
   4  -2  17 64.1305 7.30963   4
  -4  -2 -17 50.4127 7.56003   9
   4  -2  17 56.6972 8.68876   3
   4  -2  17 54.1183 7.29538   7
  -4  -2 -17 59.7738 8.11918   2
  -4  -2 -17 60.1282 6.71630   5
   4   2  17 53.4475 10.9172   3
  -4   2 -17 62.9945 8.36479   5
  -4   2 -17 58.1977 8.02790   2
  -5  -2 -17 228.651 15.7148   2
   5  -2  17 213.054 13.4422   6
   5  -2  17 240.944 16.1474   7
  -5  -2 -17 282.462 15.2610   9
   5  -2  17 249.872 17.0908   3
  -5   2 -17 247.524 16.8580   2
  -5   2 -17 261.989 18.0234   5
   5   2  17 247.564 17.1585   3
  -6  -2 -17 -6.1416 6.15663   9
   6  -2  17 0.57599 6.02793   7
   6  -2  17 -7.0006 10.3691   3
   6  -2  17 1.81725 5.69182   6
  -6  -2 -17 0.74497 6.90413   2
  -6   2 -17 7.81391 8.37292   5
  -6   2 -17 2.50554 9.31042   2
   6   2  17 3.40328 7.62143   3
  -8  -3  17 3.04606 9.23833   4
  -8  -3  17 11.1274 9.10679   8
  -8  -3  17 10.6799 5.63727   1
   8  -3 -17 3.23209 7.80000   6
  -8   3  17 6.46858 9.93418   1
  -8   3  17 3.92639 5.93277   4
   8   3 -17 7.91206 10.7083   3
   8   3 -17 5.98018 7.09867   5
  -7  -3  17 3.23938 5.46615   8
  -7  -3  17 -0.1873 6.21683   1
   7  -3 -17 4.15509 6.30274   6
  -7  -3  17 5.91518 7.87473   4
   7  -3 -17 -0.7419 4.79527   9
   7   3 -17 1.60122 6.30001   5
   7   3 -17 0.09854 10.5916   3
  -7   3  17 -3.3810 5.44788   4
  -7   3  17 2.81866 6.19695   1
   6  -3 -17 633.280 36.2503   9
  -6  -3  17 638.257 39.2168   8
  -6  -3  17 637.107 30.7693   1
  -6  -3  17 656.046 36.5726   4
   6  -3 -17 673.188 37.5062   6
  -6   3  17 628.869 33.4882   1
  -6   3  17 628.809 34.3622   4
   6   3 -17 668.531 44.9672   5
   6   3 -17 672.595 37.7295   3
   5  -3 -17 1.03691 3.85550   6
  -5  -3  17 -0.6820 2.88803   1
  -5  -3  17 -0.5943 4.71961   4
  -5  -3  17 1.23226 4.73197   8
   5  -3 -17 -1.5418 3.93240   9
  -5   3  17 -1.8501 5.73641   4
   5   3 -17 -2.3343 5.35183   5
  -5   3  17 1.63189 5.60404   1
   4  -3 -17 166.499 11.2316   6
  -4  -3  17 161.426 9.76910   1
   4  -3 -17 167.473 9.15609   9
   4  -3 -17 182.718 9.94652   2
  -4  -3  17 132.135 10.4475   8
  -4  -3  17 155.838 10.9381   4
  -4   3  17 156.980 11.4992   4
   4   3 -17 169.796 12.8960   5
  -4   3  17 179.794 12.8712   1
  -3  -3  17 78.3032 7.42025   4
  -3  -3  17 87.2779 7.60971   8
   3  -3 -17 52.8356 7.45321   9
   3  -3 -17 63.5477 8.19917   2
   3  -3 -17 79.8905 7.89866   5
   3   3 -17 71.6685 8.46289   5
  -3   3  17 86.6854 8.72145   1
  -3   3  17 47.5271 10.1054   4
   2  -3 -17 0.33581 4.40679   2
  -2  -3  17 0.38306 5.89454   4
   2  -3 -17 2.29114 5.99764   5
   2  -3 -17 2.91458 4.09953   9
  -2   3  17 -0.1921 5.79371   4
  -2   3  17 2.97871 6.94132   1
   2   3 -17 0.36664 3.60798   9
   2   3 -17 0.65357 3.81068   2
   2   3 -17 -2.6809 7.25334   5
   1  -3 -17 109.856 8.20744   5
   1  -3 -17 114.098 8.09066   9
   1  -3 -17 125.878 8.82443   2
  -1  -3  17 125.261 8.28824   4
   1   3 -17 106.426 6.73749   2
   1   3 -17 112.460 11.3006   5
  -1   3  17 121.776 9.21670   1
  -1   3  17 111.102 7.11666   3
   0  -3 -17 197.613 9.86871   5
   0  -3 -17 191.668 10.5083   2
   0  -3 -17 193.786 11.0293   9
   0  -3  17 205.705 10.0366   4
   0   3  17 187.803 11.9306   1
   0   3  17 172.440 10.1779   3
   0   3 -17 188.120 13.2297   5
   0   3 -17 193.913 10.3645   2
   1  -3  17 1.71719 6.41811   7
  -1  -3 -17 -2.0476 4.25097   9
  -1  -3 -17 0.95632 4.64585   2
   1   3  17 6.10103 6.89084   1
  -1   3 -17 3.19887 5.32450   5
   1   3  17 6.67991 4.82361   3
  -1   3 -17 2.28044 4.01130   2
  -2  -3 -17 212.345 10.7484   5
   2  -3  17 204.861 10.0580   4
  -2  -3 -17 221.955 11.5275   2
  -2  -3 -17 196.489 10.8714   9
   2  -3  17 191.693 12.7863   7
   2   3  17 217.001 11.9100   3
  -2   3 -17 205.312 14.6517   5
   2   3  17 223.825 13.6691   1
  -2   3 -17 189.310 11.8992   2
  -3  -3 -17 146.789 8.06780   5
  -3  -3 -17 130.177 11.3089   2
   3  -3  17 135.855 10.1230   7
   3  -3  17 140.871 8.52534   4
  -3  -3 -17 119.082 10.7441   9
  -3   3 -17 146.267 12.9963   5
   3   3  17 138.839 11.4169   1
  -3   3 -17 145.921 11.7631   2
   3   3  17 141.999 10.9816   3
   4  -3  17 160.803 12.7964   7
  -4  -3 -17 167.292 11.5832   2
  -4  -3 -17 175.321 12.4407   9
  -4   3 -17 175.920 11.8557   2
  -4   3 -17 181.057 12.8665   5
   4   3  17 161.984 14.0927   3
   5  -3  17 30.7904 7.33419   6
  -5  -3 -17 39.6738 9.68713   9
  -5  -3 -17 36.4601 7.98289   2
   5  -3  17 28.6183 9.77485   7
  -5   3 -17 41.1714 10.2875   5
   5   3  17 40.9744 23.1534   3
  -5   3 -17 29.4674 10.1067   2
   6  -3  17 3.20682 6.69616   6
  -6  -3 -17 1.27492 5.97591   9
   6  -3  17 2.38373 6.60669   7
  -6  -3 -17 -1.6634 9.06215   2
  -6   3 -17 -4.2770 6.44410   5
  -6   3 -17 -2.7884 9.32249   2
   6   3  17 3.65327 7.81669   3
  -8  -4  17 5.29460 17.2196   8
  -8  -4  17 5.13799 16.9345   4
  -8   4  17 10.3563 8.68758   4
  -8   4  17 1.08992 7.64182   1
   8   4 -17 5.91830 10.0140   5
   8   4 -17 -1.8626 12.3605   3
  -7  -4  17 51.1026 10.1567   8
  -7  -4  17 45.0608 10.2998   4
   7  -4 -17 44.2349 9.22235   9
  -7   4  17 36.1847 8.13242   4
  -7   4  17 42.7659 9.45367   1
   7   4 -17 54.1777 9.02685   5
   7   4 -17 46.8433 10.2828   3
  -6  -4  17 1.28812 5.81905   4
  -6  -4  17 -1.8814 5.53320   8
   6  -4 -17 -3.0389 5.08200   9
  -6   4  17 0.25909 9.34134   1
   6   4 -17 -0.2426 5.98826   5
  -6   4  17 2.32243 5.87914   4
   6   4 -17 -5.8487 10.6757   3
  -5  -4  17 62.7073 9.29072   8
  -5  -4  17 85.3964 9.76398   4
   5  -4 -17 69.1362 7.58516   9
   5   4 -17 85.3879 9.87038   5
  -5   4  17 86.0119 10.1227   1
  -5   4  17 75.1253 9.62480   4
   4  -4 -17 72.7040 8.06321   2
   4  -4 -17 81.9549 7.79886   9
  -4  -4  17 85.5059 8.31304   8
  -4  -4  17 83.5862 8.18560   4
  -4   4  17 78.6418 9.71476   4
   4   4 -17 86.2444 11.4423   5
  -4   4  17 76.3174 9.74916   1
   3  -4 -17 208.354 12.4469   2
   3  -4 -17 232.667 14.1219   9
  -3  -4  17 240.448 11.6050   4
  -3  -4  17 224.652 11.6411   8
   3   4 -17 231.992 13.5525   5
  -3   4  17 230.045 15.1490   4
  -3   4  17 228.429 13.4186   1
   2  -4 -17 18.2540 7.13691   9
  -2  -4  17 25.5844 6.67604   4
   2  -4 -17 27.0325 7.58493   2
  -2  -4  17 20.8401 5.14295   8
  -2   4  17 18.7388 8.97777   1
  -2   4  17 10.4156 6.64034   4
   2   4 -17 27.2335 9.08720   5
  -1  -4  17 195.204 11.2855   8
  -1  -4  17 197.481 11.2805   4
   1  -4 -17 210.671 10.6317   9
   1  -4 -17 190.085 12.1733   2
   1   4 -17 194.187 14.2962   5
  -1   4  17 205.745 12.2613   1
   1   4 -17 195.076 11.9264   2
  -1   4  17 205.831 9.91493   3
   0  -4 -17 2.86598 5.13308   2
   0  -4  17 7.32395 4.21355   8
   0  -4  17 5.66788 4.13327   4
   0  -4 -17 2.46371 4.65897   9
   0   4 -17 2.19376 8.52979   5
   0   4  17 8.54353 5.93274   1
   0   4 -17 1.09975 5.37991   2
   0   4  17 1.23567 4.26762   3
   1  -4  17 201.787 12.8074   8
   1  -4  17 215.219 12.3084   4
  -1  -4 -17 206.608 11.8331   2
   1  -4  17 191.733 12.8305   7
  -1  -4 -17 186.035 10.7116   9
   1   4  17 201.495 11.1987   3
  -1   4 -17 161.895 10.9430   2
   1   4  17 218.016 14.1530   1
  -1   4 -17 207.219 13.2108   5
  -2  -4 -17 4.05988 5.62677   2
   2  -4  17 13.2033 5.07136   4
   2  -4  17 4.77854 5.71074   7
   2  -4  17 7.81384 4.97865   8
  -2  -4 -17 8.07620 5.34377   9
  -2   4 -17 43.2584 32.3754   2
  -2   4 -17 7.26636 6.80136   5
   2   4  17 1.43484 5.51005   3
   2   4  17 1.28750 6.26476   1
  -3  -4 -17 8.21870 7.62939   9
   3  -4  17 13.3083 8.84972   7
  -3  -4 -17 9.46795 8.40212   2
   3   4  17 2.63446 6.65185   3
  -3   4 -17 16.8015 7.34863   5
   3   4  17 12.7061 12.4123   1
  -3   4 -17 12.0332 8.32318   2
   4  -4  17 88.3358 12.0291   7
  -4  -4 -17 99.2728 9.81236   2
  -4  -4 -17 110.427 11.2661   9
   4   4  17 101.698 13.2820   3
  -4   4 -17 96.7092 11.1092   5
  -4   4 -17 116.667 10.6116   2
   4   4  17 119.350 13.7324   1
  -5  -4 -17 56.6462 10.6019   9
  -5  -4 -17 64.6380 8.69857   2
   5  -4  17 44.4564 11.4645   7
  -5   4 -17 67.7953 9.99563   5
   5   4  17 55.8217 13.2090   3
  -5   4 -17 52.7963 9.60560   2
   7  -5 -17 6.45306 6.38074   9
  -7  -5  17 17.2324 7.14315   8
  -7  -5  17 6.51389 6.58456   4
   7   5 -17 1.90212 10.1771   5
   7   5 -17 -2.4751 13.5248   3
  -7   5  17 7.53666 8.05462   1
  -7   5  17 4.83693 9.19249   4
   6  -5 -17 92.5177 10.7442   9
  -6  -5  17 82.2444 9.13406   8
  -6  -5  17 96.1483 9.53072   4
  -6   5  17 95.2719 11.6448   1
  -6   5  17 68.6667 12.0326   4
   6   5 -17 84.5330 11.9388   5
   6   5 -17 102.791 15.4926   3
   5  -5 -17 5.84892 8.41156   9
  -5  -5  17 1.19551 8.12506   4
  -5   5  17 3.77537 7.30709   1
   5   5 -17 31.3469 35.2571   5
  -5   5  17 32.9394 35.8375   4
   5   5 -17 21.8886 12.2494   3
   4  -5 -17 23.2587 8.66927   9
  -4  -5  17 31.9395 8.68357   8
  -4  -5  17 41.2252 8.93334   4
   4   5 -17 33.1711 10.4392   5
  -4   5  17 28.3617 10.6269   4
  -4   5  17 34.9846 8.81710   1
   3  -5 -17 -2.6621 7.40891   2
   3  -5 -17 -3.5905 7.06780   9
  -3  -5  17 -3.9067 6.66642   4
  -3  -5  17 -0.0715 4.77446   8
  -3   5  17 -3.1829 6.71785   4
  -3   5  17 1.22642 6.72791   1
   3   5 -17 -1.1069 6.31041   5
  -2  -5  17 21.4011 5.40224   4
   2  -5 -17 20.6213 6.32906   2
  -2  -5  17 30.6467 5.62613   8
   2  -5 -17 22.0495 5.98388   9
  -2   5  17 24.5351 8.02113   1
   2   5 -17 29.8228 7.70965   5
   1  -5 -17 -1.7804 5.33299   2
   1  -5 -17 -2.8077 7.21553   9
  -1  -5  17 0.03526 5.52408   8
  -1  -5  17 1.73843 5.69368   4
   1   5 -17 -1.3808 6.06727   5
  -1   5  17 2.36477 10.7884   1
   0  -5 -17 3.17009 5.56348   2
   0  -5 -17 -1.0896 4.91271   9
   0  -5  17 -1.2703 3.71274   4
   0  -5  17 -0.1069 3.64398   8
   0   5  17 6.88736 10.5865   1
   0   5  17 -2.1702 4.09857   3
   0   5 -17 -3.0588 5.71118   2
   0   5 -17 -2.2866 6.46822   5
   1  -5  17 23.3299 5.87361   8
  -1  -5 -17 17.3817 6.13396   9
   1  -5  17 13.4309 6.72594   7
   1  -5  17 21.4871 4.58765   4
  -1  -5 -17 16.2532 6.49413   2
  -1   5 -17 6.56031 6.78385   2
   1   5  17 20.5442 9.99703   1
   1   5  17 13.9977 5.69872   3
  -1   5 -17 13.8502 7.61426   5
  -2  -5 -17 25.0169 6.94812   2
   2  -5  17 18.9506 9.28763   7
  -2  -5 -17 23.3224 6.67481   9
  -2   5 -17 20.3239 8.29973   2
  -2   5 -17 19.3450 10.7714   5
   2   5  17 25.2545 8.56844   1
   2   5  17 15.7468 8.90007   3
   3  -5  17 64.8908 11.8554   7
  -3  -5 -17 67.8949 8.47340   9
  -3  -5 -17 67.3586 10.9895   2
  -3   5 -17 83.0726 13.4552   5
  -3   5 -17 68.3654 10.7104   2
   3   5  17 60.4512 11.4100   3
   3   5  17 77.0597 13.4118   1
  -4  -5 -17 150.350 12.4872   9
   4  -5  17 133.399 14.7655   7
  -4  -5 -17 149.281 13.4483   2
  -4   5 -17 132.823 13.8460   2
   4   5  17 153.270 13.7612   1
  -4   5 -17 159.364 14.3993   5
   4   5  17 149.299 14.4789   3
  -6  -6  17 6.77331 6.98031   4
  -6  -6  17 8.25187 7.28335   8
   6  -6 -17 7.81139 7.28189   9
  -6   6  17 1.94549 10.3054   4
   6   6 -17 9.06664 15.1501   3
   6   6 -17 10.2623 8.02951   5
  -6   6  17 19.4713 12.3072   1
  -5  -6  17 22.5669 7.17703   4
  -5  -6  17 10.3079 6.71041   8
   5  -6 -17 15.8268 7.32414   9
   5   6 -17 10.8471 7.95066   5
  -5   6  17 15.9003 12.9555   1
   5   6 -17 18.9847 9.98919   3
  -5   6  17 15.0049 8.80402   4
  -4  -6  17 2.44380 5.84292   8
   4  -6 -17 5.38612 6.11646   9
  -4  -6  17 3.90235 5.56890   4
  -4   6  17 6.88551 8.20315   1
   4   6 -17 7.54931 10.4633   5
  -4   6  17 7.90009 10.6932   4
  -3  -6  17 103.166 10.3423   8
   3  -6 -17 73.7677 10.8230   9
   3  -6 -17 72.4225 9.85496   2
  -3  -6  17 95.0066 9.89873   4
   3   6 -17 94.4228 11.2269   5
  -3   6  17 81.1511 10.6337   4
  -3   6  17 90.5627 11.7976   1
  -2  -6  17 6.70477 5.16880   4
  -2  -6  17 8.75833 5.38038   8
   2  -6 -17 2.04207 5.95444   9
   2  -6 -17 0.87133 6.23357   2
   2   6 -17 14.8908 8.02895   5
  -2   6  17 11.8391 8.26074   1
  -1  -6  17 11.7112 5.14340   4
   1  -6 -17 14.6550 6.20149   9
  -1  -6  17 12.1207 5.09857   8
   1  -6 -17 9.69637 8.90192   2
  -1   6  17 5.37814 7.66185   1
   1   6 -17 9.96888 8.19944   5
   0  -6  17 41.7850 5.76224   4
   0  -6 -17 40.7295 9.78415   2
   0  -6  17 39.4497 5.76915   8
   0  -6 -17 26.1041 7.02964   9
   0   6 -17 34.5163 9.18591   5
   0   6  17 32.4261 12.1380   1
  -1  -6 -17 420.564 28.1621   2
   1  -6  17 457.554 36.1663   7
  -1  -6 -17 429.940 27.8977   9
   1   6  17 480.652 27.9950   1
  -1   6 -17 447.958 28.7759   5
  -1   6 -17 392.073 26.5221   2
   2  -6  17 14.1371 10.3081   7
  -2  -6 -17 -1.7693 5.90710   9
  -2  -6 -17 6.80753 7.04888   2
  -2   6 -17 0.53346 6.09177   2
   2   6  17 -3.5765 8.52872   3
   2   6  17 7.11583 8.37329   1
  -2   6 -17 9.06262 7.93697   5
   3  -6  17 -0.7556 10.0042   7
  -3  -6 -17 3.38081 9.04602   2
  -3  -6 -17 4.40779 6.20269   9
   3   6  17 3.68034 9.71489   3
   3   6  17 0.37988 8.52539   1
  -3   6 -17 -6.3456 8.80998   2
  -3   6 -17 -0.4627 7.88801   5
  -3  -7  17 204.475 13.8873   8
  -3  -7  17 203.650 15.0965   4
   3  -7 -17 194.720 14.9857   9
   3   7 -17 207.799 15.9594   5
  -3   7  17 198.598 17.0541   1
   2  -7 -17 24.2717 7.79402   9
  -2  -7  17 43.0816 7.04126   8
  -2  -7  17 42.1210 6.91715   4
   2  -7 -17 26.7900 8.58696   2
  -2   7  17 52.4855 13.7450   1
   2   7 -17 33.2053 10.0650   5
  -1  -7  17 74.8966 7.49219   4
   1  -7 -17 60.5402 9.32054   2
  -1  -7  17 78.0471 8.96590   8
   1  -7 -17 61.8400 8.99974   9
  -1   7  17 68.3970 10.9696   1
   1   7 -17 76.5024 11.4963   5
   0  -7 -17 195.322 16.4200   2
   0  -7 -17 193.856 12.7338   9
   0   7  17 220.834 16.5490   1
   0   7 -17 187.626 18.2912   5
   1  -7  17 -0.9089 8.49809   7
  -1  -7 -17 5.73326 8.61797   9
  -1  -7 -17 14.6171 9.30516   2
  -1   7 -17 21.1872 32.3085   5
   1   7  17 20.2965 9.41563   1
  -9   0  18 3.70634 8.95929   4
  -9   0  18 -6.3113 9.08582   1
  -9   0  18 -4.8967 8.68277   8
   9   0 -18 -0.4803 9.85515   6
  -8   0  18 26.5023 7.14033   4
   8   0 -18 52.5264 9.84093   6
  -8   0  18 41.1241 9.03414   1
   8   0 -18 49.0365 9.07942   5
  -8   0  18 26.6099 7.46381   8
   7   0 -18 -0.4842 5.05774   6
   7   0 -18 0.07507 5.98493   5
  -7   0  18 -3.6702 7.66548   4
  -7   0  18 -2.1165 4.67348   1
  -6   0  18 33.5198 5.94283   1
   6   0 -18 33.4799 7.47691   3
   6   0 -18 30.2547 7.21275   6
  -6   0  18 30.9016 6.61666   4
   6   0 -18 22.3853 8.76288   5
   5   0 -18 1.59443 4.03341   9
  -5   0  18 -4.0638 6.83673   4
   5   0 -18 -0.9586 5.23252   5
  -5   0  18 -3.5022 5.24621   1
   5   0 -18 1.01672 2.99955   2
   4   0 -18 489.591 20.4036   9
   4   0 -18 503.701 18.1439   5
  -4   0  18 453.074 20.1491   4
  -4   0  18 476.607 17.1919   1
   4   0 -18 511.107 21.4226   2
   3   0 -18 -3.0965 3.56971   2
   3   0 -18 0.11121 4.82389   5
   3   0 -18 0.03894 3.24191   9
  -3   0  18 -1.1539 4.84803   4
  -3   0  18 -0.4542 3.08795   1
  -2   0  18 312.876 13.8433   4
  -2   0  18 298.265 10.9813   1
   2   0 -18 305.852 14.6166   2
   2   0 -18 296.460 11.8161   9
   2   0 -18 283.493 13.2645   5
  -1   0  18 0.56574 2.99623   1
   1   0 -18 -2.2009 3.64513   9
   1   0 -18 2.61642 3.91572   2
  -1   0  18 -5.6681 5.04036   4
   1   0 -18 0.41760 4.36987   5
   0   0 -18 1.05398 5.76510   2
   0   0  18 1.94850 2.88624   1
   0   0  18 2.43472 5.15654   4
   0   0 -18 1.01846 3.73399   9
   0   0 -18 6.72370 4.79450   5
   1   0  18 0.08361 4.42806   3
   1   0  18 -1.7094 7.11320   4
   1   0  18 -2.9957 3.92688   1
  -1   0 -18 -2.6687 4.31269   2
  -1   0 -18 -9.6431 5.81561   9
  -1   0 -18 -1.3374 4.33971   5
  -2   0 -18 1212.77 45.1237   2
  -2   0 -18 1214.14 67.7217   5
   2   0  18 1188.40 72.0604   7
   2   0  18 1203.21 61.6719   4
   2   0  18 1228.27 64.6776   3
   2   0  18 1277.33 52.1905   1
  -3   0 -18 -4.8674 4.89621   2
   3   0  18 -2.7578 5.81488   4
   3   0  18 1.88054 5.39227   1
  -3   0 -18 1.55028 6.67606   5
   3   0  18 1.83800 7.99901   3
  -4   0 -18 -2.9179 4.63898   5
   4   0  18 -0.6228 6.47928   3
   4   0  18 -0.5168 5.65735   4
  -4   0 -18 -1.3655 5.62682   2
  -5   0 -18 -9.2466 6.53901   5
   5   0  18 -4.6535 7.97216   4
  -5   0 -18 -7.3767 8.87571   2
   5   0  18 3.66720 10.4253   3
   6   0  18 230.371 15.5316   3
  -6   0 -18 239.250 15.9073   2
   9  -1 -18 38.4961 10.9890   6
  -9  -1  18 50.3206 8.49859   1
  -9  -1  18 24.0695 10.4946   8
  -9  -1  18 29.6819 10.6172   4
  -9   1  18 40.4607 10.3183   1
  -9   1  18 37.8967 9.97927   4
   9   1 -18 46.7579 11.8109   6
  -9   1  18 32.4929 10.3506   8
  -8  -1  18 -0.4549 5.08724   1
  -8  -1  18 2.14094 6.22483   4
   8  -1 -18 0.96691 5.82958   6
  -8  -1  18 1.88019 6.20709   8
   8   1 -18 2.69518 9.41868   6
   8   1 -18 0.54815 6.73091   5
  -8   1  18 11.6358 8.62401   1
  -8   1  18 0.48631 5.97757   8
  -8   1  18 7.30853 8.53360   4
  -7  -1  18 53.0762 8.14664   8
   7  -1 -18 42.2381 8.62368   5
  -7  -1  18 57.0041 8.35413   1
  -7  -1  18 59.9934 8.08877   4
   7   1 -18 74.0324 9.91779   3
  -7   1  18 49.4180 7.57006   1
  -7   1  18 44.1831 7.65337   4
   7   1 -18 57.8922 10.8431   5
   7   1 -18 72.3889 8.60602   6
   6  -1 -18 55.7124 5.49668   9
  -6  -1  18 71.6941 8.34052   8
   6  -1 -18 69.0741 8.80900   5
  -6  -1  18 58.9918 9.35520   4
  -6  -1  18 65.0031 7.70689   1
   6   1 -18 70.5062 8.97485   5
   6   1 -18 67.9875 7.74323   3
  -6   1  18 70.1776 9.62210   4
  -6   1  18 78.1659 8.03205   1
  -5  -1  18 430.607 17.5574   4
  -5  -1  18 470.447 21.8658   1
   5  -1 -18 470.962 20.5668   6
   5  -1 -18 462.360 21.6725   5
   5  -1 -18 452.002 23.6006   9
   5  -1 -18 446.059 27.9524   2
  -5   1  18 439.893 25.6393   1
  -5   1  18 443.899 19.3678   4
   5   1 -18 471.426 19.0946   5
  -4  -1  18 65.7327 5.36013   1
  -4  -1  18 55.1093 8.67628   4
   4  -1 -18 78.8924 8.32724   5
   4  -1 -18 61.4093 16.3985   2
   4  -1 -18 66.1864 5.43692   6
   4  -1 -18 69.3341 11.6618   9
   4   1 -18 59.6701 4.73613   9
   4   1 -18 66.7353 5.01787   2
  -4   1  18 42.7911 7.29359   4
  -4   1  18 73.8884 7.01457   1
   4   1 -18 68.2286 8.13338   5
   3  -1 -18 45.3777 5.82227   2
  -3  -1  18 41.1408 7.91756   4
   3  -1 -18 54.0261 7.15857   5
   3  -1 -18 42.9387 6.52741   9
  -3  -1  18 53.9632 5.14167   1
   3   1 -18 41.1002 8.66144   5
   3   1 -18 38.6951 4.46037   9
  -3   1  18 37.8102 7.38193   4
   3   1 -18 50.9793 5.10254   2
  -3   1  18 46.1360 15.8922   1
  -2  -1  18 277.172 13.5933   4
   2  -1 -18 275.867 13.6287   5
  -2  -1  18 274.512 8.93510   1
   2  -1 -18 272.194 12.9470   2
   2  -1 -18 268.597 10.8199   9
   2   1 -18 254.196 14.8834   5
  -2   1  18 294.682 13.4186   1
   2   1 -18 271.183 10.3327   9
  -2   1  18 279.511 13.9569   4
   2   1 -18 266.575 10.9699   2
   1  -1 -18 66.6091 7.20695   5
   1  -1 -18 69.3235 6.34606   9
   1  -1 -18 50.3985 7.46349   2
  -1  -1  18 50.2800 8.30577   4
  -1  -1  18 69.1683 4.68318   1
   1   1 -18 55.4108 8.85319   5
  -1   1  18 70.1189 6.31523   1
   1   1 -18 52.7073 5.41125   9
   1   1 -18 64.1498 6.07319   2
  -1   1  18 57.6874 9.54262   4
   0  -1  18 323.809 13.4226   4
   0  -1 -18 308.491 12.2415   9
   0  -1 -18 306.448 14.1272   5
   0  -1 -18 304.860 13.4380   2
   0   1  18 306.387 15.4244   1
   0   1 -18 318.148 14.2654   2
   0   1  18 299.700 13.2403   3
   0   1 -18 338.986 16.5111   5
   0   1 -18 317.422 16.3261   9
   0   1  18 296.170 14.3908   4
   1  -1  18 1.59180 2.81205   1
  -1  -1 -18 4.64368 4.80979   2
   1  -1  18 1.40332 6.83021   4
  -1  -1 -18 0.59436 3.99721   5
  -1  -1 -18 -2.8237 5.70920   9
   1   1  18 -0.8897 4.38731   3
   1   1  18 2.40603 5.65869   4
  -1   1 -18 -0.4711 4.74826   5
   1   1  18 3.46938 3.64125   1
  -1   1 -18 1.33135 5.93340   2
  -2  -1 -18 2.12863 3.94868   5
  -2  -1 -18 -1.2009 6.20361   9
   2  -1  18 -2.4270 4.91474   7
   2  -1  18 2.55763 4.99400   4
  -2  -1 -18 -5.3813 6.52408   2
  -2   1 -18 2.05805 6.41339   2
   2   1  18 2.22731 5.16550   3
   2   1  18 0.19073 7.85549   4
   2   1  18 1.11276 4.23430   1
  -2   1 -18 0.67468 4.91846   5
   3  -1  18 73.7918 8.98466   3
  -3  -1 -18 92.4555 7.43738   5
   3  -1  18 87.6111 9.60782   4
   3  -1  18 74.8023 6.80678   7
  -3  -1 -18 71.4080 8.34695   2
  -3  -1 -18 63.5924 7.63395   9
  -3   1 -18 81.7903 9.95648   2
   3   1  18 96.2864 9.37385   1
   3   1  18 63.6543 8.60946   3
  -3   1 -18 91.0810 8.64250   5
  -4  -1 -18 0.80202 6.08470   2
   4  -1  18 3.14089 4.54570   7
  -4  -1 -18 -0.1435 5.74651   5
   4  -1  18 5.88850 6.74688   3
   4  -1  18 7.06805 7.37669   4
   4   1  18 6.59994 6.67161   3
  -4   1 -18 3.93892 7.53854   5
  -4   1 -18 14.3117 8.65962   2
  -5  -1 -18 10.9957 6.98215   2
   5  -1  18 19.6491 8.10308   3
  -5   1 -18 19.7873 6.43059   5
  -5   1 -18 6.74840 6.72623   2
   5   1  18 18.6000 8.12948   3
   6  -1  18 50.3319 12.8775   3
  -6  -1 -18 36.3798 11.1814   2
   6   1  18 40.1717 10.2413   3
  -6   1 -18 44.2132 9.24587   2
  -8  -2  18 33.1965 6.60214   1
  -8  -2  18 21.2061 9.35972   8
   8  -2 -18 30.5104 6.52415   6
  -8  -2  18 14.5773 9.41579   4
   8   2 -18 33.5635 10.3301   3
  -8   2  18 22.6709 7.26489   1
  -8   2  18 7.22543 9.25930   4
   8   2 -18 19.1054 7.75049   5
   8   2 -18 31.3624 8.37538   6
  -7  -2  18 139.721 12.4336   4
  -7  -2  18 136.869 11.4307   1
  -7  -2  18 126.483 12.1930   8
   7  -2 -18 130.201 10.1674   6
  -7   2  18 145.481 10.9565   4
  -7   2  18 133.645 11.0019   1
   7   2 -18 122.585 11.3082   5
   7   2 -18 135.695 12.0626   3
  -6  -2  18 111.788 11.1016   8
   6  -2 -18 119.877 8.59813   6
  -6  -2  18 113.250 7.59830   1
  -6  -2  18 84.1358 10.1735   4
   6  -2 -18 100.756 7.54668   9
  -6   2  18 95.5219 9.49500   4
   6   2 -18 112.791 12.0656   5
  -6   2  18 102.017 10.9134   1
   6   2 -18 118.829 10.1300   3
  -5  -2  18 -0.3030 7.06208   4
  -5  -2  18 -2.9732 4.34043   1
  -5  -2  18 2.54364 5.04459   8
   5  -2 -18 2.72004 4.40324   6
   5  -2 -18 2.88949 5.69980   5
   5  -2 -18 0.15231 5.56999   9
   5  -2 -18 -1.5849 4.40945   2
  -5   2  18 4.52383 5.72169   4
  -5   2  18 3.46343 5.19252   1
   5   2 -18 1.37479 5.57597   5
   4  -2 -18 36.6088 3.90174   6
   4  -2 -18 29.9303 5.33460   2
   4  -2 -18 25.8446 6.14504   9
  -4  -2  18 35.0299 6.32539   4
  -4  -2  18 37.2099 4.59402   1
   4  -2 -18 34.2764 8.44156   5
  -4   2  18 29.9968 7.32516   4
  -4   2  18 38.0423 6.68025   1
   4   2 -18 31.0203 6.98309   5
  -3  -2  18 18.3199 3.28496   1
   3  -2 -18 21.2581 3.65523   6
  -3  -2  18 12.9984 5.21181   4
   3  -2 -18 12.1010 5.17030   5
   3  -2 -18 12.7729 4.89080   2
   3  -2 -18 16.0562 6.39659   9
  -3   2  18 11.4369 6.28328   4
   3   2 -18 10.2184 4.16882   2
  -3   2  18 25.3790 7.97568   1
   3   2 -18 9.82803 2.97105   9
   3   2 -18 12.3676 6.08155   5
   2  -2 -18 54.2622 7.87818   2
  -2  -2  18 63.8087 7.11197   4
   2  -2 -18 67.9273 7.38563   5
   2  -2 -18 57.6092 6.23288   9
   2   2 -18 62.1191 9.58861   5
  -2   2  18 62.4346 8.31845   1
   2   2 -18 49.2560 5.63444   9
  -2   2  18 58.9347 8.47383   4
   2   2 -18 55.5629 6.09218   2
  -1  -2  18 135.784 9.91356   4
   1  -2 -18 118.031 8.69277   5
   1  -2 -18 118.248 9.30102   9
   1  -2 -18 135.044 9.97697   2
  -1   2  18 147.875 9.47220   1
   1   2 -18 110.465 11.0840   5
  -1   2  18 134.915 10.7518   4
   1   2 -18 130.554 7.77632   2
   1   2 -18 134.860 8.17048   9
   0  -2 -18 117.629 9.93481   2
   0  -2  18 114.226 8.30896   4
   0  -2 -18 130.859 8.45472   9
   0  -2 -18 120.705 9.51910   5
   0   2 -18 126.040 7.96752   2
   0   2 -18 132.262 10.1670   5
   0   2  18 110.347 8.09697   3
   0   2  18 125.771 10.6238   4
   0   2  18 119.627 8.71060   1
   1  -2  18 22.4460 5.31871   7
  -1  -2 -18 26.0462 5.97669   2
   1  -2  18 32.0902 5.85115   4
  -1  -2 -18 24.4910 7.38847   9
  -1  -2 -18 28.3393 6.63422   5
   1   2  18 19.3547 7.29060   3
  -1   2 -18 33.9588 8.82349   5
  -1   2 -18 22.6012 6.79472   2
  -2  -2 -18 5.50452 6.73124   9
   2  -2  18 6.23244 4.52060   4
  -2  -2 -18 1.13357 7.23116   2
  -2  -2 -18 4.68419 4.06027   5
   2  -2  18 2.27901 4.26275   7
  -2   2 -18 1.01207 4.89474   2
  -2   2 -18 -1.7123 5.11791   5
   2   2  18 7.06633 6.96346   1
   2   2  18 0.74584 5.32868   3
  -3  -2 -18 0.37480 5.51234   2
   3  -2  18 3.27543 4.62715   7
   3  -2  18 1.83991 7.50277   4
  -3  -2 -18 6.67032 7.72379   5
  -3  -2 -18 -0.5928 5.08417   9
  -3   2 -18 -3.2982 5.40968   5
  -3   2 -18 2.59249 5.42504   2
   3   2  18 -1.6470 8.63635   3
   3   2  18 -5.5527 7.86252   1
   4  -2  18 128.513 12.5029   7
  -4  -2 -18 133.497 10.0646   9
  -4  -2 -18 131.502 11.9653   2
   4   2  18 144.495 11.3160   1
   4   2  18 133.003 13.5615   3
  -4   2 -18 113.848 10.1477   2
  -4   2 -18 125.201 12.0208   5
  -5  -2 -18 56.2962 8.92208   2
   5  -2  18 55.1019 9.76163   3
   5  -2  18 57.2321 8.31887   7
  -5  -2 -18 65.7995 8.74402   9
  -5   2 -18 62.1725 8.82554   2
  -5   2 -18 73.7898 8.84557   5
   5   2  18 69.1591 10.2751   3
   6  -2  18 54.7110 10.7337   3
  -6  -2 -18 57.8876 12.2868   2
  -6  -2 -18 69.4706 12.2889   9
  -6   2 -18 73.1486 8.82555   5
   6   2  18 69.8175 11.4101   3
  -6   2 -18 70.0107 13.1100   2
  -8  -3  18 -0.0362 6.40930   8
  -8  -3  18 -1.6206 6.74556   4
   8   3 -18 0.79376 7.17148   5
  -8   3  18 -0.4383 5.94304   4
   8   3 -18 0.04784 7.89797   3
  -8   3  18 -3.3123 9.88383   1
  -7  -3  18 16.4028 6.70403   4
  -7  -3  18 15.3672 8.68137   8
   7  -3 -18 6.42074 7.59752   9
  -7   3  18 9.37881 6.88375   1
   7   3 -18 7.78255 7.27653   5
   7   3 -18 21.3316 8.75845   3
  -7   3  18 5.37001 6.27881   4
  -6  -3  18 76.2780 10.5642   4
  -6  -3  18 75.0171 10.5520   8
   6  -3 -18 70.3515 8.95756   9
  -6   3  18 75.4717 9.43767   1
  -6   3  18 71.7413 9.15705   4
   6   3 -18 67.0015 9.39416   5
   6   3 -18 75.2023 14.8664   3
   5  -3 -18 4.17018 6.44257   9
  -5  -3  18 1.92759 5.22059   4
  -5  -3  18 10.3897 5.52219   8
  -5   3  18 8.95341 6.32231   1
  -5   3  18 8.62761 6.66236   4
   5   3 -18 2.80583 8.38576   5
   4  -3 -18 8.21362 5.09555   2
   4  -3 -18 4.49161 4.57484   9
  -4  -3  18 9.74935 5.25988   4
  -4  -3  18 5.85783 5.08466   8
   4   3 -18 4.83175 6.23264   5
  -4   3  18 8.55086 6.13634   1
  -4   3  18 8.70110 9.05718   4
   3  -3 -18 5.56876 4.91072   2
  -3  -3  18 9.16846 5.10682   8
   3  -3 -18 5.55976 6.33685   9
   3  -3 -18 6.98548 7.14917   5
  -3  -3  18 7.58718 6.97504   4
  -3   3  18 14.6849 8.42184   1
   3   3 -18 1.34775 8.11007   5
  -3   3  18 12.6435 6.87396   4
  -2  -3  18 61.5326 6.99270   4
   2  -3 -18 70.3567 7.50563   5
   2  -3 -18 52.0567 6.43697   9
   2  -3 -18 51.6665 6.92219   2
  -2   3  18 71.9692 8.22310   1
   2   3 -18 56.9060 8.37921   5
  -2   3  18 64.6620 11.0149   4
   2   3 -18 52.2720 5.90679   2
   2   3 -18 52.8254 5.50207   9
   1  -3 -18 581.411 25.6955   9
   1  -3 -18 566.921 25.8595   2
   1  -3 -18 595.751 25.9602   5
  -1  -3  18 560.646 25.8425   4
   1   3 -18 626.552 32.1126   5
  -1   3  18 573.133 42.4929   3
  -1   3  18 579.457 21.3491   1
   1   3 -18 601.856 27.6215   2
  -1   3  18 571.747 28.5849   4
   0  -3 -18 10.7418 7.31598   2
   0  -3  18 17.9341 5.15097   4
   0  -3 -18 11.8131 4.60354   5
   0  -3 -18 9.73377 6.84916   9
   0   3 -18 10.8522 5.83300   2
   0   3  18 12.5823 5.76898   1
   0   3  18 7.88614 6.33895   3
   0   3 -18 22.9361 8.75036   5
  -1  -3 -18 46.3376 8.16614   9
   1  -3  18 47.9482 5.96371   4
  -1  -3 -18 37.2468 6.73464   2
  -1  -3 -18 42.2100 7.08546   5
   1  -3  18 42.8004 8.54019   7
   1   3  18 55.4536 9.10203   1
   1   3  18 41.8629 6.76427   3
  -1   3 -18 25.7537 5.83779   2
  -1   3 -18 44.8902 8.03606   5
  -2  -3 -18 8.98735 4.28713   5
  -2  -3 -18 3.59487 5.39192   2
   2  -3  18 1.53802 7.03332   7
   2  -3  18 8.18070 7.01513   4
  -2  -3 -18 2.72949 7.28876   9
  -2   3 -18 3.41267 7.01983   2
   2   3  18 -2.4918 7.72597   3
  -2   3 -18 2.88114 5.82129   5
   2   3  18 23.7415 15.0863   1
   3  -3  18 154.680 10.5906   4
  -3  -3 -18 150.407 10.4640   9
  -3  -3 -18 168.963 12.5593   5
   3  -3  18 155.622 15.7454   7
  -3  -3 -18 165.942 11.2592   2
  -3   3 -18 160.897 12.3954   5
   3   3  18 169.132 13.6664   3
   3   3  18 183.170 13.0241   1
  -3   3 -18 150.071 12.8263   2
  -4  -3 -18 12.9606 9.13831   2
  -4  -3 -18 17.1882 6.77416   9
   4  -3  18 11.0075 6.48500   7
   4   3  18 21.2567 11.1772   3
   4   3  18 31.4765 10.6358   1
  -4   3 -18 26.2147 7.73157   5
  -4   3 -18 19.2415 7.54183   2
  -5  -3 -18 6.92845 7.12651   2
   5  -3  18 8.49061 6.82720   7
  -5  -3 -18 8.44455 6.81794   9
   5   3  18 15.8917 8.11905   3
  -5   3 -18 8.86955 7.26034   2
  -5   3 -18 11.6691 9.66037   5
  -7  -4  18 4.85356 6.23440   8
  -7  -4  18 0.77302 6.44045   4
   7  -4 -18 0.33998 5.91350   9
   7   4 -18 16.2342 13.4134   3
   7   4 -18 -1.8338 7.17013   5
  -7   4  18 -0.9607 7.60788   1
  -7   4  18 6.85697 7.03012   4
  -6  -4  18 6.41834 8.43848   4
  -6  -4  18 -7.4516 8.03045   8
   6  -4 -18 0.45016 5.63612   9
  -6   4  18 2.08908 6.17691   4
  -6   4  18 8.30175 9.70032   1
   6   4 -18 4.39649 7.92008   3
   6   4 -18 4.00285 6.63931   5
   5  -4 -18 0.22529 5.19960   9
  -5  -4  18 3.38525 5.72318   4
  -5  -4  18 8.51286 5.76478   8
  -5   4  18 9.21088 9.68126   1
  -5   4  18 0.18659 6.84071   4
   5   4 -18 -2.2320 8.76149   5
   4  -4 -18 134.679 10.9836   9
  -4  -4  18 153.374 11.4607   4
   4  -4 -18 128.363 11.1895   2
  -4  -4  18 134.326 9.89547   8
   4   4 -18 141.227 11.6557   5
  -4   4  18 123.806 13.1793   4
  -4   4  18 129.788 13.4052   1
  -3  -4  18 6.41628 7.04094   8
  -3  -4  18 -0.3636 6.65286   4
   3  -4 -18 2.10175 6.82924   9
   3  -4 -18 2.30548 5.36452   2
  -3   4  18 -3.6324 6.38521   4
  -3   4  18 0.81030 6.19403   1
   3   4 -18 0.33029 8.85612   5
   2  -4 -18 70.3613 9.20177   9
  -2  -4  18 78.8992 8.69356   4
  -2  -4  18 97.5125 9.22395   8
   2  -4 -18 74.6097 8.19663   2
   2   4 -18 68.7833 9.44629   5
  -2   4  18 80.8798 10.0014   4
  -2   4  18 81.0362 9.49054   1
  -1  -4  18 41.4083 7.46875   8
  -1  -4  18 44.2045 7.44785   4
   1  -4 -18 38.0138 6.46665   9
   1  -4 -18 29.6026 8.61267   2
  -1   4  18 29.3176 4.98258   3
   1   4 -18 41.9301 10.4849   5
  -1   4  18 43.7104 7.91622   1
   1   4 -18 32.0765 4.94590   2
   0  -4  18 185.569 9.99369   8
   0  -4 -18 186.216 11.7287   9
   0  -4  18 193.865 10.6555   4
   0  -4 -18 205.273 11.5759   2
   0   4 -18 206.056 15.6299   5
   0   4 -18 194.624 11.1741   2
   0   4  18 215.605 14.7610   1
   0   4  18 198.364 13.4655   3
   1  -4  18 5.02715 5.81355   8
  -1  -4 -18 11.6401 6.08954   2
  -1  -4 -18 3.85943 5.37779   9
  -1  -4 -18 3.05523 4.45256   5
   1  -4  18 17.5918 5.94680   4
   1  -4  18 4.89173 8.26088   7
   1   4  18 7.79111 6.48087   1
  -1   4 -18 3.34351 4.87067   2
  -1   4 -18 1.79967 6.78375   5
   1   4  18 7.25356 5.34664   3
   2  -4  18 207.741 11.4073   8
  -2  -4 -18 198.801 12.5873   9
   2  -4  18 198.344 14.3434   7
   2  -4  18 200.110 13.1425   4
  -2  -4 -18 202.389 12.0841   2
   2   4  18 205.517 13.6421   1
  -2   4 -18 212.316 14.0132   5
  -2   4 -18 160.052 12.8104   2
   2   4  18 196.876 14.1020   3
   3  -4  18 -3.2652 8.34199   7
  -3  -4 -18 -3.8241 5.44947   9
  -3  -4 -18 4.54957 6.05899   2
  -3   4 -18 1.37188 20.2883   2
   3   4  18 0.83723 9.03786   3
   3   4  18 9.85865 9.94071   1
  -3   4 -18 -0.2002 6.69778   5
   4  -4  18 6.26534 9.70164   7
  -4  -4 -18 -2.4762 8.87815   2
  -4  -4 -18 5.47197 6.39519   9
  -4   4 -18 11.0027 10.9797   5
  -4   4 -18 11.5230 7.17042   2
   4   4  18 11.3105 7.99664   3
   4   4  18 17.0071 11.2268   1
   5  -4  18 0.21435 7.11151   7
  -5  -4 -18 -2.5048 6.49510   2
  -5  -4 -18 -3.0950 6.33561   9
   5   4  18 -1.4374 7.46479   1
  -5   4 -18 0.43292 7.21672   5
  -5   4 -18 0.17856 6.70807   2
   5   4  18 2.82169 7.95726   3
   6  -5 -18 3.18162 6.11345   9
  -6  -5  18 5.72486 8.89163   4
  -6  -5  18 5.51362 8.58678   8
   6   5 -18 0.36901 7.23623   5
   6   5 -18 2.69737 9.40869   3
  -6   5  18 2.33101 8.41874   1
  -6   5  18 2.38669 7.65624   4
  -5  -5  18 59.2528 10.3535   8
   5  -5 -18 53.7790 8.25427   9
  -5  -5  18 63.4285 8.46474   4
   5   5 -18 56.4105 11.2201   3
   5   5 -18 58.2439 9.80491   5
  -5   5  18 58.1620 12.9671   1
  -5   5  18 46.8617 9.53868   4
  -4  -5  18 -3.3566 5.46012   8
  -4  -5  18 -0.8760 5.65372   4
   4  -5 -18 3.26019 5.86589   9
  -4   5  18 4.18204 10.4875   1
   4   5 -18 8.18272 9.78926   5
  -4   5  18 8.86762 7.60818   4
   3  -5 -18 5.02827 8.08467   9
   3  -5 -18 6.63288 6.26160   2
  -3  -5  18 3.88731 5.26452   4
  -3  -5  18 4.59143 7.35891   8
  -3   5  18 8.28984 10.5132   4
   3   5 -18 5.28090 7.26876   5
  -3   5  18 8.35780 10.5031   1
  -2  -5  18 -6.0809 6.42584   4
   2  -5 -18 2.84343 7.70690   9
   2  -5 -18 3.94167 8.36468   2
  -2  -5  18 -2.0536 6.31230   8
   2   5 -18 -3.0829 6.84829   5
  -2   5  18 10.5977 10.2114   1
   1  -5 -18 187.522 11.7651   2
   1  -5 -18 196.131 11.5276   9
  -1  -5  18 179.826 12.9610   8
  -1  -5  18 190.945 11.4379   4
   1   5 -18 188.675 13.8367   5
  -1   5  18 228.158 15.7437   1
   0  -5  18 11.6902 6.26643   4
   0  -5  18 9.51821 4.47019   8
   0  -5 -18 4.10258 5.59401   9
   0  -5 -18 6.34857 6.16704   2
   0   5 -18 0.28339 4.34398   2
   0   5 -18 6.49790 7.32554   5
   0   5  18 13.9020 7.52640   1
   1  -5  18 -1.3212 6.43755   7
  -1  -5 -18 -0.2390 5.96436   2
   1  -5  18 -5.3231 5.48571   4
   1  -5  18 -2.0217 3.71462   8
  -1  -5 -18 -0.4485 5.54134   9
   1   5  18 3.90540 6.82706   1
  -1   5 -18 0.64449 6.86215   5
   1   5  18 -1.6467 7.23817   3
  -1   5 -18 -2.1947 4.63009   2
  -2  -5 -18 -0.3388 8.21498   9
   2  -5  18 9.73212 9.05008   7
  -2  -5 -18 1.55150 6.29498   2
   2   5  18 0.90275 6.97830   1
   2   5  18 3.71944 5.79244   3
  -2   5 -18 3.47523 5.30364   2
  -2   5 -18 4.32453 7.35043   5
  -3  -5 -18 224.300 19.0038   2
  -3  -5 -18 224.270 18.8309   9
   3  -5  18 201.709 19.6450   7
   3   5  18 243.443 17.5666   1
  -3   5 -18 223.422 14.2681   2
   3   5  18 218.800 15.3958   3
  -3   5 -18 249.437 17.0715   5
  -4  -5 -18 0.21747 9.36454   2
   4  -5  18 -2.1254 10.2343   7
  -4  -5 -18 -4.7432 6.03546   9
  -4   5 -18 -3.7321 7.70783   5
   4   5  18 2.73873 11.3369   1
   4   5  18 3.51311 10.9183   3
  -4   5 -18 7.15233 7.14091   2
  -5  -6  18 4.53774 9.43533   8
  -5  -6  18 14.9646 9.63474   4
   5  -6 -18 24.1853 10.0325   9
   5   6 -18 25.2316 14.8917   3
  -5   6  18 13.4470 8.43808   4
   5   6 -18 8.93281 8.67003   5
  -5   6  18 3.96225 8.92680   1
   4  -6 -18 23.8360 7.45993   9
  -4  -6  18 33.2446 9.63310   8
  -4  -6  18 31.1456 9.59047   4
  -4   6  18 18.4915 9.02939   4
   4   6 -18 35.8045 9.54226   5
  -4   6  18 34.1075 10.4671   1
   3  -6 -18 -0.2436 5.90791   9
   3  -6 -18 5.13459 7.15894   2
  -3  -6  18 9.31337 5.91111   8
  -3  -6  18 7.52152 5.91831   4
  -3   6  18 5.46948 12.2437   4
  -3   6  18 7.13305 8.77115   1
   3   6 -18 2.52752 8.18230   5
  -2  -6  18 24.0130 8.03046   8
   2  -6 -18 15.1516 6.80699   9
  -2  -6  18 18.8734 7.78498   4
   2  -6 -18 11.6964 7.01789   2
   2   6 -18 13.0643 11.4888   5
  -2   6  18 5.58997 11.9456   1
   1  -6 -18 34.3322 20.0985   9
  -1  -6  18 15.1854 7.21316   8
   1  -6 -18 15.7294 16.5594   2
  -1  -6  18 9.69853 7.04323   4
  -1   6  18 0.84254 7.73182   1
   1   6 -18 5.42212 8.16371   5
   0  -6 -18 5.96398 8.59064   9
   0  -6  18 1.01947 6.56508   8
   0  -6 -18 -0.8678 8.84711   2
   0  -6  18 5.97858 6.43273   4
   0   6 -18 3.51867 7.85627   5
   0   6  18 4.39980 7.92410   1
  -1  -6 -18 9.29122 9.34243   2
   1  -6  18 3.10615 8.08236   7
  -1  -6 -18 0.52632 6.10500   9
   1   6  18 -2.6437 7.59243   1
  -1   6 -18 2.75145 7.86818   5
  -2  -6 -18 31.3894 8.67900   2
   2  -6  18 20.5736 8.98707   7
  -2  -6 -18 22.4722 7.83894   9
  -2   6 -18 3.88649 9.40464   2
  -2   6 -18 33.3730 9.88366   5
   2   6  18 33.3574 13.0086   1
  -8   0  19 0.65457 11.8912   1
   8   0 -19 -4.1015 8.31444   6
  -8   0  19 0.22742 8.43205   4
   8   0 -19 -0.2694 7.01023   5
  -8   0  19 3.67817 6.32174   8
  -7   0  19 29.9422 8.02636   1
   7   0 -19 20.7646 10.0233   5
  -7   0  19 18.6185 6.77046   4
   7   0 -19 38.6933 8.80592   6
   6   0 -19 -4.2876 4.68422   6
  -6   0  19 -2.4970 5.33452   4
   6   0 -19 0.61313 6.63613   3
  -6   0  19 1.47941 4.56307   1
   6   0 -19 1.73225 8.44204   5
   5   0 -19 134.538 9.47380   9
  -5   0  19 141.709 11.9627   4
   5   0 -19 134.584 9.05515   2
   5   0 -19 163.090 11.6076   5
  -5   0  19 168.421 10.0715   1
   4   0 -19 2.29840 3.57707   2
  -4   0  19 1.81192 5.14669   1
   4   0 -19 -2.3475 5.45651   5
   4   0 -19 -0.4650 3.39140   9
  -4   0  19 -2.0348 5.17536   4
   3   0 -19 338.871 15.1988   5
   3   0 -19 348.533 13.5294   9
  -3   0  19 352.029 15.4682   1
  -3   0  19 352.553 15.1095   4
   3   0 -19 357.962 14.6132   2
  -2   0  19 1.68545 5.25917   4
   2   0 -19 3.19480 4.88442   5
   2   0 -19 1.39163 3.63531   9
   2   0 -19 0.93242 3.89524   2
  -2   0  19 2.45629 4.64248   1
   1   0 -19 228.317 11.5691   9
   1   0 -19 246.467 11.1384   2
  -1   0  19 250.480 14.6742   1
  -1   0  19 250.539 14.4054   4
   1   0 -19 245.872 13.7142   5
   0   0 -19 1.97192 5.67754   9
   0   0  19 -2.6081 5.53828   4
   0   0  19 1.21809 2.91153   1
   0   0 -19 3.04839 6.25990   2
   0   0 -19 1.62182 4.46020   5
   1   0  19 8.76926 5.73598   4
  -1   0 -19 13.6404 7.18972   5
  -1   0 -19 8.54493 4.94713   2
   1   0  19 15.7486 3.72065   1
  -1   0 -19 6.46894 4.78705   9
   1   0  19 -0.0438 5.01599   3
   2   0  19 1.03323 4.60112   1
   2   0  19 4.09239 5.91938   4
  -2   0 -19 -0.2268 6.87706   5
   2   0  19 -4.9206 5.47098   3
  -2   0 -19 -3.5800 5.28714   2
  -3   0 -19 15.4535 7.55401   5
  -3   0 -19 2.17475 5.70948   2
   3   0  19 8.13665 6.41274   3
   3   0  19 4.58701 6.20768   4
   4   0  19 17.6368 12.2634   3
   4   0  19 0.41765 5.76705   4
  -4   0 -19 3.61063 5.06128   5
  -4   0 -19 1.99990 10.0061   2
  -5   0 -19 251.464 17.2307   2
  -5   0 -19 263.058 22.5102   5
   5   0  19 255.819 16.3706   4
   5   0  19 272.454 17.7285   3
  -8  -1  19 15.8704 7.40291   8
  -8  -1  19 13.8350 7.29207   4
   8  -1 -19 19.5681 6.94252   6
  -8  -1  19 17.8410 6.47247   1
   8   1 -19 25.1328 10.7468   6
   8   1 -19 23.8089 8.51347   5
  -8   1  19 17.7470 9.77334   4
  -8   1  19 26.7592 9.77736   1
  -7  -1  19 1.54678 6.01899   8
   7  -1 -19 -3.1782 6.46389   5
  -7  -1  19 0.42502 7.92607   4
  -7  -1  19 -0.8461 6.57005   1
   7  -1 -19 2.66087 5.10507   6
  -7   1  19 -0.8568 5.64219   4
  -7   1  19 -1.9584 5.36538   1
   7   1 -19 -0.1237 5.83931   6
   7   1 -19 -2.7913 6.56945   5
  -6  -1  19 88.7032 8.32978   1
   6  -1 -19 79.6118 9.38385   5
  -6  -1  19 76.2157 10.4498   4
   6  -1 -19 84.4004 8.52012   6
  -6   1  19 74.5760 9.63388   1
  -6   1  19 62.8899 10.0899   4
   6   1 -19 77.8968 9.59777   5
   6   1 -19 82.3039 10.1836   3
   5  -1 -19 15.6450 5.82083   6
  -5  -1  19 -3.0889 7.39064   4
  -5  -1  19 10.3816 5.22533   1
   5  -1 -19 -0.4087 5.44412   5
   5  -1 -19 1.45756 5.27872   9
   5  -1 -19 8.43401 4.24752   2
   5   1 -19 7.06101 8.64439   5
  -5   1  19 6.55149 6.83288   1
  -5   1  19 9.40543 6.09510   4
   4  -1 -19 18.6684 6.36442   5
  -4  -1  19 11.4725 7.59705   4
   4  -1 -19 16.2949 6.10012   2
  -4  -1  19 21.1498 5.00549   1
   4  -1 -19 10.0942 5.57758   9
   4  -1 -19 18.5538 4.00183   6
   4   1 -19 17.4044 6.29380   5
  -4   1  19 11.9714 8.20894   4
   4   1 -19 13.6103 4.83450   2
  -4   1  19 18.7566 6.68875   1
   3  -1 -19 736.773 31.8787   5
  -3  -1  19 729.742 22.9233   4
  -3  -1  19 713.707 35.7705   1
   3  -1 -19 756.242 37.3313   9
   3  -1 -19 801.272 35.7109   2
   3   1 -19 763.381 34.6598   2
  -3   1  19 742.980 26.0816   1
  -3   1  19 755.609 37.1774   4
   3   1 -19 776.960 29.7124   9
   3   1 -19 770.601 35.7412   5
   2  -1 -19 188.852 12.5407   5
   2  -1 -19 186.941 10.4665   9
   2  -1 -19 168.390 9.66006   2
  -2  -1  19 183.302 12.1873   4
  -2  -1  19 188.681 7.54671   1
   2   1 -19 184.998 11.5469   5
   2   1 -19 179.819 9.80341   2
  -2   1  19 200.486 12.4298   4
   2   1 -19 171.200 10.4849   9
  -2   1  19 218.454 11.3819   1
   1  -1 -19 229.934 11.1710   9
  -1  -1  19 191.476 9.08443   1
  -1  -1  19 212.751 11.9481   4
   1  -1 -19 220.872 11.7671   5
   1  -1 -19 217.394 10.7491   2
  -1   1  19 218.733 13.6236   4
   1   1 -19 210.117 10.5562   9
   1   1 -19 220.442 12.5356   5
  -1   1  19 237.584 14.5563   1
   1   1 -19 202.094 11.1653   2
   0  -1  19 201.528 12.3989   4
   0  -1 -19 207.468 10.8206   2
   0  -1 -19 203.314 11.4076   9
   0  -1 -19 207.415 12.8796   5
   0   1 -19 166.583 10.7831   2
   0   1 -19 195.275 9.85323   9
   0   1  19 191.902 13.9463   4
   0   1  19 202.697 10.5057   1
   0   1 -19 195.827 13.8606   5
  -1  -1 -19 35.2132 7.38760   5
  -1  -1 -19 17.8655 5.78997   2
   1  -1  19 33.7687 6.76600   4
  -1  -1 -19 21.4607 5.39866   9
  -1   1 -19 28.2248 6.61052   5
  -1   1 -19 17.2932 7.25092   2
   1   1  19 19.2616 5.89750   3
   1   1  19 31.0132 7.31724   4
  -2  -1 -19 43.3296 8.27948   5
  -2  -1 -19 24.1724 6.31994   2
   2  -1  19 40.6704 6.94567   4
   2  -1  19 16.4570 4.60705   7
  -2  -1 -19 22.4072 5.94587   9
  -2   1 -19 13.9990 7.61065   2
   2   1  19 31.8905 6.67844   1
   2   1  19 26.2038 6.83760   3
  -2   1 -19 25.3020 6.74594   5
   2   1  19 35.9609 9.92472   4
  -3  -1 -19 0.29377 4.33458   5
   3  -1  19 -1.9009 5.31992   4
   3  -1  19 0.66790 6.28150   3
  -3  -1 -19 5.61118 5.69541   9
  -3  -1 -19 2.04425 8.21092   2
  -3   1 -19 -1.4625 5.23145   5
   3   1  19 -1.3011 4.83318   1
   3   1  19 3.91015 6.38719   3
  -3   1 -19 1.16692 8.04683   2
   3   1  19 -0.5588 9.23214   4
  -4  -1 -19 182.537 13.0276   9
  -4  -1 -19 185.818 14.2115   2
  -4  -1 -19 191.307 13.0321   5
   4  -1  19 192.427 12.7580   4
   4  -1  19 205.307 13.7360   3
  -4   1 -19 196.983 13.3935   5
  -4   1 -19 199.244 14.2569   2
   4   1  19 201.163 12.8224   4
   4   1  19 185.253 14.6032   1
   4   1  19 221.653 14.2510   3
  -5  -1 -19 5.47704 6.93731   2
   5  -1  19 2.49547 7.75412   3
  -5   1 -19 9.00122 6.91373   2
  -5   1 -19 5.22717 5.62479   5
   5   1  19 3.38817 7.52028   3
  -8  -2  19 3.60857 6.74592   4
  -8  -2  19 -8.1002 8.90685   8
   8  -2 -19 0.75372 5.46371   6
   8   2 -19 -0.5440 7.05418   6
   8   2 -19 -1.9444 6.91513   5
  -8   2  19 -3.3530 8.97870   4
  -8   2  19 2.81732 6.63145   1
  -7  -2  19 164.002 12.7868   1
  -7  -2  19 170.394 16.9856   8
  -7  -2  19 173.312 15.5526   4
   7  -2 -19 174.560 14.5234   6
   7   2 -19 195.914 14.9240   3
  -7   2  19 163.836 13.0911   4
   7   2 -19 171.288 13.0592   5
  -7   2  19 187.754 12.7068   1
   6  -2 -19 63.9380 7.54920   6
  -6  -2  19 64.8889 13.1627   1
  -6  -2  19 50.6478 9.74333   8
   6  -2 -19 42.5670 7.61223   9
  -6  -2  19 60.7844 8.21159   4
   6   2 -19 86.7290 11.6022   3
  -6   2  19 66.2636 8.86512   4
   6   2 -19 46.4213 11.0352   5
  -6   2  19 77.4856 10.5244   1
  -5  -2  19 164.182 12.5285   4
   5  -2 -19 173.369 9.93994   2
   5  -2 -19 168.243 9.64518   9
   5  -2 -19 183.155 9.00606   6
   5  -2 -19 178.686 12.2160   5
  -5  -2  19 158.745 12.5588   8
  -5   2  19 174.718 13.5460   4
   5   2 -19 186.396 12.6639   5
  -5   2  19 184.984 12.7353   1
  -4  -2  19 10.5662 7.56783   4
   4  -2 -19 3.80417 7.81318   5
   4  -2 -19 7.80845 4.50161   9
   4  -2 -19 4.43730 4.58532   2
   4  -2 -19 8.51222 7.06615   6
   4   2 -19 5.73645 8.35237   5
  -4   2  19 13.7543 7.68609   1
  -4   2  19 10.7663 6.59048   4
   3  -2 -19 146.213 9.01547   9
  -3  -2  19 154.988 10.1672   4
   3  -2 -19 144.470 9.33705   2
   3  -2 -19 148.095 10.3195   5
  -3   2  19 181.824 13.2256   1
   3   2 -19 153.012 7.60761   9
  -3   2  19 163.280 12.0281   4
   3   2 -19 138.442 8.21138   2
   3   2 -19 166.152 12.8600   5
  -2  -2  19 2.47100 4.98317   4
   2  -2 -19 2.42098 6.65096   2
   2  -2 -19 2.29189 4.44156   9
   2  -2 -19 3.48974 6.98599   5
   2   2 -19 2.61948 3.31594   9
   2   2 -19 4.31144 3.53122   2
  -2   2  19 3.09418 8.79010   4
   2   2 -19 9.79108 6.13470   5
  -2   2  19 -2.8985 6.44288   1
   1  -2 -19 17.3782 5.22064   9
   1  -2 -19 17.1043 7.39130   2
   1  -2 -19 28.6322 5.95399   5
  -1  -2  19 27.5173 5.98112   4
   1   2 -19 15.5110 4.52982   2
  -1   2  19 21.5307 9.39813   4
   1   2 -19 19.1652 4.45341   9
   1   2 -19 27.4372 8.81554   5
   0  -2 -19 2.87314 4.59195   9
   0  -2  19 2.31586 6.52028   4
   0  -2 -19 3.63136 4.56643   5
   0  -2 -19 5.27715 5.14072   2
   0   2  19 8.40484 6.68063   4
   0   2 -19 4.00227 4.34327   2
   0   2  19 5.22406 4.74385   1
   0   2  19 3.18605 4.51789   3
   0   2 -19 1.44665 5.64298   5
  -1  -2 -19 396.713 19.5147   2
  -1  -2 -19 396.314 21.7032   5
  -1  -2 -19 381.619 17.0760   9
   1  -2  19 414.228 18.8892   4
  -1   2 -19 391.905 22.0733   2
  -1   2 -19 409.357 18.4465   5
   1   2  19 422.350 23.7362   1
   1   2  19 403.191 21.3348   4
   1   2  19 406.836 21.9443   3
   2  -2  19 26.5615 5.81618   7
  -2  -2 -19 38.1220 5.92196   5
  -2  -2 -19 36.9883 6.81014   9
   2  -2  19 44.4940 7.88959   4
  -2  -2 -19 26.4466 6.54295   2
  -2   2 -19 31.7230 7.45894   5
  -2   2 -19 27.4976 6.36272   2
   2   2  19 43.0775 7.57184   3
   2   2  19 41.7712 6.73727   1
   3  -2  19 6.15144 5.17903   7
   3  -2  19 12.2217 4.96938   4
  -3  -2 -19 9.14083 8.48893   2
  -3  -2 -19 1.94030 7.85963   9
  -3  -2 -19 10.4431 6.17025   5
   3   2  19 10.4386 6.18348   1
  -3   2 -19 2.60026 5.93743   2
   3   2  19 7.04462 9.21649   3
  -3   2 -19 12.1880 6.73447   5
   4  -2  19 3.55907 7.41892   7
  -4  -2 -19 9.40306 6.63046   2
  -4  -2 -19 5.58567 8.47756   9
  -4   2 -19 -2.7146 15.0746   2
   4   2  19 4.93644 9.09995   1
   4   2  19 -2.6709 7.31954   3
  -4   2 -19 3.94214 8.65700   5
   5  -2  19 12.9845 8.91114   3
  -5  -2 -19 23.5414 10.3621   9
  -5  -2 -19 27.1162 10.5899   2
  -5   2 -19 25.2795 7.94035   5
   5   2  19 14.0996 9.13797   3
  -5   2 -19 9.71450 7.66146   2
   7  -3 -19 11.8281 6.16281   9
  -7  -3  19 17.4759 6.99401   8
  -7  -3  19 14.3850 7.04884   4
  -7   3  19 13.7236 7.24857   4
  -7   3  19 19.3927 7.70315   1
   7   3 -19 11.7452 8.02809   5
   7   3 -19 15.6032 12.6945   3
  -6  -3  19 124.571 10.6671   8
   6  -3 -19 115.902 8.86718   9
  -6  -3  19 131.258 10.7714   4
   6   3 -19 117.302 12.5368   3
  -6   3  19 122.091 10.8748   4
  -6   3  19 142.854 11.9620   1
   6   3 -19 112.266 13.1653   5
   5  -3 -19 25.8553 6.10931   9
  -5  -3  19 19.3168 8.45019   8
  -5  -3  19 20.8679 8.64997   4
  -5   3  19 26.2736 8.32227   1
  -5   3  19 14.8645 9.86547   4
   5   3 -19 25.5014 7.73808   5
  -4  -3  19 17.3673 5.98148   4
   4  -3 -19 16.2486 7.49308   2
   4  -3 -19 13.2837 7.01575   9
  -4  -3  19 21.0287 6.10852   8
  -4   3  19 10.7440 7.41372   4
   4   3 -19 16.9079 9.42016   5
  -4   3  19 26.4906 6.99891   1
  -3  -3  19 0.19055 7.15664   4
  -3  -3  19 4.32691 7.03788   8
   3  -3 -19 -4.6867 4.91690   2
   3  -3 -19 3.19669 7.35571   5
   3  -3 -19 2.23842 4.63005   9
   3   3 -19 0.12186 6.07500   5
  -3   3  19 4.92753 5.95517   1
  -3   3  19 2.51577 9.26891   4
  -2  -3  19 91.4997 8.28564   4
   2  -3 -19 84.0283 8.27433   2
   2  -3 -19 95.4445 8.01180   9
   2  -3 -19 85.5833 8.34552   5
   2   3 -19 91.0638 9.78965   5
  -2   3  19 101.679 11.0055   1
   2   3 -19 77.0976 8.02561   9
  -2   3  19 87.3571 10.1155   4
   1  -3 -19 70.6134 7.50623   9
  -1  -3  19 82.9442 7.87880   4
   1  -3 -19 64.5230 7.82855   2
   1  -3 -19 83.6012 8.18532   5
   1   3 -19 76.7839 9.52104   5
   1   3 -19 66.5233 7.59128   2
  -1   3  19 92.1495 8.90699   1
  -1   3  19 79.7021 12.2351   4
  -1   3  19 66.4401 6.62637   3
   0  -3 -19 4.42507 4.51280   5
   0  -3 -19 4.10581 7.47694   2
   0  -3 -19 5.86982 5.11159   9
   0  -3  19 4.33223 8.25993   4
   0   3 -19 -3.7920 5.77404   2
   0   3  19 6.68837 9.17829   1
   0   3  19 -2.0396 4.48372   3
   0   3 -19 12.9736 9.10241   5
  -1  -3 -19 3.82733 7.68074   2
  -1  -3 -19 3.72898 7.16431   9
  -1  -3 -19 3.69087 5.99821   5
   1  -3  19 -0.4183 5.51617   7
   1  -3  19 0.39446 4.26527   4
  -1   3 -19 -2.1375 6.61159   2
   1   3  19 -8.4273 7.14622   3
   1   3  19 1.21850 7.76905   1
  -1   3 -19 -0.4372 5.88168   5
   2  -3  19 16.2380 6.20474   7
  -2  -3 -19 20.7791 6.21272   9
   2  -3  19 21.0730 6.76430   4
  -2  -3 -19 14.8289 8.60400   2
  -2  -3 -19 35.0057 6.83636   5
   2   3  19 27.2231 7.07703   1
  -2   3 -19 21.5202 6.36857   2
  -2   3 -19 29.3213 7.98403   5
   2   3  19 18.3001 6.81238   3
  -3  -3 -19 9.79032 8.54445   9
   3  -3  19 -2.6727 5.33845   7
  -3  -3 -19 6.19972 6.20282   2
   3   3  19 2.77211 9.26809   3
  -3   3 -19 -7.3581 5.47887   2
   3   3  19 -2.0898 6.37015   1
  -3   3 -19 2.69587 6.30455   5
  -4  -3 -19 4.17784 6.29842   2
   4  -3  19 4.72868 6.10032   7
  -4  -3 -19 5.08154 6.32072   9
  -4   3 -19 -3.6533 9.39868   5
   4   3  19 -2.8206 7.05171   1
   4   3  19 -3.6137 7.07832   3
  -4   3 -19 -1.7566 6.46720   2
  -5  -3 -19 36.9359 10.2420   9
  -5  -3 -19 36.1742 8.40872   2
   5  -3  19 30.5837 7.66562   7
  -5   3 -19 29.8658 8.08687   2
  -5   3 -19 33.8573 8.69393   5
   5   3  19 39.4401 12.2069   3
   5   3  19 39.0564 8.91743   1
   7  -4 -19 26.6200 7.16088   9
  -7  -4  19 31.2049 10.6977   4
  -7  -4  19 33.0651 10.5193   8
   7   4 -19 26.6666 10.5026   3
   7   4 -19 26.3330 11.5568   5
  -7   4  19 29.7528 8.44656   4
  -7   4  19 34.1500 12.0325   1
   6  -4 -19 15.9889 6.54494   9
  -6  -4  19 19.1418 7.01511   4
  -6  -4  19 18.0478 6.68820   8
  -6   4  19 20.9803 10.5534   4
  -6   4  19 21.3558 11.1033   1
   6   4 -19 23.9158 11.0356   5
   6   4 -19 34.0119 12.9372   3
   5  -4 -19 -3.7452 7.35590   9
  -5  -4  19 -4.0987 8.06176   4
  -5  -4  19 -1.8401 5.46729   8
   5   4 -19 3.76091 6.48810   5
  -5   4  19 6.52364 7.17177   1
  -5   4  19 7.58433 10.0192   4
  -4  -4  19 1.18289 8.14883   4
  -4  -4  19 -3.8495 7.60807   8
   4  -4 -19 -1.8058 5.24647   9
   4  -4 -19 -0.9868 5.37061   2
  -4   4  19 -4.3724 6.95431   1
  -4   4  19 3.73204 6.82388   4
   4   4 -19 0.36963 9.51271   5
   3  -4 -19 178.139 10.6637   9
  -3  -4  19 168.937 10.8651   4
  -3  -4  19 186.263 12.8350   8
   3  -4 -19 182.104 12.3857   2
  -3   4  19 180.395 14.5085   1
   3   4 -19 184.103 13.1929   5
  -3   4  19 207.908 14.1755   4
   2  -4 -19 58.1297 8.05108   2
  -2  -4  19 50.5562 7.02804   4
   2  -4 -19 57.2805 9.38540   9
  -2  -4  19 59.5056 7.56897   8
  -2   4  19 54.7567 11.1047   1
  -2   4  19 55.1691 12.2698   4
   2   4 -19 57.5100 9.40409   5
  -1  -4  19 13.6911 10.6225   4
   1  -4 -19 7.14700 5.56413   9
  -1  -4  19 13.9339 14.4546   8
   1  -4 -19 3.70409 8.27634   2
  -1   4  19 7.76141 8.84365   1
   1   4 -19 10.0216 7.45614   5
   0  -4 -19 11.3516 10.6288   2
   0  -4  19 17.3592 6.63064   4
   0  -4 -19 17.5386 14.8281   9
   0  -4  19 16.8463 5.28986   8
   0   4 -19 13.9292 6.61203   2
   0   4  19 7.28823 5.21583   3
   0   4  19 28.3547 9.75940   1
   0   4 -19 3.75432 9.90380   5
   1  -4  19 175.840 12.7061   4
  -1  -4 -19 176.399 12.3807   9
  -1  -4 -19 176.230 12.2629   2
   1  -4  19 183.461 11.3966   8
  -1   4 -19 155.220 11.1919   2
  -1   4 -19 188.691 13.4253   5
   1   4  19 167.780 12.1855   3
   1   4  19 188.753 14.3882   1
  -2  -4 -19 49.0070 7.75109   9
   2  -4  19 35.8217 7.79209   7
  -2  -4 -19 48.6465 10.4206   2
  -2   4 -19 59.2056 9.64745   5
  -2   4 -19 49.3902 7.44327   2
   2   4  19 43.5948 8.03646   3
   2   4  19 50.3532 8.63294   1
  -3  -4 -19 27.4541 7.32321   9
   3  -4  19 30.4803 10.4729   7
  -3  -4 -19 46.3915 8.39524   2
  -3   4 -19 37.1808 9.22469   5
   3   4  19 54.8982 12.2462   1
  -3   4 -19 26.7990 7.79889   2
   3   4  19 41.3179 9.03593   3
   4  -4  19 19.6571 11.7295   7
  -4  -4 -19 29.2416 7.88275   2
  -4  -4 -19 26.0021 7.00503   9
  -4   4 -19 19.5730 11.2612   2
   4   4  19 23.5255 9.24752   3
  -4   4 -19 35.5381 11.6144   5
   4   4  19 18.2648 12.5678   1
  -6  -5  19 188.436 14.8718   8
   6  -5 -19 169.053 14.6885   9
  -6  -5  19 180.269 12.7625   4
  -6   5  19 169.561 15.2076   4
  -6   5  19 204.525 17.7316   1
   6   5 -19 191.636 21.2970   3
   6   5 -19 210.507 17.2875   5
  -5  -5  19 -1.4708 6.07904   4
   5  -5 -19 4.57468 6.39563   9
  -5  -5  19 0.03664 6.12528   8
  -5   5  19 0.73559 8.30704   1
   5   5 -19 -0.4024 10.7957   5
  -5   5  19 6.03160 8.05757   4
  -4  -5  19 174.620 13.1158   8
   4  -5 -19 156.118 11.5230   9
  -4  -5  19 204.427 14.2048   4
  -4   5  19 186.241 16.1269   1
   4   5 -19 192.249 14.1619   5
  -4   5  19 186.665 16.5603   4
  -3  -5  19 17.7519 6.16386   4
   3  -5 -19 24.4625 18.9689   9
  -3  -5  19 24.8769 6.39573   8
   3  -5 -19 25.3514 17.9230   2
   3   5 -19 24.7152 11.4848   5
  -3   5  19 18.1513 8.76831   4
  -3   5  19 28.2545 8.58427   1
  -2  -5  19 -2.2705 5.01433   4
   2  -5 -19 -5.8657 7.72844   9
  -2  -5  19 -2.7198 6.88310   8
   2  -5 -19 -1.6951 8.54063   2
   2   5 -19 -0.3212 10.3547   5
  -2   5  19 -1.0679 7.29643   4
  -2   5  19 3.98767 7.48616   1
   1  -5 -19 -2.2892 5.97870   9
   1  -5 -19 4.71265 6.47331   2
  -1  -5  19 2.43125 4.92353   8
  -1  -5  19 4.25833 7.00402   4
  -1   5  19 0.93799 6.95702   1
   1   5 -19 8.42450 7.39732   5
   0  -5  19 228.256 14.1847   8
   0  -5  19 244.192 14.7661   4
   0  -5 -19 215.642 16.3810   9
   0  -5 -19 214.469 15.7117   2
   0   5 -19 215.883 15.3291   5
   0   5  19 249.983 17.1863   1
  -1  -5 -19 19.0079 6.62825   9
   1  -5  19 0.89843 7.53187   7
  -1  -5 -19 13.3926 7.09896   2
  -1   5 -19 18.7263 8.40126   5
  -1   5 -19 3.25787 7.77482   2
   1   5  19 10.1970 8.10542   1
   1   5  19 12.9316 6.46804   3
   2  -5  19 19.3041 11.1282   7
  -2  -5 -19 17.0177 9.71330   9
  -2  -5 -19 16.6203 10.2764   2
  -2   5 -19 21.0683 9.29766   5
  -2   5 -19 7.91276 9.25732   2
   2   5  19 15.3483 10.0687   3
   2   5  19 4.76841 11.1313   1
  -3  -5 -19 16.8896 8.21661   2
  -3  -5 -19 8.55023 7.23304   9
   3  -5  19 15.8736 8.40273   7
  -3   5 -19 30.2298 10.8169   5
   3   5  19 16.6635 11.3573   3
  -3   5 -19 9.59253 10.1049   2
   3   5  19 18.1294 12.5644   1
  -4  -6  19 -0.1686 6.14170   4
  -4  -6  19 -6.4185 8.87691   8
   4  -6 -19 -8.8856 9.02761   9
   4   6 -19 7.44430 8.40000   5
  -4   6  19 -4.1223 11.8726   4
  -4   6  19 5.63071 12.4772   1
   3  -6 -19 3.36455 6.73516   9
   3  -6 -19 6.23175 6.96511   2
  -3  -6  19 -1.6588 8.25100   4
  -3  -6  19 4.33538 8.76451   8
  -3   6  19 7.72022 8.75466   4
  -3   6  19 -0.9432 11.6607   1
   3   6 -19 7.25347 11.6841   5
   2  -6 -19 15.6093 10.0751   2
  -2  -6  19 16.5444 6.46086   8
   2  -6 -19 9.27785 9.36909   9
  -2  -6  19 20.0449 6.70802   4
   2   6 -19 -1.8535 11.3801   5
  -2   6  19 23.4899 9.54400   1
  -1  -6  19 5.03689 5.17043   8
   1  -6 -19 5.62123 8.49907   9
  -1  -6  19 9.63494 5.43507   4
   1  -6 -19 10.4723 9.40435   2
   1   6 -19 6.99175 8.49839   5
  -1   6  19 -2.7551 10.9188   1
   0  -6 -19 111.942 12.5633   9
   0  -6 -19 118.735 12.6572   2
   0   6 -19 122.159 13.0546   5
   0   6  19 138.590 13.5127   1
  -1  -6 -19 13.1025 7.77967   9
  -1  -6 -19 21.9802 11.1440   2
  -1   6 -19 29.1367 10.4372   5
   1   6  19 53.1323 13.4723   1
  -8   0  20 1.98098 9.61750   4
   8   0 -20 10.6016 9.20106   6
  -8   0  20 7.75874 9.21033   8
  -8   0  20 10.3168 8.50746   1
   8   0 -20 0.12033 8.15934   5
  -7   0  20 -1.3741 7.20692   1
  -7   0  20 1.63289 6.05801   4
   7   0 -20 1.60788 7.71733   6
   7   0 -20 -3.4789 9.64227   5
  -6   0  20 10.8884 6.38127   4
  -6   0  20 7.88818 5.05066   1
   6   0 -20 13.9266 5.47659   6
   6   0 -20 -2.2505 16.2087   5
   5   0 -20 -5.0756 5.98964   5
  -5   0  20 3.95532 8.15181   1
  -5   0  20 0.92756 7.67596   4
  -4   0  20 658.121 24.8948   4
   4   0 -20 662.906 33.4163   2
   4   0 -20 682.080 33.7080   9
   4   0 -20 666.786 29.8726   5
  -4   0  20 634.954 29.8474   1
  -3   0  20 0.20909 5.05693   1
   3   0 -20 -3.1955 5.26239   9
   3   0 -20 0.19037 4.01919   2
   3   0 -20 1.10794 5.62569   5
  -3   0  20 -1.6828 8.05660   4
  -2   0  20 578.493 25.2038   4
   2   0 -20 585.687 22.0090   9
  -2   0  20 582.211 24.3612   1
   2   0 -20 580.088 35.6488   5
   2   0 -20 606.161 27.2884   2
   1   0 -20 3.25426 4.47004   2
  -1   0  20 -2.0798 5.81085   4
  -1   0  20 -0.5073 3.38438   1
   1   0 -20 5.74964 4.59865   9
   1   0 -20 3.59858 5.26414   5
   0   0 -20 57.5120 7.17695   2
   0   0 -20 62.5740 9.40492   5
   0   0 -20 44.5768 6.36558   9
   0   0  20 70.9640 6.51944   1
   0   0  20 58.4430 10.4742   4
  -1   0 -20 -2.0057 4.60986   9
  -1   0 -20 1.02413 4.94865   2
   1   0  20 -0.0471 5.85020   4
  -1   0 -20 -0.1881 5.17177   5
   2   0  20 4.41817 8.59000   3
  -2   0 -20 5.99302 7.90514   5
  -2   0 -20 0.03946 5.08183   9
   2   0  20 7.33476 6.51541   4
  -2   0 -20 -2.0012 5.39319   2
   3   0  20 -1.9108 6.71023   3
   3   0  20 -2.0731 6.37800   4
  -3   0 -20 -2.8426 6.19424   2
  -3   0 -20 0.89504 7.52599   5
  -4   0 -20 116.104 11.2268   5
  -4   0 -20 93.4272 10.0860   2
   4   0  20 106.379 11.3145   3
   4   0  20 105.952 10.0348   4
  -5   0 -20 -3.2647 6.37369   2
   5   0  20 1.78188 12.9980   3
  -8  -1  20 55.5735 9.60947   8
  -8  -1  20 49.7380 11.5605   4
  -8  -1  20 70.4116 8.31580   1
   8  -1 -20 63.4478 8.91404   6
  -8   1  20 68.9507 11.1629   1
   8   1 -20 47.8870 10.1950   5
  -8   1  20 42.6866 8.84699   4
   8   1 -20 83.6069 12.5059   6
  -7  -1  20 11.9400 9.55380   8
  -7  -1  20 24.6819 9.53894   4
  -7  -1  20 32.0203 8.31117   1
   7  -1 -20 24.9543 8.47292   5
   7  -1 -20 29.3551 8.71974   6
  -7   1  20 27.2239 7.11795   1
  -7   1  20 9.72926 6.96119   4
   7   1 -20 19.4755 8.35413   5
   7   1 -20 31.6486 7.65400   6
   6  -1 -20 4.51067 6.07538   6
  -6  -1  20 -1.6416 5.60623   1
   6  -1 -20 2.08162 6.49909   5
  -6  -1  20 -0.4622 8.27095   4
   6   1 -20 -3.7925 8.27523   3
  -6   1  20 -1.1285 8.29773   4
  -6   1  20 6.62449 7.43214   1
   6   1 -20 7.95977 6.89134   5
   5  -1 -20 374.677 22.8989   6
   5  -1 -20 367.538 21.6875   9
   5  -1 -20 384.853 22.5384   5
  -5  -1  20 364.435 19.4158   4
   5  -1 -20 393.358 21.6665   2
  -5  -1  20 368.669 22.4784   1
   5   1 -20 340.427 22.2119   5
  -5   1  20 363.817 19.3567   1
  -5   1  20 362.314 18.4646   4
  -4  -1  20 17.9379 8.32099   4
   4  -1 -20 11.9846 4.77598   2
   4  -1 -20 14.6809 6.00517   9
   4  -1 -20 16.0878 5.20587   6
   4  -1 -20 19.0094 6.71505   5
  -4  -1  20 14.6600 5.01692   1
  -4   1  20 11.3120 6.95997   1
   4   1 -20 16.2678 8.91886   5
  -4   1  20 11.8327 6.49719   4
   3  -1 -20 -0.8649 2.73725   6
  -3  -1  20 2.53988 11.8109   4
   3  -1 -20 -0.5381 5.99605   9
   3  -1 -20 -3.4049 4.62486   2
   3  -1 -20 1.90947 9.90092   5
   3   1 -20 1.19948 5.18734   2
   3   1 -20 -2.3366 8.13485   5
  -3   1  20 3.56458 6.19538   4
   3   1 -20 -4.2962 4.76412   9
  -3   1  20 -0.2636 6.13160   1
   2  -1 -20 37.5944 7.38251   9
   2  -1 -20 51.2857 7.48501   5
   2  -1 -20 33.6393 7.66206   2
  -2  -1  20 39.1983 7.04129   4
   2   1 -20 32.9434 9.00115   5
   2   1 -20 32.6072 5.46785   2
  -2   1  20 41.4001 7.65072   1
  -2   1  20 38.1264 8.01573   4
   1  -1 -20 26.0665 7.95248   5
   1  -1 -20 8.33365 6.49690   9
  -1  -1  20 20.2142 6.19933   4
   1  -1 -20 15.4601 5.45971   2
   1   1 -20 22.1363 6.75906   5
  -1   1  20 26.2627 5.18286   1
  -1   1  20 25.1553 7.25840   4
   1   1 -20 5.37733 5.70711   9
   1   1 -20 12.4366 6.49103   2
   0  -1 -20 19.6796 5.79799   9
   0  -1 -20 20.3882 5.80813   5
   0  -1 -20 15.4035 7.43927   2
   0  -1  20 25.5045 6.43924   4
   0   1 -20 16.8963 8.52263   5
   0   1  20 18.2396 7.16819   4
   0   1 -20 14.9601 6.55511   9
   0   1  20 18.9477 5.06290   1
   0   1 -20 9.20729 6.69696   2
   1  -1  20 42.2276 8.88088   4
  -1  -1 -20 25.4139 8.28845   2
  -1  -1 -20 32.3251 8.03150   9
  -1  -1 -20 31.6598 6.17076   5
  -1   1 -20 18.7308 6.06212   2
  -1   1 -20 38.9429 7.35380   5
   1   1  20 51.5310 8.55085   4
   1   1  20 36.4831 5.86276   1
   1   1  20 24.6212 6.57294   3
  -2  -1 -20 37.9136 6.94816   9
  -2  -1 -20 38.9553 6.54733   5
   2  -1  20 43.2674 9.24069   4
  -2  -1 -20 28.0353 9.01576   2
   2   1  20 42.4391 6.29872   1
   2   1  20 48.6224 8.01682   3
   2   1  20 52.1945 13.0761   4
  -2   1 -20 37.4682 8.91114   2
  -2   1 -20 51.1558 9.68069   5
  -3  -1 -20 62.2328 14.3799   9
  -3  -1 -20 81.9517 9.43960   5
  -3  -1 -20 64.9147 8.85834   2
   3  -1  20 86.2467 8.93306   4
  -3   1 -20 87.8981 9.43995   5
   3   1  20 80.8648 12.6210   4
   3   1  20 81.8270 10.0859   3
  -3   1 -20 68.8563 10.7926   2
   4  -1  20 22.8460 10.8313   3
  -4  -1 -20 23.3421 9.58508   9
   4  -1  20 17.6376 9.10534   4
  -4  -1 -20 19.1057 7.65235   2
  -4  -1 -20 14.1899 7.52584   5
  -4   1 -20 12.2735 9.75798   2
   4   1  20 20.8309 8.12255   4
  -4   1 -20 17.2352 9.15781   5
   4   1  20 12.6404 8.43915   3
  -5  -1 -20 21.3663 15.6479   2
  -5  -1 -20 21.8089 15.1036   9
   5  -1  20 34.2779 16.6771   3
   5   1  20 27.5185 11.4923   4
  -5   1 -20 24.1804 8.35291   2
  -5   1 -20 34.9219 9.35362   5
   5   1  20 18.6369 9.17602   3
  -7  -2  20 129.375 11.5964   4
  -7  -2  20 119.130 11.2883   8
   7   2 -20 134.123 12.4486   5
   7   2 -20 126.359 12.3237   3
  -7   2  20 130.193 13.4923   1
  -7   2  20 117.302 11.2592   4
  -6  -2  20 30.9530 7.36798   4
  -6  -2  20 22.5726 7.31329   8
   6  -2 -20 17.9471 5.50670   9
  -6   2  20 43.8132 9.68127   1
   6   2 -20 35.6143 8.35680   3
   6   2 -20 22.5613 10.8359   5
  -6   2  20 18.0103 7.33459   4
  -5  -2  20 1.65268 5.93910   4
   5  -2 -20 1.33273 4.57648   9
   5  -2 -20 3.46322 6.88133   2
  -5  -2  20 -1.1415 7.82360   8
   5  -2 -20 -0.2525 6.13866   5
  -5   2  20 0.51707 6.24659   4
  -5   2  20 -0.3290 5.46584   1
   5   2 -20 4.44826 6.76131   5
   4  -2 -20 70.5611 10.3083   5
  -4  -2  20 62.3298 9.91932   4
   4  -2 -20 48.7565 8.42205   2
   4  -2 -20 61.8591 6.77256   9
  -4   2  20 65.9124 9.63183   1
  -4   2  20 52.3387 11.0532   4
  -3  -2  20 34.9813 6.93768   4
   3  -2 -20 87.9543 23.8093   9
   3  -2 -20 37.6636 7.14455   5
   3  -2 -20 73.0236 21.0048   2
  -3   2  20 36.2451 8.74646   1
   3   2 -20 28.9027 7.37268   5
  -3   2  20 32.4848 8.37247   4
  -2  -2  20 8.34039 7.50378   4
   2  -2 -20 5.51035 7.29758   2
   2  -2 -20 4.28341 7.69608   5
   2  -2 -20 1.67563 4.77572   9
  -2   2  20 5.71837 5.33797   1
   2   2 -20 4.30656 6.25578   5
   2   2 -20 3.65803 3.67640   9
  -2   2  20 2.78402 6.56306   4
   2   2 -20 2.99199 5.19254   2
   1  -2 -20 1.15864 5.28882   2
   1  -2 -20 2.22817 4.94004   5
  -1  -2  20 -1.0844 4.88707   4
   1  -2 -20 4.43335 4.89960   9
  -1   2  20 3.53501 6.77910   1
   1   2 -20 -0.8769 3.73635   9
   1   2 -20 -2.5377 5.77453   5
   1   2 -20 -2.6750 4.04664   2
  -1   2  20 6.00598 6.83083   4
   0  -2 -20 72.1727 8.89792   9
   0  -2 -20 58.1901 7.71955   2
   0  -2  20 72.2779 7.68842   4
   0  -2 -20 81.6552 7.97732   5
   0   2 -20 82.9787 11.1562   5
   0   2 -20 67.9639 7.33422   2
   0   2  20 87.4360 12.0793   4
   0   2  20 61.9617 7.44822   3
   0   2  20 71.7865 7.67709   1
  -1  -2 -20 12.4693 5.23334   5
   1  -2  20 9.79712 5.32490   4
  -1  -2 -20 0.15174 5.41319   9
  -1  -2 -20 2.56637 5.51850   2
   1   2  20 12.2657 7.34489   4
  -1   2 -20 9.16434 6.46852   5
   1   2  20 8.79060 7.37065   1
  -1   2 -20 2.78523 4.95862   2
   1   2  20 4.12089 5.51306   3
   2  -2  20 339.270 21.5768   4
  -2  -2 -20 362.870 20.0047   9
   2  -2  20 351.535 16.8718   7
  -2  -2 -20 350.869 21.9856   5
  -2  -2 -20 369.497 17.8305   2
   2   2  20 371.534 19.3577   4
   2   2  20 385.589 17.9855   3
  -2   2 -20 384.093 26.4369   5
  -2   2 -20 351.398 18.8552   2
   2   2  20 375.509 25.1378   1
   3  -2  20 7.64730 7.51960   4
   3  -2  20 1.17911 7.08995   7
  -3  -2 -20 8.73480 6.50608   9
  -3  -2 -20 17.1930 6.82744   5
  -3  -2 -20 1.86178 6.29439   2
  -3   2 -20 8.20328 6.66470   2
   3   2  20 14.2428 8.74333   1
   3   2  20 5.71310 7.35277   3
  -3   2 -20 14.8385 9.50772   5
  -4  -2 -20 40.0942 8.04306   9
  -4  -2 -20 29.4994 8.31237   2
  -4   2 -20 34.5155 8.57164   5
   4   2  20 30.6168 8.98543   3
   4   2  20 35.7312 8.28852   1
  -4   2 -20 29.3585 10.8042   2
  -7  -3  20 39.0150 23.9761   4
  -7  -3  20 36.3470 20.5774   8
   7   3 -20 33.9444 9.86421   3
  -7   3  20 26.3220 8.07999   1
   7   3 -20 13.9801 8.67437   5
  -7   3  20 14.7956 7.95209   4
  -6  -3  20 27.9017 7.59881   4
   6  -3 -20 19.5138 8.34516   9
  -6  -3  20 27.2371 7.61700   8
   6   3 -20 22.0841 11.2123   5
   6   3 -20 29.2914 12.2578   3
  -6   3  20 24.6514 10.3759   1
  -6   3  20 25.1764 7.91244   4
  -5  -3  20 1.58795 8.25039   8
  -5  -3  20 -0.1477 5.61952   4
   5  -3 -20 4.61722 5.43173   9
   5   3 -20 5.02153 7.25992   5
  -5   3  20 21.7498 9.58154   1
  -5   3  20 3.51482 7.05514   4
  -4  -3  20 10.0112 6.11438   8
   4  -3 -20 10.7539 5.54704   2
   4  -3 -20 4.01136 6.39825   5
  -4  -3  20 5.23433 5.65436   4
   4  -3 -20 8.36954 7.24067   9
  -4   3  20 12.4795 9.26219   1
   4   3 -20 12.8455 7.18363   5
  -4   3  20 13.6060 10.5967   4
   3  -3 -20 -0.1469 5.25848   2
   3  -3 -20 -1.4825 5.64327   5
   3  -3 -20 2.16590 5.11101   9
  -3  -3  20 6.15582 7.61680   4
  -3  -3  20 8.08079 7.76823   8
  -3   3  20 7.51603 7.00041   4
  -3   3  20 0.90752 8.77797   1
   3   3 -20 6.52417 9.10835   5
  -2  -3  20 48.3910 7.48305   8
   2  -3 -20 56.8314 8.73654   9
   2  -3 -20 55.0397 7.86743   2
   2  -3 -20 51.8175 7.61101   5
  -2  -3  20 42.6281 7.13953   4
   2   3 -20 39.8587 8.32010   5
  -2   3  20 53.8178 9.59434   4
  -2   3  20 57.2656 14.1299   1
   1  -3 -20 492.494 24.1436   2
   1  -3 -20 493.169 19.6291   9
  -1  -3  20 469.421 22.5890   4
   1  -3 -20 472.528 25.4686   5
   1   3 -20 488.018 28.5923   9
   1   3 -20 468.609 36.2633   2
  -1   3  20 518.187 24.5406   1
   1   3 -20 518.496 26.0846   5
  -1   3  20 489.722 29.1276   3
  -1   3  20 515.050 24.9560   4
   0  -3 -20 45.0301 7.52660   2
   0  -3  20 34.8049 6.52768   4
   0  -3 -20 67.8100 13.9205   5
   0  -3 -20 42.2726 7.06653   9
   0   3  20 54.4171 9.72549   1
   0   3 -20 41.2722 10.6883   5
   0   3  20 37.9971 6.62830   3
   0   3  20 54.1683 12.0150   4
   0   3 -20 30.2326 7.41564   2
   1  -3  20 -3.2948 6.48348   4
  -1  -3 -20 -2.9627 5.65816   2
  -1  -3 -20 1.52210 6.54676   5
  -1  -3 -20 -1.7995 5.26471   9
   1   3  20 -3.9390 8.28841   1
  -1   3 -20 2.70286 8.18043   2
  -1   3 -20 4.81383 6.77883   5
   1   3  20 3.91451 5.99963   3
   2  -3  20 8.11999 4.87010   4
  -2  -3 -20 2.13944 6.45919   5
  -2  -3 -20 12.4590 6.62079   2
  -2  -3 -20 -0.9352 5.40287   9
   2  -3  20 1.16340 5.58593   7
  -2   3 -20 4.74719 5.98691   2
   2   3  20 0.43637 6.02640   3
  -2   3 -20 6.42772 6.75122   5
   2   3  20 8.45072 6.32519   1
  -3  -3 -20 80.5490 9.16371   9
   3  -3  20 63.8046 10.4694   7
  -3  -3 -20 70.8705 9.43364   2
  -3   3 -20 59.9643 9.04371   2
   3   3  20 89.8993 12.0615   1
   3   3  20 75.8031 10.3821   3
  -3   3 -20 85.9492 10.4157   5
  -4  -3 -20 1.05091 9.21608   2
  -4  -3 -20 5.46545 6.44661   9
   4  -3  20 -1.3963 8.64784   7
   4   3  20 -1.5188 7.72879   3
   4   3  20 3.10783 7.23271   1
  -4   3 -20 0.43790 10.2393   2
  -4   3 -20 2.26943 9.59137   5
  -6  -4  20 19.7493 7.06027   8
  -6  -4  20 12.3815 6.96357   4
   6  -4 -20 4.15648 9.02862   9
   6   4 -20 20.2400 13.4452   3
   6   4 -20 12.8869 8.45926   5
  -6   4  20 16.8125 8.31140   1
  -6   4  20 -4.0935 10.2594   4
  -5  -4  20 -2.2117 8.58629   4
  -5  -4  20 4.04590 8.64328   8
   5  -4 -20 3.98455 6.03084   9
   5   4 -20 -5.9733 9.83572   5
  -5   4  20 14.0507 7.92468   1
  -5   4  20 2.42072 7.63768   4
  -4  -4  20 10.7532 6.34973   8
   4  -4 -20 -1.7129 5.65516   2
  -4  -4  20 5.84012 6.02453   4
   4  -4 -20 1.47382 5.67710   9
   4   4 -20 -2.3037 7.12190   5
  -4   4  20 -1.0552 7.25384   1
  -4   4  20 11.7302 10.6633   4
   3  -4 -20 9.98456 6.08095   9
   3  -4 -20 5.76372 6.43803   2
  -3  -4  20 6.06341 5.98273   8
  -3  -4  20 14.8353 6.29941   4
   3   4 -20 13.3903 12.0391   5
  -3   4  20 11.7149 14.6858   4
  -3   4  20 9.46432 7.64832   1
  -2  -4  20 83.9269 8.33038   4
   2  -4 -20 77.7973 8.67964   9
   2  -4 -20 79.1997 8.97495   2
  -2  -4  20 93.6394 8.75887   8
  -2   4  20 66.9424 10.7451   4
   2   4 -20 73.6754 10.5317   5
  -2   4  20 93.9396 10.4634   1
   1  -4 -20 0.73891 5.54864   9
   1  -4 -20 -0.3966 8.43428   2
  -1  -4  20 3.61249 4.99047   4
  -1  -4  20 5.71243 7.70129   8
  -1   4  20 3.42260 10.9985   4
  -1   4  20 7.33925 6.72967   1
   1   4 -20 5.35791 7.33310   5
   0  -4 -20 1.00958 8.82844   2
   0  -4  20 14.0049 7.01804   4
   0  -4 -20 8.09999 10.7993   9
   0  -4 -20 -3.0214 5.23053   5
   0  -4  20 11.9558 7.42374   8
   0   4 -20 -0.1548 6.25549   2
   0   4 -20 9.75003 10.4584   5
   0   4  20 18.5375 7.34785   1
   0   4  20 7.86020 13.0947   3
  -1  -4 -20 2.80426 8.58194   9
  -1  -4 -20 4.12022 9.16215   2
   1  -4  20 2.72372 4.89655   4
  -1  -4 -20 4.69161 5.29887   5
   1  -4  20 6.75754 6.91166   8
   1   4  20 2.40500 5.55514   3
  -1   4 -20 4.98898 7.60382   2
   1   4  20 19.6609 9.93094   1
  -1   4 -20 7.84183 10.5551   5
   2  -4  20 111.642 11.1372   7
  -2  -4 -20 113.971 11.1792   9
  -2  -4 -20 125.621 10.7141   2
   2   4  20 138.601 12.1197   1
  -2   4 -20 117.463 10.3278   2
  -2   4 -20 126.675 12.2848   5
   2   4  20 128.516 12.9073   3
  -3  -4 -20 18.6247 9.83615   9
  -3  -4 -20 14.7718 10.6393   2
   3  -4  20 16.3226 7.56004   7
   3   4  20 22.2892 8.51907   3
   3   4  20 22.3307 8.47058   1
  -3   4 -20 20.1282 10.3681   2
  -3   4 -20 33.3806 11.7216   5
  -5  -5  20 214.966 15.0855   4
   5  -5 -20 193.639 14.5981   9
  -5  -5  20 201.383 15.8589   8
  -5   5  20 199.949 15.8330   4
  -5   5  20 255.202 16.9763   1
   5   5 -20 221.210 16.2791   5
  -4  -5  20 8.55536 8.65796   8
   4  -5 -20 13.5762 9.35115   9
   4  -5 -20 9.53782 7.67028   2
  -4  -5  20 12.2191 9.08358   4
  -4   5  20 4.60517 8.71219   4
  -4   5  20 -3.1636 8.42416   1
   4   5 -20 1.47923 11.5455   5
  -3  -5  20 -0.4890 5.34377   8
  -3  -5  20 -1.5062 7.89265   4
   3  -5 -20 3.67634 6.55597   2
   3  -5 -20 -2.0619 5.98856   9
   3   5 -20 -0.0793 10.6636   5
  -3   5  20 1.10643 11.0927   1
  -3   5  20 0.58136 8.14881   4
  -2  -5  20 96.0331 9.03279   8
  -2  -5  20 71.9180 8.49077   4
   2  -5 -20 76.4263 10.6700   9
   2  -5 -20 76.3080 9.34639   2
   2   5 -20 79.6175 13.6342   5
  -2   5  20 71.4337 11.7515   4
  -2   5  20 84.6548 13.3307   1
   1  -5 -20 190.328 14.2933   9
  -1  -5  20 187.382 14.1777   8
  -1  -5  20 189.048 12.9469   4
   1  -5 -20 192.938 14.3514   2
   1   5 -20 173.566 15.1176   5
  -1   5  20 211.627 14.7059   1
   0  -5  20 2.96597 6.76772   8
   0  -5 -20 -0.5082 6.60824   2
   0  -5 -20 1.99643 6.18553   9
   0  -5  20 1.10686 4.91814   4
   0   5  20 9.89567 8.00286   1
   0   5 -20 0.97955 7.90005   5
  -1  -5 -20 14.1101 7.24494   9
  -1  -5 -20 8.95951 7.48338   2
   1   5  20 15.2333 9.30756   1
  -1   5 -20 17.9405 8.89629   5
  -2  -5 -20 23.8132 11.1307   2
   2  -5  20 23.6202 8.75525   7
  -2  -5 -20 26.4726 10.4655   9
  -2   5 -20 26.0680 9.46635   2
  -2   5 -20 23.3419 10.2225   5
   2   5  20 30.8743 12.1159   1
   2   5  20 25.3715 8.27506   3
   2  -6 -20 -1.0929 9.02535   9
  -2   6  20 16.9953 12.5184   1
   1  -6 -20 2.95911 8.98185   9
  -1   6  20 13.7618 8.56404   1
   7   0 -21 87.0483 11.2378   6
   7   0 -21 71.7024 13.2728   5
  -7   0  21 86.1871 10.5204   1
  -7   0  21 74.3917 10.0381   4
   6   0 -21 4.63335 7.25763   6
  -6   0  21 0.27169 6.78129   1
   6   0 -21 -1.9809 9.36540   5
  -6   0  21 -9.2492 6.13628   4
  -5   0  21 21.1880 5.09556   1
  -5   0  21 17.1781 7.05184   4
   5   0 -21 23.7180 5.37049   6
   5   0 -21 9.83945 9.70149   5
   4   0 -21 -2.7360 8.67201   5
   4   0 -21 -2.5472 3.98246   9
  -4   0  21 0.67829 5.53888   1
  -4   0  21 0.04035 5.77088   4
   4   0 -21 -0.9498 4.07197   2
   3   0 -21 421.099 25.4709   9
  -3   0  21 430.122 18.1050   4
   3   0 -21 451.506 16.8573   2
  -3   0  21 424.571 22.2256   1
   3   0 -21 420.848 25.8768   5
  -2   0  21 -4.0753 5.85954   4
   2   0 -21 0.33036 5.48992   5
   2   0 -21 -7.7424 6.43464   2
   2   0 -21 -3.3355 4.10920   9
   1   0 -21 3.22632 6.54326   9
   1   0 -21 10.6905 8.02917   5
  -1   0  21 14.3106 9.03985   4
   1   0 -21 3.05105 6.82730   2
   0   0 -21 -0.4145 6.94988   2
   0   0  21 -3.9753 6.05833   4
   0   0 -21 -2.3213 5.42510   5
   0   0 -21 -1.6392 4.73072   9
   1   0  21 292.284 19.4044   4
  -1   0 -21 274.647 13.9853   9
  -1   0 -21 268.746 16.5469   2
  -1   0 -21 344.200 15.2143   5
   2   0  21 1.49154 6.70852   3
  -2   0 -21 -0.4498 5.76476   5
   2   0  21 -0.9313 9.31816   4
  -2   0 -21 3.47390 6.03023   2
  -2   0 -21 1.02077 5.77515   9
   3   0  21 5.26001 6.63377   4
  -3   0 -21 -1.0572 7.82037   5
   3   0  21 6.00020 18.0275   3
  -3   0 -21 -6.4838 9.10404   2
  -3   0 -21 -0.1889 6.02747   9
  -4   0 -21 7.23868 9.49614   2
   4   0  21 -1.6303 7.18135   3
  -4   0 -21 -0.2761 5.36424   5
   4   0  21 6.58805 9.32355   4
  -7  -1  21 88.5115 12.8131   8
   7  -1 -21 76.1009 11.1717   5
  -7  -1  21 69.1309 9.85854   4
   7   1 -21 82.9388 11.5959   5
  -7   1  21 56.2487 9.53597   4
  -7   1  21 82.0722 9.44765   1
   7   1 -21 93.2540 11.8217   6
   6  -1 -21 108.504 16.7259   5
  -6  -1  21 73.0064 9.37255   4
   6   1 -21 76.4500 10.3265   5
  -6   1  21 60.2079 11.1954   4
  -6   1  21 82.3530 8.54218   1
  -5  -1  21 5.93917 8.88745   4
   5  -1 -21 1.86678 6.33072   2
   5  -1 -21 2.45977 6.14326   9
   5  -1 -21 13.8904 6.97647   5
  -5   1  21 10.3076 6.87914   4
   5   1 -21 12.9348 7.45680   5
  -5   1  21 22.8384 6.01361   1
  -4  -1  21 8.59626 8.54951   4
   4  -1 -21 15.7155 5.24186   2
   4  -1 -21 12.1089 6.79976   5
   4  -1 -21 -2.4222 5.94521   9
   4   1 -21 12.1584 7.11995   5
  -4   1  21 17.5903 5.50249   1
  -4   1  21 2.97780 6.37326   4
  -3  -1  21 138.870 10.6536   4
   3  -1 -21 132.340 9.77169   9
   3  -1 -21 139.990 12.5598   5
   3  -1 -21 128.337 9.18611   2
   3   1 -21 125.434 9.11326   2
   3   1 -21 122.120 7.69311   9
  -3   1  21 132.773 11.2334   4
  -3   1  21 141.815 9.29913   1
   3   1 -21 142.059 11.3767   5
   2  -1 -21 25.7569 5.87216   9
  -2  -1  21 27.0508 6.80950   4
   2  -1 -21 15.1501 7.54695   2
   2  -1 -21 35.9277 7.22425   5
  -2   1  21 21.7134 7.11342   1
  -2   1  21 32.7198 8.06734   4
   2   1 -21 16.8402 6.04215   9
   2   1 -21 19.2857 6.74142   2
   2   1 -21 35.5510 7.72002   5
   1  -1 -21 123.245 10.1030   5
  -1  -1  21 127.783 11.7463   4
   1  -1 -21 123.885 8.79076   9
   1  -1 -21 119.681 10.6108   2
  -1   1  21 106.790 13.0522   4
   1   1 -21 109.117 8.07920   9
  -1   1  21 133.163 9.88823   1
   1   1 -21 103.244 8.22163   2
   1   1 -21 105.351 11.9812   5
   0  -1  21 75.2062 10.4667   4
   0  -1 -21 68.6252 9.77001   5
   0  -1 -21 51.0021 8.73161   9
   0  -1 -21 61.5834 7.81341   2
   0   1 -21 76.9777 9.31046   5
   0   1  21 80.4663 7.34105   1
   0   1 -21 55.7051 8.29315   9
   0   1 -21 58.1771 8.96001   2
   0   1  21 61.0582 9.26604   4
  -1  -1 -21 26.5015 7.99616   5
  -1  -1 -21 14.3491 6.16805   2
  -1  -1 -21 20.0651 6.32429   9
   1  -1  21 28.6942 8.31567   4
   1   1  21 27.4047 5.88194   1
  -1   1 -21 18.1707 8.05797   9
  -1   1 -21 10.9459 6.01220   2
   1   1  21 14.0235 6.59884   3
   1   1  21 30.1073 10.8889   4
  -1   1 -21 27.5456 7.54228   5
   2  -1  21 16.6538 8.98380   4
  -2  -1 -21 17.0520 8.73561   9
  -2  -1 -21 17.8842 9.17690   2
  -2  -1 -21 18.8637 5.80260   5
  -2   1 -21 19.2958 7.11299   5
  -2   1 -21 8.19734 9.02383   2
   2   1  21 16.8619 7.51231   3
   2   1  21 24.8497 10.9014   4
  -3  -1 -21 23.5594 8.26386   5
   3  -1  21 16.8130 9.59989   4
  -3  -1 -21 22.5971 7.21704   9
  -3  -1 -21 20.7908 7.51562   2
   3   1  21 9.45850 10.9958   4
  -3   1 -21 15.6781 7.15053   2
  -3   1 -21 21.1760 7.43064   5
   3   1  21 23.8146 8.44830   3
  -4  -1 -21 99.3952 11.5370   2
   4  -1  21 99.2441 13.0620   3
  -4  -1 -21 101.379 9.88733   9
  -4   1 -21 82.1035 12.6706   2
  -4   1 -21 87.7129 11.6781   5
   4   1  21 74.6266 11.1370   3
   4   1  21 93.9791 10.8369   4
  -7  -2  21 122.470 11.5339   8
  -7  -2  21 120.171 11.5529   4
  -7   2  21 113.010 11.6912   4
   7   2 -21 127.556 12.7729   5
  -7   2  21 115.722 12.9084   1
  -6  -2  21 22.9428 7.75553   8
  -6  -2  21 27.8158 7.59602   4
  -6   2  21 35.1666 7.86504   1
  -6   2  21 29.8511 10.6026   4
   6   2 -21 21.8561 8.62745   5
   5  -2 -21 32.8282 8.25430   2
  -5  -2  21 24.4739 9.48587   8
   5  -2 -21 15.4617 7.31681   9
  -5  -2  21 29.5123 7.68123   4
   5  -2 -21 30.5749 8.23681   5
  -5   2  21 37.5420 7.40279   1
  -5   2  21 19.0918 7.62807   4
   5   2 -21 22.6787 10.7767   5
  -4  -2  21 3.20297 8.27260   4
   4  -2 -21 1.76422 4.75862   9
   4  -2 -21 1.21421 7.18562   2
   4  -2 -21 12.5665 8.83656   5
  -4   2  21 6.06211 5.97942   1
  -4   2  21 6.80619 6.99440   4
   4   2 -21 8.07268 9.42803   5
   3  -2 -21 46.8689 7.15379   2
   3  -2 -21 43.5129 7.75478   5
   3  -2 -21 41.4163 6.78678   9
  -3  -2  21 49.1017 7.83543   4
  -3   2  21 58.8575 7.82054   1
  -3   2  21 42.7394 8.99754   4
   3   2 -21 34.7687 10.2836   5
   2  -2 -21 -1.6747 4.86023   9
   2  -2 -21 -0.4425 5.21798   2
  -2  -2  21 -0.7902 7.79105   4
   2  -2 -21 -4.6076 7.88676   5
   2   2 -21 -3.0497 9.33520   5
  -2   2  21 -0.2834 6.91469   4
   2   2 -21 -1.5351 5.30853   9
  -2   2  21 -0.4735 7.33347   1
   2   2 -21 -0.8945 5.51400   2
   1  -2 -21 45.4948 9.07991   5
  -1  -2  21 32.1781 6.93021   4
   1  -2 -21 37.6963 7.24368   2
   1  -2 -21 34.6809 6.53374   9
   1   2 -21 36.3890 5.98008   2
   1   2 -21 33.5821 5.61862   9
   1   2 -21 57.3556 8.94169   5
  -1   2  21 39.8049 6.92473   1
  -1   2  21 39.5120 9.25580   4
   0  -2 -21 -4.2656 5.04324   9
   0  -2 -21 -6.2713 6.95701   5
   0  -2  21 -0.0793 4.96975   4
   0  -2 -21 -5.7785 7.79317   2
   0   2 -21 -4.1031 4.83087   2
   0   2 -21 -1.6942 8.94793   5
   0   2  21 3.93636 4.90497   1
   0   2 -21 2.24599 4.58036   9
   0   2  21 -0.7136 5.33005   3
   0   2  21 -7.8154 10.0890   4
  -1  -2 -21 27.5792 6.58707   9
  -1  -2 -21 40.6721 8.30344   5
  -1  -2 -21 33.0544 9.48327   2
   1  -2  21 48.0616 7.18883   4
   1   2  21 31.9952 7.39526   3
  -1   2 -21 27.7632 6.72179   2
   1   2  21 49.8462 9.13926   1
   1   2  21 33.6398 9.10717   4
  -1   2 -21 36.7592 8.27663   5
  -2  -2 -21 16.5859 5.73942   5
   2  -2  21 17.9922 8.35898   4
  -2  -2 -21 14.7139 6.72540   2
  -2  -2 -21 13.0747 6.46405   9
  -2   2 -21 11.1620 6.65915   2
   2   2  21 19.2648 8.54865   4
   2   2  21 26.7664 8.87765   1
   2   2  21 13.4516 7.24047   3
  -2   2 -21 18.1483 7.27991   5
  -3  -2 -21 47.8395 7.15426   5
  -3  -2 -21 32.1793 7.87451   9
  -3  -2 -21 36.0966 10.7947   2
   3   2  21 45.5044 10.0266   4
  -3   2 -21 61.0860 11.3655   5
  -3   2 -21 36.0748 8.29644   2
   3   2  21 57.0227 10.0220   3
  -4  -2 -21 19.7355 24.3969   9
  -4  -2 -21 62.7343 34.7998   2
  -4   2 -21 4.23026 9.23697   2
  -4   2 -21 3.17170 6.84442   5
   6  -3 -21 47.2198 9.44293   9
  -6  -3  21 67.5828 11.6678   4
  -6  -3  21 52.9267 9.41364   8
  -6   3  21 42.1502 12.0754   4
   6   3 -21 53.6581 10.5406   5
   6   3 -21 61.9167 10.9192   3
  -6   3  21 51.5362 9.52697   1
   5  -3 -21 7.00895 7.91724   9
   5  -3 -21 -1.8644 6.01379   2
  -5  -3  21 -6.6501 6.01004   4
  -5  -3  21 -2.9808 6.03348   8
  -5   3  21 -0.1729 6.52092   1
  -5   3  21 -0.1706 6.83805   4
   5   3 -21 -2.4108 9.98230   5
  -4  -3  21 84.0941 10.6778   4
   4  -3 -21 70.5070 8.37547   2
   4  -3 -21 72.8237 7.98043   9
  -4  -3  21 72.9248 9.02191   8
   4   3 -21 83.9679 12.3239   5
  -4   3  21 95.4718 10.3604   1
  -4   3  21 83.2580 10.7275   4
   3  -3 -21 182.448 20.0280   2
   3  -3 -21 149.582 11.5104   5
   3  -3 -21 175.789 17.3111   9
  -3  -3  21 143.136 12.3024   8
  -3  -3  21 157.572 12.3941   4
  -3   3  21 126.034 12.6216   4
  -3   3  21 138.310 12.3361   1
   3   3 -21 148.773 12.6051   5
   2  -3 -21 102.156 9.55224   5
  -2  -3  21 79.1926 8.80369   4
   2  -3 -21 91.9187 9.31896   2
   2  -3 -21 85.8601 8.58813   9
  -2  -3  21 103.665 9.58447   8
  -2   3  21 110.843 12.0101   4
  -2   3  21 95.6483 9.88220   1
   2   3 -21 71.3394 12.3495   5
   1  -3 -21 -1.0814 8.12163   2
   1  -3 -21 1.56297 5.57187   5
   1  -3 -21 3.35790 7.96112   9
  -1  -3  21 0.46118 5.46594   4
   1   3 -21 0.91608 6.90099   5
  -1   3  21 7.64060 6.06118   1
  -1   3  21 7.35427 7.58798   4
   0  -3 -21 108.248 10.1789   2
   0  -3 -21 124.353 9.74385   9
   0  -3 -21 144.011 11.5363   5
   0  -3  21 124.713 9.41861   4
   0   3  21 125.623 11.9697   1
   0   3 -21 122.123 13.5740   5
   0   3 -21 113.440 9.64165   2
   0   3  21 101.621 9.19998   3
   0   3  21 133.850 14.9925   4
   1  -3  21 68.3143 9.14904   4
  -1  -3 -21 63.1296 8.64361   2
  -1  -3 -21 57.8598 9.92374   9
   1   3  21 60.3945 10.8734   1
  -1   3 -21 60.1399 9.81900   5
  -1   3 -21 57.0522 7.95989   2
   1   3  21 56.6110 8.45385   3
   1   3  21 72.6238 10.6787   4
  -2  -3 -21 10.9767 9.25859   2
  -2  -3 -21 9.95672 6.20802   9
   2  -3  21 3.25695 5.25811   4
   2  -3  21 0.97280 6.30129   7
  -2  -3 -21 8.46940 7.57627   5
   2   3  21 6.85359 7.10542   1
  -2   3 -21 3.32184 7.71274   5
   2   3  21 1.90822 7.00729   3
  -2   3 -21 1.73797 8.82246   2
  -3  -3 -21 71.3145 18.2628   9
  -3  -3 -21 43.7431 9.08539   2
   3  -3  21 28.3547 9.84027   7
  -3   3 -21 56.4336 9.41100   2
   3   3  21 52.8500 9.84135   3
  -5  -4  21 3.49072 6.79276   8
   5  -4 -21 2.08918 6.11501   9
  -5  -4  21 -2.2826 6.92489   4
   5   4 -21 3.08567 7.70401   5
  -5   4  21 -8.1437 11.1621   4
  -5   4  21 14.6437 11.4224   1
   4  -4 -21 2.34773 6.22764   9
  -4  -4  21 -0.9280 6.05064   4
  -4  -4  21 1.82312 6.33027   8
   4  -4 -21 -5.9944 8.61060   2
  -4   4  21 -0.8643 10.5476   1
  -4   4  21 -1.4422 7.82464   4
   4   4 -21 -1.1098 10.3412   5
   3  -4 -21 173.279 13.4456   9
   3  -4 -21 179.803 14.5656   2
  -3  -4  21 170.430 11.5745   8
  -3  -4  21 174.959 12.1650   4
   3   4 -21 148.070 16.7740   5
  -3   4  21 197.019 19.1631   4
  -2  -4  21 0.15046 5.51655   4
  -2  -4  21 8.94516 6.01171   8
   2  -4 -21 0.07485 6.29673   2
   2  -4 -21 1.05560 6.13468   9
   2   4 -21 30.5191 22.4410   5
  -2   4  21 -0.5153 6.87615   1
  -2   4  21 53.1648 16.1295   4
  -1  -4  21 27.3012 6.76994   8
  -1  -4  21 19.1214 6.27048   4
   1  -4 -21 11.6119 7.19406   2
   1  -4 -21 5.18877 6.30118   9
   1   4 -21 2.69898 7.64661   5
  -1   4  21 20.6411 7.88121   1
  -1   4  21 22.4233 9.08364   4
   0  -4  21 14.4995 7.66227   8
   0  -4 -21 8.05039 6.30016   9
   0  -4  21 4.26405 7.74262   4
   0  -4 -21 -0.0357 5.64947   5
   0  -4 -21 11.5433 9.41042   2
   0   4 -21 -2.9817 10.1870   5
   0   4  21 -1.4685 7.65586   4
   0   4  21 4.00218 7.29548   1
  -1  -4 -21 234.101 16.2167   2
   1  -4  21 212.425 15.5202   8
   1  -4  21 210.952 11.7703   4
  -1  -4 -21 221.014 14.6398   9
   1   4  21 258.207 17.1304   1
  -1   4 -21 234.731 22.4293   5
  -1   4 -21 206.954 13.9025   2
   1   4  21 209.886 13.4210   3
   2  -4  21 38.3585 9.27098   7
  -2  -4 -21 49.8998 21.9836   9
  -2  -4 -21 53.4351 21.5119   2
  -2   4 -21 60.8868 13.9146   5
  -2   4 -21 45.4682 11.8391   2
   2   4  21 40.6427 11.6926   3
   4  -5 -21 41.4801 10.6868   9
  -4  -5  21 55.4528 8.69800   4
   4  -5 -21 55.0645 9.68778   2
  -4   5  21 73.2092 14.8575   1
  -4   5  21 46.4849 10.7359   4
   3  -5 -21 38.6876 8.66136   9
  -3  -5  21 46.8551 10.0203   4
   3  -5 -21 29.2259 11.1299   2
  -3  -5  21 39.1972 9.79775   8
  -3   5  21 35.8636 11.3198   4
   3   5 -21 39.9041 10.1365   5
  -3   5  21 39.4088 10.3044   1
   2  -5 -21 38.5342 10.5462   9
  -2  -5  21 58.8671 9.99064   4
  -2  -5  21 59.5759 8.13413   8
   2  -5 -21 45.7780 9.03689   2
  -2   5  21 60.6987 14.7022   4
   2   5 -21 58.0544 14.7283   5
  -2   5  21 55.3398 10.3957   1
   1  -5 -21 3.00822 6.96481   9
  -1  -5  21 -1.7833 5.67385   4
   1  -5 -21 -3.3448 6.96001   2
  -1  -5  21 -8.3086 7.79205   8
   1   5 -21 0.16407 12.3189   5
  -1   5  21 6.55568 8.59633   4
  -1   5  21 6.68873 10.6102   1
   0  -5 -21 69.8770 13.8922   9
   0  -5  21 73.1269 7.86314   8
   0  -5  21 72.4330 8.45581   4
   0  -5 -21 82.3831 13.8765   2
   0   5  21 81.4584 11.1764   1
   0   5 -21 88.7491 11.7129   5
   7   0 -22 -0.9664 11.1125   5
   7   0 -22 -4.8596 6.48415   6
  -7   0  22 0.92272 6.78210   4
   6   0 -22 45.7437 9.08332   6
   6   0 -22 32.9652 11.7191   5
  -6   0  22 40.5411 8.71695   4
   5   0 -22 3.84102 9.71546   5
  -5   0  22 -1.5957 6.32534   4
  -4   0  22 185.886 13.5674   4
   4   0 -22 176.816 16.8921   5
   3   0 -22 -4.4027 6.13934   5
   3   0 -22 -6.7185 6.37989   2
  -3   0  22 -0.1237 6.46509   4
   3   0 -22 -3.1065 4.20510   9
   2   0 -22 52.7219 10.3832   5
   2   0 -22 35.1901 6.46612   2
  -2   0  22 48.4506 10.4457   4
   2   0 -22 44.4991 6.32064   9
  -1   0  22 -3.5039 6.14931   4
   1   0 -22 -2.0079 5.04905   2
   1   0 -22 -0.7264 4.49475   9
   1   0 -22 -0.0362 5.56476   5
   0   0 -22 -2.3138 5.63125   5
   0   0 -22 -6.5594 7.21571   9
   0   0 -22 -4.0418 7.30703   2
   0   0  22 -5.1426 9.11476   4
  -1   0 -22 5.07679 5.89656   2
  -1   0 -22 2.61907 7.84545   9
   1   0  22 -1.3613 9.52318   4
  -1   0 -22 -0.1096 5.84606   5
  -2   0 -22 66.4470 8.48076   5
   2   0  22 83.4669 12.3808   4
  -2   0 -22 63.7002 8.52507   9
  -2   0 -22 55.9762 10.7474   2
   3   0  22 -0.7018 7.05713   3
   3   0  22 -1.2691 6.81825   4
  -3   0 -22 2.17559 8.89393   9
  -3   0 -22 2.17749 8.14457   5
  -3   0 -22 -0.5703 9.07605   2
   6  -1 -22 6.52027 7.41482   5
  -6  -1  22 -0.6496 6.48216   4
   6   1 -22 1.22050 7.56884   5
  -6   1  22 5.30603 9.56385   4
  -6   1  22 -3.2973 5.41423   1
   5  -1 -22 60.4084 9.32014   5
  -5  -1  22 58.5753 10.9246   4
  -5   1  22 66.8280 11.6105   4
  -5   1  22 66.9633 9.50390   1
   5   1 -22 69.2569 10.1611   5
   4  -1 -22 4.45807 5.07734   2
   4  -1 -22 10.0994 6.91241   9
  -4  -1  22 3.03526 9.00039   4
   4  -1 -22 5.19991 9.60533   5
  -4   1  22 12.8285 7.39619   1
  -4   1  22 -5.0172 9.46127   4
   4   1 -22 11.0532 7.49172   5
   3  -1 -22 4.01775 7.39736   2
   3  -1 -22 11.2621 7.15228   9
  -3  -1  22 11.1331 6.63030   4
   3  -1 -22 15.6201 7.00989   5
  -3   1  22 12.3701 7.17989   1
  -3   1  22 41.2394 10.7353   4
   3   1 -22 16.3617 7.22326   5
  -2  -1  22 95.5750 11.5196   4
   2  -1 -22 108.977 12.0169   5
   2  -1 -22 99.3143 8.54579   9
   2  -1 -22 99.6625 8.89776   2
  -2   1  22 118.270 11.7068   4
   2   1 -22 102.108 8.15888   2
   2   1 -22 94.2743 7.46075   9
  -2   1  22 125.071 10.0546   1
   2   1 -22 86.0341 12.0774   5
   1  -1 -22 98.3512 9.11280   2
  -1  -1  22 111.701 10.2661   4
   1  -1 -22 116.152 10.2933   5
   1  -1 -22 103.778 10.0376   9
   1   1 -22 100.138 8.74022   2
   1   1 -22 115.294 10.6883   5
   1   1 -22 95.6065 7.97727   9
  -1   1  22 116.734 11.6385   4
   0  -1 -22 -3.2336 7.79691   2
   0  -1 -22 0.19166 5.11239   9
   0  -1  22 -0.1674 5.67829   4
   0  -1 -22 0.36171 5.61812   5
   0   1 -22 0.31259 6.53953   5
   0   1 -22 -2.0948 7.00279   9
   0   1  22 2.30835 7.08203   4
   0   1 -22 -4.8978 5.26641   2
   1  -1  22 25.5916 7.13185   4
  -1  -1 -22 21.1515 9.07050   2
  -1  -1 -22 21.8620 6.37514   5
  -1  -1 -22 27.4913 6.73756   9
   1   1  22 27.1777 11.3528   4
  -1   1 -22 20.8979 7.16036   2
  -1   1 -22 30.1367 7.98043   5
  -1   1 -22 26.5326 7.31334   9
  -2  -1 -22 13.5064 6.93818   9
  -2  -1 -22 29.2425 8.75312   5
   2  -1  22 31.6443 7.65277   4
  -2  -1 -22 24.1204 7.67085   2
   2   1  22 24.8094 8.26641   3
  -2   1 -22 25.5563 7.93224   5
   2   1  22 22.8787 12.0231   4
  -2   1 -22 19.7506 9.97778   2
  -3  -1 -22 97.9517 9.35109   5
  -3  -1 -22 92.3978 10.7881   2
  -3  -1 -22 85.0781 9.87470   9
   3  -1  22 101.792 11.7713   4
  -3   1 -22 80.1399 10.2580   2
  -3   1 -22 102.996 10.5812   5
   3   1  22 81.5570 11.2084   3
   3   1  22 93.6252 14.0264   4
   6  -2 -22 4.27635 8.34293   5
  -6  -2  22 7.02576 7.51243   8
  -6  -2  22 12.1803 7.03659   4
  -6   2  22 15.9288 6.99575   1
  -6   2  22 8.63731 10.6332   4
   6   2 -22 5.15378 8.34733   5
   5  -2 -22 54.8455 9.48599   2
   5  -2 -22 77.3546 10.2982   5
  -5  -2  22 84.1712 9.97733   4
   5  -2 -22 48.1179 8.96382   9
  -5  -2  22 56.4076 11.7326   8
  -5   2  22 72.8044 12.7394   4
   5   2 -22 82.1163 11.0195   5
  -5   2  22 77.6423 11.1708   1
  -4  -2  22 165.857 16.5585   4
   4  -2 -22 180.049 14.7004   5
   4  -2 -22 178.954 13.1905   2
   4  -2 -22 169.727 13.9420   9
  -4   2  22 185.043 28.5031   4
  -4   2  22 195.319 15.9506   1
   4   2 -22 183.227 15.0461   5
  -3  -2  22 25.8896 7.37152   4
   3  -2 -22 32.7298 7.73608   5
   3  -2 -22 30.6743 8.60616   9
   3  -2 -22 31.0519 7.28193   2
  -3   2  22 34.9060 9.18659   4
  -3   2  22 31.8048 9.15258   1
   3   2 -22 33.9758 8.64959   5
   2  -2 -22 73.9277 8.25530   9
   2  -2 -22 91.7207 9.77282   5
  -2  -2  22 93.6520 9.44325   4
   2  -2 -22 77.6275 8.77622   2
  -2   2  22 97.4104 10.9861   1
  -2   2  22 98.1185 13.7064   4
   2   2 -22 96.4824 10.9117   5
  -1  -2  22 -1.3086 8.05070   4
   1  -2 -22 1.88007 8.16565   2
   1  -2 -22 7.13886 8.28853   5
   1  -2 -22 4.35023 7.72618   9
   1   2 -22 -0.5770 6.57608   2
  -1   2  22 6.00176 7.62277   4
   1   2 -22 -1.9608 4.41888   9
   1   2 -22 1.99986 9.54856   5
  -1   2  22 1.17886 5.25777   1
   0  -2 -22 134.481 11.8081   9
   0  -2 -22 136.198 10.5348   5
   0  -2  22 147.466 12.0704   4
   0  -2 -22 121.498 11.2040   2
   0   2  22 150.979 11.8433   1
   0   2 -22 133.683 10.3839   9
   0   2 -22 140.282 13.8085   5
   0   2  22 138.956 12.9560   4
   0   2 -22 122.253 9.55439   2
  -1  -2 -22 56.3129 20.4265   9
  -1  -2 -22 58.9957 24.5372   2
   1  -2  22 86.5781 10.3758   4
  -1  -2 -22 75.8551 8.37704   5
   1   2  22 84.2100 10.5056   1
   1   2  22 67.7849 9.30559   3
   1   2  22 82.3534 11.1260   4
  -1   2 -22 63.9789 8.60145   2
  -1   2 -22 74.0794 10.0144   5
  -2  -2 -22 57.0152 11.4719   2
  -2  -2 -22 77.2076 9.64356   5
   2  -2  22 61.5996 8.13690   4
  -2  -2 -22 66.2741 11.3023   9
   2   2  22 62.7624 11.3338   4
   2   2  22 48.0916 9.40084   3
  -2   2 -22 52.8483 10.8825   2
  -2   2 -22 69.8493 10.3882   5
  -3  -2 -22 -3.8746 6.67522   2
  -3  -2 -22 3.57226 9.06526   9
  -3   2 -22 0.38341 6.90399   2
   3   2  22 0.29741 7.73529   3
   3   2  22 3.11796 7.99296   4
  -3   2 -22 -2.3984 9.61474   5
   5  -3 -22 230.146 13.4495   2
  -5  -3  22 238.490 16.4931   8
  -5  -3  22 256.051 18.6513   4
   5  -3 -22 223.397 14.9154   9
  -5   3  22 223.866 17.1676   4
  -5   3  22 270.997 21.8752   1
   5   3 -22 258.836 17.6272   5
  -4  -3  22 -3.1959 8.62853   4
  -4  -3  22 1.43212 6.42590   8
   4  -3 -22 -1.4390 5.39659   9
   4  -3 -22 -1.1469 6.79827   5
   4  -3 -22 -0.8410 5.72413   2
   4   3 -22 -2.0062 7.20508   5
  -4   3  22 -3.2093 7.60074   4
  -4   3  22 4.15992 14.0606   1
  -3  -3  22 -0.9317 8.31582   8
  -3  -3  22 1.02806 8.75916   4
   3  -3 -22 1.28916 5.72660   9
   3  -3 -22 3.02822 6.01502   2
   3  -3 -22 -0.8392 6.42646   5
   3   3 -22 23.6572 18.6975   5
  -3   3  22 5.09301 9.80410   1
  -3   3  22 19.3488 20.6371   4
   2  -3 -22 4.35044 6.23657   5
  -2  -3  22 7.30661 6.37678   4
   2  -3 -22 8.70955 6.65340   2
   2  -3 -22 11.3008 8.59438   9
  -2   3  22 12.2736 9.42251   1
   2   3 -22 7.01349 7.62194   5
  -2   3  22 18.0991 11.7006   4
   1  -3 -22 74.2367 10.5380   5
  -1  -3  22 52.8300 8.15703   4
   1  -3 -22 51.8314 10.5941   2
   1  -3 -22 51.3251 8.10131   9
   1   3 -22 70.1298 12.3822   5
  -1   3  22 65.7280 10.7931   4
  -1   3  22 64.5579 10.7823   1
   0  -3 -22 -4.3800 8.99042   2
   0  -3 -22 9.86234 8.58734   9
   0  -3  22 -2.1354 11.4634   4
   0  -3 -22 0.83114 8.01824   5
   0   3 -22 -4.4573 5.34410   2
   0   3  22 -1.6492 8.11479   4
   0   3  22 -1.8988 8.17378   1
   0   3  22 -3.7074 7.83664   3
   0   3 -22 -6.0965 7.17269   5
  -1  -3 -22 8.20322 10.0422   2
  -1  -3 -22 14.1570 6.68535   9
   1  -3  22 5.75452 6.23259   4
  -1  -3 -22 16.4995 6.07767   5
   1   3  22 10.0790 6.87182   3
   1   3  22 10.1164 7.51720   1
  -1   3 -22 11.3394 8.32474   5
  -1   3 -22 7.56631 6.10999   2
   1   3  22 10.5286 9.28792   4
  -2  -3 -22 20.8083 7.99997   2
  -2  -3 -22 18.0175 7.48719   9
   2   3  22 24.1731 9.35146   4
  -2   3 -22 14.7301 9.78549   2
  -2   3 -22 20.3683 9.08071   5
   2   3  22 3.12565 10.6705   3
   2   3  22 21.3432 8.09467   1
   4  -4 -22 31.9139 10.9018   2
   4  -4 -22 47.6109 8.73153   9
  -4  -4  22 64.2813 9.57803   8
  -4  -4  22 40.5104 8.69208   4
   4   4 -22 37.5631 10.4446   5
  -4   4  22 42.4901 10.1314   1
  -4   4  22 26.2552 10.1001   4
   3  -4 -22 6.23343 7.49180   2
  -3  -4  22 5.48399 6.93915   8
  -3  -4  22 -0.6111 6.49100   4
   3  -4 -22 3.03515 6.80328   9
   3   4 -22 12.6931 10.7866   5
  -3   4  22 3.64321 13.1468   4
  -3   4  22 -3.0766 7.71695   1
   2  -4 -22 75.0215 9.89601   2
   2  -4 -22 79.3038 11.3648   9
  -2  -4  22 95.7484 9.45055   4
  -2  -4  22 107.547 10.0846   8
   2   4 -22 78.8885 13.9784   5
  -2   4  22 74.6167 12.2336   4
  -2   4  22 93.2110 12.9781   1
   1  -4 -22 28.4153 7.53340   9
   1  -4 -22 30.2795 8.39221   2
  -1  -4  22 35.0552 7.44803   8
  -1  -4  22 38.2273 7.40286   4
   1   4 -22 26.3580 9.27069   5
  -1   4  22 28.2821 11.5506   1
  -1   4  22 15.7247 9.88070   4
   0  -4  22 2.54998 7.76763   4
   0  -4 -22 1.54363 6.39811   9
   0  -4  22 -5.0301 5.53430   8
   0  -4 -22 0.46612 6.80928   2
   0   4  22 -1.9051 6.41831   1
   0   4 -22 -11.994 10.8488   5
   0   4  22 2.25032 8.36875   4
  -1  -4 -22 87.4688 9.80308   9
  -1  -4 -22 93.1014 10.2785   2
  -1   4 -22 75.6753 9.16959   2
  -1   4 -22 81.5571 14.5449   5
   1   4  22 100.550 13.6317   1
   6   0 -23 4.30711 10.8675   5
  -6   0  23 12.5545 27.4395   4
   5   0 -23 1.18350 7.64229   5
  -5   0  23 9.04407 7.32119   4
   4   0 -23 0.66014 6.73845   5
  -4   0  23 -3.1447 6.53058   4
  -3   0  23 2.15829 9.36984   4
   3   0 -23 -0.8941 4.86069   2
   3   0 -23 6.19665 9.47379   5
   3   0 -23 0.42417 4.73693   9
   2   0 -23 0.94818 6.55042   9
   2   0 -23 2.38653 6.53696   5
  -2   0  23 -0.2529 6.40001   4
   2   0 -23 -0.7940 7.16233   2
  -1   0  23 0.30334 9.54992   4
   1   0 -23 3.37944 6.86697   9
   1   0 -23 -0.5954 7.55766   2
   1   0 -23 0.86848 8.45030   5
   0   0 -23 -2.7986 8.13966   5
   0   0  23 3.98364 7.00181   4
   0   0 -23 -0.4854 5.16902   9
   0   0 -23 -2.7893 5.51705   2
  -1   0 -23 36.5779 10.4173   5
  -1   0 -23 24.1507 7.49311   2
   1   0  23 36.2560 9.02603   4
  -1   0 -23 15.9811 6.87076   9
  -2   0 -23 9.65777 8.72817   9
  -2   0 -23 3.13085 9.19616   2
   2   0  23 -2.3583 7.38488   4
  -2   0 -23 -0.8924 5.94788   5
   6  -1 -23 91.4189 11.9431   5
  -6  -1  23 106.007 11.3364   4
  -6   1  23 92.7429 11.3306   4
   6   1 -23 111.322 14.8719   5
  -5  -1  23 -5.4976 9.49420   4
   5  -1 -23 10.0365 7.63468   5
  -5   1  23 2.21498 7.28902   4
   5   1 -23 11.9082 11.2161   5
   4  -1 -23 25.1525 10.8115   5
   4  -1 -23 15.7466 7.65911   9
  -4  -1  23 30.0485 8.07140   4
   4  -1 -23 18.7884 6.12200   2
   4   1 -23 20.7244 11.0751   5
  -4   1  23 22.1462 8.57443   4
   3  -1 -23 25.5291 6.19575   9
  -3  -1  23 27.0648 7.85207   4
   3  -1 -23 30.6687 8.84565   2
   3  -1 -23 35.9217 8.39084   5
   3   1 -23 35.4187 8.67323   5
  -3   1  23 39.6737 8.97487   4
  -2  -1  23 7.85773 6.68026   4
   2  -1 -23 9.38420 6.84715   5
   2  -1 -23 8.94097 7.79738   9
   2  -1 -23 10.5201 8.08945   2
  -2   1  23 10.4799 10.6622   4
   2   1 -23 9.21955 7.20503   5
   2   1 -23 5.00305 4.76370   9
   2   1 -23 10.9482 7.14051   2
   1  -1 -23 17.6509 8.87242   2
   1  -1 -23 16.9472 6.09039   9
   1  -1 -23 23.4007 9.22489   5
  -1  -1  23 12.0685 9.54963   4
   1   1 -23 12.6268 7.67860   2
   1   1 -23 13.5368 7.43076   5
   1   1 -23 4.00714 7.26913   9
  -1   1  23 22.9551 8.28432   4
   0  -1 -23 25.4935 9.39689   5
   0  -1 -23 26.2355 7.40241   2
   0  -1  23 39.1639 10.2213   4
   0  -1 -23 19.3413 8.42137   9
   0   1 -23 16.6749 6.11180   9
   0   1 -23 21.0759 6.64971   2
   0   1 -23 25.4913 10.5698   5
   0   1  23 34.1059 12.2834   4
   1  -1  23 40.5347 10.8658   4
  -1  -1 -23 38.7958 8.01199   5
  -1  -1 -23 25.8284 9.76866   9
  -1  -1 -23 19.8642 7.45884   2
  -1   1 -23 32.8472 11.3787   5
   1   1  23 43.2894 12.9984   4
  -1   1 -23 31.2792 7.24943   9
  -1   1 -23 34.9462 7.79852   2
  -2  -1 -23 14.0400 6.85131   5
  -2  -1 -23 17.8357 7.24816   2
  -2  -1 -23 10.0452 7.24688   9
   2  -1  23 11.5867 10.1481   4
  -2   1 -23 8.29821 7.48597   5
   2   1  23 8.17763 12.0072   4
  -2   1 -23 8.26736 9.68076   9
   2   1  23 2.45794 7.72696   3
  -2   1 -23 12.8239 10.2550   2
  -5  -2  23 -6.1323 10.0071   8
  -5  -2  23 -3.6483 7.12553   4
   5  -2 -23 -0.2131 7.54539   5
  -5   2  23 12.5768 9.52612   4
  -5   2  23 7.21894 6.65903   1
   5   2 -23 7.70988 8.38805   5
   4  -2 -23 1.78489 5.39166   9
   4  -2 -23 6.76956 8.36188   2
   4  -2 -23 -1.8011 9.51236   5
  -4  -2  23 0.45551 9.36034   4
   4   2 -23 0.74931 7.04975   5
  -4   2  23 6.34804 6.35882   1
  -4   2  23 -0.2525 7.31084   4
   3  -2 -23 247.653 15.2124   9
  -3  -2  23 259.002 19.9948   4
   3  -2 -23 260.779 17.3862   2
   3  -2 -23 285.155 24.5991   5
  -3   2  23 287.461 16.1955   1
  -3   2  23 282.272 22.1074   4
   3   2 -23 280.487 21.7943   5
   2  -2 -23 0.58970 7.90302   9
  -2  -2  23 1.24667 6.23163   4
   2  -2 -23 1.43143 6.46741   5
   2  -2 -23 0.26288 8.72771   2
  -2   2  23 -1.7410 7.83085   4
   2   2 -23 -5.9845 6.62303   5
  -2   2  23 3.60673 5.93201   1
   1  -2 -23 -0.4935 6.16627   5
  -1  -2  23 -1.5212 6.23875   4
   1  -2 -23 -1.4842 5.96577   2
   1  -2 -23 -6.1350 5.73749   9
  -1   2  23 0.65150 10.9304   4
   1   2 -23 -2.9966 10.3445   5
   1   2 -23 -3.2923 6.83374   2
   1   2 -23 0.45328 6.66466   9
   0  -2  23 -1.3938 5.97966   4
   0  -2 -23 2.45060 6.22418   5
   0  -2 -23 -6.1887 8.15047   9
   0  -2 -23 -0.2141 8.98029   2
   0   2  23 0.83143 8.62955   4
   0   2 -23 -2.0188 5.34472   2
   0   2 -23 8.75073 7.62232   5
   0   2 -23 0.79649 5.24865   9
   1  -2  23 81.4645 9.35211   4
  -1  -2 -23 89.1187 9.15564   9
  -1  -2 -23 79.3365 12.4281   2
  -1  -2 -23 97.0585 10.8603   5
  -1   2 -23 101.075 11.1387   5
   1   2  23 82.4577 11.9214   4
  -1   2 -23 83.0681 9.43179   2
  -1   2 -23 64.6998 8.63552   9
   1   2  23 74.8428 10.0647   3
  -2  -2 -23 6.22844 6.90452   9
   2  -2  23 5.45091 8.29228   4
  -2  -2 -23 6.02047 6.82443   2
  -2  -2 -23 6.32114 5.64834   5
   2   2  23 1.03994 6.91277   3
  -2   2 -23 4.16858 9.22402   2
  -2   2 -23 2.12680 7.03373   5
   2   2  23 3.99048 8.24264   4
  -4  -3  23 170.111 12.7686   8
   4  -3 -23 177.032 13.2901   2
  -4  -3  23 152.484 14.5323   4
   4  -3 -23 157.446 10.9192   9
   4   3 -23 173.232 23.0865   5
  -4   3  23 151.609 14.0645   4
  -4   3  23 200.678 13.9759   1
   3  -3 -23 0.75688 6.22649   9
   3  -3 -23 0.25196 9.95559   5
  -3  -3  23 3.95517 9.25605   8
   3  -3 -23 0.97330 6.63098   2
  -3  -3  23 2.50782 9.47942   4
  -3   3  23 2.45484 7.66686   1
  -3   3  23 2.79987 8.88764   4
   3   3 -23 2.19296 11.0484   5
  -2  -3  23 44.6714 10.8395   4
   2  -3 -23 47.7888 11.0263   2
   2  -3 -23 42.3838 10.2957   9
   2  -3 -23 41.9765 10.9403   5
  -2   3  23 63.6698 11.5675   1
  -2   3  23 55.7352 10.9136   4
   2   3 -23 60.4005 10.2512   5
   1  -3 -23 -0.9427 6.01811   9
  -1  -3  23 -10.219 8.78057   4
   1  -3 -23 -2.9987 8.86940   5
   1  -3 -23 1.52188 6.41253   2
  -1   3  23 -13.958 11.7832   4
  -1   3  23 1.96013 9.06749   1
   1   3 -23 -8.0532 10.2485   5
   0  -3  23 231.855 16.9758   4
   0  -3 -23 230.127 18.4149   5
   0  -3 -23 200.779 13.7630   9
   0  -3 -23 182.633 14.8571   2
   0   3 -23 214.734 18.5054   5
   0   3  23 213.093 17.4628   4
   0   3  23 209.028 17.3458   1
  -1  -3 -23 -0.0667 6.74905   2
  -1  -3 -23 2.13957 7.99677   5
   1  -3  23 0.00000 5.79394   4
  -1  -3 -23 2.91063 6.36381   9
   1   3  23 1.56433 8.85770   4
   1   3  23 1.22827 6.52048   1
  -1   3 -23 -0.3967 7.65529   5
   1   3  23 5.19529 6.69271   3
  -1   3 -23 5.60987 6.23315   2
   5   0 -24 2.49901 7.96810   5
  -5   0  24 2.83904 7.43906   4
   4   0 -24 -2.2801 7.13848   5
  -4   0  24 -3.2635 9.69434   4
  -3   0  24 1.32769 6.81983   4
   3   0 -24 -0.5421 7.07185   5
   2   0 -24 39.4086 11.3950   5
   2   0 -24 34.7515 6.83742   9
   2   0 -24 34.9500 7.29803   2
  -2   0  24 61.5863 11.8930   4
  -1   0  24 2.04124 7.14586   4
   1   0 -24 2.40037 6.64490   5
   1   0 -24 4.87785 7.63317   9
   1   0 -24 2.52426 5.84523   2
   0   0 -24 -1.2100 5.86750   2
   0   0 -24 3.08915 6.37838   5
   0   0  24 3.32258 7.26777   4
   0   0 -24 2.10654 5.97652   9
  -1   0 -24 4.93700 6.40419   2
  -1   0 -24 -0.6260 5.99786   9
   1   0  24 0.12601 7.49410   4
  -1   0 -24 0.06896 6.26943   5
   4  -1 -24 -6.1336 7.28747   5
  -4  -1  24 -4.5279 6.83138   4
  -4   1  24 -1.0194 7.69469   4
   4   1 -24 -1.4003 7.48520   5
   3  -1 -24 24.1462 11.0865   5
  -3  -1  24 29.5009 10.9832   4
   3  -1 -24 26.5346 7.10994   2
   3  -1 -24 16.7394 6.25007   9
  -3   1  24 32.9965 11.4538   4
   3   1 -24 21.3235 8.33853   5
   2  -1 -24 27.7209 6.86009   9
   2  -1 -24 24.4509 7.22171   2
   2  -1 -24 37.2709 8.72300   5
  -2  -1  24 24.8821 8.13053   4
  -2   1  24 45.9008 9.34346   4
   2   1 -24 38.4682 8.67504   5
   1  -1 -24 86.9080 9.66726   2
   1  -1 -24 107.057 10.7837   5
   1  -1 -24 96.2754 10.9189   9
  -1  -1  24 105.479 10.7128   4
   1   1 -24 78.0911 10.0370   9
  -1   1  24 108.195 14.2970   4
   1   1 -24 87.3151 9.05857   2
   1   1 -24 94.5566 13.1003   5
   0  -1 -24 1.22127 6.28448   5
   0  -1 -24 1.04255 6.25239   2
   0  -1 -24 2.59461 5.72464   9
   0  -1  24 -3.5309 7.02638   4
   0   1  24 7.51785 8.35430   4
   0   1 -24 -0.0714 5.57121   2
   0   1 -24 2.99355 5.79323   9
   0   1 -24 0.74745 10.2615   5
  -1  -1 -24 38.5060 9.98698   5
   1  -1  24 45.3754 8.48477   4
  -1  -1 -24 27.6470 7.59574   9
  -1  -1 -24 21.0770 7.34339   2
  -1   1 -24 13.3967 7.02117   2
  -1   1 -24 26.6880 6.80338   9
  -1   1 -24 41.5059 11.1742   5
   1   1  24 28.2460 9.24740   4
   4  -2 -24 96.2089 11.5383   2
  -4  -2  24 125.363 12.1056   4
   4  -2 -24 144.858 15.0146   5
   4  -2 -24 107.374 9.64471   9
  -4   2  24 102.620 12.2044   4
   4   2 -24 163.238 18.6212   5
   3  -2 -24 86.1120 11.7336   2
   3  -2 -24 89.9522 13.2626   5
  -3  -2  24 94.0688 13.0937   4
   3  -2 -24 86.6766 11.4496   9
  -3   2  24 86.8190 14.7186   4
   3   2 -24 99.6296 11.8541   5
   2  -2 -24 193.095 17.6803   9
   2  -2 -24 204.415 16.6812   2
   2  -2 -24 219.842 19.7439   5
  -2  -2  24 226.931 15.6105   4
  -2   2  24 221.159 18.7182   4
   2   2 -24 217.583 22.1313   5
   1  -2 -24 18.4048 9.69939   9
   1  -2 -24 31.6963 8.06756   2
   1  -2 -24 37.2609 10.8988   5
  -1  -2  24 37.5173 8.48344   4
   1   2 -24 31.3845 9.57839   5
  -1   2  24 35.7470 10.1430   4
   0  -2  24 68.1774 9.15878   4
   0  -2 -24 48.3132 9.15471   2
   0  -2 -24 53.5047 8.20783   9
   0  -2 -24 43.0383 11.3569   5
   0   2 -24 57.7970 10.1273   5
   0   2 -24 35.4908 7.75015   2
   0   2  24 49.9719 11.2913   4
   0   2 -24 41.9073 7.46260   9
   2   0 -25 -6.0044 8.45101   2
  -2   0  25 -5.8771 7.59987   4
   2   0 -25 1.35911 7.08044   5
   2   0 -25 -2.9329 5.29673   9
   0   0   0    0.00    0.00   0

 _exptl_absorpt_process_details 'SADABS 2014/4'
 _exptl_absorpt_correction_type   multiscan
 _exptl_absorpt_correction_T_max  0.9583
 _exptl_absorpt_correction_T_min  0.8085
 _exptl_special_details
)
 The following wavelength and cell were deduced by SADABS from the
 direction cosines etc. They are given here for emergency use only:
 CELL 0.71066    8.830    7.707   19.263   89.970   99.579   90.039
)
;
_shelx_hkl_checksum              75891
loop_
_space_group_symop_operation_xyz
'x, y, z'
'-x+1/2, y+1/2, -z+1/2'
'-x, -y, -z'
'x-1/2, -y-1/2, z-1/2'
loop_
_atom_site_label
_atom_site_type_symbol
_atom_site_fract_x
_atom_site_fract_y
_atom_site_fract_z
_atom_site_U_iso_or_equiv
_atom_site_adp_type
_atom_site_occupancy
_atom_site_site_symmetry_order
_atom_site_calc_flag
_atom_site_refinement_flags_posn
_atom_site_refinement_flags_adp
N1 N 0.50347(15) 0.24757(18) 0.34807(7) 0.0201(3) Uani 1 1 d . .
S1 S 0.63842(5) 0.50085(5) 0.25760(2) 0.02264(14) Uani 1 1 d . .
O1 O 0.33424(14) 0.18754(16) 0.50764(6) 0.0252(3) Uani 1 1 d . .
C1 C 0.43983(17) 0.2368(2) 0.27544(8) 0.0199(3) Uani 1 1 d . .
C2 C 0.32077(18) 0.1224(2) 0.24958(8) 0.0218(3) Uani 1 1 d . .
H2A H 0.2851 0.0414 0.2808 0.026 Uiso 1 1 calc R U
C3 C 0.25371(19) 0.1251(2) 0.17887(8) 0.0233(4) Uani 1 1 d . .
H3A H 0.1689 0.0504 0.1626 0.028 Uiso 1 1 calc R U
C4 C 0.30885(19) 0.2352(2) 0.13192(8) 0.0247(4) Uani 1 1 d . .
H4A H 0.2630 0.2363 0.0834 0.030 Uiso 1 1 calc R U
C5 C 0.43141(19) 0.3439(2) 0.15621(8) 0.0225(3) Uani 1 1 d . .
H5A H 0.4725 0.4173 0.1239 0.027 Uiso 1 1 calc R U
C6 C 0.49507(18) 0.3470(2) 0.22735(8) 0.0212(3) Uani 1 1 d . .
C7 C 0.74223(18) 0.3791(2) 0.32733(8) 0.0203(3) Uani 1 1 d . .
C8 C 0.90000(18) 0.4029(2) 0.34457(9) 0.0234(4) Uani 1 1 d . .
H8A H 0.9522 0.4750 0.3158 0.028 Uiso 1 1 calc R U
C9 C 0.98220(19) 0.3227(2) 0.40327(9) 0.0255(4) Uani 1 1 d . .
H9A H 1.0900 0.3432 0.4162 0.031 Uiso 1 1 calc R U
C10 C 0.90668(19) 0.2126(2) 0.44294(9) 0.0248(4) Uani 1 1 d . .
H10A H 0.9629 0.1569 0.4835 0.030 Uiso 1 1 calc R U
C11 C 0.74984(19) 0.1822(2) 0.42444(8) 0.0218(3) Uani 1 1 d . .
H11A H 0.6998 0.1024 0.4512 0.026 Uiso 1 1 calc R U
C12 C 0.66483(18) 0.2678(2) 0.36677(8) 0.0200(3) Uani 1 1 d . .
C13 C 0.42009(18) 0.1653(2) 0.39888(8) 0.0213(3) Uani 1 1 d . .
H13A H 0.4687 0.0518 0.4135 0.026 Uiso 1 1 calc R U
H13B H 0.3120 0.1431 0.3762 0.026 Uiso 1 1 calc R U
C14 C 0.42032(19) 0.2781(2) 0.46348(8) 0.0209(3) Uani 1 1 d . .
H14A H 0.5274 0.2975 0.4880 0.025 Uiso 1 1 calc R U
H14B H 0.3723 0.3924 0.4499 0.025 Uiso 1 1 calc R U
C15 C 0.3113(2) 0.2885(3) 0.56655(9) 0.0304(4) Uani 1 1 d . .
H15A H 0.2525 0.2209 0.5965 0.046 Uiso 1 1 calc R U
H15B H 0.2538 0.3942 0.5502 0.046 Uiso 1 1 calc R U
H15C H 0.4118 0.3206 0.5939 0.046 Uiso 1 1 calc R U
loop_
_atom_site_aniso_label
_atom_site_aniso_U_11
_atom_site_aniso_U_22
_atom_site_aniso_U_33
_atom_site_aniso_U_23
_atom_site_aniso_U_13
_atom_site_aniso_U_12
N1 0.0187(6) 0.0244(7) 0.0177(6) -0.0001(5) 0.0041(5) -0.0035(5)
S1 0.0232(2) 0.0222(2) 0.0221(2) 0.00260(15) 0.00257(16) -0.00320(16)
O1 0.0317(6) 0.0243(6) 0.0225(6) -0.0017(5) 0.0130(5) -0.0044(5)
C1 0.0180(7) 0.0215(8) 0.0204(7) -0.0013(6) 0.0036(6) 0.0028(6)
C2 0.0209(8) 0.0248(9) 0.0205(8) -0.0003(6) 0.0058(6) -0.0006(6)
C3 0.0198(8) 0.0264(9) 0.0231(8) -0.0047(7) 0.0021(6) -0.0014(7)
C4 0.0235(8) 0.0303(9) 0.0197(8) -0.0010(7) 0.0014(6) 0.0045(7)
C5 0.0226(8) 0.0237(9) 0.0214(8) 0.0014(6) 0.0046(6) 0.0034(7)
C6 0.0205(7) 0.0214(8) 0.0221(8) -0.0012(6) 0.0043(6) 0.0011(6)
C7 0.0209(8) 0.0202(8) 0.0197(7) -0.0023(6) 0.0027(6) -0.0011(6)
C8 0.0211(8) 0.0249(9) 0.0254(8) -0.0021(7) 0.0071(6) -0.0021(7)
C9 0.0184(8) 0.0296(9) 0.0286(8) -0.0035(7) 0.0036(6) -0.0011(7)
C10 0.0229(8) 0.0263(9) 0.0245(8) -0.0007(7) 0.0020(6) 0.0040(7)
C11 0.0237(8) 0.0211(8) 0.0214(8) 0.0003(6) 0.0058(6) 0.0006(6)
C12 0.0197(7) 0.0211(8) 0.0197(7) -0.0031(6) 0.0050(6) -0.0006(6)
C13 0.0203(7) 0.0242(9) 0.0198(7) -0.0003(6) 0.0046(6) -0.0040(6)
C14 0.0216(8) 0.0222(8) 0.0197(7) 0.0013(6) 0.0055(6) -0.0035(6)
C15 0.0357(10) 0.0341(10) 0.0243(8) -0.0049(7) 0.0134(7) -0.0039(8)
loop_
_atom_type_symbol
_atom_type_description
_atom_type_scat_dispersion_real
_atom_type_scat_dispersion_imag
_atom_type_scat_source
C C 0.0033 0.0016 'International Tables Vol C Tables 4.2.6.8 and 6.1.1.4'
H H 0.0000 0.0000 'International Tables Vol C Tables 4.2.6.8 and 6.1.1.4'
N N 0.0061 0.0033 'International Tables Vol C Tables 4.2.6.8 and 6.1.1.4'
O O 0.0106 0.0060 'International Tables Vol C Tables 4.2.6.8 and 6.1.1.4'
S S 0.1246 0.1234 'International Tables Vol C Tables 4.2.6.8 and 6.1.1.4'
loop_
_geom_angle_atom_site_label_1
_geom_angle_atom_site_label_2
_geom_angle_atom_site_label_3
_geom_angle
C12 N1 C1 118.37(13)
C12 N1 C13 118.11(13)
C1 N1 C13 118.16(13)
C6 S1 C7 98.45(8)
C14 O1 C15 111.67(13)
C2 C1 C6 118.00(14)
C2 C1 N1 122.64(14)
C6 C1 N1 119.35(14)
C3 C2 C1 120.80(16)
C3 C2 H2A 119.6
C1 C2 H2A 119.6
C4 C3 C2 120.57(16)
C4 C3 H3A 119.7
C2 C3 H3A 119.7
C3 C4 C5 119.22(15)
C3 C4 H4A 120.4
C5 C4 H4A 120.4
C4 C5 C6 120.55(16)
C4 C5 H5A 119.7
C6 C5 H5A 119.7
C5 C6 C1 120.74(15)
C5 C6 S1 119.25(13)
C1 C6 S1 119.90(12)
C8 C7 C12 120.69(15)
C8 C7 S1 119.08(13)
C12 C7 S1 120.14(12)
C9 C8 C7 120.44(16)
C9 C8 H8A 119.8
C7 C8 H8A 119.8
C10 C9 C8 119.35(16)
C10 C9 H9A 120.3
C8 C9 H9A 120.3
C9 C10 C11 120.67(16)
C9 C10 H10A 119.7
C11 C10 H10A 119.7
C10 C11 C12 120.31(15)
C10 C11 H11A 119.8
C12 C11 H11A 119.8
C7 C12 C11 118.43(15)
C7 C12 N1 119.24(14)
C11 C12 N1 122.31(15)
N1 C13 C14 111.41(13)
N1 C13 H13A 109.3
C14 C13 H13A 109.3
N1 C13 H13B 109.3
C14 C13 H13B 109.3
H13A C13 H13B 108.0
O1 C14 C13 106.23(13)
O1 C14 H14A 110.5
C13 C14 H14A 110.5
O1 C14 H14B 110.5
C13 C14 H14B 110.5
H14A C14 H14B 108.7
O1 C15 H15A 109.5
O1 C15 H15B 109.5
H15A C15 H15B 109.5
O1 C15 H15C 109.5
H15A C15 H15C 109.5
H15B C15 H15C 109.5
loop_
_geom_bond_atom_site_label_1
_geom_bond_atom_site_label_2
_geom_bond_distance
N1 C12 1.409(2)
N1 C1 1.413(2)
N1 C13 1.4523(19)
S1 C6 1.7526(17)
S1 C7 1.7567(17)
O1 C14 1.4048(18)
O1 C15 1.409(2)
C1 C2 1.392(2)
C1 C6 1.393(2)
C2 C3 1.385(2)
C2 H2A 0.9500
C3 C4 1.377(2)
C3 H3A 0.9500
C4 C5 1.380(2)
C4 H4A 0.9500
C5 C6 1.385(2)
C5 H5A 0.9500
C7 C8 1.380(2)
C7 C12 1.388(2)
C8 C9 1.377(2)
C8 H8A 0.9500
C9 C10 1.376(2)
C9 H9A 0.9500
C10 C11 1.382(2)
C10 H10A 0.9500
C11 C12 1.392(2)
C11 H11A 0.9500
C13 C14 1.509(2)
C13 H13A 0.9900
C13 H13B 0.9900
C14 H14A 0.9900
C14 H14B 0.9900
C15 H15A 0.9800
C15 H15B 0.9800
C15 H15C 0.9800
loop_
_geom_torsion_atom_site_label_1
_geom_torsion_atom_site_label_2
_geom_torsion_atom_site_label_3
_geom_torsion_atom_site_label_4
_geom_torsion
C12 N1 C1 C2 139.85(16)
C13 N1 C1 C2 -13.8(2)
C12 N1 C1 C6 -41.5(2)
C13 N1 C1 C6 164.77(15)
C6 C1 C2 C3 -3.6(2)
N1 C1 C2 C3 175.06(15)
C1 C2 C3 C4 3.3(3)
C2 C3 C4 C5 -0.4(3)
C3 C4 C5 C6 -2.2(2)
C4 C5 C6 C1 1.9(2)
C4 C5 C6 S1 -174.10(13)
C2 C1 C6 C5 0.9(2)
N1 C1 C6 C5 -177.72(15)
C2 C1 C6 S1 176.96(12)
N1 C1 C6 S1 -1.7(2)
C7 S1 C6 C5 -149.25(13)
C7 S1 C6 C1 34.68(15)
C6 S1 C7 C8 147.95(13)
C6 S1 C7 C12 -35.47(15)
C12 C7 C8 C9 -3.1(3)
S1 C7 C8 C9 173.49(13)
C7 C8 C9 C10 2.8(3)
C8 C9 C10 C11 0.0(3)
C9 C10 C11 C12 -2.4(3)
C8 C7 C12 C11 0.6(2)
S1 C7 C12 C11 -175.90(12)
C8 C7 C12 N1 179.50(14)
S1 C7 C12 N1 3.0(2)
C10 C11 C12 C7 2.1(2)
C10 C11 C12 N1 -176.76(15)
C1 N1 C12 C7 40.8(2)
C13 N1 C12 C7 -165.51(14)
C1 N1 C12 C11 -140.37(16)
C13 N1 C12 C11 13.3(2)
C12 N1 C13 C14 67.76(18)
C1 N1 C13 C14 -138.48(15)
C15 O1 C14 C13 -173.43(14)
N1 C13 C14 O1 178.74(12)
