#------------------------------------------------------------------------------
#$Date: 2016-11-06 03:59:37 +0200 (Sun, 06 Nov 2016) $
#$Revision: 187945 $
#$URL: file:///home/coder/svn-repositories/cod/cif/1/54/40/1544024.cif $
#------------------------------------------------------------------------------
#
# This file is available in the Crystallography Open Database (COD),
# http://www.crystallography.net/
#
# All data on this site have been placed in the public domain by the
# contributors.
#
data_1544024
loop_
_publ_author_name
'Zhang, Ziqian'
'Li, Yi'
'He, Haihong'
'Qian, Xuhong'
'Yang, Youjun'
_publ_section_title
;
 Mild Chemotriggered Generation of a Fluorophore-Tethered Diazoalkane
 Species via Smiles Rearrangement.
;
_journal_issue                   18
_journal_name_full               'Organic letters'
_journal_page_first              4674
_journal_page_last               4677
_journal_paper_doi               10.1021/acs.orglett.6b02303
_journal_volume                  18
_journal_year                    2016
_chemical_formula_sum            'C20 H21 N3 O4 S'
_chemical_formula_weight         399.46
_chemical_name_systematic
; 
 ? 
;
_space_group_crystal_system      triclinic
_space_group_IT_number           2
_space_group_name_Hall           '-P 1'
_space_group_name_H-M_alt        'P -1'
_symmetry_space_group_name_Hall  '-P 1'
_symmetry_space_group_name_H-M   'P -1'
_atom_sites_solution_hydrogens   geom
_audit_creation_method           SHELXL-2013
_cell_angle_alpha                95.058(7)
_cell_angle_beta                 91.227(8)
_cell_angle_gamma                99.386(6)
_cell_formula_units_Z            2
_cell_length_a                   9.4679(10)
_cell_length_b                   10.2537(11)
_cell_length_c                   10.3314(12)
_cell_measurement_reflns_used    2222
_cell_measurement_temperature    296(2)
_cell_measurement_theta_max      132.470
_cell_measurement_theta_min      8.779
_cell_volume                     985.05(19)
_computing_cell_refinement       'Bruker SAINT'
_computing_data_collection       'Bruker APEX2'
_computing_data_reduction        'Bruker SAINT'
_computing_molecular_graphics    'Bruker SHELXTL'
_computing_publication_material  'Bruker SHELXTL'
_computing_structure_refinement  'SHELXL-2013 (Sheldrick, 2013)'
_computing_structure_solution    'SHELXS-97 (Sheldrick, 2008)'
_diffrn_ambient_temperature      296(2)
_diffrn_measured_fraction_theta_full 0.914
_diffrn_measured_fraction_theta_max 0.952
_diffrn_measurement_device_type  'Bruker APEX-II CCD'
_diffrn_measurement_method       '\f and \w scans'
_diffrn_radiation_type           CuK\a
_diffrn_radiation_wavelength     1.54178
_diffrn_reflns_av_R_equivalents  0.0353
_diffrn_reflns_av_unetI/netI     0.0509
_diffrn_reflns_Laue_measured_fraction_full 0.914
_diffrn_reflns_Laue_measured_fraction_max 0.952
_diffrn_reflns_limit_h_max       11
_diffrn_reflns_limit_h_min       -11
_diffrn_reflns_limit_k_max       12
_diffrn_reflns_limit_k_min       -12
_diffrn_reflns_limit_l_max       10
_diffrn_reflns_limit_l_min       -12
_diffrn_reflns_number            7674
_diffrn_reflns_point_group_measured_fraction_full 0.914
_diffrn_reflns_point_group_measured_fraction_max 0.952
_diffrn_reflns_theta_full        67.679
_diffrn_reflns_theta_max         65.982
_diffrn_reflns_theta_min         4.299
_exptl_absorpt_coefficient_mu    1.729
_exptl_absorpt_correction_T_max  0.7457
_exptl_absorpt_correction_T_min  0.5626
_exptl_absorpt_correction_type   multi-scan
_exptl_absorpt_process_details   sadabs
_exptl_crystal_colour            yellow
_exptl_crystal_density_diffrn    1.347
_exptl_crystal_description       prismatic
_exptl_crystal_F_000             420
_exptl_crystal_size_max          0.180
_exptl_crystal_size_mid          0.150
_exptl_crystal_size_min          0.110
_refine_diff_density_max         0.349
_refine_diff_density_min         -0.418
_refine_diff_density_rms         0.079
_refine_ls_extinction_method     none
_refine_ls_goodness_of_fit_ref   1.037
_refine_ls_hydrogen_treatment    constr
_refine_ls_matrix_type           full
_refine_ls_number_parameters     255
_refine_ls_number_reflns         3267
_refine_ls_number_restraints     0
_refine_ls_restrained_S_all      1.037
_refine_ls_R_factor_all          0.0722
_refine_ls_R_factor_gt           0.0587
_refine_ls_shift/su_max          0.015
_refine_ls_shift/su_mean         0.000
_refine_ls_structure_factor_coef Fsqd
_refine_ls_weighting_details
'w=1/[\s^2^(Fo^2^)+(0.1198P)^2^+0.1570P] where P=(Fo^2^+2Fc^2^)/3'
_refine_ls_weighting_scheme      calc
_refine_ls_wR_factor_gt          0.1660
_refine_ls_wR_factor_ref         0.1862
_reflns_Friedel_coverage         0.000
_reflns_number_gt                2531
_reflns_number_total             3267
_reflns_threshold_expression     'I > 2\s(I)'
_cod_data_source_file            ol6b02303_si_002.cif
_cod_data_source_block           cu_dm15800_0m
_cod_depositor_comments          'Adding full bibliography for 1544024.cif.'
_cod_database_code               1544024
_shelx_space_group_comment
; 
The symmetry employed for this shelxl refinement is uniquely defined 
by the following loop, which should always be used as a source of 
symmetry information in preference to the above space-group names. 
They are only intended as comments. 
;
_shelx_estimated_absorpt_t_min   0.746
_shelx_estimated_absorpt_t_max   0.833
_shelxl_version_number           2013-4
_shelx_res_file
; 
TITL cu_dm15800_0m in P-1 
CELL 1.54178   9.4679  10.2537  10.3314  95.058  91.227  99.386 
ZERR    2.00   0.0010   0.0011   0.0012   0.007   0.008   0.006 
LATT 1 
SFAC C  H  N  O  S 
UNIT 40 42 6 8 2 
omit  2   2   1 
omit     3  -1   1 
omit     1   1   0 
OMIT  -3.00 132.00 
L.S. 10 
ACTA 
BOND  $H 
FMAP 2 
PLAN 20 
HTAB C16 O3_$1 
HTAB C13 O4 
HTAB C16 O3_$1 
EQIV $1 x+1, y, z 
HTAB C13 O4 
conf 
htab 
mpla n1 c1 > c12 
wpdb -1 
size 0.18 0.15 0.11 
HTAB C13 O4 
HTAB C16 O3_$1 
TEMP 23.000 
WGHT    0.119800    0.157000 
FVAR       0.18960 
MOLE 1 
S1    5    1.044663    0.703884    0.196783    11.00000    0.05596    0.08120 = 
         0.08260    0.02426    0.01583    0.02124 
N1    3    0.273882    0.822325    0.538105    11.00000    0.04173    0.06726 = 
         0.05156   -0.00426    0.01537    0.00580 
N2    3    0.748685    0.795147    0.100665    11.00000    0.04522    0.06216 = 
         0.04775   -0.00111    0.01288    0.01516 
N3    3    0.722719    0.725427   -0.015493    11.00000    0.06218    0.07144 = 
         0.05466   -0.00403    0.00817    0.02226 
O1    4    0.195600    1.014018    0.500749    11.00000    0.05637    0.08684 = 
         0.08878   -0.00571    0.02486    0.03047 
O2    4    0.356593    0.635461    0.580334    11.00000    0.08023    0.07369 = 
         0.06902    0.02002    0.02721    0.01143 
O3    4    0.607063    0.651635   -0.028414    11.00000    0.07294    0.09118 = 
         0.07127   -0.01224    0.00293    0.00958 
O4    4    1.194980    0.844973    0.032744    11.00000    0.06649    0.08064 = 
         0.10323    0.02291    0.03166    0.01678 
C1    1    0.275220    0.935080    0.472195    11.00000    0.03787    0.06671 = 
         0.05818   -0.00945    0.00667    0.00772 
C2    1    0.361868    0.727125    0.513994    11.00000    0.04837    0.05893 = 
         0.04858   -0.00006    0.00845    0.00420 
C3    1    0.459590    0.745377    0.404070    11.00000    0.04191    0.05215 = 
         0.04859    0.00262    0.00842    0.00865 
C4    1    0.465628    0.858474    0.334521    11.00000    0.03415    0.05022 = 
         0.04407   -0.00216    0.00101    0.00561 
C5    1    0.376647    0.953630    0.365395    11.00000    0.03622    0.05376 = 
         0.05229   -0.00415    0.00304    0.01065 
C6    1    0.384150    1.064180    0.298062    11.00000    0.04434    0.05788 = 
         0.07003   -0.00132   -0.00209    0.01975 
AFIX  43 
H6    2    0.326309    1.127226    0.320205    11.00000   -1.20000 
AFIX   0 
C7    1    0.478220    1.082163    0.196618    11.00000    0.05229    0.05827 = 
         0.06347    0.01190   -0.00047    0.01573 
AFIX  43 
H7    2    0.482539    1.157344    0.151701    11.00000   -1.20000 
AFIX   0 
C8    1    0.564256    0.990580    0.162330    11.00000    0.04113    0.06024 = 
         0.04868    0.00770    0.00208    0.01027 
AFIX  43 
H8    2    0.625035    1.002942    0.093344    11.00000   -1.20000 
AFIX   0 
C9    1    0.560915    0.877558    0.231381    11.00000    0.03482    0.05086 = 
         0.04377    0.00027    0.00254    0.00865 
C10   1    0.648931    0.778920    0.204054    11.00000    0.04052    0.05651 = 
         0.04889    0.00125    0.00963    0.01211 
C11   1    0.639589    0.669747    0.270711    11.00000    0.05437    0.05617 = 
         0.06631    0.00597    0.01806    0.02190 
AFIX  43 
H11   2    0.696656    0.605959    0.248925    11.00000   -1.20000 
AFIX   0 
C12   1    0.544023    0.652549    0.372609    11.00000    0.05824    0.05623 = 
         0.06201    0.01433    0.01529    0.01527 
AFIX  43 
H12   2    0.538505    0.577884    0.418432    11.00000   -1.20000 
AFIX   0 
C13   1    0.883160    0.887332    0.114971    11.00000    0.04681    0.06217 = 
         0.06406    0.00412    0.01686    0.01278 
AFIX  23 
H13A  2    0.862559    0.976689    0.132509    11.00000   -1.20000 
H13B  2    0.931716    0.883476    0.033335    11.00000   -1.20000 
AFIX   0 
C14   1    0.982555    0.860426    0.221640    11.00000    0.04814    0.08052 = 
         0.06547   -0.00182    0.01007    0.01422 
AFIX  23 
H14A  2    0.933443    0.863401    0.303021    11.00000   -1.20000 
H14B  2    1.064985    0.930901    0.230027    11.00000   -1.20000 
AFIX   0 
C15   1    1.170047    0.738578    0.073592    11.00000    0.04711    0.07411 = 
         0.07610    0.00541    0.00770    0.01544 
C16   1    1.241150    0.621895    0.030087    11.00000    0.07551    0.09631 = 
         0.12555   -0.00149    0.01955    0.03785 
AFIX 137 
H16A  2    1.214586    0.593296   -0.059368    11.00000   -1.50000 
H16B  2    1.210928    0.550465    0.082646    11.00000   -1.50000 
H16C  2    1.343265    0.647537    0.039249    11.00000   -1.50000 
AFIX   0 
C17   1    0.171436    0.800149    0.643245    11.00000    0.05058    0.08509 = 
         0.05474   -0.00988    0.02006    0.00360 
AFIX  23 
H17A  2    0.152210    0.885227    0.680962    11.00000   -1.20000 
H17B  2    0.214591    0.758124    0.710994    11.00000   -1.20000 
AFIX   0 
C18   1    0.032043    0.714501    0.595862    11.00000    0.05446    0.08837 = 
         0.05862   -0.01000    0.01620    0.00234 
AFIX  23 
H18A  2    0.050783    0.628720    0.559635    11.00000   -1.20000 
H18B  2   -0.010666    0.755687    0.527226    11.00000   -1.20000 
AFIX   0 
C19   1   -0.072169    0.694797    0.703979    11.00000    0.05220    0.09016 = 
         0.06569   -0.00298    0.01615    0.00487 
AFIX  23 
H19A  2   -0.028051    0.655549    0.773216    11.00000   -1.20000 
H19B  2   -0.091420    0.780770    0.739110    11.00000   -1.20000 
AFIX   0 
C20   1   -0.211541    0.607882    0.660980    11.00000    0.05861    0.10174 = 
         0.08760   -0.00497    0.01620   -0.00324 
AFIX 137 
H20A  2   -0.255343    0.645334    0.591561    11.00000   -1.50000 
H20B  2   -0.274290    0.601952    0.732756    11.00000   -1.50000 
H20C  2   -0.194101    0.520788    0.631128    11.00000   -1.50000 
AFIX   0 
HKLF 4 
  
REM  cu_dm15800_0m in P-1 
REM R1 =  0.0587 for    2531 Fo > 4sig(Fo)  and  0.0722 for all    3267 data 
REM    255 parameters refined using      0 restraints 
  
END 
  
WGHT      0.1198      0.1570 
  
REM Instructions for potential hydrogen bonds 
HTAB C13 O4 
HTAB C16 O3_$1 
  
REM Highest difference peak  0.349,  deepest hole -0.418,  1-sigma level  0.079 
Q1    1   0.9951  0.7832  0.1908  11.00000  0.05    0.35 
Q2    1   0.4514  0.8158  0.3565  11.00000  0.05    0.34 
Q3    1   0.9720  0.7656  0.1653  11.00000  0.05    0.32 
Q4    1   0.5523  0.9020  0.2012  11.00000  0.05    0.31 
Q5    1   0.8072  0.7224 -0.0808  11.00000  0.05    0.31 
Q6    1   0.9524  0.7487  0.1403  11.00000  0.05    0.29 
Q7    1  -0.1016  0.8736  0.5385  11.00000  0.05    0.23 
Q8    1   1.0495  0.6561  0.1264  11.00000  0.05    0.23 
Q9    1   0.9487  0.7813  0.0051  11.00000  0.05    0.21 
Q10   1   0.1830  1.1227  0.4497  11.00000  0.05    0.21 
Q11   1   0.8086  0.6224  0.1484  11.00000  0.05    0.20 
Q12   1   0.8404  0.5933  0.2404  11.00000  0.05    0.20 
Q13   1   0.0314  1.0541  0.4606  11.00000  0.05    0.20 
Q14   1   1.3058  0.6068  0.1041  11.00000  0.05    0.20 
Q15   1   0.8403  0.6537  0.1783  11.00000  0.05    0.20 
Q16   1   0.0519  0.6183  0.6412  11.00000  0.05    0.19 
Q17   1   1.1624  0.5384  0.0060  11.00000  0.05    0.19 
Q18   1   0.9909  0.8248  0.0327  11.00000  0.05    0.19 
Q19   1   0.7366  0.5233  0.2982  11.00000  0.05    0.18 
Q20   1   0.8793  0.6762  0.0842  11.00000  0.05    0.18 
;
_shelx_res_checksum              89364
_shelx_hkl_file
; 
  -2   0   0    0.09    0.02 
   2   0   0    0.03    0.03 
  -3   0   0    6.42    0.28 
  -3   0   0    6.77    0.32 
  -4   0   0    8.56    0.36 
  -4   0   0    8.10    0.47 
  -4   0   0    8.72    0.41 
  -5   0   0   24.92    1.03 
  -5   0   0   24.84    1.33 
  -6   0   0    0.05    0.05 
  -6   0   0    0.10    0.03 
  -7   0   0    2.42    0.13 
  -8   0   0    0.06    0.05 
  -8   0   0   -0.02    0.06 
  -9   0   0    1.83    0.17 
  -9   0   0    1.83    0.13 
 -10   0   0    3.10    0.18 
 -10   0   0    3.15    0.22 
 -11   0   0    2.27    0.15 
 -11   1   0    0.51    0.07 
 -10   1   0    1.15    0.10 
 -10   1   0    1.17    0.12 
  -9   1   0    0.64    0.11 
  -9   1   0    0.65    0.08 
  -8   1   0    1.94    0.17 
  -8   1   0    1.82    0.12 
  -8   1   0    2.10    0.13 
  -7   1   0    5.71    0.27 
  -6   1   0    5.99    0.27 
  -5   1   0    0.00    0.02 
   4  -1   0    0.04    0.05 
  -4   1   0    0.21    0.02 
  -4   1   0    0.24    0.05 
  -4   1   0    0.21    0.02 
   3  -1   0    7.64    0.63 
   2  -1   0   16.50    1.30 
  -1   1   0   29.55    1.85 
   0  -1   0  105.46    6.68 
   0   1   0  108.15    6.72 
  -1  -1   0    0.00    0.01 
  -2  -1   0   44.61    1.85 
  -2  -1   0   46.11    2.06 
  -3  -1   0   32.49    1.79 
  -3  -1   0   34.58    1.40 
  -3  -1   0   35.39    1.56 
  -4  -1   0    0.11    0.02 
  -4  -1   0    0.23    0.05 
  -4  -1   0    0.07    0.03 
  -5  -1   0    0.75    0.05 
  -5  -1   0    0.68    0.09 
  -6  -1   0    4.55    0.22 
  -6  -1   0    4.69    0.31 
  -7  -1   0   23.09    1.11 
  -7  -1   0   23.07    1.27 
  -7  -1   0   22.96    1.01 
  -8  -1   0    3.11    0.24 
  -8  -1   0    2.76    0.17 
  -9  -1   0    0.47    0.09 
  -9  -1   0    0.30    0.06 
 -10  -1   0   -0.05    0.05 
 -10  -1   0   -0.03    0.05 
 -11   2   0    0.16    0.05 
 -10   2   0   13.97    0.62 
 -10   2   0   13.24    0.67 
  -9   2   0    5.94    0.30 
  -9   2   0    5.90    0.34 
  -8   2   0    0.32    0.05 
  -8   2   0    0.43    0.08 
  -8   2   0    0.38    0.06 
  -8   2   0    0.52    0.10 
  -8   2   0    0.42    0.06 
  -7   2   0    0.77    0.07 
  -6   2   0    0.58    0.05 
  -5   2   0    3.31    0.17 
  -5   2   0    3.28    0.16 
  -4   2   0    1.95    0.10 
  -4   2   0    2.07    0.10 
   3  -2   0    0.50    0.11 
  -3   2   0    0.88    0.05 
  -3   2   0    0.92    0.05 
   2  -2   0    0.12    0.06 
  -2   2   0    0.18    0.03 
  -2   2   0    0.15    0.02 
  -1   2   0   81.62    5.10 
   0   2   0  227.00   14.23 
  -1  -2   0   13.49    0.63 
   1   2   0   14.00    0.87 
  -3  -2   0   80.05    4.29 
  -3  -2   0   84.50    3.72 
  -4  -2   0   37.88    2.02 
  -4  -2   0   38.59    1.76 
  -5  -2   0   -0.04    0.05 
  -6  -2   0    3.09    0.24 
  -6  -2   0    2.91    0.12 
  -7  -2   0    0.08    0.07 
  -7  -2   0    0.15    0.05 
  -7  -2   0   -0.03    0.06 
  -8  -2   0    0.05    0.07 
  -8  -2   0    0.06    0.06 
  -8  -2   0   -0.01    0.04 
  -9  -2   0   -0.03    0.06 
  -9  -2   0   -0.05    0.05 
 -10  -2   0    0.00    0.04 
 -10  -2   0   -0.02    0.05 
  10  -3   0   -0.01    0.06 
 -10   3   0    0.06    0.05 
 -10   3   0   -0.07    0.05 
  -9   3   0    0.81    0.09 
  -9   3   0    0.89    0.10 
  -9   3   0    0.80    0.10 
  -8   3   0   -0.04    0.04 
  -8   3   0    0.03    0.07 
  -8   3   0   -0.01    0.04 
  -8   3   0    0.10    0.06 
  -8   3   0   -0.02    0.04 
  -7   3   0    0.80    0.08 
  -7   3   0    0.79    0.07 
   6  -3   0   -0.04    0.09 
  -6   3   0    0.04    0.03 
  -6   3   0    0.04    0.02 
  -5   3   0   20.86    0.92 
  -5   3   0   20.51    0.86 
  -4   3   0   54.49    2.19 
  -4   3   0   52.67    2.33 
  -3   3   0  191.16    7.58 
  -3   3   0  182.78    8.09 
  -2   3   0   50.61    2.17 
  -2   3   0   56.02    3.34 
  -1   3   0    2.08    0.10 
  -1   3   0    2.41    0.16 
   0  -3   0   47.99    3.72 
  -1  -3   0    7.31    0.35 
   1   3   0    7.02    0.47 
  -2  -3   0    0.31    0.05 
  -2  -3   0    0.35    0.05 
   2   3   0    0.40    0.06 
  -3  -3   0    0.88    0.08 
  -3  -3   0    0.72    0.09 
   3   3   0    0.78    0.08 
  -4  -3   0    0.08    0.05 
   4   3   0    0.05    0.04 
  -5  -3   0    0.76    0.11 
  -6  -3   0    2.99    0.23 
  -6  -3   0    2.56    0.16 
  -7  -3   0   15.87    0.77 
  -7  -3   0   15.19    0.69 
  -7  -3   0   15.20    0.88 
  -8  -3   0    0.43    0.07 
  -8  -3   0    0.59    0.09 
  -9  -3   0    1.08    0.12 
  -9  -3   0    0.94    0.09 
 -10  -3   0    0.64    0.08 
 -10  -3   0    0.50    0.06 
  11  -4   0    0.13    0.04 
  10  -4   0    2.55    0.17 
 -10   4   0    2.73    0.16 
  -9   4   0    7.86    0.40 
  -9   4   0    7.91    0.38 
  -9   4   0    7.72    0.35 
  -8   4   0    5.36    0.26 
  -8   4   0    5.08    0.26 
  -8   4   0    5.58    0.27 
  -8   4   0    5.48    0.32 
  -8   4   0    5.47    0.30 
   7  -4   0    0.21    0.16 
  -7   4   0    0.71    0.07 
  -7   4   0    0.65    0.07 
  -7   4   0    0.66    0.07 
  -7   4   0    0.68    0.09 
  -6   4   0    4.54    0.21 
  -6   4   0    4.46    0.23 
  -5   4   0    0.96    0.07 
  -5   4   0    0.89    0.06 
  -4   4   0   32.85    1.33 
  -4   4   0   31.88    1.42 
   3  -4   0    0.01    0.07 
  -3   4   0    0.06    0.02 
  -3   4   0    0.03    0.02 
  -2   4   0    5.67    0.25 
  -2   4   0    5.45    0.27 
  -2   4   0    6.24    0.39 
  -1   4   0   20.55    0.84 
  -1   4   0   19.67    0.90 
  -1   4   0   21.00    1.30 
   0   4   0    5.15    0.33 
   0   4   0    4.63    0.23 
  -1  -4   0    1.35    0.11 
  -1  -4   0    1.35    0.09 
   1   4   0    1.37    0.12 
  -2  -4   0    0.18    0.05 
  -2  -4   0    0.22    0.04 
   2   4   0    0.23    0.05 
  -3  -4   0    0.67    0.09 
   3   4   0    0.65    0.09 
  -4  -4   0   14.05    0.79 
  -5  -4   0    1.85    0.17 
  -5  -4   0    1.52    0.09 
  -6  -4   0    5.42    0.35 
  -6  -4   0    4.55    0.28 
  -6  -4   0    5.38    0.31 
  -6  -4   0    4.84    0.25 
  -7  -4   0    0.07    0.05 
  -7  -4   0    0.13    0.07 
  -7  -4   0    0.06    0.07 
  -7  -4   0    0.09    0.07 
  -8  -4   0    0.11    0.06 
  -8  -4   0    0.00    0.05 
  -9  -4   0    0.04    0.05 
  -9  -4   0   -0.02    0.05 
 -10   5   0    0.08    0.05 
  -9   5   0    0.33    0.06 
  -9   5   0    0.25    0.05 
  -9   5   0    0.34    0.07 
  -8   5   0    0.06    0.06 
  -8   5   0    0.15    0.05 
  -8   5   0    0.09    0.05 
  -8   5   0    0.08    0.06 
  -7   5   0    0.10    0.04 
  -7   5   0   -0.01    0.03 
  -7   5   0    0.10    0.05 
  -7   5   0    0.10    0.05 
  -7   5   0    0.04    0.04 
  -7   5   0    0.03    0.06 
   6  -5   0   -0.06    0.11 
  -6   5   0    0.00    0.03 
  -6   5   0    0.04    0.03 
  -6   5   0   -0.01    0.03 
  -5   5   0    2.84    0.15 
  -5   5   0    2.78    0.15 
   4  -5   0    0.00    0.09 
  -4   5   0    0.06    0.02 
  -4   5   0    0.09    0.03 
  -3   5   0   54.43    2.15 
  -3   5   0   49.38    3.31 
  -3   5   0   53.69    2.29 
  -2   5   0   49.68    2.17 
  -2   5   0   49.10    3.14 
  -2   5   0   50.67    2.04 
  -1   5   0    4.21    0.31 
  -1   5   0    4.12    0.21 
  -1   5   0    4.72    0.20 
   0   5   0    3.50    0.26 
   0   5   0    3.51    0.18 
  -1  -5   0    9.26    0.52 
   1   5   0    9.33    0.43 
   1   5   0    9.59    0.63 
  -2  -5   0   53.65    2.74 
   2   5   0   50.58    3.29 
  -3  -5   0    0.79    0.08 
  -3  -5   0    1.01    0.11 
  -4  -5   0    0.04    0.05 
  -4  -5   0    0.04    0.03 
  -4  -5   0    0.03    0.03 
  -5  -5   0    1.74    0.13 
  -5  -5   0    1.70    0.13 
  -5  -5   0    1.78    0.18 
  -5  -5   0    1.70    0.09 
  -6  -5   0    0.11    0.05 
  -6  -5   0    0.16    0.07 
  -6  -5   0    0.06    0.07 
  -6  -5   0    0.03    0.07 
  -7  -5   0    0.15    0.07 
  -7  -5   0    0.00    0.06 
  -7  -5   0    0.07    0.05 
  -8  -5   0    0.33    0.07 
  -8  -5   0    0.28    0.06 
  -9  -5   0    0.45    0.06 
  -9  -5   0    0.45    0.06 
 -10   6   0   -0.05    0.04 
  -9   6   0    1.09    0.10 
  -9   6   0    0.95    0.08 
  -9   6   0    0.97    0.09 
  -8   6   0    0.81    0.08 
  -8   6   0    0.88    0.10 
  -8   6   0    0.84    0.10 
  -8   6   0    0.73    0.08 
  -7   6   0    2.95    0.19 
  -7   6   0    2.82    0.16 
  -7   6   0    3.11    0.20 
  -7   6   0    2.99    0.17 
  -6   6   0    5.03    0.29 
  -6   6   0    4.97    0.26 
  -6   6   0    5.41    0.25 
  -5   6   0   12.29    0.56 
  -5   6   0   12.06    0.53 
   4  -6   0    0.20    0.14 
  -4   6   0    0.28    0.04 
  -4   6   0    0.31    0.05 
  -3   6   0    2.05    0.12 
  -3   6   0    1.98    0.11 
   2  -6   0    0.17    0.12 
  -2   6   0    0.64    0.06 
  -2   6   0    0.51    0.08 
  -2   6   0    0.61    0.06 
  -1   6   0    0.31    0.04 
  -1   6   0    0.30    0.06 
  -1   6   0    0.36    0.04 
   0   6   0    3.16    0.17 
   0   6   0    3.04    0.25 
   0   6   0    3.43    0.16 
   1   6   0    0.02    0.03 
  -2  -6   0    0.16    0.06 
   2   6   0    0.14    0.04 
  -3  -6   0    0.63    0.06 
  -3  -6   0    0.65    0.10 
   3   6   0    0.75    0.08 
  -4  -6   0    0.07    0.07 
  -4  -6   0    0.13    0.05 
  -4  -6   0    0.18    0.04 
  -4  -6   0    0.12    0.07 
  -5  -6   0    0.00    0.06 
  -5  -6   0    0.00    0.03 
  -5  -6   0    0.07    0.07 
  -5  -6   0    0.08    0.05 
  -6  -6   0    2.92    0.18 
  -6  -6   0    2.93    0.20 
  -7  -6   0    0.77    0.08 
  -7  -6   0    0.92    0.11 
  -8  -6   0    0.12    0.05 
  -8  -6   0    0.00    0.05 
  10  -7   0    0.11    0.04 
  -9   7   0    0.05    0.04 
  -9   7   0   -0.01    0.04 
  -8   7   0   10.93    0.56 
  -8   7   0   10.91    0.50 
  -8   7   0   10.61    0.53 
   7  -7   0    0.15    0.09 
  -7   7   0    0.14    0.05 
  -7   7   0    0.15    0.06 
  -7   7   0    0.26    0.06 
  -6   7   0    0.47    0.07 
  -6   7   0    0.41    0.06 
  -6   7   0    0.37    0.08 
  -6   7   0    0.39    0.06 
  -5   7   0    0.09    0.04 
  -5   7   0    0.06    0.03 
  -5   7   0    0.08    0.05 
   4  -7   0    0.19    0.17 
  -4   7   0    0.28    0.05 
  -4   7   0    0.27    0.05 
   3  -7   0    0.15    0.15 
  -3   7   0    0.19    0.04 
  -2   7   0    1.55    0.10 
  -1   7   0    9.66    0.43 
   0   7   0    1.39    0.10 
   0   7   0    1.24    0.09 
  -1  -7   0   11.96    0.46 
   1   7   0   12.21    0.56 
  -2  -7   0    8.62    0.33 
  -2  -7   0    8.09    0.40 
   2   7   0    7.94    0.40 
  -3  -7   0    0.97    0.08 
  -3  -7   0    1.08    0.11 
  -3  -7   0    1.00    0.10 
   3   7   0    1.01    0.10 
  -4  -7   0    3.15    0.24 
  -4  -7   0    3.22    0.14 
  -4  -7   0    3.00    0.19 
  -4  -7   0    3.05    0.24 
  -4  -7   0    3.04    0.20 
   4   7   0    3.13    0.18 
  -5  -7   0    0.50    0.09 
  -5  -7   0    0.45    0.10 
  -5  -7   0    0.52    0.08 
  -6  -7   0    0.02    0.05 
  -6  -7   0    0.00    0.06 
  -7  -7   0    0.06    0.04 
  -7  -7   0   -0.08    0.05 
  -9   8   0    0.10    0.04 
   8  -8   0    0.03    0.07 
  -8   8   0    0.10    0.06 
  -8   8   0    0.14    0.05 
  -8   8   0    0.07    0.04 
   7  -8   0    0.02    0.08 
  -7   8   0    0.01    0.05 
  -7   8   0   -0.07    0.05 
  -7   8   0    0.01    0.04 
  -6   8   0    0.31    0.06 
  -6   8   0    0.28    0.06 
   5  -8   0    0.06    0.12 
  -5   8   0    0.09    0.05 
  -5   8   0    0.03    0.04 
  -5   8   0   -0.04    0.03 
   4  -8   0   -0.05    0.12 
  -4   8   0    0.07    0.05 
  -4   8   0    0.12    0.04 
  -4   8   0    0.12    0.04 
  -3   8   0   15.23    0.76 
  -3   8   0   14.79    0.65 
  -3   8   0   14.85    0.67 
   2  -8   0    1.30    0.22 
  -2   8   0    1.73    0.14 
  -2   8   0    1.58    0.11 
  -1   8   0    8.53    0.40 
  -1   8   0    9.00    0.47 
   0   8   0    0.31    0.06 
   0   8   0    0.37    0.08 
  -1  -8   0    0.18    0.05 
   1   8   0    0.11    0.05 
   1   8   0    0.08    0.07 
  -2  -8   0    0.08    0.07 
  -2  -8   0    0.30    0.10 
  -2  -8   0    0.23    0.05 
   2   8   0    0.11    0.05 
  -3  -8   0    0.02    0.06 
  -3  -8   0    0.07    0.08 
  -3  -8   0   -0.04    0.03 
  -4  -8   0    0.05    0.08 
  -4  -8   0    0.07    0.03 
  -4  -8   0   -0.07    0.05 
  -5  -8   0    0.37    0.09 
  -5  -8   0    0.41    0.08 
  -6  -8   0    0.48    0.08 
  -7  -8   0    0.26    0.05 
   8  -9   0    0.69    0.10 
  -8   9   0    1.02    0.07 
  -8   9   0    1.15    0.10 
   7  -9   0    0.46    0.10 
  -7   9   0    0.70    0.07 
  -7   9   0    0.57    0.07 
   6  -9   0    0.47    0.11 
  -6   9   0    0.35    0.06 
  -6   9   0    0.39    0.06 
   5  -9   0    0.52    0.14 
   5  -9   0    0.48    0.13 
  -5   9   0    0.83    0.09 
  -5   9   0    0.62    0.07 
   4  -9   0    0.14    0.12 
  -4   9   0    0.11    0.05 
  -4   9   0   -0.08    0.05 
   3  -9   0    0.03    0.13 
  -3   9   0    0.25    0.06 
  -3   9   0    0.35    0.07 
   2  -9   0    2.30    0.27 
  -2   9   0    2.72    0.18 
  -2   9   0    2.11    0.14 
   1  -9   0    0.76    0.18 
  -1   9   0    0.73    0.09 
  -1   9   0    1.13    0.11 
   0  -9   0    0.79    0.08 
   0  -9   0    0.59    0.11 
   0  -9   0    0.54    0.16 
   0   9   0    0.53    0.09 
  -1  -9   0    0.21    0.05 
  -1  -9   0    0.26    0.09 
   1   9   0    0.36    0.08 
  -2  -9   0   -0.01    0.04 
  -2  -9   0   -0.05    0.06 
  -3  -9   0    0.55    0.05 
  -3  -9   0    0.63    0.08 
  -3  -9   0    0.55    0.10 
  -4  -9   0    0.96    0.10 
  -4  -9   0    0.98    0.11 
  -5  -9   0    0.38    0.06 
  -5  -9   0    0.31    0.07 
  -6  -9   0    0.00    0.04 
   7 -10   0    0.02    0.06 
  -7  10   0    0.01    0.03 
  -7  10   0    0.00    0.04 
   6 -10   0    0.03    0.07 
  -6  10   0    0.07    0.04 
  -6  10   0    0.01    0.04 
   5 -10   0    0.12    0.09 
   5 -10   0    0.14    0.10 
  -5  10   0    0.16    0.05 
  -5  10   0    0.25    0.05 
   4 -10   0    0.51    0.12 
   4 -10   0    0.73    0.15 
  -4  10   0    0.91    0.10 
  -4  10   0    0.83    0.09 
   3 -10   0    0.28    0.10 
   3 -10   0    0.26    0.13 
  -3  10   0    0.22    0.06 
  -3  10   0    0.30    0.06 
   2 -10   0    0.04    0.12 
  -2  10   0    0.09    0.06 
  -2  10   0    0.04    0.05 
   1 -10   0   10.68    0.41 
   1 -10   0   10.04    0.66 
  -1  10   0   10.66    0.55 
   0 -10   0   -0.04    0.06 
   0 -10   0   -0.04    0.04 
   0 -10   0    0.00    0.11 
   0  10   0   -0.05    0.06 
  -1 -10   0    0.09    0.07 
  -1 -10   0    0.09    0.04 
  -2 -10   0    0.07    0.03 
  -2 -10   0    0.05    0.06 
  -3 -10   0    0.09    0.05 
  -3 -10   0    0.05    0.06 
  -4 -10   0    0.01    0.05 
  -4 -10   0   -0.01    0.04 
   6 -11   0    1.40    0.12 
  -6  11   0    1.60    0.11 
  -6  11   0    1.41    0.09 
   5 -11   0   -0.03    0.06 
   5 -11   0    0.01    0.07 
  -5  11   0    0.02    0.04 
  -5  11   0    0.03    0.04 
   4 -11   0    0.17    0.09 
   4 -11   0    0.10    0.07 
  -4  11   0    0.07    0.04 
  -4  11   0    0.20    0.05 
   3 -11   0    1.30    0.17 
  -3  11   0    1.53    0.12 
  -3  11   0    1.28    0.10 
   2 -11   0   -0.05    0.09 
   2 -11   0   -0.05    0.04 
  -2  11   0    0.00    0.05 
  -2  11   0   -0.01    0.04 
   1 -11   0    0.17    0.10 
   1 -11   0    0.08    0.04 
  -1  11   0    0.14    0.05 
   0 -11   0    0.11    0.06 
   0 -11   0    0.07    0.04 
   0 -11   0    0.04    0.09 
  -1 -11   0    0.31    0.07 
  -1 -11   0    0.30    0.04 
  -2 -11   0    0.16    0.05 
  -3 -11   0    0.02    0.04 
   4 -12   0    0.15    0.06 
   3 -12   0    0.40    0.08 
  -3  12   0    0.50    0.05 
   2 -12   0    0.00    0.06 
  -2  12   0    0.01    0.03 
   1 -12   0    0.31    0.08 
  -1  12   0    0.29    0.04 
  -1  12  -1    0.09    0.03 
   1 -12   1    0.09    0.07 
  -2  12  -1    0.01    0.03 
   2 -12   1   -0.02    0.07 
  -3  12  -1    0.44    0.05 
   3 -12   1    0.44    0.09 
   4 -12   1    0.15    0.06 
  -3 -11   1    0.38    0.06 
  -2 -11   1    0.12    0.03 
  -2 -11   1    0.16    0.05 
  -1 -11   1    0.17    0.06 
  -1 -11   1    0.18    0.04 
   0  11  -1    0.26    0.05 
   0 -11   1    0.31    0.07 
   0 -11   1    0.38    0.11 
   0 -11   1    0.31    0.05 
  -1  11  -1    0.00    0.04 
   1 -11   1    0.03    0.04 
   1 -11   1    0.07    0.11 
  -2  11  -1    0.02    0.04 
   2 -11   1    0.20    0.11 
  -3  11  -1    0.17    0.05 
   3 -11   1    0.18    0.11 
  -4  11  -1    0.14    0.04 
   4 -11   1    0.03    0.08 
   4 -11   1    0.15    0.10 
  -5  11  -1    0.20    0.04 
   5 -11   1    0.19    0.08 
   5 -11   1    0.08    0.07 
  -6  11  -1    0.02    0.03 
   6 -11   1    0.01    0.06 
  -4 -10   1    1.93    0.13 
  -4 -10   1    1.85    0.14 
  -3 -10   1   -0.01    0.05 
  -3 -10   1   -0.02    0.06 
  -3 -10   1   -0.03    0.03 
  -2 -10   1   -0.01    0.04 
  -2 -10   1    0.03    0.06 
  -1 -10   1    0.06    0.05 
  -1 -10   1    0.05    0.07 
   0 -10   1    0.35    0.06 
   0 -10   1    0.40    0.15 
   0 -10   1    0.41    0.09 
   1 -10   1   -0.17    0.12 
  -2  10  -1    0.07    0.05 
   2 -10   1   -0.04    0.12 
  -3  10  -1    0.11    0.05 
   3 -10   1    0.12    0.13 
  -4  10  -1    0.79    0.09 
  -4  10  -1    0.72    0.08 
   4 -10   1    0.43    0.14 
  -5  10  -1    2.23    0.15 
  -5  10  -1    2.04    0.13 
   5 -10   1    1.86    0.21 
   5 -10   1    1.25    0.17 
  -6  10  -1    1.32    0.12 
  -6  10  -1    1.53    0.10 
   6 -10   1    0.83    0.13 
  -7  10  -1    0.27    0.06 
  -7  10  -1    0.29    0.05 
   7 -10   1    0.25    0.08 
  -6  -9   1    0.47    0.06 
  -5  -9   1   -0.04    0.06 
  -5  -9   1    0.03    0.05 
  -4  -9   1    0.18    0.07 
  -4  -9   1    0.11    0.07 
  -4  -9   1    0.23    0.04 
  -3  -9   1    0.18    0.04 
  -3  -9   1    0.06    0.08 
  -3  -9   1    0.11    0.06 
  -2  -9   1    0.91    0.12 
  -2  -9   1    1.04    0.09 
  -1  -9   1    0.20    0.09 
  -1  -9   1    0.19    0.05 
   0  -9   1    0.25    0.09 
   0  -9   1   -0.05    0.13 
  -1   9  -1    2.90    0.17 
   1  -9   1    2.40    0.28 
  -2   9  -1    4.68    0.23 
  -2   9  -1    5.01    0.24 
   2  -9   1    3.21    0.36 
  -3   9  -1   31.39    1.48 
  -3   9  -1   29.17    1.32 
  -4   9  -1    0.37    0.08 
  -4   9  -1    0.39    0.07 
   4  -9   1    0.15    0.13 
  -5   9  -1   -0.04    0.04 
  -5   9  -1   -0.03    0.05 
   5  -9   1    0.08    0.11 
  -6   9  -1    0.05    0.04 
  -6   9  -1   -0.02    0.05 
  -7   9  -1    0.01    0.04 
  -7   9  -1   -0.03    0.05 
   7  -9   1   -0.03    0.07 
  -8   9  -1    0.14    0.05 
  -8   9  -1    0.20    0.04 
  -8   9  -1    0.13    0.05 
   8  -9   1    0.09    0.06 
  -7  -8   1    0.23    0.06 
  -6  -8   1    0.12    0.06 
  -5  -8   1    1.41    0.13 
  -5  -8   1    1.30    0.13 
  -4  -8   1    2.58    0.18 
  -4  -8   1    2.39    0.13 
  -4  -8   1    2.28    0.19 
   3   8  -1    2.08    0.15 
  -3  -8   1    2.59    0.13 
  -3  -8   1    2.33    0.17 
  -3  -8   1    2.36    0.20 
   2   8  -1    0.45    0.07 
   2   8  -1    0.36    0.06 
  -2  -8   1    0.42    0.08 
  -2  -8   1    0.39    0.06 
  -2  -8   1    0.55    0.11 
   1   8  -1   -0.03    0.04 
   1   8  -1    0.06    0.04 
   0   8  -1    0.09    0.05 
   0   8  -1    0.07    0.05 
  -1   8  -1    0.36    0.06 
  -1   8  -1    0.26    0.06 
  -2   8  -1   14.93    0.68 
  -2   8  -1   14.34    0.64 
  -3   8  -1    7.93    0.38 
  -3   8  -1    7.74    0.39 
  -3   8  -1    7.90    0.36 
  -3   8  -1    8.38    0.43 
  -4   8  -1    0.21    0.05 
  -4   8  -1    0.24    0.06 
  -4   8  -1    0.17    0.06 
   4  -8   1    0.03    0.13 
  -5   8  -1    0.50    0.07 
  -5   8  -1    0.48    0.08 
  -5   8  -1    0.42    0.06 
   5  -8   1    0.32    0.14 
  -6   8  -1    1.36    0.11 
  -6   8  -1    1.30    0.12 
  -6   8  -1    1.35    0.12 
  -7   8  -1    0.97    0.09 
  -7   8  -1    0.77    0.09 
  -7   8  -1    0.85    0.09 
  -8   8  -1    2.66    0.17 
  -8   8  -1    2.39    0.14 
  -8   8  -1    2.61    0.16 
  -9   8  -1    0.50    0.06 
  -9   8  -1    0.50    0.06 
  -8  -7   1    2.05    0.13 
  -7  -7   1    4.35    0.24 
  -6  -7   1    0.10    0.05 
  -6  -7   1    0.07    0.07 
   5   7  -1    0.10    0.06 
  -5  -7   1    0.06    0.03 
  -5  -7   1    0.07    0.05 
  -5  -7   1    0.10    0.09 
  -5  -7   1    0.18    0.07 
   4   7  -1    0.31    0.06 
  -4  -7   1    0.28    0.05 
  -4  -7   1    0.33    0.07 
  -4  -7   1    0.21    0.10 
   3   7  -1    0.13    0.05 
  -3  -7   1    0.03    0.04 
  -3  -7   1    0.10    0.05 
   2   7  -1    0.41    0.06 
  -2  -7   1    0.31    0.05 
   1   7  -1    1.54    0.11 
   1   7  -1    1.32    0.10 
   0   7  -1    0.20    0.05 
   0   7  -1    0.09    0.04 
  -1   7  -1    0.27    0.05 
  -1   7  -1    0.20    0.04 
  -2   7  -1    2.45    0.13 
  -2   7  -1    2.38    0.14 
  -3   7  -1    4.45    0.22 
  -3   7  -1    4.60    0.23 
  -4   7  -1    3.53    0.19 
  -4   7  -1    3.55    0.18 
  -4   7  -1    3.35    0.19 
  -5   7  -1    1.80    0.14 
  -5   7  -1    1.75    0.12 
  -5   7  -1    1.78    0.11 
  -5   7  -1    1.72    0.12 
  -6   7  -1    1.18    0.12 
  -6   7  -1    0.93    0.10 
  -6   7  -1    1.15    0.10 
  -6   7  -1    0.86    0.09 
  -7   7  -1    0.20    0.05 
  -7   7  -1    0.14    0.06 
  -7   7  -1    0.23    0.06 
  -8   7  -1    0.08    0.06 
  -8   7  -1    0.00    0.04 
  -8   7  -1    0.02    0.05 
  -8   7  -1    0.11    0.04 
  -9   7  -1    0.43    0.06 
  -9   7  -1    0.31    0.05 
  -9   7  -1    0.42    0.07 
  -8  -6   1    0.87    0.09 
  -7  -6   1   -0.05    0.06 
  -7  -6   1    0.02    0.05 
   6   6  -1    0.23    0.06 
  -6  -6   1    0.25    0.08 
  -6  -6   1    0.19    0.03 
  -6  -6   1    0.16    0.05 
   5   6  -1    2.79    0.16 
  -5  -6   1    2.46    0.17 
  -5  -6   1    2.97    0.13 
  -5  -6   1    2.56    0.22 
   4   6  -1    0.58    0.07 
  -4  -6   1    0.52    0.06 
  -4  -6   1    0.62    0.10 
  -4  -6   1    0.57    0.08 
   3   6  -1    0.06    0.04 
  -3  -6   1    0.09    0.04 
  -3  -6   1    0.07    0.06 
   2   6  -1   25.42    1.14 
   1   6  -1    2.83    0.24 
   1   6  -1    3.29    0.17 
   0   6  -1    9.29    0.64 
   0   6  -1    9.53    0.45 
   0   6  -1    9.90    0.42 
  -1   6  -1   11.77    0.49 
  -1   6  -1   11.41    0.52 
  -1   6  -1   10.80    0.75 
  -2   6  -1    1.54    0.14 
  -2   6  -1    1.60    0.10 
  -2   6  -1    1.70    0.09 
   2  -6   1    0.99    0.22 
  -3   6  -1    3.71    0.19 
  -3   6  -1    3.51    0.18 
  -4   6  -1    0.69    0.06 
  -4   6  -1    0.73    0.07 
   4  -6   1    0.23    0.15 
  -5   6  -1    3.08    0.17 
  -5   6  -1    2.74    0.15 
  -6   6  -1    0.24    0.05 
  -6   6  -1    0.32    0.05 
  -6   6  -1    0.31    0.05 
  -6   6  -1    0.30    0.06 
  -7   6  -1    0.03    0.05 
  -7   6  -1   -0.03    0.06 
  -7   6  -1    0.07    0.04 
  -7   6  -1    0.04    0.04 
  -7   6  -1   -0.03    0.05 
  -7   6  -1    0.01    0.04 
  -8   6  -1    0.04    0.04 
  -8   6  -1    0.05    0.05 
  -8   6  -1    0.02    0.04 
  -8   6  -1   -0.05    0.05 
  -9   6  -1    0.14    0.05 
  -9   6  -1    0.01    0.05 
  -9   6  -1    0.04    0.04 
 -10   6  -1    1.25    0.09 
  -8  -5   1    0.03    0.05 
  -8  -5   1    0.23    0.07 
  -8  -5   1    0.13    0.06 
  -7  -5   1    0.82    0.11 
  -7  -5   1    0.72    0.09 
  -6  -5   1    0.67    0.12 
  -6  -5   1    0.60    0.08 
  -6  -5   1    0.67    0.06 
  -5  -5   1    4.77    0.19 
  -5  -5   1    4.40    0.24 
  -5  -5   1    4.55    0.32 
  -4  -5   1    0.01    0.05 
  -4  -5   1    0.08    0.03 
  -3  -5   1    0.01    0.04 
   2   5  -1    7.12    0.52 
   2   5  -1    7.66    0.36 
  -2  -5   1    7.96    0.39 
  -2  -5   1    7.98    0.44 
   1   5  -1   32.22    1.45 
   1   5  -1   33.26    2.10 
  -1  -5   1   33.75    1.52 
   0   5  -1    0.18    0.04 
   0   5  -1    0.15    0.03 
  -1   5  -1    0.90    0.07 
  -1   5  -1    0.90    0.09 
  -1   5  -1    0.97    0.06 
  -2   5  -1    7.64    0.53 
  -2   5  -1    7.97    0.34 
  -2   5  -1    8.12    0.37 
  -3   5  -1    0.27    0.04 
  -3   5  -1    0.33    0.04 
   3  -5   1    0.11    0.11 
  -4   5  -1   10.91    0.47 
  -4   5  -1   10.56    0.49 
  -5   5  -1   18.60    0.80 
  -5   5  -1   19.13    0.85 
  -6   5  -1    0.03    0.04 
  -6   5  -1    0.06    0.03 
  -6   5  -1    0.05    0.03 
   6  -5   1    0.07    0.12 
  -7   5  -1    4.29    0.22 
  -7   5  -1    3.95    0.20 
  -7   5  -1    3.76    0.19 
  -7   5  -1    3.67    0.21 
  -7   5  -1    4.00    0.23 
  -7   5  -1    3.90    0.25 
  -8   5  -1    1.71    0.13 
  -8   5  -1    1.87    0.15 
  -8   5  -1    1.90    0.16 
  -8   5  -1    1.82    0.12 
  -9   5  -1    5.40    0.28 
  -9   5  -1    5.52    0.26 
  -9   5  -1    5.50    0.30 
 -10   5  -1    1.27    0.09 
  -9  -4   1    0.22    0.06 
  -8  -4   1    0.89    0.09 
  -8  -4   1    0.85    0.10 
  -7  -4   1    1.01    0.10 
  -7  -4   1    1.15    0.15 
  -7  -4   1    1.31    0.13 
  -7  -4   1    1.05    0.12 
  -6  -4   1    0.36    0.08 
  -6  -4   1    0.24    0.06 
  -6  -4   1    0.22    0.08 
  -6  -4   1    0.21    0.04 
  -5  -4   1    0.52    0.05 
  -5  -4   1    0.57    0.10 
  -4  -4   1    5.51    0.31 
  -4  -4   1    5.86    0.36 
   3   4  -1    7.67    0.51 
  -3  -4   1    7.85    0.39 
  -3  -4   1    7.25    0.44 
   2   4  -1    3.30    0.24 
  -2  -4   1    3.43    0.19 
  -2  -4   1    3.24    0.21 
   1   4  -1   19.86    0.91 
   1   4  -1   20.61    1.31 
  -1  -4   1   21.69    0.96 
  -1  -4   1   20.50    1.10 
   0   4  -1    9.91    0.64 
   0   4  -1    9.51    0.44 
   0  -4   1   10.20    0.47 
  -1   4  -1   13.96    0.63 
  -1   4  -1   14.05    0.59 
  -1   4  -1   14.63    0.91 
  -2   4  -1   14.17    0.88 
  -2   4  -1   13.23    0.61 
  -2   4  -1   13.77    0.58 
  -3   4  -1    0.97    0.07 
  -3   4  -1    1.11    0.06 
  -4   4  -1    0.98    0.06 
  -4   4  -1    0.94    0.07 
   4  -4   1    0.52    0.15 
  -5   4  -1   24.96    1.10 
  -5   4  -1   24.43    1.03 
  -6   4  -1    0.14    0.04 
  -6   4  -1    0.11    0.03 
   6  -4   1   -0.04    0.09 
  -7   4  -1    0.02    0.04 
  -7   4  -1    0.07    0.05 
  -7   4  -1    0.04    0.03 
  -7   4  -1    0.03    0.03 
  -8   4  -1    0.03    0.04 
  -8   4  -1    0.04    0.06 
  -8   4  -1    0.01    0.04 
  -8   4  -1   -0.02    0.05 
  -9   4  -1    0.12    0.05 
  -9   4  -1    0.04    0.06 
  -9   4  -1    0.07    0.05 
 -10   4  -1    0.01    0.04 
  11  -4   1    0.59    0.06 
 -10  -3   1    0.04    0.05 
  -9  -3   1    0.77    0.10 
  -8  -3   1    0.30    0.07 
  -8  -3   1    0.55    0.09 
  -7  -3   1    0.13    0.07 
  -7  -3   1    0.13    0.05 
  -7  -3   1    0.13    0.08 
  -6  -3   1    3.39    0.15 
  -6  -3   1    3.36    0.26 
  -5  -3   1    2.93    0.20 
  -5  -3   1    3.40    0.24 
   4   3  -1    9.04    0.58 
  -4  -3   1    8.28    0.50 
  -4  -3   1    8.48    0.44 
   3   3  -1    0.19    0.04 
  -3  -3   1    0.26    0.05 
  -3  -3   1    0.13    0.04 
   2   3  -1   17.82    1.09 
  -2  -3   1   16.36    0.91 
  -2  -3   1   17.04    0.80 
   1   3  -1    9.43    0.61 
  -1  -3   1    9.43    0.45 
   0   3  -1    0.46    0.05 
   0  -3   1    0.50    0.04 
  -1   3  -1   92.84    5.80 
  -2   3  -1    5.11    0.33 
  -2   3  -1    4.65    0.23 
  -3   3  -1   36.55    1.47 
  -3   3  -1   35.33    1.57 
  -4   3  -1    0.62    0.05 
   4  -3   1    0.35    0.12 
  -5   3  -1   25.65    1.16 
  -5   3  -1   26.91    1.09 
  -6   3  -1   13.41    0.61 
  -6   3  -1   13.33    0.57 
  -7   3  -1    0.04    0.03 
  -7   3  -1    0.09    0.04 
  -7   3  -1    0.06    0.06 
  -7   3  -1    0.08    0.04 
  -8   3  -1    0.88    0.08 
  -8   3  -1    0.62    0.07 
  -8   3  -1    0.80    0.10 
  -8   3  -1    0.72    0.08 
  -9   3  -1    5.07    0.27 
  -9   3  -1    5.26    0.29 
  -9   3  -1    5.52    0.25 
 -10   3  -1    0.92    0.09 
 -11   3  -1    0.38    0.05 
 -10  -2   1    0.66    0.09 
  -9  -2   1    0.20    0.08 
  -8  -2   1    0.59    0.12 
  -8  -2   1    0.33    0.06 
  -8  -2   1    0.51    0.10 
  -7  -2   1    2.39    0.19 
  -7  -2   1    2.07    0.14 
  -7  -2   1    2.21    0.21 
  -7  -2   1    2.03    0.10 
  -6  -2   1   17.80    0.88 
  -6  -2   1   18.63    1.02 
  -6  -2   1   18.24    0.65 
  -5  -2   1   85.01    4.46 
  -5  -2   1   85.26    3.87 
  -4  -2   1    5.22    0.33 
  -4  -2   1    5.71    0.29 
  -3  -2   1    0.26    0.04 
  -3  -2   1    0.26    0.05 
   2   2  -1    0.34    0.04 
   2   2  -1    0.35    0.05 
   1   2  -1   20.26    1.60 
  -1  -2   1   21.17    0.94 
   0   2  -1   57.41    4.83 
   0   2  -1   67.58    3.91 
   0  -2   1   62.91    2.82 
  -1   2  -1   13.96    0.99 
  -1   2  -1   17.45    1.23 
  -2   2  -1  128.96    5.23 
  -4   2  -1    0.13    0.02 
  -4   2  -1    0.19    0.03 
   4  -2   1    0.03    0.06 
  -5   2  -1   34.03    1.39 
  -5   2  -1   33.28    1.48 
  -6   2  -1    6.27    0.28 
  -6   2  -1    6.12    0.30 
  -7   2  -1    2.42    0.13 
  -7   2  -1    2.38    0.15 
  -8   2  -1    0.57    0.07 
  -8   2  -1    0.56    0.07 
  -8   2  -1    0.51    0.07 
  -8   2  -1    0.70    0.10 
  -8   2  -1    0.70    0.09 
  -9   2  -1    0.03    0.05 
  -9   2  -1    0.00    0.06 
 -10   2  -1    0.17    0.06 
 -10   2  -1    0.15    0.06 
 -11   2  -1    0.66    0.07 
 -10  -1   1    0.56    0.09 
  -9  -1   1    0.04    0.07 
  -9  -1   1   -0.05    0.05 
  -8  -1   1    1.07    0.09 
  -8  -1   1    1.37    0.15 
  -8  -1   1    0.91    0.14 
  -7  -1   1    0.42    0.04 
  -7  -1   1    0.44    0.06 
  -7  -1   1    0.40    0.10 
  -7  -1   1    0.49    0.10 
  -6  -1   1    5.68    0.32 
  -6  -1   1    6.29    0.38 
  -5  -1   1   16.21    0.78 
  -5  -1   1   16.41    0.69 
  -5  -1   1   16.52    0.90 
  -4  -1   1   29.54    1.17 
  -4  -1   1   28.63    1.31 
  -4  -1   1   27.30    1.51 
   3   1  -1   17.31    1.32 
  -3  -1   1   17.22    0.70 
  -3  -1   1   17.31    0.78 
  -3  -1   1   15.83    0.90 
   2   1  -1    4.73    0.37 
  -2  -1   1    4.66    0.23 
   1   1  -1   46.06    3.55 
   0   1  -1  139.71    8.68 
   0   1  -1  134.62   10.68 
   0  -1   1  142.63    8.67 
  -1   1  -1   89.08    6.86 
  -3   1  -1   -0.03    0.01 
  -3   1  -1   -0.03    0.01 
  -4   1  -1    0.03    0.01 
  -4   1  -1    0.03    0.01 
   4  -1   1   -0.03    0.05 
  -5   1  -1    2.14    0.12 
  -5   1  -1    2.23    0.11 
  -6   1  -1    2.59    0.13 
  -7   1  -1    2.56    0.14 
  -7   1  -1    2.47    0.15 
  -8   1  -1    1.67    0.16 
  -8   1  -1    1.74    0.13 
  -8   1  -1    1.82    0.12 
  -8   1  -1    1.55    0.11 
  -9   1  -1    2.17    0.19 
  -9   1  -1    2.27    0.15 
 -10   1  -1    3.49    0.19 
 -10   1  -1    3.35    0.22 
 -11   1  -1    0.67    0.08 
 -11   0   1    0.05    0.05 
 -10   0   1    1.15    0.12 
  -9   0   1   -0.02    0.07 
  -9   0   1   -0.10    0.05 
  -8   0   1    0.17    0.08 
  -8   0   1    0.21    0.05 
  -7   0   1    3.73    0.28 
  -7   0   1    3.91    0.19 
  -6   0   1    0.57    0.09 
  -6   0   1    0.52    0.05 
  -5   0   1   14.82    0.61 
  -5   0   1   13.87    0.79 
  -5   0   1   14.61    0.68 
   4   0  -1    3.25    0.31 
  -4   0   1    3.78    0.16 
  -4   0   1    3.50    0.22 
  -4   0   1    3.75    0.19 
   3   0  -1    0.74    0.10 
  -3   0   1    0.98    0.06 
  -3   0   1    0.96    0.05 
   2   0  -1    6.56    0.53 
   1   0  -1   15.13    1.13 
   1   0  -1   13.52    0.91 
   0   0   1    9.59    0.60 
  -1   0  -1   38.30    3.00 
  -3   0  -1   15.96    0.70 
  -4   0  -1    1.86    0.13 
  -4   0  -1    1.70    0.09 
  -5   0  -1    9.82    0.42 
  -5   0  -1    9.67    0.55 
  -6   0  -1   16.99    0.70 
  -6   0  -1   16.09    0.91 
  -7   0  -1    0.08    0.04 
  -7   0  -1    0.13    0.04 
  -8   0  -1    0.13    0.05 
  -8   0  -1    0.14    0.07 
  -9   0  -1   -0.12    0.06 
  -9   0  -1   -0.07    0.05 
 -10   0  -1    1.42    0.14 
 -10   0  -1    1.77    0.12 
 -11   0  -1    3.56    0.20 
 -11   1   1    0.36    0.06 
 -10   1   1   17.27    0.84 
  -9   1   1   18.24    0.85 
  -9   1   1   16.07    0.76 
  -8   1   1    0.97    0.09 
  -8   1   1    1.03    0.14 
  -8   1   1    0.80    0.08 
  -7   1   1    6.44    0.29 
  -6   1   1    0.98    0.07 
   5  -1  -1    4.71    0.48 
  -5   1   1    5.86    0.33 
  -5   1   1    6.02    0.25 
  -4   1   1   10.61    0.59 
  -4   1   1   10.82    0.51 
  -4   1   1   10.89    0.45 
  -3   1   1    8.63    0.36 
   2  -1  -1    9.94    0.80 
   0  -1  -1   41.60    3.66 
   0   1   1   53.37    2.97 
   1   1   1   50.93    3.18 
  -2  -1  -1  590.10   23.98 
  -3  -1  -1    0.58    0.07 
  -3  -1  -1    0.59    0.04 
  -4  -1  -1    5.39    0.33 
  -4  -1  -1    5.65    0.24 
  -5  -1  -1    1.71    0.09 
  -5  -1  -1    1.58    0.15 
  -6  -1  -1    5.18    0.24 
  -6  -1  -1    5.06    0.33 
  -7  -1  -1    3.20    0.18 
  -7  -1  -1    2.72    0.23 
  -7  -1  -1    3.11    0.24 
  -8  -1  -1    0.07    0.07 
  -8  -1  -1    0.09    0.05 
  -9  -1  -1    0.06    0.07 
  -9  -1  -1    0.04    0.05 
 -10  -1  -1   -0.04    0.05 
 -10  -1  -1   -0.05    0.06 
 -11   2   1    0.30    0.06 
  10  -2  -1    1.23    0.11 
 -10   2   1    1.27    0.12 
   9  -2  -1   19.72    0.95 
  -9   2   1   19.83    0.89 
  -9   2   1   20.71    0.98 
  -8   2   1    0.18    0.05 
  -8   2   1    0.22    0.05 
  -8   2   1    0.30    0.09 
  -7   2   1    1.18    0.08 
   6  -2  -1    7.65    0.76 
  -6   2   1    9.61    0.38 
   5  -2  -1    0.28    0.11 
  -5   2   1    0.50    0.04 
  -5   2   1    0.50    0.04 
  -4   2   1    2.10    0.10 
  -4   2   1    1.96    0.10 
  -3   2   1   23.26    0.95 
  -2   2   1   34.25    2.15 
   1  -2  -1   12.88    1.04 
   0   2   1    0.45    0.05 
  -2  -2  -1    0.00    0.02 
  -3  -2  -1   42.32    2.23 
   3   2   1   42.25    2.67 
  -4  -2  -1    0.27    0.06 
  -5  -2  -1    0.67    0.10 
  -6  -2  -1    2.17    0.19 
  -7  -2  -1    4.66    0.24 
  -7  -2  -1    4.17    0.31 
  -7  -2  -1    4.42    0.29 
  -8  -2  -1    0.21    0.08 
  -8  -2  -1    0.23    0.06 
  -8  -2  -1    0.19    0.07 
  -9  -2  -1    0.64    0.08 
  -9  -2  -1    0.58    0.10 
 -10  -2  -1    0.17    0.06 
 -10  -2  -1    0.23    0.05 
  11  -3  -1    0.01    0.04 
  10  -3  -1    0.04    0.06 
 -10   3   1    0.07    0.06 
  -9   3   1    0.01    0.05 
  -9   3   1   -0.02    0.06 
  -8   3   1    5.89    0.29 
  -8   3   1    5.97    0.34 
  -8   3   1    6.26    0.32 
  -8   3   1    6.00    0.34 
  -8   3   1    5.70    0.28 
  -7   3   1   14.63    0.65 
  -7   3   1   14.57    0.62 
   6  -3  -1    0.12    0.12 
  -6   3   1    0.15    0.03 
  -5   3   1    5.20    0.24 
  -5   3   1    5.07    0.23 
  -4   3   1   24.77    1.11 
  -4   3   1   26.02    1.05 
  -3   3   1   25.88    1.17 
  -3   3   1   27.61    1.10 
   2  -3  -1   25.62    2.03 
   1  -3  -1   -0.03    0.04 
  -1   3   1   -0.03    0.01 
  -1   3   1    0.01    0.01 
  -1  -3  -1    0.00    0.01 
   1   3   1    0.02    0.02 
  -2  -3  -1    8.37    0.49 
   2   3   1    9.34    0.59 
  -3  -3  -1   12.73    0.68 
   3   3   1   11.89    0.81 
  -4  -3  -1   10.66    0.61 
   4   3   1   10.87    0.72 
  -5  -3  -1    3.54    0.25 
  -6  -3  -1    9.56    0.58 
  -6  -3  -1    9.77    0.45 
  -7  -3  -1    8.07    0.39 
  -7  -3  -1    8.36    0.44 
  -7  -3  -1    7.71    0.50 
  -8  -3  -1    3.54    0.20 
  -8  -3  -1    3.32    0.24 
  -9  -3  -1    0.00    0.06 
  -9  -3  -1   -0.01    0.05 
 -10  -3  -1    0.05    0.04 
 -10  -3  -1    0.02    0.04 
  11  -4  -1    0.16    0.04 
  10  -4  -1    1.82    0.14 
  -9   4   1    1.13    0.10 
  -9   4   1    0.89    0.10 
  -8   4   1    0.34    0.08 
  -8   4   1    0.41    0.06 
  -8   4   1    0.41    0.08 
  -8   4   1    0.40    0.06 
  -8   4   1    0.43    0.09 
  -7   4   1    1.18    0.10 
  -7   4   1    1.20    0.12 
   6  -4  -1    0.06    0.12 
  -6   4   1    0.16    0.03 
  -6   4   1    0.18    0.04 
  -5   4   1    7.56    0.34 
  -5   4   1    7.77    0.36 
  -4   4   1    1.79    0.10 
  -4   4   1    1.96    0.10 
  -3   4   1   39.26    1.60 
  -3   4   1   38.91    2.47 
  -2   4   1    1.32    0.07 
  -2   4   1    1.40    0.12 
  -1   4   1    4.36    0.30 
  -1   4   1    4.32    0.19 
   0  -4  -1    0.32    0.04 
   0  -4  -1    0.17    0.07 
   0  -4  -1    0.33    0.04 
   0   4   1    0.27    0.05 
  -1  -4  -1    0.05    0.02 
  -1  -4  -1    0.07    0.03 
   1   4   1    0.05    0.03 
  -2  -4  -1    0.66    0.06 
  -2  -4  -1    0.69    0.08 
   2   4   1    0.62    0.09 
  -3  -4  -1    3.44    0.22 
   3   4   1    2.98    0.25 
  -4  -4  -1    0.17    0.06 
  -5  -4  -1   -0.01    0.05 
  -6  -4  -1    0.20    0.08 
  -6  -4  -1    0.13    0.07 
  -6  -4  -1    0.14    0.05 
  -6  -4  -1    0.20    0.08 
  -7  -4  -1    0.83    0.09 
  -7  -4  -1    0.95    0.12 
  -7  -4  -1    1.01    0.14 
  -8  -4  -1    1.92    0.16 
  -8  -4  -1    1.87    0.13 
  -9  -4  -1    0.22    0.06 
  -9  -4  -1    0.27    0.06 
  10  -5  -1    0.18    0.06 
  -9   5   1   -0.01    0.05 
  -8   5   1    0.36    0.07 
  -8   5   1    0.43    0.07 
  -8   5   1    0.34    0.07 
  -7   5   1    2.89    0.17 
  -7   5   1    2.80    0.19 
  -7   5   1    2.96    0.19 
  -6   5   1    8.65    0.38 
   5  -5  -1    0.29    0.15 
  -5   5   1    0.53    0.05 
  -4   5   1    7.08    0.31 
  -3   5   1    1.53    0.08 
  -3   5   1    1.35    0.13 
  -2   5   1    4.79    0.35 
  -2   5   1    5.24    0.23 
  -1   5   1    4.93    0.36 
  -1   5   1    5.34    0.23 
   0   5   1    8.02    0.54 
  -1  -5  -1   -0.02    0.03 
  -1  -5  -1   -0.02    0.02 
   1   5   1    0.00    0.02 
   1   5   1    0.02    0.03 
  -2  -5  -1    0.48    0.07 
  -2  -5  -1    0.49    0.06 
   2   5   1    0.45    0.08 
  -3  -5  -1   17.91    0.86 
  -3  -5  -1   17.58    0.98 
  -4  -5  -1    0.17    0.05 
  -4  -5  -1    0.12    0.03 
  -4  -5  -1    0.14    0.06 
  -5  -5  -1    0.07    0.04 
  -5  -5  -1    0.02    0.06 
  -5  -5  -1    0.10    0.07 
  -5  -5  -1   -0.07    0.06 
  -5  -5  -1    0.05    0.05 
  -6  -5  -1    0.05    0.06 
  -6  -5  -1    0.04    0.06 
  -6  -5  -1    0.09    0.07 
  -6  -5  -1    0.06    0.04 
  -6  -5  -1    0.04    0.05 
  -7  -5  -1    0.03    0.06 
  -7  -5  -1    0.05    0.05 
  -7  -5  -1    0.12    0.06 
  -8  -5  -1    0.71    0.08 
  -8  -5  -1    0.63    0.08 
  -9  -5  -1   -0.05    0.04 
  -9  -5  -1    0.02    0.04 
  10  -6  -1    0.05    0.05 
  -9   6   1    0.01    0.05 
  -9   6   1    0.04    0.04 
  -8   6   1    4.03    0.24 
  -8   6   1    3.59    0.22 
  -8   6   1    3.98    0.21 
   7  -6  -1    0.29    0.10 
  -7   6   1    0.31    0.07 
  -7   6   1    0.33    0.07 
  -7   6   1    0.34    0.06 
   6  -6  -1    0.04    0.09 
  -6   6   1    0.15    0.05 
  -6   6   1    0.14    0.04 
   5  -6  -1    0.15    0.15 
  -5   6   1    0.38    0.05 
   4  -6  -1    0.27    0.15 
   3  -6  -1    0.44    0.17 
  -3   6   1    0.88    0.07 
   2  -6  -1   -0.06    0.10 
  -2   6   1    0.02    0.02 
  -1   6   1    8.24    0.36 
   0   6   1    6.70    0.30 
  -2  -6  -1    2.87    0.21 
  -2  -6  -1    3.01    0.14 
  -3  -6  -1    2.17    0.15 
  -3  -6  -1    2.04    0.11 
  -3  -6  -1    2.11    0.18 
  -4  -6  -1    4.70    0.27 
  -4  -6  -1    5.01    0.33 
  -4  -6  -1    4.65    0.28 
  -4  -6  -1    4.87    0.19 
  -4  -6  -1    4.90    0.25 
  -5  -6  -1    0.24    0.08 
  -5  -6  -1    0.46    0.07 
  -5  -6  -1    0.39    0.08 
  -6  -6  -1    1.28    0.12 
  -6  -6  -1    0.97    0.11 
  -6  -6  -1    1.20    0.11 
  -7  -6  -1    0.00    0.05 
  -7  -6  -1   -0.08    0.05 
  -7  -6  -1   -0.03    0.05 
  -8  -6  -1    0.00    0.04 
  -8  -6  -1   -0.04    0.04 
  -8  -6  -1    0.00    0.04 
  10  -7  -1    0.40    0.05 
  -9   7   1    0.07    0.04 
  -9   7   1    0.15    0.05 
   8  -7  -1    0.01    0.07 
  -8   7   1    0.06    0.04 
  -8   7   1   -0.04    0.05 
  -8   7   1    0.04    0.05 
   7  -7  -1    0.06    0.08 
  -7   7   1    0.01    0.04 
  -7   7   1    0.00    0.05 
  -7   7   1    0.01    0.06 
   6  -7  -1    0.61    0.14 
  -6   7   1    1.34    0.11 
  -6   7   1    1.36    0.12 
  -5   7   1    0.71    0.08 
  -5   7   1    0.44    0.06 
  -4   7   1    1.96    0.13 
  -4   7   1    2.24    0.12 
   3  -7  -1    0.03    0.15 
  -3   7   1    0.05    0.03 
  -2   7   1    0.04    0.03 
  -1   7   1    2.03    0.12 
   0  -7  -1    1.41    0.10 
   0   7   1    1.22    0.09 
  -1  -7  -1    0.70    0.07 
  -2  -7  -1    1.12    0.10 
  -2  -7  -1    1.13    0.08 
  -3  -7  -1    3.28    0.25 
  -3  -7  -1    3.37    0.15 
  -3  -7  -1    3.62    0.20 
  -3  -7  -1    3.12    0.21 
  -4  -7  -1    0.38    0.09 
  -4  -7  -1    0.29    0.07 
  -4  -7  -1    0.35    0.09 
  -4  -7  -1    0.25    0.03 
  -4  -7  -1    0.16    0.06 
  -5  -7  -1   -0.06    0.07 
  -5  -7  -1   -0.04    0.04 
  -5  -7  -1   -0.05    0.05 
  -6  -7  -1    0.07    0.06 
  -6  -7  -1    0.01    0.05 
  -7  -7  -1    0.06    0.04 
  -7  -7  -1    0.05    0.05 
   9  -8  -1    0.59    0.07 
  -9   8   1    0.51    0.06 
  -9   8   1    0.56    0.06 
   8  -8  -1    0.08    0.07 
  -8   8   1    0.23    0.06 
  -8   8   1    0.15    0.05 
   7  -8  -1    0.47    0.10 
  -7   8   1    0.54    0.08 
  -7   8   1    0.49    0.06 
   6  -8  -1    4.16    0.32 
  -6   8   1    4.83    0.25 
  -6   8   1    5.28    0.28 
   5  -8  -1    0.03    0.10 
   5  -8  -1    0.17    0.11 
  -5   8   1    0.28    0.06 
  -5   8   1    0.21    0.05 
   4  -8  -1    0.08    0.11 
   4  -8  -1    0.04    0.09 
  -4   8   1    0.15    0.05 
  -4   8   1    0.08    0.05 
   3  -8  -1    3.27    0.31 
   3  -8  -1    2.32    0.23 
  -3   8   1    3.46    0.21 
  -3   8   1    3.08    0.17 
   2  -8  -1    0.18    0.09 
   2  -8  -1    0.21    0.14 
  -2   8   1    0.32    0.07 
  -2   8   1    0.29    0.05 
   1  -8  -1    0.05    0.13 
  -1   8   1    0.19    0.05 
  -1   8   1    0.11    0.07 
   0  -8  -1    1.35    0.10 
   0  -8  -1    1.20    0.20 
   0   8   1    1.15    0.10 
   0   8   1    1.03    0.12 
  -1  -8  -1    2.57    0.20 
  -1  -8  -1    2.53    0.13 
   1   8   1    2.54    0.15 
  -2  -8  -1    1.03    0.08 
  -2  -8  -1    0.89    0.10 
  -2  -8  -1    0.74    0.11 
   2   8   1    0.66    0.08 
  -3  -8  -1    1.66    0.14 
  -3  -8  -1    1.59    0.09 
  -3  -8  -1    1.54    0.15 
  -4  -8  -1    0.02    0.07 
  -4  -8  -1    0.00    0.06 
  -5  -8  -1   -0.08    0.06 
  -5  -8  -1    0.07    0.06 
  -6  -8  -1    0.26    0.06 
  -7  -8  -1    0.13    0.04 
   8  -9  -1    0.67    0.09 
  -8   9   1    0.71    0.07 
  -8   9   1    0.73    0.06 
   7  -9  -1    0.26    0.08 
  -7   9   1    0.21    0.05 
  -7   9   1    0.24    0.05 
   6  -9  -1    0.21    0.09 
  -6   9   1    0.28    0.05 
  -6   9   1    0.29    0.06 
   5  -9  -1    0.30    0.11 
   5  -9  -1    0.11    0.10 
  -5   9   1    0.30    0.05 
  -5   9   1    0.20    0.06 
   4  -9  -1    0.09    0.11 
   4  -9  -1   -0.01    0.08 
  -4   9   1   -0.04    0.05 
  -4   9   1    0.00    0.04 
   3  -9  -1    0.05    0.09 
   3  -9  -1   -0.03    0.11 
  -3   9   1    0.01    0.04 
  -3   9   1    0.00    0.05 
   2  -9  -1    0.81    0.17 
  -2   9   1    0.73    0.10 
   1  -9  -1   15.49    0.93 
   1  -9  -1   15.66    0.58 
  -1   9   1   15.45    0.79 
   0  -9  -1    3.57    0.17 
   0  -9  -1    3.26    0.30 
   0  -9  -1    3.61    0.24 
   0   9   1    3.47    0.23 
  -1  -9  -1   -0.03    0.03 
  -1  -9  -1   -0.04    0.07 
   1   9   1    0.01    0.06 
  -2  -9  -1    0.68    0.10 
  -2  -9  -1    0.79    0.10 
  -2  -9  -1    0.85    0.07 
   2   9   1    1.03    0.11 
  -3  -9  -1    0.25    0.08 
  -3  -9  -1    0.22    0.06 
  -4  -9  -1    0.39    0.08 
  -4  -9  -1    0.32    0.06 
  -5  -9  -1    0.05    0.05 
  -5  -9  -1   -0.01    0.05 
  -6  -9  -1   -0.04    0.04 
   7 -10  -1    0.17    0.06 
  -7  10   1    0.22    0.04 
  -7  10   1    0.15    0.04 
   6 -10  -1    0.22    0.08 
  -6  10   1    0.29    0.06 
  -6  10   1    0.24    0.05 
   5 -10  -1   -0.01    0.08 
   5 -10  -1    0.08    0.07 
  -5  10   1   -0.04    0.04 
  -5  10   1   -0.05    0.04 
   4 -10  -1    0.18    0.09 
   4 -10  -1    0.23    0.11 
  -4  10   1    0.19    0.05 
  -4  10   1    0.13    0.06 
   3 -10  -1    1.39    0.18 
   3 -10  -1    1.38    0.15 
  -3  10   1    1.37    0.11 
  -3  10   1    1.17    0.11 
   2 -10  -1    4.92    0.35 
  -2  10   1    4.25    0.23 
  -2  10   1    4.28    0.26 
   1 -10  -1    6.94    0.47 
   1 -10  -1    7.01    0.29 
  -1  10   1    7.01    0.39 
   0 -10  -1    4.60    0.20 
   0 -10  -1    4.53    0.27 
   0 -10  -1    5.19    0.35 
   0  10   1    4.66    0.28 
  -1 -10  -1    0.67    0.06 
  -1 -10  -1    0.72    0.10 
   1  10   1    0.71    0.09 
  -2 -10  -1    0.11    0.06 
   2  10   1    0.02    0.05 
  -3 -10  -1   -0.04    0.04 
  -3 -10  -1    0.00    0.05 
   3  10   1    0.05    0.05 
  -4 -10  -1   -0.01    0.04 
  -4 -10  -1    0.01    0.04 
  -6  11   1    0.48    0.05 
   5 -11  -1    0.37    0.08 
   5 -11  -1    0.41    0.08 
  -5  11   1    0.29    0.05 
  -5  11   1    0.26    0.05 
   4 -11  -1    0.02    0.07 
   4 -11  -1   -0.02    0.06 
  -4  11   1   -0.06    0.04 
  -4  11   1   -0.05    0.03 
   3 -11  -1   -0.02    0.08 
  -3  11   1    0.05    0.05 
  -3  11   1   -0.02    0.04 
   2 -11  -1    0.47    0.11 
  -2  11   1    0.24    0.05 
  -2  11   1    0.23    0.06 
   1 -11  -1   -0.03    0.08 
  -1  11   1    0.00    0.04 
  -1  11   1   -0.05    0.04 
   0 -11  -1    0.11    0.08 
   0 -11  -1    0.15    0.06 
   0  11   1    0.16    0.05 
  -1 -11  -1   -0.03    0.05 
   1  11   1   -0.04    0.04 
  -2 -11  -1   -0.01    0.04 
   3 -12  -1    0.19    0.06 
   2 -12  -1   -0.05    0.05 
   1 -12   2    0.22    0.07 
   2 -12   2    0.26    0.08 
   3 -12   2    0.05    0.07 
  -3 -11   2    0.71    0.07 
  -2 -11   2    1.46    0.11 
  -2 -11   2    1.25    0.07 
   1  11  -2    0.03    0.04 
  -1 -11   2    0.05    0.04 
  -1 -11   2    0.00    0.05 
   0  11  -2    0.02    0.04 
   0 -11   2    0.14    0.11 
   0 -11   2    0.08    0.04 
   0 -11   2    0.09    0.06 
  -1  11  -2    0.04    0.04 
   1 -11   2    0.15    0.12 
  -2  11  -2    0.00    0.04 
   2 -11   2    0.01    0.11 
  -3  11  -2    0.41    0.06 
   3 -11   2    0.36    0.13 
  -4  11  -2    0.24    0.05 
   4 -11   2    0.27    0.11 
   4 -11   2    0.09    0.08 
  -5  11  -2    0.64    0.06 
   5 -11   2    0.36    0.09 
   5 -11   2    0.48    0.10 
  -6  11  -2    0.75    0.06 
  -4 -10   2    0.02    0.05 
  -4 -10   2    0.03    0.05 
  -3 -10   2    0.91    0.07 
  -3 -10   2    1.04    0.11 
  -3 -10   2    0.88    0.09 
  -2 -10   2    0.22    0.05 
  -2 -10   2    0.29    0.08 
  -1 -10   2    0.74    0.08 
  -1 -10   2    0.72    0.11 
   0 -10   2    0.35    0.16 
   0 -10   2    0.53    0.09 
  -1  10  -2    0.11    0.05 
   1 -10   2    0.22    0.14 
  -2  10  -2    0.20    0.06 
   2 -10   2    0.17    0.13 
  -3  10  -2    0.64    0.08 
   3 -10   2    0.47    0.16 
  -4  10  -2    1.63    0.11 
   4 -10   2    1.04    0.19 
  -5  10  -2   -0.01    0.04 
   5 -10   2   -0.02    0.10 
  -6  10  -2    0.07    0.04 
  -7  10  -2    0.77    0.06 
   7 -10   2    0.53    0.10 
  -6  -9   2   -0.01    0.04 
  -5  -9   2   -0.04    0.06 
  -5  -9   2   -0.03    0.05 
  -4  -9   2    0.02    0.07 
  -4  -9   2    0.07    0.06 
  -4  -9   2    0.02    0.03 
  -3  -9   2   -0.02    0.04 
  -3  -9   2    0.03    0.06 
  -3  -9   2   -0.13    0.07 
  -2  -9   2    1.33    0.15 
  -2  -9   2    1.23    0.10 
   1   9  -2    0.33    0.07 
  -1  -9   2    0.26    0.10 
   0   9  -2    0.01    0.05 
   0  -9   2    0.11    0.15 
   0  -9   2   -0.02    0.09 
  -1   9  -2    1.87    0.13 
   1  -9   2    0.99    0.21 
  -2   9  -2    3.63    0.18 
  -2   9  -2    3.19    0.19 
   2  -9   2    2.05    0.29 
  -3   9  -2    0.60    0.08 
  -3   9  -2    0.62    0.08 
   3  -9   2    0.23    0.15 
  -4   9  -2    0.58    0.08 
  -4   9  -2    0.56    0.07 
   4  -9   2    0.36    0.15 
  -5   9  -2    0.04    0.04 
   5  -9   2    0.07    0.12 
  -6   9  -2    2.06    0.13 
  -6   9  -2    2.26    0.16 
  -7   9  -2    0.79    0.08 
  -7   9  -2    0.74    0.09 
  -7   9  -2    0.84    0.09 
  -8   9  -2    0.20    0.04 
  -8   9  -2    0.23    0.05 
   8  -9   2    0.06    0.06 
  -7  -8   2    4.24    0.22 
  -6  -8   2    0.96    0.10 
  -5  -8   2    1.17    0.12 
  -5  -8   2    1.32    0.13 
  -5  -8   2    1.10    0.08 
  -4  -8   2    2.59    0.18 
  -4  -8   2    2.66    0.14 
  -4  -8   2    2.60    0.20 
   3   8  -2    0.48    0.07 
  -3  -8   2    0.43    0.06 
  -3  -8   2    0.60    0.12 
   2   8  -2    0.78    0.09 
   2   8  -2    0.76    0.08 
  -2  -8   2    0.85    0.14 
   1   8  -2   -0.04    0.03 
   1   8  -2    0.00    0.04 
  -1  -8   2   -0.01    0.10 
   0   8  -2    0.52    0.07 
   0   8  -2    0.52    0.07 
   0  -8   2    0.33    0.16 
  -1   8  -2    0.07    0.04 
  -1   8  -2    0.03    0.04 
  -2   8  -2    0.32    0.06 
  -2   8  -2    0.35    0.06 
  -2   8  -2    0.24    0.05 
  -3   8  -2    4.03    0.21 
  -3   8  -2    4.23    0.22 
  -3   8  -2    4.03    0.22 
  -4   8  -2    1.21    0.10 
  -4   8  -2    0.87    0.09 
  -4   8  -2    0.77    0.08 
   4  -8   2    0.35    0.15 
  -5   8  -2    3.86    0.23 
  -5   8  -2    4.04    0.22 
  -5   8  -2    3.60    0.21 
  -5   8  -2    3.97    0.24 
  -6   8  -2    0.12    0.05 
  -6   8  -2    0.09    0.06 
  -6   8  -2    0.10    0.07 
  -7   8  -2    0.04    0.05 
  -7   8  -2    0.09    0.06 
  -7   8  -2    0.14    0.04 
  -8   8  -2    0.33    0.07 
  -8   8  -2    0.61    0.08 
  -8   8  -2    0.34    0.05 
  -8   8  -2    0.40    0.05 
   8  -8   2    0.21    0.08 
  -9   8  -2    0.03    0.03 
  -9   8  -2   -0.04    0.04 
  -7  -7   2    3.20    0.20 
  -6  -7   2    3.53    0.22 
  -6  -7   2    3.30    0.14 
  -5  -7   2    0.24    0.10 
  -5  -7   2    0.15    0.04 
   4   7  -2   -0.02    0.05 
  -4  -7   2    0.01    0.10 
  -4  -7   2    0.05    0.04 
   3   7  -2    6.03    0.31 
  -3  -7   2    5.89    0.26 
   2   7  -2    1.96    0.14 
   1   7  -2    0.70    0.08 
   1   7  -2    0.70    0.08 
   0   7  -2    0.11    0.04 
   0   7  -2    0.04    0.04 
  -1   7  -2    2.73    0.15 
  -1   7  -2    2.65    0.16 
  -2   7  -2   14.74    0.66 
  -2   7  -2   15.86    0.70 
  -3   7  -2    0.80    0.07 
  -3   7  -2    1.03    0.09 
   3  -7   2    0.57    0.20 
  -4   7  -2   29.42    1.20 
  -4   7  -2   28.72    1.28 
  -4   7  -2   27.93    1.25 
  -5   7  -2    1.29    0.13 
  -5   7  -2    1.20    0.11 
  -5   7  -2    1.25    0.11 
  -5   7  -2    1.22    0.09 
  -5   7  -2    1.13    0.10 
  -6   7  -2    0.15    0.05 
  -6   7  -2    0.15    0.07 
  -6   7  -2    0.14    0.06 
  -6   7  -2    0.09    0.04 
  -6   7  -2    0.05    0.05 
  -6   7  -2    0.09    0.05 
  -7   7  -2   -0.02    0.06 
  -7   7  -2    0.05    0.05 
  -7   7  -2    0.01    0.04 
  -7   7  -2    0.03    0.04 
  -8   7  -2    0.07    0.04 
  -8   7  -2    0.02    0.04 
  -8   7  -2   -0.01    0.05 
  -8   7  -2    0.17    0.06 
  -9   7  -2   -0.05    0.04 
  -9   7  -2    0.07    0.04 
  -9   7  -2    0.05    0.04 
  -8  -6   2    0.00    0.06 
  -7  -6   2    0.02    0.07 
  -6  -6   2    0.05    0.03 
   5   6  -2    1.42    0.11 
  -5  -6   2    1.59    0.17 
  -5  -6   2    1.57    0.10 
   4   6  -2    2.21    0.14 
  -4  -6   2    2.05    0.12 
  -4  -6   2    1.98    0.19 
   3   6  -2    0.12    0.04 
  -3  -6   2    0.22    0.07 
  -3  -6   2    0.21    0.05 
   2   6  -2    0.10    0.04 
  -2  -6   2    0.08    0.05 
   1   6  -2   19.74    0.88 
  -1  -6   2   19.41    0.92 
   0   6  -2    0.73    0.07 
   0   6  -2    0.81    0.07 
  -1   6  -2    0.12    0.03 
  -1   6  -2    0.10    0.03 
  -2   6  -2    7.31    0.35 
  -2   6  -2    7.17    0.32 
  -3   6  -2    0.14    0.03 
  -3   6  -2    0.27    0.05 
   3  -6   2    0.05    0.12 
  -4   6  -2   12.56    0.57 
  -4   6  -2   12.17    0.54 
  -5   6  -2    0.01    0.04 
  -5   6  -2    0.05    0.04 
  -5   6  -2    0.05    0.03 
   5  -6   2   -0.05    0.11 
  -6   6  -2    0.44    0.09 
  -6   6  -2    0.38    0.06 
  -6   6  -2    0.35    0.05 
  -6   6  -2    0.33    0.06 
  -6   6  -2    0.23    0.06 
  -7   6  -2    0.18    0.05 
  -7   6  -2    0.17    0.07 
  -7   6  -2    0.20    0.05 
  -7   6  -2    0.29    0.07 
  -7   6  -2    0.17    0.05 
  -8   6  -2    0.77    0.08 
  -8   6  -2    0.84    0.08 
  -8   6  -2    0.73    0.09 
  -8   6  -2    0.90    0.10 
  -9   6  -2    3.07    0.17 
  -9   6  -2    2.81    0.16 
  -9   6  -2    3.14    0.18 
 -10   6  -2    1.03    0.08 
 -10   6  -2    1.18    0.09 
   8   5  -2    0.24    0.06 
  -8  -5   2    0.20    0.07 
   7   5  -2    2.94    0.16 
  -6  -5   2    5.41    0.22 
  -6  -5   2    4.89    0.36 
  -5  -5   2    5.08    0.34 
  -5  -5   2    4.73    0.21 
  -4  -5   2    0.07    0.04 
  -4  -5   2    0.11    0.06 
  -4  -5   2    0.16    0.06 
  -3  -5   2    5.54    0.33 
  -3  -5   2    4.94    0.29 
   2   5  -2    0.88    0.08 
  -2  -5   2    0.85    0.09 
  -2  -5   2    0.85    0.10 
   1   5  -2    0.31    0.04 
  -1  -5   2    0.32    0.05 
   0   5  -2   24.31    1.60 
   0   5  -2   26.01    1.05 
   0   5  -2   25.33    1.12 
  -1   5  -2   19.36    0.78 
  -1   5  -2   18.16    1.19 
  -1   5  -2   18.41    0.83 
  -2   5  -2    3.89    0.27 
  -2   5  -2    3.92    0.20 
  -2   5  -2    3.74    0.18 
  -3   5  -2    0.98    0.07 
  -3   5  -2    0.97    0.07 
  -4   5  -2    9.50    0.45 
  -4   5  -2    9.73    0.42 
  -5   5  -2   16.17    0.75 
  -5   5  -2   16.68    0.70 
  -6   5  -2    2.46    0.14 
  -6   5  -2    2.70    0.16 
  -6   5  -2    2.64    0.16 
  -7   5  -2    0.11    0.05 
  -7   5  -2    0.07    0.06 
  -7   5  -2   -0.01    0.04 
  -7   5  -2    0.08    0.04 
  -7   5  -2    0.14    0.05 
  -7   5  -2    0.02    0.06 
  -8   5  -2    0.17    0.07 
  -8   5  -2    0.07    0.05 
  -8   5  -2    0.14    0.05 
  -8   5  -2    0.16    0.05 
  -9   5  -2    0.03    0.06 
  -9   5  -2    0.08    0.05 
  -9   5  -2    0.02    0.04 
 -10   5  -2    0.65    0.07 
 -10   5  -2    0.42    0.06 
   9   4  -2    0.19    0.05 
  -9  -4   2    0.09    0.05 
  -8  -4   2    0.21    0.07 
  -7  -4   2    0.30    0.08 
  -7  -4   2    0.24    0.04 
  -7  -4   2    0.17    0.08 
  -6  -4   2    0.04    0.07 
  -6  -4   2    0.06    0.04 
  -5  -4   2    0.70    0.11 
  -5  -4   2    0.57    0.06 
  -5  -4   2    0.63    0.09 
  -4  -4   2    4.30    0.28 
  -4  -4   2    4.05    0.24 
  -3  -4   2    8.52    0.42 
  -3  -4   2    7.84    0.47 
  -2  -4   2    1.44    0.12 
  -2  -4   2    1.41    0.10 
   1   4  -2   49.42    2.14 
   1   4  -2   43.26    3.79 
   1   4  -2   50.12    3.08 
  -1  -4   2   49.91    2.56 
  -1  -4   2   52.46    2.23 
   0   4  -2   13.33    0.62 
   0   4  -2   14.14    0.89 
   0   4  -2   13.75    0.58 
   0  -4   2   14.55    0.65 
  -1   4  -2    4.16    0.28 
  -1   4  -2    3.95    0.18 
  -1   4  -2    3.99    0.20 
  -2   4  -2   45.86    1.87 
  -2   4  -2   45.33    1.99 
  -3   4  -2   12.49    0.52 
  -3   4  -2   12.10    0.56 
  -4   4  -2    5.72    0.26 
  -4   4  -2    5.88    0.28 
  -5   4  -2    4.27    0.20 
  -5   4  -2    4.05    0.21 
  -6   4  -2    5.79    0.29 
  -6   4  -2    5.62    0.27 
  -7   4  -2    2.53    0.19 
  -7   4  -2    2.44    0.15 
  -7   4  -2    2.93    0.16 
  -7   4  -2    2.69    0.16 
  -7   4  -2    2.44    0.15 
  -8   4  -2    1.00    0.09 
  -8   4  -2    1.08    0.11 
  -8   4  -2    0.86    0.09 
  -9   4  -2    0.15    0.05 
  -9   4  -2    0.10    0.06 
  -9   4  -2    0.10    0.05 
 -10   4  -2    0.52    0.07 
  10   3  -2    0.04    0.04 
 -10  -3   2    0.01    0.04 
  -9  -3   2    0.55    0.08 
  -8  -3   2    1.22    0.13 
  -7  -3   2    1.24    0.13 
  -7  -3   2    1.28    0.16 
  -7  -3   2    1.43    0.09 
  -6  -3   2    2.45    0.12 
  -6  -3   2    2.62    0.22 
  -6  -3   2    2.54    0.19 
  -5  -3   2   35.13    1.85 
  -5  -3   2   33.70    1.61 
  -4  -3   2   10.12    0.58 
  -4  -3   2   10.18    0.51 
  -3  -3   2    1.76    0.12 
  -3  -3   2    1.67    0.14 
   2   3  -2    0.47    0.05 
  -2  -3   2    0.42    0.05 
  -2  -3   2    0.48    0.06 
   1   3  -2    3.00    0.16 
   1   3  -2    3.16    0.28 
   1   3  -2    3.41    0.22 
  -1  -3   2    3.16    0.17 
   0   3  -2   18.48    1.15 
   0   3  -2   18.15    1.43 
   0  -3   2   18.05    0.83 
  -1   3  -2   50.42    3.88 
  -1   3  -2   51.43    3.13 
  -1   3  -2   48.31    2.04 
  -2   3  -2    5.70    0.25 
  -2   3  -2    5.65    0.27 
  -3   3  -2    0.01    0.02 
  -3   3  -2    0.00    0.02 
  -4   3  -2    5.55    0.27 
  -4   3  -2    5.65    0.25 
  -5   3  -2   18.97    0.84 
  -5   3  -2   18.70    0.79 
  -6   3  -2    2.55    0.15 
  -6   3  -2    2.71    0.14 
  -7   3  -2    0.90    0.08 
  -7   3  -2    0.87    0.09 
  -7   3  -2    0.93    0.08 
  -8   3  -2    0.33    0.06 
  -8   3  -2    0.30    0.06 
  -8   3  -2    0.29    0.07 
  -9   3  -2    5.91    0.30 
  -9   3  -2    6.09    0.28 
  -9   3  -2    6.02    0.32 
 -10   3  -2    0.36    0.06 
 -10  -2   2    0.21    0.06 
  -9  -2   2    0.38    0.09 
  -8  -2   2    2.01    0.17 
  -8  -2   2    2.13    0.22 
  -7  -2   2   13.19    0.47 
  -7  -2   2   12.84    0.74 
  -7  -2   2   11.64    0.63 
  -6  -2   2    1.59    0.15 
  -6  -2   2    1.99    0.19 
  -5  -2   2    9.58    0.50 
  -5  -2   2   10.23    0.58 
  -4  -2   2    0.73    0.08 
  -4  -2   2    0.67    0.08 
  -3  -2   2    1.76    0.14 
  -3  -2   2    2.08    0.12 
   2   2  -2    2.81    0.19 
   2   2  -2    2.89    0.24 
  -2  -2   2    2.59    0.17 
   1   2  -2    8.54    0.66 
   1   2  -2    7.93    0.52 
   0   2  -2    0.19    0.05 
   0   2  -2    0.14    0.02 
  -1   2  -2  101.05    4.30 
  -1   2  -2  110.71    8.16 
  -2   2  -2   46.45    1.95 
  -2   2  -2   49.33    3.71 
  -3   2  -2   20.43    0.82 
  -3   2  -2   19.09    0.87 
  -4   2  -2    5.49    0.24 
  -4   2  -2    5.09    0.25 
  -5   2  -2    8.67    0.40 
  -5   2  -2    8.50    0.37 
  -6   2  -2   16.23    0.73 
  -6   2  -2   16.17    0.69 
  -7   2  -2    8.88    0.40 
  -7   2  -2    8.85    0.42 
  -8   2  -2    2.01    0.14 
  -8   2  -2    1.94    0.13 
  -8   2  -2    2.16    0.13 
  -9   2  -2    0.24    0.06 
  -9   2  -2    0.23    0.06 
 -10   2  -2    0.42    0.07 
 -10  -1   2    0.09    0.06 
  -9  -1   2    0.18    0.08 
  -8  -1   2    6.23    0.35 
  -8  -1   2    5.59    0.40 
  -8  -1   2    5.85    0.22 
  -7  -1   2    0.69    0.12 
  -7  -1   2    0.84    0.11 
  -6  -1   2    0.04    0.05 
  -6  -1   2    0.03    0.06 
  -5  -1   2   27.69    1.31 
  -5  -1   2   28.68    1.51 
  -4  -1   2    0.30    0.05 
  -4  -1   2    0.31    0.06 
   3   1  -2  122.16    9.17 
  -3  -1   2  113.83    6.20 
  -3  -1   2  121.37    5.37 
   2   1  -2    0.76    0.08 
   1   1  -2    6.22    0.50 
   0   1  -2  227.73   17.50 
  -1   1  -2   61.93    4.78 
  -2   1  -2   15.45    1.18 
  -2   1  -2   14.68    0.62 
  -3   1  -2    1.15    0.06 
  -3   1  -2    1.10    0.07 
  -4   1  -2   13.06    0.59 
  -4   1  -2   13.48    0.56 
  -5   1  -2    0.04    0.02 
  -5   1  -2    0.06    0.02 
  -6   1  -2    0.09    0.03 
  -7   1  -2    0.16    0.04 
  -7   1  -2    0.20    0.05 
  -8   1  -2    0.98    0.12 
  -8   1  -2    1.00    0.09 
  -8   1  -2    0.99    0.09 
  -8   1  -2    0.80    0.08 
  -9   1  -2    0.79    0.09 
  -9   1  -2    0.87    0.11 
 -10   1  -2    1.07    0.09 
 -10   1  -2    0.86    0.10 
 -11   0   2    0.40    0.07 
 -10   0   2    0.99    0.11 
  -9   0   2    0.61    0.10 
  -8   0   2    8.53    0.47 
  -7   0   2   16.08    0.91 
  -6   0   2    3.95    0.27 
  -6   0   2    3.82    0.18 
  -5   0   2    0.05    0.05 
  -5   0   2    0.07    0.03 
  -5   0   2    0.04    0.02 
   4   0  -2   12.25    0.94 
  -4   0   2   11.15    0.49 
  -4   0   2   11.60    0.64 
  -4   0   2   12.10    0.56 
   3   0  -2   11.20    0.83 
  -3   0   2    9.59    0.43 
  -3   0   2   10.48    0.56 
   2   0  -2  184.67   14.20 
   1   0  -2    3.20    0.22 
   1   0  -2    3.42    0.28 
   0   0  -2    6.37    0.53 
   0   0   2    6.86    0.42 
  -1   0  -2    1.61    0.15 
  -2   0  -2  410.49   30.24 
  -2   0  -2  375.76   15.96 
  -3   0  -2    5.07    0.22 
  -3   0  -2    4.98    0.23 
  -4   0  -2    0.72    0.08 
  -4   0  -2    0.57    0.04 
  -4   0  -2    0.52    0.04 
  -5   0  -2    1.42    0.08 
  -5   0  -2    1.42    0.13 
  -6   0  -2    8.66    0.38 
  -7   0  -2    1.95    0.17 
  -7   0  -2    2.07    0.12 
  -7   0  -2    2.01    0.13 
  -8   0  -2    0.50    0.07 
  -8   0  -2    0.40    0.09 
  -9   0  -2    0.49    0.08 
  -9   0  -2    0.43    0.09 
 -10   0  -2    0.88    0.08 
 -10   0  -2    0.68    0.09 
 -11   1   2   -0.06    0.04 
 -10   1   2    0.17    0.07 
   9  -1  -2   10.35    0.52 
  -9   1   2   10.81    0.56 
   8  -1  -2    0.08    0.07 
  -8   1   2    0.19    0.08 
  -6   1   2    0.02    0.02 
  -6   1   2   -0.04    0.05 
   5  -1  -2   17.58    1.34 
  -5   1   2   16.36    0.69 
  -5   1   2   16.18    0.90 
   4  -1  -2    4.49    0.39 
  -4   1   2    4.32    0.19 
  -4   1   2    4.42    0.26 
   3  -1  -2   14.22    1.14 
  -3   1   2   15.22    0.76 
  -3   1   2   13.62    0.59 
   2  -1  -2    4.41    0.37 
   1  -1  -2   46.97    3.89 
  -1   1   2   53.65    3.15 
   0  -1  -2  105.41    8.50 
   0   1   2  115.68    6.89 
   1   1   2 1000.00   62.49 
  -2  -1  -2  390.27   15.29 
  -2  -1  -2  364.33   28.98 
  -3  -1  -2   57.35    3.01 
  -3  -1  -2   57.51    2.34 
  -4  -1  -2    0.88    0.06 
  -4  -1  -2    1.19    0.11 
  -5  -1  -2    0.04    0.05 
  -5  -1  -2    0.24    0.03 
  -6  -1  -2    0.23    0.07 
  -6  -1  -2    0.39    0.05 
  -7  -1  -2    2.06    0.14 
  -7  -1  -2    2.03    0.17 
  -8  -1  -2    3.53    0.19 
  -8  -1  -2    3.08    0.24 
  -9  -1  -2    0.07    0.05 
  -9  -1  -2   -0.04    0.06 
 -10  -1  -2    0.33    0.06 
 -10  -1  -2    0.32    0.07 
 -11   2   2    0.67    0.08 
  10  -2  -2    0.07    0.05 
 -10   2   2   -0.02    0.05 
   9  -2  -2    0.73    0.10 
  -9   2   2    0.64    0.11 
   8  -2  -2   25.36    1.23 
  -8   2   2   27.48    1.26 
   6  -2  -2    5.11    0.49 
   5  -2  -2    1.87    0.23 
  -5   2   2    1.85    0.09 
   4  -2  -2    0.41    0.11 
  -4   2   2    0.52    0.04 
  -4   2   2    0.58    0.06 
   3  -2  -2   35.38    3.06 
  -3   2   2   42.90    2.05 
  -3   2   2   38.79    1.59 
  -2   2   2    0.27    0.04 
   1  -2  -2    0.12    0.05 
  -1   2   2    0.16    0.03 
   0  -2  -2    1.94    0.18 
   0   2   2    2.19    0.15 
   2   2   2    1.05    0.10 
  -3  -2  -2    6.85    0.40 
   3   2   2    7.17    0.48 
  -4  -2  -2    3.89    0.25 
   4   2   2    3.43    0.28 
  -5  -2  -2    2.65    0.21 
  -6  -2  -2    2.34    0.15 
  -6  -2  -2    2.48    0.21 
  -7  -2  -2    1.57    0.12 
  -7  -2  -2    1.53    0.17 
  -7  -2  -2    1.53    0.15 
  -8  -2  -2    5.93    0.35 
  -8  -2  -2    5.81    0.30 
  -9  -2  -2    0.06    0.05 
  -9  -2  -2   -0.01    0.06 
 -10  -2  -2   -0.05    0.04 
 -10  -2  -2   -0.01    0.05 
  11  -3  -2    0.09    0.04 
 -11   3   2    0.06    0.04 
  10  -3  -2    2.80    0.17 
 -10   3   2    2.60    0.18 
   9  -3  -2   15.55    0.73 
  -9   3   2   14.83    0.75 
  -8   3   2    1.44    0.14 
  -8   3   2    1.13    0.12 
  -7   3   2    3.37    0.22 
  -7   3   2    4.05    0.25 
   6  -3  -2    1.34    0.23 
   5  -3  -2    0.63    0.16 
   4  -3  -2    0.45    0.13 
   3  -3  -2    5.11    0.54 
  -3   3   2    6.84    0.42 
  -3   3   2    6.32    0.26 
   2  -3  -2    6.33    0.64 
  -2   3   2    9.00    0.51 
  -2   3   2    7.69    0.32 
   1  -3  -2   41.13    3.61 
  -1   3   2   46.62    1.89 
  -1   3   2   51.78    2.93 
   0  -3  -2    1.27    0.08 
   0  -3  -2    1.21    0.10 
   0  -3  -2    1.31    0.14 
   0   3   2    1.36    0.11 
  -1  -3  -2    6.37    0.37 
  -1  -3  -2    6.65    0.32 
   1   3   2    6.81    0.45 
  -2  -3  -2    0.38    0.04 
  -2  -3  -2    0.39    0.06 
   2   3   2    0.40    0.07 
  -3  -3  -2   24.96    1.33 
   3   3   2   24.72    1.60 
  -4  -3  -2    8.67    0.51 
  -5  -3  -2    5.18    0.34 
  -6  -3  -2   -0.02    0.06 
  -6  -3  -2    0.13    0.05 
  -6  -3  -2    0.13    0.07 
  -7  -3  -2    0.05    0.07 
  -7  -3  -2    0.02    0.05 
  -7  -3  -2   -0.01    0.06 
  -8  -3  -2    1.92    0.17 
  -8  -3  -2    2.13    0.14 
  -9  -3  -2    0.31    0.06 
  -9  -3  -2    0.30    0.07 
 -10  -3  -2    0.13    0.04 
  11  -4  -2    0.32    0.05 
  10  -4  -2    1.35    0.11 
 -10   4   2    1.15    0.11 
   9  -4  -2    0.12    0.07 
  -9   4   2    0.15    0.07 
  -8   4   2    0.46    0.08 
  -8   4   2    0.67    0.10 
  -7   4   2    4.78    0.28 
  -7   4   2    5.50    0.31 
  -7   4   2    5.22    0.30 
   6  -4  -2    6.90    0.67 
   5  -4  -2    1.26    0.24 
   4  -4  -2    6.44    0.61 
   3  -4  -2    3.71    0.43 
  -3   4   2    4.93    0.32 
  -2   4   2  171.49   10.72 
  -2   4   2  171.61    6.96 
   1  -4  -2    9.76    0.47 
   1  -4  -2    8.74    0.79 
  -1   4   2   10.02    0.64 
  -1   4   2    9.88    0.41 
   0  -4  -2    0.00    0.02 
   0  -4  -2    0.00    0.02 
   0  -4  -2    0.02    0.05 
   0   4   2    0.02    0.02 
  -1  -4  -2    5.88    0.36 
  -1  -4  -2    6.94    0.31 
   1   4   2    5.74    0.43 
  -2  -4  -2    2.46    0.17 
  -2  -4  -2    2.45    0.14 
   2   4   2    2.19    0.19 
  -3  -4  -2    2.37    0.14 
  -3  -4  -2    2.40    0.18 
  -4  -4  -2    0.18    0.06 
  -4  -4  -2    0.12    0.04 
  -5  -4  -2    0.57    0.10 
  -5  -4  -2    0.81    0.08 
  -6  -4  -2    0.13    0.05 
  -6  -4  -2    0.15    0.07 
  -6  -4  -2    0.09    0.07 
  -6  -4  -2    0.10    0.07 
  -7  -4  -2    0.25    0.06 
  -7  -4  -2    0.32    0.08 
  -8  -4  -2    2.75    0.20 
  -8  -4  -2    3.08    0.17 
  -9  -4  -2    0.33    0.06 
  -9  -4  -2    0.37    0.06 
  10  -5  -2    0.30    0.06 
   9  -5  -2    2.50    0.18 
  -8   5   2    3.19    0.22 
  -7   5   2    1.41    0.12 
  -7   5   2    1.38    0.12 
   6  -5  -2    1.39    0.28 
   6  -5  -2    1.66    0.18 
  -6   5   2    1.68    0.14 
   5  -5  -2    0.22    0.14 
   4  -5  -2    2.08    0.29 
   3  -5  -2   11.54    1.07 
  -3   5   2   13.52    0.84 
   2  -5  -2   24.43    2.16 
  -2   5   2   29.58    1.12 
  -2   5   2   27.05    1.73 
   1  -5  -2    4.13    0.40 
  -1   5   2    4.25    0.19 
  -1   5   2    4.17    0.31 
   0  -5  -2    8.68    0.48 
   0  -5  -2    8.72    0.42 
   0   5   2    8.25    0.58 
  -1  -5  -2    0.67    0.07 
  -1  -5  -2    0.62    0.08 
   1   5   2    0.50    0.08 
  -2  -5  -2    0.45    0.07 
  -2  -5  -2    0.45    0.06 
  -3  -5  -2    0.96    0.12 
  -3  -5  -2    0.98    0.06 
  -3  -5  -2    1.01    0.10 
  -4  -5  -2    1.06    0.11 
  -4  -5  -2    1.09    0.10 
  -5  -5  -2    1.01    0.10 
  -5  -5  -2    0.84    0.12 
  -5  -5  -2    1.31    0.12 
  -5  -5  -2    1.21    0.11 
  -5  -5  -2    0.82    0.11 
  -6  -5  -2    0.22    0.07 
  -6  -5  -2    0.14    0.07 
  -6  -5  -2    0.23    0.06 
  -6  -5  -2    0.14    0.05 
  -6  -5  -2    0.25    0.08 
  -7  -5  -2   -0.02    0.05 
  -7  -5  -2   -0.01    0.05 
  -7  -5  -2   -0.04    0.05 
  -8  -5  -2    0.34    0.06 
  -8  -5  -2    0.32    0.06 
  -9  -5  -2    0.05    0.04 
  10  -6  -2    0.47    0.06 
   9  -6  -2   -0.04    0.06 
  -9   6   2    0.01    0.05 
  -8   6   2    0.19    0.06 
   7  -6  -2    0.99    0.14 
  -7   6   2    0.84    0.10 
  -7   6   2    0.92    0.09 
  -7   6   2    0.96    0.10 
   6  -6  -2    0.13    0.10 
  -6   6   2    0.27    0.06 
  -6   6   2    0.32    0.06 
  -6   6   2    0.33    0.07 
   5  -6  -2    0.11    0.09 
   5  -6  -2    0.13    0.15 
  -5   6   2    0.11    0.05 
  -5   6   2    0.14    0.05 
   4  -6  -2    2.74    0.36 
   3  -6  -2    1.81    0.29 
   2  -6  -2   18.16    1.50 
  -1   6   2    6.94    0.31 
   0   6   2    0.08    0.03 
  -1  -6  -2    8.73    0.33 
  -1  -6  -2    8.53    0.49 
  -2  -6  -2    8.33    0.48 
  -2  -6  -2    8.30    0.42 
  -2  -6  -2    7.66    0.31 
  -3  -6  -2    5.18    0.27 
  -3  -6  -2    5.18    0.20 
  -3  -6  -2    5.64    0.35 
  -3  -6  -2    5.33    0.30 
  -4  -6  -2    2.77    0.17 
  -4  -6  -2    2.39    0.19 
  -4  -6  -2    2.72    0.20 
  -4  -6  -2    2.65    0.22 
  -4  -6  -2    2.69    0.19 
  -4  -6  -2    2.42    0.17 
  -5  -6  -2    1.24    0.11 
  -5  -6  -2    1.17    0.12 
  -5  -6  -2    1.17    0.15 
  -5  -6  -2    1.04    0.11 
  -5  -6  -2    0.86    0.10 
  -6  -6  -2    0.05    0.05 
  -6  -6  -2    0.15    0.06 
  -6  -6  -2    0.05    0.06 
  -7  -6  -2   -0.06    0.05 
  -7  -6  -2   -0.06    0.04 
  -7  -6  -2    0.01    0.05 
  -8  -6  -2    0.11    0.04 
  -8  -6  -2    0.10    0.04 
  -8  -6  -2    0.13    0.05 
  10  -7  -2    0.71    0.06 
   9  -7  -2    0.07    0.05 
  -9   7   2    0.04    0.05 
   8  -7  -2    0.21    0.08 
  -8   7   2    0.24    0.06 
   7  -7  -2    0.01    0.07 
  -7   7   2    0.04    0.04 
  -7   7   2    0.01    0.05 
   6  -7  -2   10.47    0.63 
  -6   7   2   10.99    0.50 
  -6   7   2   11.51    0.57 
   5  -7  -2    0.35    0.11 
  -5   7   2    0.37    0.06 
  -5   7   2    0.32    0.06 
   4  -7  -2    1.44    0.17 
  -4   7   2    1.29    0.11 
  -4   7   2    1.36    0.12 
   3  -7  -2    2.40    0.21 
   3  -7  -2    2.93    0.36 
  -3   7   2    2.67    0.15 
   2  -7  -2    0.16    0.09 
   1  -7  -2   -0.04    0.03 
   0  -7  -2    0.22    0.04 
   0   7   2    0.20    0.05 
  -1  -7  -2    1.47    0.09 
   1   7   2    1.25    0.10 
  -2  -7  -2    2.62    0.16 
  -2  -7  -2    2.47    0.18 
  -2  -7  -2    2.67    0.13 
  -3  -7  -2    0.27    0.07 
  -3  -7  -2    0.43    0.07 
  -3  -7  -2    0.39    0.09 
  -3  -7  -2    0.35    0.04 
  -3  -7  -2    0.38    0.10 
  -4  -7  -2    0.09    0.07 
  -4  -7  -2   -0.04    0.05 
  -4  -7  -2    0.10    0.06 
  -4  -7  -2    0.08    0.08 
  -5  -7  -2    0.04    0.06 
  -5  -7  -2    0.00    0.06 
  -5  -7  -2    0.02    0.05 
  -6  -7  -2    0.41    0.07 
  -6  -7  -2    0.37    0.06 
  -6  -7  -2    0.54    0.08 
  -7  -7  -2    0.07    0.05 
  -7  -7  -2    0.11    0.04 
   9  -8  -2    0.16    0.05 
  -9   8   2    0.14    0.04 
   8  -8  -2    0.62    0.09 
  -8   8   2    0.65    0.08 
   7  -8  -2    3.66    0.25 
  -7   8   2    3.65    0.22 
  -7   8   2    3.38    0.19 
   6  -8  -2    2.02    0.20 
  -6   8   2    1.87    0.13 
  -6   8   2    1.86    0.15 
   5  -8  -2   -0.03    0.09 
   5  -8  -2    0.20    0.10 
  -5   8   2    0.15    0.05 
  -5   8   2    0.19    0.06 
   4  -8  -2    0.78    0.15 
   4  -8  -2    0.77    0.13 
  -4   8   2    0.77    0.09 
  -4   8   2    0.83    0.08 
   3  -8  -2    0.18    0.12 
   3  -8  -2    0.15    0.09 
  -3   8   2    0.08    0.05 
  -3   8   2    0.16    0.06 
   2  -8  -2    0.11    0.12 
   2  -8  -2    0.08    0.09 
   2  -8  -2    0.15    0.05 
  -2   8   2    0.08    0.06 
   1  -8  -2    1.90    0.12 
   1  -8  -2    2.19    0.24 
  -1   8   2    1.87    0.16 
   0  -8  -2    1.88    0.16 
   0  -8  -2    1.74    0.22 
   0  -8  -2    1.94    0.11 
   0   8   2    1.91    0.16 
  -1  -8  -2    0.87    0.07 
  -1  -8  -2    0.95    0.12 
  -2  -8  -2    3.14    0.13 
  -2  -8  -2    2.86    0.22 
  -2  -8  -2    2.67    0.19 
  -3  -8  -2    0.27    0.08 
  -3  -8  -2    0.38    0.08 
  -4  -8  -2    0.97    0.11 
  -4  -8  -2    1.49    0.13 
  -5  -8  -2    1.00    0.10 
  -5  -8  -2    1.16    0.10 
  -6  -8  -2   -0.09    0.04 
   8  -9  -2    0.48    0.07 
  -8   9   2    0.42    0.06 
   7  -9  -2    0.83    0.11 
  -7   9   2    0.91    0.09 
  -7   9   2    0.74    0.07 
   6  -9  -2    0.05    0.07 
  -6   9   2    0.05    0.05 
  -6   9   2    0.00    0.04 
   5  -9  -2    0.06    0.09 
   5  -9  -2    0.15    0.09 
  -5   9   2    0.10    0.06 
  -5   9   2    0.08    0.05 
   4  -9  -2    2.36    0.20 
   4  -9  -2    2.36    0.23 
  -4   9   2    2.34    0.17 
  -4   9   2    2.13    0.14 
   3  -9  -2    0.69    0.14 
   3  -9  -2    0.60    0.11 
  -3   9   2    0.57    0.08 
  -3   9   2    0.58    0.09 
   2  -9  -2    0.71    0.15 
   2  -9  -2    0.56    0.07 
  -2   9   2    0.61    0.09 
   1  -9  -2    0.25    0.05 
   1  -9  -2    0.19    0.12 
  -1   9   2    0.16    0.07 
   0  -9  -2    5.37    0.22 
   0  -9  -2    5.64    0.38 
   0  -9  -2    5.00    0.30 
   0   9   2    5.09    0.31 
  -1  -9  -2    1.39    0.13 
  -1  -9  -2    1.01    0.08 
   1   9   2    1.10    0.12 
  -2  -9  -2    0.85    0.10 
  -2  -9  -2    0.77    0.09 
   2   9   2    0.83    0.10 
  -3  -9  -2   -0.08    0.05 
  -3  -9  -2    0.04    0.05 
  -4  -9  -2   -0.05    0.05 
  -4  -9  -2    0.02    0.05 
  -5  -9  -2    0.17    0.05 
  -5  -9  -2    0.21    0.05 
   7 -10  -2    0.28    0.06 
  -7  10   2    0.31    0.05 
   6 -10  -2    0.20    0.07 
  -6  10   2    0.20    0.05 
  -6  10   2    0.24    0.05 
   5 -10  -2    0.06    0.08 
   5 -10  -2    0.09    0.07 
  -5  10   2   -0.01    0.04 
  -5  10   2    0.09    0.04 
   4 -10  -2    0.02    0.07 
   4 -10  -2   -0.05    0.08 
  -4  10   2   -0.06    0.04 
  -4  10   2   -0.01    0.05 
   3 -10  -2    0.15    0.08 
   3 -10  -2    0.31    0.11 
  -3  10   2    0.25    0.06 
  -3  10   2    0.18    0.06 
   2 -10  -2    0.05    0.09 
  -2  10   2    0.09    0.05 
  -2  10   2   -0.08    0.05 
   1 -10  -2   -0.05    0.09 
  -1  10   2   -0.01    0.06 
   0 -10  -2    0.95    0.14 
   0 -10  -2    0.74    0.09 
   0  10   2    0.79    0.10 
  -1 -10  -2    0.13    0.06 
   1  10   2    0.12    0.06 
  -2 -10  -2   -0.02    0.05 
   2  10   2    0.06    0.05 
  -3 -10  -2   -0.03    0.04 
  -3 -10  -2    0.00    0.04 
   3  10   2    0.02    0.05 
  -4 -10  -2   -0.02    0.04 
  -4 -10  -2   -0.02    0.04 
   5 -11  -2   -0.03    0.05 
   5 -11  -2    0.06    0.05 
  -5  11   2    0.02    0.03 
   4 -11  -2    0.18    0.08 
   4 -11  -2    0.22    0.06 
  -4  11   2    0.15    0.05 
  -4  11   2    0.18    0.04 
   3 -11  -2    0.30    0.09 
  -3  11   2    0.23    0.05 
  -3  11   2    0.26    0.05 
   2 -11  -2   -0.01    0.07 
  -2  11   2   -0.04    0.04 
  -2  11   2    0.01    0.04 
   1 -11  -2    0.71    0.11 
  -1  11   2    0.36    0.06 
  -1  11   2    0.35    0.06 
   0 -11  -2    6.26    0.34 
   0 -11  -2    5.44    0.27 
   0  11   2    4.58    0.25 
   0  11   2    4.97    0.28 
  -1 -11  -2    1.67    0.12 
   1  11   2    1.46    0.12 
  -2 -11  -2    0.13    0.04 
   2 -12   3    0.54    0.09 
   3 -12   3    0.13    0.07 
  -2 -11   3    0.12    0.05 
  -1 -11   3    0.04    0.05 
  -1 -11   3   -0.03    0.04 
   0 -11   3    0.05    0.06 
  -1  11  -3    0.12    0.04 
   1 -11   3    0.24    0.12 
  -2  11  -3    0.21    0.05 
   2 -11   3    0.24    0.12 
  -3  11  -3    0.30    0.05 
   3 -11   3    0.16    0.11 
  -4  11  -3    1.06    0.08 
   4 -11   3    0.91    0.15 
  -5  11  -3    0.19    0.04 
   5 -11   3    0.18    0.09 
   5 -11   3    0.13    0.07 
  -4 -10   3    0.04    0.05 
  -4 -10   3    0.02    0.04 
  -3 -10   3    0.10    0.04 
  -3 -10   3    0.08    0.06 
  -2 -10   3    2.25    0.13 
  -2 -10   3    2.56    0.20 
  -1 -10   3    0.05    0.07 
   0 -10   3    1.70    0.15 
   0 -10   3    1.58    0.22 
  -1  10  -3    0.13    0.05 
   1 -10   3   -0.03    0.13 
  -2  10  -3    0.04    0.05 
   2 -10   3    0.11    0.13 
  -3  10  -3    0.01    0.04 
   3 -10   3   -0.07    0.12 
  -4  10  -3    0.07    0.04 
   4 -10   3   -0.01    0.12 
  -5  10  -3    0.27    0.05 
   5 -10   3    0.16    0.12 
  -6  10  -3    0.49    0.06 
  -7  10  -3    0.38    0.05 
   7 -10   3    0.07    0.07 
  -6  -9   3    0.26    0.05 
  -5  -9   3    0.02    0.06 
  -5  -9   3    0.09    0.05 
  -5  -9   3    0.07    0.03 
  -4  -9   3    0.49    0.08 
  -4  -9   3    0.60    0.06 
  -4  -9   3    0.50    0.10 
  -3  -9   3    3.84    0.26 
  -3  -9   3    3.98    0.22 
  -3  -9   3    3.64    0.18 
  -2  -9   3    0.05    0.09 
   1   9  -3    0.13    0.06 
  -1  -9   3   -0.04    0.09 
   0   9  -3    0.37    0.07 
   0  -9   3    0.38    0.11 
   0  -9   3    0.24    0.16 
  -1   9  -3    0.78    0.09 
  -1   9  -3    0.97    0.09 
   1  -9   3    0.21    0.16 
  -2   9  -3    0.55    0.07 
  -2   9  -3    0.49    0.08 
   2  -9   3    0.31    0.16 
  -3   9  -3    0.15    0.06 
  -3   9  -3    0.16    0.05 
   3  -9   3    0.18    0.14 
  -4   9  -3    0.90    0.09 
  -5   9  -3    1.93    0.13 
  -6   9  -3    2.69    0.16 
  -6   9  -3    2.90    0.18 
  -7   9  -3    0.54    0.07 
  -7   9  -3    0.61    0.07 
  -8   9  -3    0.02    0.03 
  -8   9  -3   -0.02    0.04 
   8  -9   3   -0.03    0.06 
  -7  -8   3    0.94    0.08 
  -6  -8   3    0.71    0.09 
  -5  -8   3    0.03    0.08 
  -5  -8   3    0.03    0.06 
  -5  -8   3    0.04    0.04 
  -4  -8   3    0.62    0.07 
  -4  -8   3    0.70    0.12 
   3   8  -3    0.33    0.07 
  -3  -8   3    0.33    0.06 
  -3  -8   3    0.27    0.11 
   2   8  -3    0.50    0.07 
   2   8  -3    0.50    0.07 
  -2  -8   3    0.44    0.12 
   1   8  -3    2.23    0.14 
   1   8  -3    2.13    0.15 
  -1  -8   3    1.88    0.20 
   0   8  -3    0.49    0.07 
   0   8  -3    0.45    0.07 
  -1   8  -3    1.34    0.11 
  -1   8  -3    1.28    0.10 
  -2   8  -3    0.69    0.08 
  -2   8  -3    0.81    0.08 
  -2   8  -3    0.63    0.08 
  -3   8  -3    0.04    0.04 
  -3   8  -3    0.07    0.05 
  -3   8  -3    0.07    0.04 
  -4   8  -3   36.23    1.51 
  -4   8  -3   36.08    1.56 
  -4   8  -3   32.65    1.46 
  -5   8  -3    9.46    0.47 
  -5   8  -3    8.92    0.40 
  -5   8  -3    9.26    0.43 
  -6   8  -3    0.22    0.05 
  -6   8  -3    0.24    0.07 
  -6   8  -3    0.27    0.06 
  -7   8  -3    0.05    0.04 
  -7   8  -3   -0.04    0.04 
  -7   8  -3    0.03    0.06 
  -8   8  -3    0.02    0.04 
  -8   8  -3   -0.02    0.03 
  -8   8  -3    0.05    0.05 
  -9   8  -3    0.06    0.03 
  -9   8  -3    0.05    0.03 
  -9   8  -3    0.09    0.04 
  -7  -7   3    0.00    0.06 
  -6  -7   3    0.15    0.04 
  -5  -7   3    7.47    0.30 
  -5  -7   3    7.12    0.41 
   4   7  -3    1.76    0.13 
  -4  -7   3    1.49    0.11 
  -4  -7   3    1.76    0.18 
   3   7  -3    6.65    0.32 
  -3  -7   3    4.91    0.38 
   2   7  -3    2.46    0.15 
   2   7  -3    2.96    0.17 
   1   7  -3    0.41    0.06 
   1   7  -3    0.38    0.06 
   0   7  -3    0.74    0.07 
   0   7  -3    0.79    0.08 
  -1   7  -3    0.76    0.08 
  -1   7  -3    0.91    0.08 
  -2   7  -3    0.57    0.06 
  -2   7  -3    0.66    0.07 
  -3   7  -3    0.07    0.04 
  -3   7  -3    0.01    0.03 
   3  -7   3   -0.07    0.14 
  -4   7  -3   14.47    0.65 
  -4   7  -3   14.58    0.63 
  -5   7  -3    2.18    0.14 
  -5   7  -3    1.87    0.12 
  -5   7  -3    1.90    0.13 
  -5   7  -3    2.03    0.16 
  -5   7  -3    1.92    0.13 
  -6   7  -3    2.10    0.16 
  -6   7  -3    1.82    0.13 
  -6   7  -3    1.90    0.13 
  -6   7  -3    1.80    0.13 
  -7   7  -3    0.15    0.05 
  -7   7  -3    0.04    0.04 
  -7   7  -3    0.20    0.06 
  -7   7  -3   -0.01    0.06 
  -8   7  -3    0.74    0.07 
  -8   7  -3    0.79    0.09 
  -8   7  -3    0.84    0.08 
  -9   7  -3    0.19    0.04 
  -9   7  -3    0.26    0.05 
  -9   7  -3    0.29    0.05 
  -8  -6   3    0.24    0.06 
   7   6  -3    1.20    0.09 
  -7  -6   3    1.08    0.06 
   6   6  -3   12.34    0.53 
  -6  -6   3   12.43    0.47 
   5   6  -3    2.66    0.17 
   5   6  -3    2.64    0.16 
  -5  -6   3    2.59    0.23 
  -5  -6   3    2.96    0.15 
   4   6  -3    0.38    0.07 
  -4  -6   3    0.47    0.06 
  -4  -6   3    0.43    0.09 
  -4  -6   3    0.43    0.10 
   3   6  -3    0.08    0.04 
  -3  -6   3    0.06    0.05 
   2   6  -3    0.03    0.04 
  -2  -6   3    0.03    0.05 
   1   6  -3    1.23    0.10 
   1   6  -3    1.25    0.09 
   0   6  -3    1.00    0.09 
   0   6  -3    0.90    0.08 
  -1   6  -3    7.40    0.33 
  -1   6  -3    7.37    0.36 
  -2   6  -3    1.50    0.09 
  -2   6  -3    1.50    0.10 
  -3   6  -3    6.12    0.28 
  -3   6  -3    6.30    0.31 
  -4   6  -3   29.88    1.30 
  -4   6  -3   28.49    1.22 
  -5   6  -3    1.14    0.09 
  -5   6  -3    1.18    0.10 
  -5   6  -3    1.11    0.10 
  -6   6  -3    1.85    0.13 
  -6   6  -3    2.03    0.13 
  -6   6  -3    1.60    0.12 
  -6   6  -3    1.81    0.12 
  -6   6  -3    1.53    0.14 
  -7   6  -3    0.98    0.09 
  -7   6  -3    1.15    0.12 
  -7   6  -3    0.96    0.10 
  -7   6  -3    0.99    0.09 
  -7   6  -3    1.08    0.09 
  -8   6  -3   -0.07    0.06 
  -8   6  -3    0.02    0.04 
  -8   6  -3   -0.05    0.04 
  -9   6  -3   -0.04    0.03 
  -9   6  -3   -0.01    0.04 
  -9   6  -3   -0.04    0.05 
 -10   6  -3    0.03    0.03 
 -10   6  -3   -0.03    0.04 
   9   5  -3    0.03    0.04 
   8   5  -3    0.52    0.06 
  -8  -5   3    0.26    0.08 
   7   5  -3    0.22    0.05 
  -7  -5   3    0.09    0.04 
   6   5  -3    2.83    0.16 
  -6  -5   3    3.00    0.15 
  -6  -5   3    2.62    0.24 
   5   5  -3    0.01    0.05 
  -5  -5   3    0.03    0.04 
  -5  -5   3   -0.01    0.06 
  -5  -5   3   -0.04    0.05 
   4   5  -3    5.88    0.28 
  -4  -5   3    5.49    0.36 
  -4  -5   3    4.80    0.31 
   3   5  -3    4.49    0.22 
  -3  -5   3    4.13    0.25 
  -3  -5   3    4.22    0.28 
   2   5  -3    4.62    0.24 
  -2  -5   3    4.84    0.26 
   1   5  -3   12.81    0.60 
  -1  -5   3   13.27    0.63 
   0   5  -3   11.30    0.51 
   0   5  -3   11.01    0.48 
  -1   5  -3   51.93    2.30 
  -1   5  -3   53.16    2.15 
  -2   5  -3    0.69    0.06 
  -2   5  -3    0.68    0.07 
  -3   5  -3   21.87    0.91 
  -3   5  -3   21.61    0.97 
  -4   5  -3    0.32    0.05 
  -4   5  -3    0.20    0.04 
  -5   5  -3    0.09    0.04 
  -5   5  -3    0.10    0.04 
   5  -5   3    0.06    0.12 
  -6   5  -3    1.82    0.13 
  -6   5  -3    1.97    0.12 
  -6   5  -3    1.79    0.16 
  -6   5  -3    1.96    0.13 
  -7   5  -3    2.46    0.18 
  -7   5  -3    2.55    0.16 
  -7   5  -3    2.58    0.16 
  -7   5  -3    2.71    0.19 
  -7   5  -3    2.41    0.15 
  -7   5  -3    2.52    0.15 
  -8   5  -3    0.04    0.04 
  -8   5  -3   -0.04    0.04 
  -8   5  -3   -0.05    0.05 
  -9   5  -3   -0.05    0.05 
  -9   5  -3   -0.01    0.04 
  -9   5  -3    0.00    0.04 
 -10   5  -3    0.24    0.05 
 -10   5  -3    0.33    0.05 
 -10   5  -3    0.28    0.06 
   9   4  -3    0.20    0.05 
  -7  -4   3    0.16    0.09 
  -7  -4   3    0.05    0.04 
  -6  -4   3    9.05    0.36 
  -6  -4   3    9.05    0.56 
  -5  -4   3   12.36    0.65 
  -5  -4   3   13.46    0.75 
  -4  -4   3    0.67    0.09 
  -4  -4   3    0.90    0.11 
  -3  -4   3    0.40    0.07 
  -3  -4   3    0.36    0.06 
   2   4  -3    0.36    0.05 
  -2  -4   3    0.28    0.05 
  -2  -4   3    0.35    0.06 
   1   4  -3    0.13    0.06 
   1   4  -3    0.07    0.03 
  -1  -4   3    0.13    0.03 
   0   4  -3   27.55    2.10 
   0   4  -3   25.40    1.17 
   0   4  -3   26.29    1.10 
   0  -4   3   27.20    1.22 
  -1   4  -3   45.52    3.35 
  -1   4  -3   40.90    1.87 
  -1   4  -3   42.09    1.75 
  -2   4  -3    1.21    0.07 
  -2   4  -3    1.06    0.08 
  -3   4  -3   17.38    0.80 
  -3   4  -3   18.38    0.75 
  -4   4  -3   11.56    0.50 
  -4   4  -3   11.51    0.53 
  -5   4  -3    3.04    0.16 
  -5   4  -3    3.22    0.17 
  -6   4  -3    9.30    0.41 
  -6   4  -3    8.40    0.43 
  -6   4  -3   10.09    0.45 
  -7   4  -3    2.36    0.14 
  -7   4  -3    2.67    0.18 
  -7   4  -3    2.58    0.15 
  -7   4  -3    2.34    0.15 
  -7   4  -3    2.41    0.15 
  -8   4  -3    5.61    0.31 
  -8   4  -3    5.70    0.29 
  -8   4  -3    5.83    0.27 
  -9   4  -3   -0.03    0.04 
  -9   4  -3    0.07    0.05 
  -9   4  -3    0.05    0.06 
 -10   4  -3    0.14    0.04 
  10   3  -3    0.20    0.04 
  -9  -3   3    1.15    0.11 
  -8  -3   3    1.55    0.09 
  -8  -3   3    1.80    0.15 
  -7  -3   3    0.51    0.06 
  -7  -3   3    0.55    0.09 
  -7  -3   3    0.36    0.10 
  -6  -3   3    7.40    0.43 
  -6  -3   3    8.54    0.51 
  -5  -3   3    0.22    0.08 
  -5  -3   3    0.15    0.06 
  -4  -3   3    0.05    0.04 
  -4  -3   3    0.01    0.04 
  -3  -3   3    0.19    0.04 
  -3  -3   3    0.19    0.05 
   2   3  -3    2.26    0.22 
  -2  -3   3    2.46    0.14 
  -2  -3   3    2.32    0.16 
   1   3  -3    8.11    0.38 
   1   3  -3    8.44    0.69 
  -1  -3   3    8.69    0.46 
   0   3  -3    5.40    0.26 
   0   3  -3    5.40    0.24 
   0   3  -3    6.22    0.48 
  -1   3  -3   54.46    3.98 
  -1   3  -3   49.15    2.23 
  -1   3  -3   50.17    2.09 
  -2   3  -3    3.87    0.34 
  -2   3  -3    3.60    0.17 
  -2   3  -3    3.70    0.18 
  -3   3  -3   12.10    0.50 
  -3   3  -3   11.69    0.54 
  -4   3  -3    2.32    0.13 
  -4   3  -3    2.39    0.12 
  -5   3  -3    2.13    0.13 
  -5   3  -3    2.19    0.12 
  -6   3  -3    0.03    0.03 
  -6   3  -3    0.04    0.03 
  -7   3  -3    6.78    0.33 
  -7   3  -3    6.36    0.31 
  -7   3  -3    6.44    0.32 
  -7   3  -3    6.47    0.30 
  -8   3  -3    1.38    0.12 
  -8   3  -3    1.24    0.10 
  -8   3  -3    1.07    0.10 
  -9   3  -3    0.05    0.05 
  -9   3  -3    0.01    0.04 
 -10   3  -3    0.60    0.07 
 -10  -2   3    0.40    0.07 
  -9  -2   3    0.84    0.10 
  -8  -2   3    0.23    0.04 
  -8  -2   3    0.20    0.07 
  -7  -2   3    4.49    0.33 
  -7  -2   3    4.14    0.27 
  -6  -2   3    4.72    0.30 
  -6  -2   3    5.64    0.36 
  -5  -2   3   10.77    0.60 
  -5  -2   3    9.81    0.52 
  -4  -2   3    4.28    0.27 
  -4  -2   3    4.23    0.24 
   3   2  -3   71.53    5.55 
  -3  -2   3   70.42    3.75 
  -3  -2   3   73.50    3.26 
   2   2  -3   49.13    3.71 
  -2  -2   3   46.65    2.50 
   1   2  -3   61.67    4.77 
   0   2  -3   52.30    2.25 
   0   2  -3   58.53    4.29 
  -2   2  -3    4.35    0.19 
  -2   2  -3    4.69    0.39 
  -2   2  -3    4.33    0.21 
  -3   2  -3    0.01    0.01 
  -3   2  -3    0.00    0.04 
  -3   2  -3    0.02    0.01 
  -4   2  -3    0.45    0.04 
  -4   2  -3    0.45    0.05 
  -5   2  -3   14.27    0.66 
  -5   2  -3   14.74    0.62 
  -6   2  -3    5.62    0.27 
  -6   2  -3    5.98    0.29 
  -7   2  -3    2.86    0.16 
  -7   2  -3    2.99    0.17 
  -8   2  -3    0.03    0.05 
  -8   2  -3    0.00    0.05 
  -9   2  -3    0.31    0.06 
  -9   2  -3    0.35    0.07 
 -10   2  -3    0.68    0.08 
 -10  -1   3    0.13    0.06 
  -9  -1   3    1.17    0.13 
  -8  -1   3    0.55    0.12 
  -8  -1   3    0.93    0.12 
  -7  -1   3    0.83    0.11 
  -7  -1   3    0.76    0.13 
  -6  -1   3    2.46    0.18 
  -6  -1   3    2.62    0.22 
  -5  -1   3   -0.04    0.03 
  -5  -1   3    0.25    0.07 
  -4  -1   3   95.96    4.92 
  -4  -1   3   92.58    4.27 
   3   1  -3  118.91    9.04 
  -3  -1   3  115.87    6.11 
   2   1  -3   42.95    3.22 
  -2  -1   3   40.08    2.17 
   1   1  -3    0.05    0.03 
   0   1  -3   11.20    0.89 
  -1   1  -3   27.90    2.18 
  -2   1  -3   11.93    0.50 
  -2   1  -3   12.28    0.97 
  -3   1  -3  125.87    9.76 
  -3   1  -3  124.56    5.49 
  -3   1  -3  129.53    5.14 
  -4   1  -3    1.39    0.09 
  -4   1  -3    1.53    0.08 
  -5   1  -3    9.45    0.44 
  -5   1  -3    9.47    0.41 
  -6   1  -3    8.28    0.37 
  -7   1  -3    9.33    0.43 
  -7   1  -3    9.10    0.41 
  -8   1  -3    3.44    0.20 
  -8   1  -3    3.53    0.18 
  -9   1  -3    1.14    0.10 
 -10   1  -3    0.65    0.07 
 -10   0   3    0.44    0.08 
  -9   0   3    0.72    0.10 
   8   0  -3    0.19    0.06 
  -8   0   3    0.12    0.08 
  -7   0   3    0.03    0.07 
  -7   0   3    0.18    0.07 
  -6   0   3    0.37    0.08 
  -5   0   3    0.30    0.06 
  -5   0   3    0.27    0.07 
   4   0  -3   66.04    5.08 
  -4   0   3   65.18    3.43 
   3   0  -3   43.03    3.32 
  -3   0   3   42.47    2.24 
   2   0  -3   55.82    4.32 
   1   0  -3   15.47    1.16 
   1   0  -3   14.16    0.93 
   0   0   3    0.80    0.06 
  -1   0  -3   15.55    1.25 
   1   0   3   16.25    1.01 
  -2   0  -3    0.05    0.01 
  -2   0  -3    0.02    0.03 
  -3   0  -3    2.53    0.17 
  -3   0  -3    2.55    0.13 
  -3   0  -3    2.45    0.12 
  -3   0  -3    2.68    0.23 
  -4   0  -3    4.83    0.28 
  -4   0  -3    4.47    0.22 
  -4   0  -3    4.54    0.21 
  -5   0  -3   12.15    0.52 
  -6   0  -3    0.00    0.03 
  -7   0  -3    0.76    0.08 
  -7   0  -3    0.71    0.10 
  -7   0  -3    0.81    0.09 
  -8   0  -3    0.58    0.08 
  -8   0  -3    0.47    0.09 
  -9   0  -3    0.02    0.05 
  -9   0  -3    0.08    0.06 
 -10   0  -3    0.63    0.07 
 -10   0  -3    0.65    0.08 
 -11   1   3    0.02    0.04 
  10  -1  -3    0.06    0.05 
 -10   1   3   -0.03    0.06 
   9  -1  -3    0.09    0.06 
  -9   1   3   -0.06    0.06 
   8  -1  -3    4.91    0.28 
  -8   1   3    5.23    0.32 
  -7   1   3    0.03    0.07 
  -6   1   3    4.45    0.29 
   5  -1  -3    4.33    0.38 
  -5   1   3    4.04    0.27 
   4  -1  -3   30.34    2.29 
  -4   1   3   27.84    1.54 
   3  -1  -3    6.39    0.53 
  -3   1   3    6.20    0.35 
   2  -1  -3   15.23    1.21 
   1  -1  -3    3.73    0.30 
  -1   1   3    3.26    0.23 
   0  -1  -3  104.42    8.18 
   0   1   3  107.92    6.63 
  -1  -1  -3    1.17    0.10 
  -1  -1  -3    1.22    0.13 
   1   1   3    1.68    0.11 
  -2  -1  -3   10.18    0.81 
  -2  -1  -3   10.18    0.42 
  -2  -1  -3    9.74    0.56 
   2   1   3   10.53    0.66 
  -3  -1  -3   60.61    2.47 
  -3  -1  -3   60.49    3.17 
  -4  -1  -3   45.74    2.46 
  -4  -1  -3   47.31    1.91 
  -5  -1  -3   13.80    0.77 
  -5  -1  -3   13.91    0.59 
  -6  -1  -3    3.54    0.18 
  -6  -1  -3    3.66    0.26 
  -7  -1  -3    0.77    0.09 
  -7  -1  -3    0.96    0.12 
  -8  -1  -3    0.83    0.12 
  -8  -1  -3    0.93    0.10 
  -9  -1  -3    0.05    0.06 
  -9  -1  -3    0.10    0.05 
 -10  -1  -3    0.02    0.05 
 -10  -1  -3    0.01    0.04 
 -11   2   3    2.37    0.15 
  10  -2  -3    0.34    0.06 
 -10   2   3    0.26    0.07 
   9  -2  -3    1.96    0.15 
  -9   2   3    2.23    0.19 
   8  -2  -3   26.79    1.25 
  -8   2   3   26.90    1.29 
  -7   2   3   41.05    1.92 
   6  -2  -3    0.18    0.09 
   5  -2  -3   10.67    0.87 
  -5   2   3    9.97    0.57 
   4  -2  -3    3.84    0.35 
  -4   2   3    3.40    0.22 
   3  -2  -3    8.36    0.70 
   2  -2  -3    3.45    0.29 
   2  -2  -3    3.10    0.17 
  -2   2   3    2.88    0.22 
   1  -2  -3   19.14    1.48 
   1  -2  -3   18.82    0.89 
  -1   2   3   18.67    1.20 
   0  -2  -3    5.14    0.42 
   0  -2  -3    4.88    0.25 
   0   2   3    5.28    0.34 
  -1  -2  -3   24.63    1.21 
  -1  -2  -3   28.43    2.02 
  -1  -2  -3   24.35    1.37 
   1   2   3   26.11    1.64 
  -2  -2  -3    2.99    0.20 
   2   2   3    3.00    0.22 
  -3  -2  -3  158.28    8.28 
   3   2   3  159.64    9.94 
  -4  -2  -3   83.44    4.38 
  -5  -2  -3    0.10    0.06 
  -6  -2  -3    0.28    0.06 
  -6  -2  -3    0.18    0.07 
  -6  -2  -3    0.30    0.09 
  -7  -2  -3    0.42    0.09 
  -7  -2  -3    0.44    0.10 
  -7  -2  -3    0.47    0.07 
  -8  -2  -3    0.14    0.07 
  -8  -2  -3    0.13    0.06 
  -9  -2  -3    0.42    0.08 
  -9  -2  -3    0.28    0.06 
 -10  -2  -3    0.11    0.04 
 -10  -2  -3    0.21    0.05 
  10  -3  -3    0.13    0.05 
 -10   3   3    0.06    0.05 
   9  -3  -3    1.63    0.13 
  -9   3   3    1.15    0.13 
   8  -3  -3   12.39    0.61 
  -8   3   3   12.50    0.64 
   7  -3  -3   10.54    0.55 
  -7   3   3   11.51    0.57 
   6  -3  -3   13.70    1.16 
   5  -3  -3   27.66    2.22 
   4  -3  -3    9.32    0.80 
   3  -3  -3    0.06    0.07 
  -3   3   3    0.07    0.03 
   2  -3  -3    6.14    0.31 
   2  -3  -3    6.54    0.54 
  -2   3   3    6.16    0.42 
   1  -3  -3    3.23    0.17 
   1  -3  -3    3.06    0.28 
  -1   3   3    3.00    0.22 
   0  -3  -3    1.59    0.10 
   0  -3  -3    1.67    0.16 
   0   3   3    1.53    0.13 
  -1  -3  -3    4.82    0.28 
  -1  -3  -3    4.50    0.24 
   1   3   3    4.84    0.33 
  -2  -3  -3    0.02    0.03 
  -2  -3  -3    0.05    0.02 
   2   3   3   -0.06    0.03 
  -3  -3  -3   94.78    4.33 
  -3  -3  -3   96.38    4.89 
   3   3   3   89.14    5.87 
  -4  -3  -3    0.04    0.05 
  -5  -3  -3    1.11    0.14 
  -6  -3  -3   -0.04    0.06 
  -6  -3  -3    0.05    0.06 
  -6  -3  -3   -0.01    0.04 
  -7  -3  -3    2.93    0.23 
  -7  -3  -3    3.23    0.18 
  -7  -3  -3    2.52    0.24 
  -8  -3  -3    2.75    0.17 
  -8  -3  -3    2.88    0.21 
  -9  -3  -3    0.02    0.04 
  -9  -3  -3    0.01    0.05 
  10  -4  -3   -0.04    0.04 
 -10   4   3    0.02    0.05 
   9  -4  -3    0.03    0.06 
  -9   4   3    0.05    0.06 
   8  -4  -3    1.48    0.14 
  -8   4   3    1.33    0.14 
  -8   4   3    1.24    0.12 
  -7   4   3   14.39    0.69 
  -7   4   3   13.23    0.70 
   6  -4  -3    0.13    0.12 
   5  -4  -3   23.61    1.93 
   4  -4  -3    0.53    0.15 
   3  -4  -3    6.14    0.52 
  -3   4   3    5.07    0.38 
   2  -4  -3    0.21    0.09 
  -2   4   3    0.19    0.05 
   1  -4  -3   17.31    1.27 
   1  -4  -3   16.15    0.75 
  -1   4   3   13.97    1.02 
   0  -4  -3   26.33    1.21 
   0   4   3   24.95    1.64 
  -1  -4  -3   11.17    0.53 
  -1  -4  -3   10.91    0.61 
   1   4   3   10.75    0.73 
  -2  -4  -3    0.44    0.05 
  -2  -4  -3    0.50    0.07 
   2   4   3    0.37    0.08 
  -3  -4  -3    5.12    0.33 
  -3  -4  -3    5.15    0.27 
  -4  -4  -3    1.42    0.11 
  -4  -4  -3    1.47    0.16 
  -5  -4  -3    2.28    0.15 
  -5  -4  -3    2.43    0.15 
  -5  -4  -3    2.23    0.18 
  -5  -4  -3    2.28    0.20 
  -5  -4  -3    2.38    0.21 
  -6  -4  -3   -0.03    0.06 
  -6  -4  -3   -0.04    0.06 
  -6  -4  -3    0.01    0.06 
  -6  -4  -3    0.03    0.05 
  -6  -4  -3    0.03    0.04 
  -7  -4  -3    0.45    0.08 
  -8  -4  -3    0.54    0.08 
  -8  -4  -3    0.35    0.07 
  -9  -4  -3    0.56    0.06 
  -9  -4  -3    0.58    0.07 
  10  -5  -3    0.05    0.04 
 -10   5   3    0.07    0.05 
   9  -5  -3    0.40    0.08 
  -9   5   3    0.32    0.07 
   8  -5  -3    1.13    0.12 
  -8   5   3    1.13    0.11 
  -8   5   3    1.02    0.11 
  -7   5   3    0.21    0.07 
  -7   5   3    0.38    0.08 
   6  -5  -3    2.33    0.19 
  -6   5   3    2.14    0.17 
  -6   5   3    1.74    0.15 
   5  -5  -3    4.65    0.31 
   5  -5  -3    4.38    0.48 
   4  -5  -3    3.56    0.40 
   3  -5  -3    4.04    0.42 
   2  -5  -3   26.81    2.14 
   1  -5  -3    2.96    0.27 
  -1   5   3    2.11    0.20 
   0  -5  -3   13.21    0.64 
  -1  -5  -3    0.28    0.06 
  -1  -5  -3    0.19    0.04 
  -2  -5  -3    0.57    0.07 
  -2  -5  -3    0.51    0.08 
  -3  -5  -3    0.11    0.04 
  -3  -5  -3    0.08    0.05 
  -4  -5  -3    3.33    0.20 
  -4  -5  -3    3.66    0.26 
  -4  -5  -3    3.28    0.23 
  -4  -5  -3    3.18    0.19 
  -5  -5  -3    0.06    0.06 
  -5  -5  -3    0.05    0.06 
  -5  -5  -3    0.07    0.05 
  -5  -5  -3    0.10    0.07 
  -5  -5  -3    0.08    0.05 
  -6  -5  -3    0.01    0.06 
  -6  -5  -3   -0.05    0.05 
  -6  -5  -3   -0.02    0.05 
  -7  -5  -3    0.36    0.07 
  -7  -5  -3    0.38    0.07 
  -7  -5  -3    0.48    0.07 
  -8  -5  -3    0.09    0.05 
  -8  -5  -3    0.05    0.04 
  10  -6  -3    0.25    0.05 
   9  -6  -3    0.23    0.06 
   8  -6  -3   -0.04    0.06 
  -8   6   3   -0.02    0.05 
   7  -6  -3    1.66    0.15 
   7  -6  -3    1.69    0.17 
  -7   6   3    1.56    0.14 
   6  -6  -3    1.69    0.18 
  -6   6   3    1.46    0.13 
   5  -6  -3    1.68    0.18 
  -5   6   3    1.26    0.12 
   4  -6  -3    0.07    0.08 
   4  -6  -3    0.12    0.14 
   3  -6  -3    2.78    0.34 
   2  -6  -3    2.83    0.32 
   1  -6  -3    9.16    0.35 
   0  -6  -3    3.23    0.15 
  -1  -6  -3    1.22    0.10 
  -1  -6  -3    1.12    0.12 
  -1  -6  -3    1.14    0.08 
  -2  -6  -3    4.30    0.17 
  -2  -6  -3    4.46    0.29 
  -2  -6  -3    4.36    0.25 
  -3  -6  -3    0.21    0.06 
  -3  -6  -3    0.16    0.06 
  -3  -6  -3    0.14    0.07 
  -3  -6  -3    0.16    0.05 
  -3  -6  -3    0.18    0.07 
  -4  -6  -3    3.46    0.21 
  -4  -6  -3    3.09    0.22 
  -4  -6  -3    3.12    0.19 
  -4  -6  -3    3.22    0.25 
  -4  -6  -3    3.29    0.20 
  -4  -6  -3    3.12    0.21 
  -5  -6  -3    0.06    0.05 
  -5  -6  -3    0.17    0.06 
  -5  -6  -3    0.28    0.07 
  -5  -6  -3    0.09    0.07 
  -5  -6  -3    0.18    0.07 
  -6  -6  -3    0.01    0.05 
  -6  -6  -3    0.05    0.06 
  -6  -6  -3    0.07    0.05 
  -7  -6  -3    0.18    0.05 
  -7  -6  -3    0.17    0.05 
  -7  -6  -3    0.16    0.05 
  -8  -6  -3    0.14    0.04 
  -8  -6  -3    0.19    0.04 
   9  -7  -3    0.80    0.07 
  -9   7   3    0.68    0.08 
   8  -7  -3    0.05    0.06 
   8  -7  -3    0.03    0.06 
  -8   7   3   -0.03    0.05 
   7  -7  -3    0.13    0.07 
  -7   7   3    0.04    0.05 
   6  -7  -3    2.83    0.21 
  -6   7   3    2.62    0.18 
   5  -7  -3    0.45    0.11 
  -5   7   3    0.47    0.08 
   4  -7  -3    0.55    0.12 
   4  -7  -3    0.51    0.12 
  -4   7   3    0.42    0.07 
   3  -7  -3    0.15    0.11 
   3  -7  -3    0.12    0.09 
  -3   7   3    0.01    0.06 
   2  -7  -3    2.42    0.20 
   2  -7  -3    2.66    0.14 
  -2   7   3    2.48    0.18 
   1  -7  -3    0.30    0.05 
  -1   7   3    0.28    0.07 
   0  -7  -3    3.12    0.15 
  -1  -7  -3    0.85    0.10 
  -1  -7  -3    0.98    0.07 
  -2  -7  -3    0.53    0.10 
  -2  -7  -3    0.38    0.08 
  -2  -7  -3    0.57    0.10 
  -2  -7  -3    0.50    0.08 
  -3  -7  -3    0.03    0.06 
  -3  -7  -3    0.02    0.06 
  -3  -7  -3    0.02    0.07 
  -3  -7  -3   -0.03    0.04 
  -3  -7  -3    0.01    0.05 
  -3  -7  -3    0.10    0.06 
  -4  -7  -3    1.57    0.14 
  -4  -7  -3    1.41    0.13 
  -4  -7  -3    1.63    0.12 
  -4  -7  -3    1.33    0.12 
  -5  -7  -3    2.78    0.17 
  -5  -7  -3    2.39    0.18 
  -5  -7  -3    2.25    0.16 
  -5  -7  -3    2.52    0.16 
  -6  -7  -3    0.54    0.07 
  -6  -7  -3    0.64    0.08 
  -6  -7  -3    0.73    0.08 
  -7  -7  -3    0.02    0.03 
  -7  -7  -3   -0.01    0.04 
   8  -8  -3    0.69    0.09 
  -8   8   3    0.76    0.08 
   7  -8  -3    0.11    0.07 
  -7   8   3    0.03    0.05 
   6  -8  -3   -0.07    0.07 
  -6   8   3   -0.02    0.05 
   5  -8  -3    2.12    0.21 
   5  -8  -3    2.35    0.20 
  -5   8   3    2.05    0.16 
   4  -8  -3    2.50    0.24 
   4  -8  -3    2.89    0.21 
  -4   8   3    2.13    0.17 
   3  -8  -3   -0.09    0.09 
   3  -8  -3    0.03    0.07 
  -3   8   3   -0.04    0.05 
  -3   8   3   -0.03    0.04 
   2  -8  -3   -0.02    0.07 
   2  -8  -3   -0.04    0.09 
  -2   8   3   -0.01    0.06 
   1  -8  -3    0.15    0.11 
   1  -8  -3    0.06    0.04 
  -1   8   3   -0.02    0.06 
   0  -8  -3   -0.01    0.09 
   0  -8  -3    0.01    0.03 
   0  -8  -3    0.17    0.07 
   0   8   3   -0.04    0.06 
  -1  -8  -3    2.48    0.19 
  -2  -8  -3    1.71    0.14 
  -2  -8  -3    2.21    0.17 
  -3  -8  -3    0.06    0.06 
  -3  -8  -3    0.02    0.05 
  -4  -8  -3    0.03    0.06 
  -4  -8  -3    0.05    0.05 
  -5  -8  -3    1.00    0.10 
  -5  -8  -3    1.04    0.10 
  -6  -8  -3   -0.01    0.04 
  -8   9   3    0.37    0.05 
   7  -9  -3    0.04    0.05 
  -7   9   3    0.00    0.04 
   6  -9  -3    0.46    0.09 
  -6   9   3    0.40    0.06 
   5  -9  -3    2.53    0.20 
   5  -9  -3    2.30    0.22 
  -5   9   3    2.60    0.17 
   4  -9  -3    0.31    0.10 
   4  -9  -3    0.35    0.11 
  -4   9   3    0.32    0.07 
  -4   9   3    0.29    0.06 
   3  -9  -3    0.28    0.09 
   3  -9  -3    0.24    0.10 
  -3   9   3    0.20    0.06 
  -3   9   3    0.19    0.05 
   2  -9  -3    0.39    0.12 
  -2   9   3    0.32    0.08 
  -2   9   3    0.20    0.06 
   1  -9  -3   -0.07    0.09 
  -1   9   3   -0.10    0.06 
   0  -9  -3    0.20    0.08 
   0  -9  -3    0.36    0.11 
   0   9   3    0.34    0.08 
  -1  -9  -3    0.84    0.10 
   1   9   3    1.21    0.12 
  -2  -9  -3    1.29    0.12 
  -2  -9  -3    0.91    0.10 
   2   9   3    1.03    0.12 
  -3  -9  -3    0.01    0.05 
  -3  -9  -3   -0.01    0.05 
   3   9   3   -0.04    0.06 
  -4  -9  -3   -0.03    0.04 
  -4  -9  -3   -0.02    0.04 
   4   9   3   -0.04    0.05 
  -5  -9  -3    0.11    0.04 
  -5  -9  -3   -0.01    0.04 
   5   9   3    0.04    0.04 
   6 -10  -3    0.21    0.06 
  -6  10   3    0.21    0.05 
   5 -10  -3    2.01    0.17 
   5 -10  -3    2.04    0.15 
  -5  10   3    1.84    0.14 
   4 -10  -3    0.08    0.06 
   4 -10  -3    0.06    0.08 
  -4  10   3    0.00    0.05 
  -4  10   3   -0.01    0.04 
   3 -10  -3   -0.06    0.08 
   3 -10  -3   -0.02    0.06 
  -3  10   3   -0.06    0.05 
  -3  10   3    0.00    0.05 
   2 -10  -3    0.68    0.13 
  -2  10   3    0.52    0.08 
  -2  10   3    0.70    0.08 
   1 -10  -3    0.16    0.09 
  -1  10   3    0.10    0.06 
   0 -10  -3    2.12    0.16 
   0 -10  -3    2.34    0.20 
   0  10   3    2.10    0.17 
  -1 -10  -3    6.84    0.35 
   1  10   3    7.09    0.38 
  -2 -10  -3    0.82    0.08 
   2  10   3    0.78    0.09 
  -3 -10  -3    0.20    0.05 
  -3 -10  -3    0.10    0.04 
   3  10   3    0.24    0.05 
  -5  11   3    0.03    0.03 
   4 -11  -3    0.01    0.05 
  -4  11   3    0.07    0.04 
   3 -11  -3    0.02    0.06 
  -3  11   3    0.00    0.04 
  -3  11   3    0.01    0.04 
   2 -11  -3    0.03    0.06 
  -2  11   3    0.04    0.04 
  -2  11   3   -0.02    0.04 
   1 -11  -3    0.04    0.07 
  -1  11   3   -0.03    0.04 
  -1  11   3    0.01    0.04 
   0 -11  -3    0.73    0.07 
   0  11   3    0.68    0.07 
   0  11   3    0.71    0.07 
  -1 -11  -3    1.83    0.12 
   1  11   3    1.44    0.11 
  -2 -11   4    0.03    0.05 
  -1 -11   4    0.42    0.07 
   0 -11   4    0.31    0.07 
   1 -11   4   -0.02    0.11 
   2 -11   4    0.09    0.11 
   3 -11   4   -0.08    0.09 
   4 -11   4    0.02    0.09 
   5 -11   4    0.04    0.08 
  -4 -10   4   -0.01    0.04 
  -4 -10   4    0.03    0.05 
  -3 -10   4    0.13    0.04 
  -3 -10   4    0.23    0.07 
  -2 -10   4    0.48    0.09 
  -1 -10   4    2.53    0.20 
   0 -10   4    0.38    0.09 
   0 -10   4    0.16    0.14 
   1 -10   4    0.03    0.13 
   2 -10   4    0.28    0.14 
   3 -10   4    0.13    0.13 
  -4  10  -4    0.25    0.05 
   4 -10   4   -0.04    0.12 
  -5  10  -4    0.06    0.04 
   5 -10   4   -0.01    0.10 
  -6  10  -4    3.53    0.18 
  -7  10  -4    0.13    0.04 
  -5  -9   4    0.15    0.06 
  -5  -9   4    0.08    0.05 
  -5  -9   4    0.02    0.03 
  -4  -9   4   -0.02    0.07 
  -4  -9   4    0.01    0.06 
  -4  -9   4    0.01    0.03 
  -3  -9   4    0.11    0.05 
  -3  -9   4    0.08    0.08 
  -2  -9   4    0.38    0.10 
  -1  -9   4    4.32    0.30 
   0   9  -4    1.93    0.14 
   0  -9   4    2.07    0.19 
  -1   9  -4    0.03    0.06 
   1  -9   4   -0.11    0.09 
  -2   9  -4   -0.01    0.05 
  -3   9  -4    1.28    0.10 
  -4   9  -4    0.19    0.05 
  -4   9  -4    0.16    0.05 
  -5   9  -4   -0.03    0.04 
  -5   9  -4   -0.04    0.06 
  -5   9  -4    0.04    0.04 
   5  -9   4   -0.15    0.11 
  -6   9  -4    0.35    0.05 
  -6   9  -4    0.38    0.05 
  -6   9  -4    0.36    0.07 
  -7   9  -4    0.19    0.04 
  -7   9  -4    0.23    0.06 
  -7   9  -4    0.17    0.04 
  -8   9  -4    0.12    0.04 
  -8   9  -4    0.11    0.03 
  -6  -8   4    0.59    0.08 
  -6  -8   4    0.60    0.04 
  -5  -8   4    0.01    0.03 
  -5  -8   4    0.01    0.08 
  -4  -8   4    0.33    0.06 
  -4  -8   4    0.24    0.10 
   3   8  -4    0.92    0.09 
  -3  -8   4    0.76    0.14 
   2   8  -4   -0.04    0.05 
   2   8  -4    0.05    0.05 
  -2  -8   4   -0.05    0.11 
   1   8  -4    2.92    0.18 
   1   8  -4    3.38    0.20 
   1   8  -4    3.14    0.18 
  -1  -8   4    3.30    0.26 
   0   8  -4    0.04    0.04 
   0   8  -4    0.06    0.05 
   0   8  -4    0.05    0.05 
   0  -8   4   -0.14    0.11 
  -1   8  -4   -0.06    0.05 
  -1   8  -4   -0.02    0.04 
  -1   8  -4    0.03    0.05 
   1  -8   4    0.27    0.11 
  -2   8  -4    0.52    0.07 
  -2   8  -4    0.77    0.08 
  -2   8  -4    0.76    0.09 
  -3   8  -4    0.17    0.05 
  -3   8  -4    0.14    0.05 
  -3   8  -4    0.17    0.05 
  -4   8  -4    0.75    0.08 
  -4   8  -4    0.49    0.07 
  -4   8  -4    0.59    0.10 
  -4   8  -4    0.65    0.08 
  -5   8  -4    0.25    0.05 
  -5   8  -4    0.08    0.07 
  -5   8  -4    0.15    0.05 
  -5   8  -4    0.17    0.05 
  -6   8  -4    2.85    0.16 
  -6   8  -4    2.61    0.18 
  -6   8  -4    2.89    0.15 
  -7   8  -4    1.45    0.13 
  -7   8  -4    1.56    0.10 
  -7   8  -4    1.55    0.10 
  -8   8  -4    0.02    0.05 
  -8   8  -4    0.05    0.03 
  -8   8  -4    0.05    0.03 
  -9   8  -4    0.16    0.04 
  -9   8  -4    0.17    0.03 
   7   7  -4    0.10    0.04 
  -7  -7   4    0.09    0.06 
   6   7  -4    3.89    0.19 
  -6  -7   4    3.72    0.17 
   5   7  -4    5.51    0.26 
  -5  -7   4    5.63    0.34 
  -5  -7   4    5.41    0.24 
   4   7  -4    3.56    0.19 
   4   7  -4    3.40    0.20 
  -4  -7   4    3.21    0.26 
  -4  -7   4    3.44    0.18 
   3   7  -4    1.20    0.10 
   3   7  -4    1.24    0.11 
   3   7  -4    1.45    0.11 
  -3  -7   4    1.46    0.17 
   2   7  -4    0.22    0.06 
   2   7  -4    0.27    0.06 
   2   7  -4    0.22    0.06 
   1   7  -4    1.78    0.12 
   1   7  -4    1.76    0.13 
   0   7  -4    3.16    0.17 
   0   7  -4    3.25    0.19 
  -1   7  -4    2.67    0.16 
  -1   7  -4    2.61    0.15 
  -2   7  -4    0.04    0.04 
  -2   7  -4    0.01    0.03 
  -3   7  -4    3.03    0.17 
  -3   7  -4    3.33    0.19 
  -4   7  -4    5.43    0.27 
  -4   7  -4    6.16    0.32 
  -4   7  -4    5.43    0.27 
  -4   7  -4    5.71    0.29 
  -4   7  -4    5.78    0.28 
  -5   7  -4    3.39    0.18 
  -5   7  -4    3.28    0.18 
  -5   7  -4    2.74    0.17 
  -5   7  -4    3.30    0.21 
  -6   7  -4   12.89    0.58 
  -6   7  -4   13.19    0.55 
  -6   7  -4   13.31    0.63 
  -6   7  -4   11.89    0.60 
  -7   7  -4    1.99    0.15 
  -7   7  -4    2.11    0.13 
  -7   7  -4    2.17    0.13 
  -8   7  -4    0.12    0.04 
  -8   7  -4    0.08    0.05 
  -8   7  -4    0.14    0.04 
  -9   7  -4    0.01    0.03 
  -9   7  -4    0.09    0.03 
  -9   7  -4    0.01    0.04 
   8   6  -4    0.02    0.04 
  -8  -6   4    0.04    0.05 
   7   6  -4    0.02    0.04 
  -7  -6   4    0.01    0.03 
   6   6  -4    1.99    0.13 
  -6  -6   4    2.00    0.12 
   5   6  -4   19.59    0.80 
   5   6  -4   18.84    0.88 
  -5  -6   4   18.43    1.07 
  -5  -6   4   19.86    0.71 
   4   6  -4    4.46    0.23 
   4   6  -4    3.94    0.21 
  -4  -6   4    3.95    0.31 
   3   6  -4    8.44    0.41 
  -3  -6   4    8.33    0.45 
   2   6  -4    4.31    0.21 
   2   6  -4    4.27    0.23 
  -2  -6   4    4.21    0.25 
   1   6  -4    0.08    0.03 
   1   6  -4    0.07    0.04 
   0   6  -4    0.93    0.09 
   0   6  -4    0.92    0.08 
  -1   6  -4    0.86    0.07 
  -1   6  -4    0.85    0.08 
  -2   6  -4    1.53    0.10 
  -2   6  -4    1.45    0.11 
  -3   6  -4    1.02    0.09 
  -3   6  -4    0.95    0.08 
  -3   6  -4    1.10    0.14 
  -4   6  -4    0.45    0.06 
  -4   6  -4    0.45    0.06 
  -5   6  -4    9.06    0.43 
  -5   6  -4    8.97    0.40 
  -5   6  -4    8.48    0.39 
  -5   6  -4    8.48    0.41 
  -5   6  -4    8.63    0.44 
  -6   6  -4   20.53    0.86 
  -6   6  -4   19.39    0.80 
  -6   6  -4   19.01    0.88 
  -6   6  -4   17.99    0.82 
  -6   6  -4   19.47    0.91 
  -7   6  -4    0.91    0.09 
  -7   6  -4    1.03    0.09 
  -7   6  -4    1.06    0.11 
  -8   6  -4    0.40    0.06 
  -8   6  -4    0.30    0.07 
  -8   6  -4    0.42    0.06 
  -9   6  -4    0.11    0.04 
  -9   6  -4    0.02    0.05 
  -9   6  -4    0.12    0.04 
 -10   6  -4    0.53    0.06 
   9   5  -4    0.58    0.05 
   8   5  -4    0.21    0.05 
   7   5  -4    0.07    0.05 
  -7  -5   4   -0.04    0.04 
   6   5  -4    1.49    0.12 
   6   5  -4    1.47    0.11 
  -6  -5   4    1.33    0.17 
  -6  -5   4    1.39    0.11 
   5   5  -4    0.11    0.05 
   5   5  -4    0.09    0.05 
  -5  -5   4    0.07    0.05 
  -5  -5   4    0.11    0.08 
   4   5  -4    4.41    0.23 
  -4  -5   4    4.30    0.30 
  -4  -5   4    3.86    0.26 
   3   5  -4    2.45    0.14 
  -3  -5   4    2.10    0.19 
  -3  -5   4    2.10    0.16 
   2   5  -4    6.75    0.34 
  -2  -5   4    7.06    0.36 
   1   5  -4   -0.01    0.03 
   1   5  -4    0.00    0.02 
  -1  -5   4    0.04    0.04 
   0   5  -4    0.99    0.08 
   0   5  -4    0.84    0.15 
   0   5  -4    0.91    0.07 
  -1   5  -4    0.70    0.06 
  -1   5  -4    0.63    0.13 
  -1   5  -4    0.67    0.07 
  -2   5  -4    0.01    0.02 
  -2   5  -4    0.03    0.02 
  -3   5  -4    8.73    0.41 
  -3   5  -4    8.73    0.38 
  -4   5  -4    6.11    0.30 
  -4   5  -4    5.86    0.28 
  -5   5  -4    3.58    0.19 
  -5   5  -4    3.26    0.18 
  -6   5  -4    0.75    0.08 
  -6   5  -4    0.76    0.08 
  -6   5  -4    0.83    0.09 
  -6   5  -4    0.93    0.09 
  -6   5  -4    0.67    0.10 
  -7   5  -4    2.79    0.18 
  -7   5  -4    2.74    0.16 
  -7   5  -4    2.44    0.15 
  -8   5  -4    0.03    0.06 
  -8   5  -4    0.04    0.04 
  -8   5  -4    0.01    0.04 
  -9   5  -4    0.06    0.04 
  -9   5  -4   -0.03    0.05 
  -9   5  -4    0.07    0.05 
 -10   5  -4    0.11    0.03 
 -10   5  -4    0.13    0.04 
 -10   5  -4    0.15    0.04 
   9   4  -4    1.44    0.10 
   8   4  -4    0.03    0.04 
  -8  -4   4   -0.03    0.03 
   7   4  -4    0.14    0.05 
  -7  -4   4    0.03    0.04 
  -6  -4   4    9.45    0.38 
  -6  -4   4    9.58    0.59 
  -5  -4   4    7.75    0.43 
  -5  -4   4    8.04    0.50 
   4   4  -4    1.38    0.10 
  -4  -4   4    1.29    0.13 
  -4  -4   4    1.37    0.15 
   3   4  -4    3.86    0.20 
  -3  -4   4    3.75    0.22 
  -3  -4   4    3.59    0.25 
   2   4  -4    0.84    0.07 
  -2  -4   4    0.81    0.09 
  -2  -4   4    0.67    0.08 
   1   4  -4    1.20    0.07 
   1   4  -4    1.26    0.15 
   1   4  -4    1.21    0.08 
  -1  -4   4    1.18    0.09 
   0   4  -4    9.33    0.43 
   0   4  -4    9.46    0.40 
   0   4  -4    9.33    0.78 
  -1   4  -4   48.17    3.70 
  -1   4  -4   47.01    1.94 
  -1   4  -4   46.66    2.07 
  -2   4  -4   11.39    0.53 
  -2   4  -4   11.63    0.49 
  -2   4  -4   11.76    0.96 
  -3   4  -4    0.79    0.06 
  -3   4  -4    0.71    0.07 
  -4   4  -4    0.32    0.05 
  -4   4  -4    0.34    0.04 
  -5   4  -4    0.05    0.04 
  -5   4  -4    0.12    0.04 
  -6   4  -4    0.28    0.05 
  -6   4  -4    0.17    0.04 
  -6   4  -4    0.20    0.05 
   6  -4   4    0.26    0.14 
  -7   4  -4    1.17    0.10 
  -7   4  -4    1.29    0.10 
  -7   4  -4    1.16    0.10 
  -7   4  -4    1.15    0.10 
  -7   4  -4    1.34    0.13 
  -8   4  -4    0.23    0.05 
  -8   4  -4    0.16    0.07 
  -8   4  -4    0.23    0.06 
  -9   4  -4    0.59    0.07 
  -9   4  -4    0.56    0.07 
  -9   4  -4    0.68    0.08 
 -10   4  -4    0.15    0.04 
   9   3  -4    2.21    0.13 
  -8  -3   4    0.26    0.04 
  -7  -3   4    0.33    0.10 
  -6  -3   4    4.50    0.33 
  -5  -3   4   -0.07    0.05 
  -5  -3   4    0.00    0.06 
  -4  -3   4    5.43    0.33 
  -4  -3   4    4.91    0.29 
  -3  -3   4    1.85    0.15 
  -3  -3   4    1.85    0.13 
   2   3  -4   11.75    0.54 
   2   3  -4   12.03    0.97 
  -2  -3   4   12.28    0.66 
   1   3  -4    5.57    0.25 
   1   3  -4    5.75    0.49 
   1   3  -4    5.50    0.27 
  -1  -3   4    5.96    0.32 
   0   3  -4    1.24    0.15 
   0   3  -4    1.22    0.08 
   0   3  -4    1.20    0.07 
  -1   3  -4    0.05    0.02 
  -1   3  -4    0.08    0.02 
  -1   3  -4    0.03    0.05 
  -2   3  -4   51.78    2.14 
  -2   3  -4   53.22    4.08 
  -2   3  -4   51.86    2.28 
  -3   3  -4    0.57    0.12 
  -3   3  -4    0.56    0.05 
  -3   3  -4    0.52    0.05 
  -4   3  -4    0.01    0.02 
  -4   3  -4    0.02    0.02 
  -5   3  -4    5.97    0.29 
  -5   3  -4    5.72    0.27 
  -6   3  -4    1.62    0.10 
  -6   3  -4    1.36    0.11 
  -6   3  -4    1.68    0.11 
  -7   3  -4    3.21    0.18 
  -7   3  -4    3.41    0.21 
  -7   3  -4    3.22    0.19 
  -7   3  -4    3.20    0.18 
  -7   3  -4    3.50    0.19 
  -8   3  -4    1.21    0.10 
  -8   3  -4    1.19    0.11 
  -9   3  -4    0.02    0.04 
  -9   3  -4    0.00    0.05 
 -10   3  -4    0.35    0.05 
  10   2  -4    0.14    0.04 
 -10  -2   4    0.16    0.05 
  -9  -2   4    0.59    0.09 
  -8  -2   4    0.94    0.11 
  -7  -2   4   -0.09    0.07 
  -7  -2   4    0.01    0.06 
  -6  -2   4    5.38    0.36 
  -6  -2   4    5.04    0.31 
  -5  -2   4    4.71    0.31 
  -5  -2   4    4.26    0.26 
  -4  -2   4    3.39    0.21 
  -4  -2   4    3.63    0.24 
   3   2  -4    0.35    0.08 
  -3  -2   4    0.31    0.06 
   2   2  -4    1.17    0.14 
   2   2  -4    1.15    0.07 
  -2  -2   4    1.28    0.10 
   1   2  -4    0.31    0.04 
   1   2  -4    0.33    0.07 
  -1  -2   4    0.32    0.05 
   0   2  -4   13.14    1.03 
   0   2  -4   12.38    0.57 
  -1   2  -4    0.86    0.11 
  -1   2  -4    0.67    0.04 
  -1   2  -4    0.73    0.05 
  -2   2  -4    6.16    0.52 
  -2   2  -4    5.89    0.28 
  -2   2  -4    6.04    0.26 
  -3   2  -4    3.41    0.32 
  -3   2  -4    3.41    0.16 
  -3   2  -4    3.42    0.17 
  -4   2  -4    5.97    0.28 
  -4   2  -4    5.62    0.26 
  -5   2  -4    0.10    0.03 
  -5   2  -4    0.09    0.03 
  -6   2  -4    0.13    0.04 
  -6   2  -4    0.13    0.04 
  -7   2  -4    4.18    0.21 
  -7   2  -4    4.21    0.22 
  -7   2  -4    4.71    0.24 
  -8   2  -4    0.81    0.09 
  -8   2  -4    0.91    0.08 
  -9   2  -4    0.63    0.07 
  -9   2  -4    0.56    0.08 
 -10   2  -4    0.13    0.04 
 -10  -1   4    0.10    0.05 
  -9  -1   4    0.11    0.07 
  -8  -1   4    5.38    0.32 
   7   1  -4    0.64    0.08 
  -7  -1   4    0.78    0.11 
  -7  -1   4    0.77    0.13 
  -6  -1   4   -0.02    0.05 
  -6  -1   4   -0.02    0.06 
  -5  -1   4   10.59    0.54 
  -5  -1   4   11.00    0.63 
   4   1  -4    2.98    0.28 
  -4  -1   4    3.00    0.21 
   3   1  -4    1.56    0.16 
  -3  -1   4    1.25    0.12 
   2   1  -4   27.53    2.12 
  -2  -1   4   26.62    1.43 
   1   1  -4    8.86    0.43 
   1   1  -4    9.15    0.74 
   0   1  -4    4.34    0.22 
   0   1  -4    4.69    0.39 
  -1   1  -4   23.04    1.11 
  -1   1  -4   24.84    1.88 
  -2   1  -4    2.78    0.14 
  -2   1  -4    3.12    0.27 
  -2   1  -4    2.80    0.13 
  -3   1  -4    9.68    0.41 
  -3   1  -4    9.42    0.78 
  -3   1  -4    9.60    0.43 
  -4   1  -4    6.73    0.29 
  -4   1  -4    6.34    0.31 
  -5   1  -4    0.03    0.03 
  -5   1  -4    0.00    0.02 
  -6   1  -4    0.20    0.04 
  -7   1  -4    0.12    0.05 
  -7   1  -4    0.04    0.04 
  -8   1  -4    3.81    0.19 
  -8   1  -4    4.03    0.22 
  -9   1  -4    0.11    0.05 
 -10   1  -4    0.28    0.05 
 -10   0   4   -0.04    0.05 
   9   0  -4    2.79    0.17 
  -9   0   4    2.63    0.20 
   8   0  -4    1.66    0.13 
  -8   0   4    1.31    0.14 
  -8   0   4    1.17    0.16 
   7   0  -4    2.08    0.15 
  -7   0   4    1.86    0.20 
  -7   0   4    2.20    0.18 
  -6   0   4    0.24    0.08 
  -5   0   4    1.71    0.13 
  -5   0   4    1.73    0.17 
   4   0  -4    3.66    0.33 
  -4   0   4    3.55    0.24 
   3   0  -4   32.02    2.46 
  -3   0   4   30.98    1.66 
   2   0  -4   88.34    4.14 
   2   0  -4   90.55    6.91 
   1   0  -4   67.10    3.10 
   1   0  -4   66.74    5.18 
   0   0  -4   17.71    1.35 
   0   0  -4   16.26    0.79 
  -1   0  -4   32.77    2.47 
  -1   0  -4   30.40    1.46 
   1   0   4   31.79    1.99 
  -2   0  -4    2.24    0.21 
   2   0   4    2.21    0.17 
  -3   0  -4   12.47    0.50 
  -3   0  -4   11.77    0.97 
  -3   0  -4   12.00    0.54 
  -3   0  -4   11.74    0.66 
  -4   0  -4    9.41    0.54 
  -4   0  -4    9.63    0.41 
  -4   0  -4    9.91    0.44 
  -5   0  -4    8.07    0.36 
  -6   0  -4    0.97    0.08 
  -6   0  -4    1.14    0.10 
  -7   0  -4    0.25    0.06 
  -7   0  -4    0.17    0.05 
  -7   0  -4    0.21    0.08 
  -8   0  -4    0.08    0.06 
  -8   0  -4    0.08    0.05 
  -9   0  -4    0.13    0.05 
  -9   0  -4    0.09    0.06 
 -10   0  -4    0.22    0.05 
  10  -1  -4    0.43    0.06 
 -10   1   4    0.40    0.08 
   9  -1  -4    0.30    0.07 
  -9   1   4    0.51    0.10 
   8  -1  -4    1.17    0.12 
  -8   1   4    1.21    0.14 
   7  -1  -4    5.95    0.31 
  -7   1   4    5.54    0.38 
  -7   1   4    5.79    0.34 
  -6   1   4    4.80    0.32 
   5  -1  -4    0.06    0.06 
  -5   1   4    0.04    0.05 
   4  -1  -4    7.19    0.59 
  -4   1   4    6.60    0.40 
   3  -1  -4    2.91    0.27 
   2  -1  -4   93.57    4.41 
   2  -1  -4   96.72    7.35 
   1  -1  -4    4.78    0.40 
   1  -1  -4    4.66    0.23 
  -1   1   4    4.44    0.30 
   0  -1  -4    0.13    0.05 
   0  -1  -4    0.12    0.02 
   0   1   4    0.11    0.03 
  -1  -1  -4    0.73    0.10 
  -1  -1  -4    0.76    0.05 
   1   1   4    0.62    0.07 
  -2  -1  -4    1.78    0.14 
  -2  -1  -4    1.73    0.17 
   2   1   4    1.68    0.14 
  -3  -1  -4   78.69    4.03 
  -3  -1  -4   77.78    3.13 
   3   1   4   74.17    4.83 
  -4  -1  -4   15.77    0.89 
  -4  -1  -4   16.59    0.68 
  -5  -1  -4    0.05    0.03 
  -5  -1  -4    0.01    0.05 
  -6  -1  -4    0.61    0.10 
  -6  -1  -4    0.60    0.08 
  -7  -1  -4    0.78    0.09 
  -7  -1  -4    0.80    0.11 
  -8  -1  -4    0.16    0.06 
  -8  -1  -4    0.07    0.06 
  -9  -1  -4    0.02    0.05 
  -9  -1  -4   -0.04    0.05 
 -10  -1  -4    0.12    0.04 
  10  -2  -4    1.50    0.11 
 -10   2   4    1.72    0.14 
   9  -2  -4    0.05    0.06 
  -9   2   4   -0.05    0.06 
   8  -2  -4    4.53    0.26 
  -8   2   4    4.45    0.29 
   7  -2  -4    5.22    0.29 
   6  -2  -4    0.52    0.14 
   5  -2  -4   12.18    0.95 
  -5   2   4   10.47    0.63 
   4  -2  -4    4.47    0.41 
  -4   2   4    4.48    0.27 
   3  -2  -4   17.34    1.39 
   2  -2  -4    1.05    0.08 
   2  -2  -4    1.25    0.14 
  -2   2   4    1.02    0.09 
   1  -2  -4    0.64    0.06 
   1  -2  -4    0.63    0.10 
  -1   2   4    0.61    0.07 
   0  -2  -4    1.71    0.18 
   0  -2  -4    1.78    0.10 
   0   2   4    1.68    0.14 
  -1  -2  -4   33.61    1.54 
  -1  -2  -4   34.96    2.58 
   1   2   4   30.73    2.09 
  -2  -2  -4    0.71    0.05 
  -2  -2  -4    0.75    0.09 
   2   2   4    0.72    0.09 
  -3  -2  -4   81.97    3.78 
  -3  -2  -4   84.85    4.28 
   3   2   4   78.14    5.14 
  -4  -2  -4   48.78    2.59 
  -5  -2  -4    9.66    0.57 
  -6  -2  -4    0.98    0.12 
  -6  -2  -4    1.00    0.13 
  -6  -2  -4    0.99    0.09 
  -7  -2  -4    2.42    0.20 
  -7  -2  -4    2.60    0.16 
  -8  -2  -4    0.19    0.07 
  -8  -2  -4    0.28    0.06 
  -9  -2  -4    0.24    0.05 
  -9  -2  -4    0.17    0.06 
  10  -3  -4    0.47    0.06 
 -10   3   4    0.46    0.08 
   9  -3  -4    1.16    0.11 
  -9   3   4    1.16    0.12 
   8  -3  -4    0.49    0.09 
  -8   3   4    0.42    0.09 
   7  -3  -4   25.93    1.18 
  -7   3   4   24.48    1.20 
   6  -3  -4    5.31    0.51 
  -6   3   4    5.04    0.31 
   5  -3  -4   17.48    1.44 
   4  -3  -4    2.72    0.30 
  -4   3   4    2.78    0.19 
  -3   3   4    2.10    0.17 
   2  -3  -4   17.95    0.83 
   2  -3  -4   18.98    1.40 
  -2   3   4   15.36    1.11 
   1  -3  -4    0.13    0.06 
   1  -3  -4    0.36    0.05 
  -1   3   4    0.11    0.04 
   0  -3  -4    9.64    0.46 
   0  -3  -4   10.24    0.78 
   0   3   4    8.76    0.63 
  -1  -3  -4    0.79    0.06 
  -1  -3  -4    0.75    0.08 
   1   3   4    0.74    0.10 
  -2  -3  -4   12.54    0.59 
  -2  -3  -4   12.59    0.68 
   2   3   4   11.42    0.81 
  -3  -3  -4    5.43    0.27 
  -3  -3  -4    5.19    0.34 
  -4  -3  -4    0.97    0.08 
  -4  -3  -4    0.83    0.12 
  -5  -3  -4    0.00    0.06 
  -5  -3  -4    0.09    0.06 
  -5  -3  -4    0.07    0.04 
  -5  -3  -4    0.03    0.05 
  -6  -3  -4    0.78    0.08 
  -6  -3  -4    0.80    0.11 
  -6  -3  -4    0.75    0.09 
  -6  -3  -4    1.01    0.14 
  -7  -3  -4   -0.03    0.05 
  -7  -3  -4    0.00    0.05 
  -8  -3  -4    0.06    0.06 
  -8  -3  -4   -0.01    0.05 
  -9  -3  -4    0.03    0.04 
  -9  -3  -4    0.03    0.05 
  10  -4  -4    0.02    0.04 
 -10   4   4    0.04    0.05 
   9  -4  -4    1.05    0.10 
  -9   4   4    0.95    0.11 
   8  -4  -4    0.66    0.09 
  -8   4   4    0.57    0.09 
   7  -4  -4    9.95    0.50 
  -7   4   4    9.88    0.52 
   6  -4  -4   14.55    0.79 
  -6   4   4   14.88    0.73 
   5  -4  -4    8.81    0.77 
   5  -4  -4    8.18    0.48 
   4  -4  -4    6.11    0.57 
  -3   4   4    5.91    0.41 
   2  -4  -4    4.77    0.39 
  -2   4   4    3.59    0.30 
   1  -4  -4    0.05    0.03 
   1  -4  -4    0.01    0.06 
  -1   4   4    0.00    0.03 
   0  -4  -4   14.24    0.66 
   0   4   4   12.87    0.89 
  -1  -4  -4    2.18    0.13 
  -1  -4  -4    2.22    0.16 
   1   4   4    1.99    0.19 
  -2  -4  -4    0.17    0.06 
  -2  -4  -4    0.29    0.05 
  -3  -4  -4    0.55    0.09 
  -3  -4  -4    0.45    0.06 
  -4  -4  -4    3.18    0.19 
  -4  -4  -4    3.19    0.25 
  -4  -4  -4    3.64    0.20 
  -5  -4  -4    0.13    0.06 
  -5  -4  -4    0.18    0.07 
  -5  -4  -4    0.13    0.08 
  -5  -4  -4    0.09    0.04 
  -5  -4  -4    0.08    0.05 
  -6  -4  -4    1.89    0.19 
  -6  -4  -4    1.59    0.13 
  -6  -4  -4    1.75    0.14 
  -6  -4  -4    1.70    0.15 
  -6  -4  -4    1.95    0.14 
  -7  -4  -4   -0.03    0.05 
  -7  -4  -4    0.00    0.05 
  -8  -4  -4    0.09    0.04 
  -8  -4  -4    0.03    0.04 
  -9  -4  -4    0.39    0.05 
  10  -5  -4    1.50    0.10 
 -10   5   4    1.43    0.11 
   9  -5  -4    0.88    0.09 
  -9   5   4    0.58    0.08 
   8  -5  -4    0.16    0.07 
  -8   5   4    0.26    0.07 
   7  -5  -4    2.26    0.17 
   7  -5  -4    2.41    0.18 
  -7   5   4    2.53    0.19 
   6  -5  -4    2.17    0.19 
   6  -5  -4    2.12    0.17 
  -6   5   4    2.37    0.18 
   5  -5  -4    4.81    0.31 
  -5   5   4    4.29    0.28 
   4  -5  -4    0.16    0.08 
   4  -5  -4    0.29    0.14 
   3  -5  -4    4.71    0.46 
   2  -5  -4    3.58    0.36 
   1  -5  -4   24.64    1.17 
   0  -5  -4   17.54    0.84 
  -1  -5  -4    0.98    0.09 
  -2  -5  -4    0.03    0.03 
  -2  -5  -4   -0.01    0.05 
  -3  -5  -4    0.19    0.06 
  -3  -5  -4    0.17    0.05 
  -3  -5  -4    0.20    0.06 
  -3  -5  -4    0.32    0.08 
  -4  -5  -4    0.17    0.06 
  -4  -5  -4    0.23    0.08 
  -4  -5  -4    0.20    0.07 
  -4  -5  -4    0.22    0.06 
  -4  -5  -4    0.15    0.06 
  -4  -5  -4    0.36    0.08 
  -5  -5  -4    0.05    0.05 
  -5  -5  -4    0.09    0.07 
  -5  -5  -4    0.21    0.07 
  -5  -5  -4    0.10    0.05 
  -5  -5  -4    0.16    0.06 
  -6  -5  -4    0.13    0.06 
  -6  -5  -4    0.24    0.06 
  -6  -5  -4    0.26    0.06 
  -7  -5  -4   -0.02    0.05 
  -7  -5  -4    0.09    0.05 
  -7  -5  -4    0.04    0.05 
  -8  -5  -4    0.01    0.04 
  -8  -5  -4    0.05    0.04 
   9  -6  -4    0.47    0.06 
  -9   6   4    0.42    0.07 
   8  -6  -4    1.05    0.10 
  -8   6   4    0.77    0.10 
   7  -6  -4    0.49    0.09 
   7  -6  -4    0.27    0.08 
  -7   6   4    0.33    0.07 
  -7   6   4    0.47    0.08 
   6  -6  -4   -0.05    0.06 
  -6   6   4    0.02    0.06 
  -6   6   4    0.01    0.05 
   5  -6  -4    1.12    0.14 
  -5   6   4    0.68    0.09 
  -5   6   4    0.79    0.10 
   4  -6  -4    0.12    0.08 
  -4   6   4    0.08    0.06 
  -4   6   4    0.12    0.08 
   3  -6  -4    7.14    0.45 
   3  -6  -4    8.42    0.71 
   2  -6  -4    0.03    0.07 
   0  -6  -4    1.36    0.11 
  -1  -6  -4    3.30    0.20 
  -2  -6  -4    0.68    0.09 
  -2  -6  -4    0.54    0.08 
  -2  -6  -4    0.64    0.08 
  -2  -6  -4    0.54    0.07 
  -3  -6  -4    0.30    0.08 
  -3  -6  -4    0.15    0.06 
  -3  -6  -4    0.13    0.06 
  -3  -6  -4    0.23    0.08 
  -3  -6  -4    0.25    0.07 
  -3  -6  -4    0.15    0.05 
  -4  -6  -4    0.41    0.09 
  -4  -6  -4    0.57    0.08 
  -4  -6  -4    0.64    0.10 
  -4  -6  -4    0.72    0.09 
  -4  -6  -4    0.45    0.07 
  -4  -6  -4    0.62    0.09 
  -5  -6  -4    0.80    0.09 
  -5  -6  -4    1.06    0.11 
  -5  -6  -4    1.06    0.11 
  -6  -6  -4    0.24    0.06 
  -6  -6  -4    0.22    0.05 
  -6  -6  -4    0.32    0.07 
  -7  -6  -4   -0.02    0.04 
  -7  -6  -4    0.03    0.04 
  -7  -6  -4   -0.01    0.05 
   9  -7  -4    0.02    0.04 
   8  -7  -4    0.81    0.10 
  -8   7   4    0.85    0.09 
   7  -7  -4    0.20    0.07 
  -7   7   4    0.12    0.06 
   6  -7  -4   -0.03    0.07 
  -6   7   4    0.00    0.05 
   5  -7  -4    0.06    0.08 
  -5   7   4    0.03    0.06 
   4  -7  -4   -0.06    0.08 
   4  -7  -4    0.11    0.08 
  -4   7   4    0.05    0.05 
   3  -7  -4    0.84    0.15 
   3  -7  -4    0.90    0.13 
  -3   7   4    0.63    0.09 
   2  -7  -4    0.81    0.14 
   2  -7  -4    0.85    0.12 
  -2   7   4    0.57    0.09 
   1  -7  -4    0.10    0.10 
  -1   7   4    0.08    0.06 
   0  -7  -4    1.39    0.17 
   0  -7  -4    0.75    0.11 
   0   7   4    0.80    0.10 
  -1  -7  -4    0.85    0.14 
  -1  -7  -4    0.76    0.10 
  -1  -7  -4    0.65    0.10 
  -1  -7  -4    0.60    0.08 
  -2  -7  -4    3.66    0.21 
  -2  -7  -4    3.38    0.21 
  -2  -7  -4    3.12    0.21 
  -2  -7  -4    3.65    0.24 
  -3  -7  -4    0.04    0.04 
  -3  -7  -4    0.09    0.05 
  -3  -7  -4    0.03    0.05 
  -3  -7  -4    0.07    0.07 
  -3  -7  -4    0.08    0.06 
  -4  -7  -4    1.16    0.11 
  -4  -7  -4    1.32    0.12 
  -4  -7  -4    1.13    0.11 
  -4  -7  -4    1.11    0.10 
  -5  -7  -4    0.22    0.06 
  -5  -7  -4    0.21    0.06 
  -5  -7  -4    0.18    0.05 
  -5  -7  -4    0.19    0.05 
  -6  -7  -4    0.02    0.05 
  -6  -7  -4    0.00    0.04 
   8  -8  -4    0.09    0.05 
  -8   8   4    0.10    0.05 
   7  -8  -4    0.54    0.09 
  -7   8   4    0.50    0.07 
   6  -8  -4   -0.05    0.06 
  -6   8   4   -0.03    0.05 
   5  -8  -4    9.15    0.56 
   5  -8  -4    9.85    0.53 
  -5   8   4    8.76    0.48 
   4  -8  -4    0.60    0.13 
   4  -8  -4    0.82    0.12 
  -4   8   4    0.63    0.08 
   3  -8  -4    0.16    0.10 
   3  -8  -4    0.23    0.08 
  -3   8   4    0.21    0.07 
   2  -8  -4    0.42    0.09 
   2  -8  -4    0.56    0.12 
  -2   8   4    0.42    0.08 
   1  -8  -4    0.27    0.11 
  -1   8   4    0.20    0.07 
   0  -8  -4    0.00    0.09 
   0  -8  -4    0.04    0.06 
   0   8   4    0.07    0.07 
  -1  -8  -4    1.09    0.12 
  -1  -8  -4    1.20    0.15 
  -1  -8  -4    0.77    0.09 
   1   8   4    1.07    0.12 
  -2  -8  -4    0.92    0.10 
  -2  -8  -4    0.65    0.08 
  -2  -8  -4    1.01    0.11 
  -3  -8  -4    0.02    0.05 
  -3  -8  -4    0.00    0.05 
  -3  -8  -4   -0.01    0.05 
  -4  -8  -4    0.06    0.04 
  -4  -8  -4    0.09    0.05 
  -4  -8  -4    0.13    0.06 
  -5  -8  -4    0.02    0.05 
  -5  -8  -4    0.08    0.04 
  -5  -8  -4    0.04    0.05 
   7  -9  -4    0.47    0.07 
  -7   9   4    0.41    0.06 
   6  -9  -4    0.54    0.09 
  -6   9   4    0.35    0.06 
   5  -9  -4    3.71    0.27 
   5  -9  -4    3.91    0.25 
  -5   9   4    3.77    0.23 
   4  -9  -4    1.09    0.14 
   4  -9  -4    0.78    0.11 
  -4   9   4    0.65    0.09 
   3  -9  -4    0.86    0.11 
   3  -9  -4    1.05    0.15 
  -3   9   4    0.69    0.09 
   2  -9  -4   -0.04    0.08 
  -2   9   4   -0.03    0.06 
   1  -9  -4    0.11    0.09 
  -1   9   4    0.08    0.06 
   0  -9  -4   -0.05    0.08 
   0  -9  -4   -0.06    0.05 
   0   9   4   -0.05    0.06 
  -1  -9  -4    0.07    0.06 
   1   9   4    0.05    0.07 
  -2  -9  -4    0.97    0.10 
  -2  -9  -4    0.76    0.09 
   2   9   4    1.02    0.11 
  -3  -9  -4    0.07    0.05 
  -3  -9  -4    0.07    0.05 
   3   9   4    0.02    0.06 
  -4  -9  -4    0.26    0.05 
  -4  -9  -4    0.32    0.06 
   4   9   4    0.33    0.06 
  -6  10   4    0.05    0.04 
   5 -10  -4    0.15    0.06 
   5 -10  -4    0.07    0.05 
  -5  10   4    0.04    0.04 
   4 -10  -4    0.01    0.06 
   4 -10  -4    0.04    0.06 
  -4  10   4    0.04    0.05 
   3 -10  -4    0.30    0.09 
  -3  10   4    0.23    0.06 
   2 -10  -4    0.02    0.07 
  -2  10   4   -0.05    0.04 
   1 -10  -4    0.04    0.07 
  -1  10   4    0.06    0.06 
   0 -10  -4    0.07    0.05 
   0 -10  -4    0.18    0.08 
   0  10   4    0.16    0.06 
  -1 -10  -4    0.14    0.05 
   1  10   4    0.22    0.06 
  -2 -10  -4    0.55    0.07 
   2  10   4    0.68    0.08 
  -3 -10  -4   -0.03    0.03 
   3 -11  -4    0.12    0.06 
  -3  11   4    0.18    0.04 
   2 -11  -4    0.29    0.07 
  -2  11   4    0.25    0.05 
   1 -11  -4    0.05    0.06 
  -1  11   4    0.05    0.04 
   0  11   4    0.05    0.03 
  -1 -11   5    0.11    0.05 
   0 -11   5    0.13    0.05 
   1 -11   5    0.34    0.11 
   2 -11   5    0.16    0.10 
   3 -11   5    0.31    0.10 
   4 -11   5    0.08    0.08 
  -3 -10   5    0.03    0.05 
  -2 -10   5    0.31    0.08 
  -1 -10   5    0.69    0.10 
   0 -10   5   -0.04    0.12 
   0 -10   5    0.06    0.08 
   1 -10   5    0.20    0.13 
  -2  10  -5    0.34    0.06 
   2 -10   5    0.24    0.13 
  -3  10  -5   -0.07    0.04 
   3 -10   5    0.01    0.12 
  -4  10  -5    0.08    0.04 
   4 -10   5   -0.01    0.11 
  -5  10  -5    0.11    0.04 
   5 -10   5    0.04    0.10 
  -6  10  -5    0.34    0.05 
  -6  10  -5    0.25    0.04 
  -5  -9   5    0.26    0.06 
  -5  -9   5    0.21    0.05 
  -4  -9   5    1.50    0.13 
  -4  -9   5    1.29    0.09 
   3   9  -5    0.06    0.04 
  -3  -9   5    0.09    0.08 
   2   9  -5    0.26    0.06 
  -2  -9   5    0.36    0.10 
  -1  -9   5    3.80    0.27 
   0   9  -5   -0.02    0.05 
   0  -9   5   -0.06    0.09 
  -1   9  -5    2.56    0.15 
   1  -9   5    2.04    0.19 
  -2   9  -5    0.86    0.09 
  -3   9  -5   -0.01    0.05 
  -4   9  -5   -0.05    0.06 
  -4   9  -5    0.02    0.04 
  -5   9  -5    0.55    0.08 
  -5   9  -5    0.49    0.06 
   5  -9   5    0.06    0.12 
  -6   9  -5    0.83    0.08 
  -6   9  -5    0.69    0.06 
  -7   9  -5    0.11    0.03 
  -7   9  -5    0.08    0.04 
   6   8  -5    0.02    0.03 
  -6  -8   5   -0.02    0.05 
   5   8  -5    0.10    0.04 
  -5  -8   5    0.15    0.08 
  -5  -8   5    0.06    0.04 
   4   8  -5    0.04    0.04 
  -4  -8   5    0.00    0.04 
  -4  -8   5   -0.06    0.08 
   3   8  -5    2.69    0.16 
  -3  -8   5    2.77    0.23 
   2   8  -5   -0.06    0.05 
   2   8  -5   -0.01    0.05 
  -2  -8   5    0.05    0.10 
   1   8  -5    2.16    0.14 
   1   8  -5    2.07    0.15 
   0   8  -5    0.05    0.05 
   0   8  -5    0.10    0.06 
  -1   8  -5    3.39    0.19 
  -1   8  -5    3.63    0.19 
  -1   8  -5    3.56    0.21 
  -2   8  -5    1.07    0.10 
  -2   8  -5    0.99    0.09 
  -3   8  -5    0.05    0.05 
  -3   8  -5    0.00    0.07 
  -3   8  -5   -0.01    0.05 
  -4   8  -5    0.04    0.05 
  -4   8  -5   -0.01    0.07 
  -4   8  -5    0.06    0.05 
  -5   8  -5    0.92    0.08 
  -5   8  -5    0.88    0.10 
  -6   8  -5    2.85    0.19 
  -6   8  -5    2.90    0.15 
  -7   8  -5    0.10    0.04 
  -7   8  -5    0.16    0.06 
  -8   8  -5    0.14    0.04 
  -8   8  -5    0.16    0.03 
  -8   8  -5    0.14    0.05 
   7   7  -5    0.70    0.06 
  -7  -7   5    0.84    0.08 
   6   7  -5    0.01    0.04 
  -6  -7   5    0.03    0.04 
   5   7  -5    0.08    0.04 
  -5  -7   5    0.11    0.04 
  -5  -7   5    0.07    0.10 
   4   7  -5    5.86    0.28 
  -4  -7   5    5.73    0.37 
   3   7  -5    0.39    0.07 
   3   7  -5    0.44    0.08 
   2   7  -5    0.76    0.09 
   2   7  -5    0.72    0.09 
   1   7  -5    6.11    0.31 
   1   7  -5    5.55    0.28 
   0   7  -5    1.95    0.13 
   0   7  -5    1.61    0.11 
  -1   7  -5    0.45    0.07 
  -1   7  -5    0.27    0.09 
  -1   7  -5    0.34    0.05 
  -2   7  -5    0.34    0.05 
  -2   7  -5    0.33    0.06 
  -2   7  -5    0.39    0.10 
  -2   7  -5    0.31    0.06 
  -3   7  -5    1.23    0.13 
  -3   7  -5    1.24    0.11 
  -3   7  -5    0.96    0.09 
  -4   7  -5    1.86    0.15 
  -4   7  -5    1.48    0.12 
  -4   7  -5    1.47    0.12 
  -4   7  -5    1.64    0.11 
  -5   7  -5    2.74    0.19 
  -5   7  -5    2.39    0.16 
  -5   7  -5    2.58    0.15 
  -6   7  -5   10.13    0.44 
  -6   7  -5   10.23    0.51 
  -7   7  -5    1.03    0.10 
  -7   7  -5    0.88    0.08 
  -7   7  -5    0.96    0.08 
  -8   7  -5    0.68    0.06 
  -8   7  -5    0.48    0.05 
  -8   7  -5    0.55    0.07 
  -9   7  -5    0.17    0.04 
  -9   7  -5    0.22    0.03 
   8   6  -5    0.32    0.04 
   7   6  -5    0.08    0.04 
  -7  -6   5    0.09    0.04 
   6   6  -5    0.12    0.05 
  -6  -6   5    0.04    0.04 
   5   6  -5    0.10    0.05 
  -5  -6   5    0.11    0.05 
   4   6  -5   17.44    0.80 
   4   6  -5   17.13    0.73 
   3   6  -5   -0.12    0.05 
   3   6  -5    0.06    0.05 
   2   6  -5    2.05    0.14 
   1   6  -5    0.03    0.04 
   0   6  -5    0.36    0.05 
   0   6  -5    0.45    0.06 
  -1   6  -5    0.65    0.11 
  -1   6  -5    0.76    0.08 
  -1   6  -5    0.70    0.07 
  -2   6  -5    5.90    0.36 
  -2   6  -5    6.09    0.30 
  -2   6  -5    5.89    0.28 
  -3   6  -5    4.53    0.24 
  -3   6  -5    4.47    0.22 
  -3   6  -5    5.00    0.31 
  -4   6  -5    1.96    0.13 
  -4   6  -5    1.83    0.11 
  -4   6  -5    1.53    0.15 
  -4   6  -5    1.84    0.18 
  -5   6  -5    7.86    0.40 
  -5   6  -5    7.52    0.34 
  -5   6  -5    7.32    0.37 
  -6   6  -5   -0.02    0.04 
  -6   6  -5   -0.04    0.06 
  -6   6  -5    0.02    0.04 
  -7   6  -5    2.41    0.17 
  -7   6  -5    2.56    0.15 
  -7   6  -5    2.76    0.16 
  -8   6  -5    0.37    0.05 
  -8   6  -5    0.34    0.07 
  -8   6  -5    0.43    0.06 
  -9   6  -5    0.12    0.04 
  -9   6  -5    0.20    0.04 
  -9   6  -5    0.17    0.05 
   8   5  -5    0.74    0.07 
   7   5  -5    0.09    0.04 
  -7  -5   5    0.11    0.04 
   6   5  -5    0.02    0.05 
  -6  -5   5    0.08    0.05 
   5   5  -5    6.48    0.31 
   5   5  -5    6.97    0.34 
  -5  -5   5    6.25    0.43 
   4   5  -5   25.82    1.10 
   4   5  -5   27.62    1.21 
  -4  -5   5   27.04    1.46 
   3   5  -5    7.39    0.35 
  -3  -5   5    6.63    0.38 
   2   5  -5    3.64    0.20 
  -2  -5   5    3.31    0.22 
   1   5  -5    6.33    0.32 
  -1  -5   5    6.62    0.34 
   0   5  -5    5.01    0.24 
   0   5  -5    4.38    0.44 
  -1   5  -5    0.06    0.08 
  -1   5  -5    0.08    0.03 
  -1   5  -5    0.05    0.03 
  -2   5  -5    1.20    0.09 
  -2   5  -5    1.28    0.08 
  -3   5  -5    6.70    0.32 
  -3   5  -5    6.43    0.30 
  -4   5  -5    3.09    0.17 
  -4   5  -5    2.75    0.15 
  -4   5  -5    2.90    0.22 
  -5   5  -5    1.58    0.14 
  -5   5  -5    1.82    0.17 
  -5   5  -5    1.57    0.11 
  -5   5  -5    1.77    0.12 
  -5   5  -5    1.53    0.12 
  -6   5  -5    0.08    0.04 
  -6   5  -5    0.12    0.05 
  -6   5  -5    0.08    0.06 
  -6   5  -5    0.06    0.05 
  -7   5  -5    2.38    0.15 
  -7   5  -5    2.20    0.14 
  -7   5  -5    2.17    0.16 
  -8   5  -5    0.59    0.07 
  -8   5  -5    0.65    0.09 
  -8   5  -5    0.65    0.07 
  -9   5  -5    0.37    0.05 
  -9   5  -5    0.48    0.06 
  -9   5  -5    0.44    0.06 
   9   4  -5    0.22    0.04 
   8   4  -5    0.05    0.04 
  -8  -4   5   -0.01    0.03 
   7   4  -5    2.65    0.15 
  -7  -4   5    2.54    0.14 
   6   4  -5    2.37    0.16 
   6   4  -5    2.44    0.15 
  -6  -4   5    2.43    0.23 
   5   4  -5    1.55    0.11 
   5   4  -5    1.47    0.12 
  -5  -4   5    1.37    0.16 
   4   4  -5    2.24    0.14 
  -4  -4   5    2.18    0.19 
  -4  -4   5    2.06    0.17 
   3   4  -5   13.35    0.62 
  -3  -4   5   13.63    0.66 
  -3  -4   5   13.30    0.75 
   2   4  -5    4.39    0.23 
  -2  -4   5    4.59    0.25 
  -2  -4   5    4.35    0.28 
   1   4  -5    4.53    0.22 
   1   4  -5    4.31    0.41 
   0   4  -5    0.73    0.14 
   0   4  -5    0.98    0.07 
  -1   4  -5   -0.02    0.02 
  -1   4  -5    0.00    0.06 
  -2   4  -5    6.98    0.30 
  -2   4  -5    7.14    0.33 
  -2   4  -5    6.47    0.61 
  -3   4  -5   13.77    0.59 
  -3   4  -5   13.71    0.63 
  -4   4  -5    6.05    0.31 
  -4   4  -5    6.49    0.29 
  -5   4  -5    1.43    0.11 
  -5   4  -5    1.43    0.15 
  -5   4  -5    1.25    0.09 
  -6   4  -5    2.99    0.16 
  -6   4  -5    2.63    0.19 
  -6   4  -5    2.76    0.16 
  -6   4  -5    3.08    0.17 
  -7   4  -5    3.82    0.21 
  -7   4  -5    3.96    0.23 
  -7   4  -5    3.94    0.19 
  -7   4  -5    3.50    0.21 
  -8   4  -5    0.50    0.07 
  -8   4  -5    0.41    0.06 
  -8   4  -5    0.45    0.08 
  -9   4  -5    0.09    0.04 
  -9   4  -5    0.02    0.04 
   9   3  -5    0.78    0.07 
   8   3  -5    0.05    0.05 
  -8  -3   5    0.06    0.04 
  -6  -3   5    4.53    0.33 
  -5  -3   5    4.24    0.27 
  -5  -3   5    4.52    0.31 
   4   3  -5    2.22    0.13 
  -4  -3   5    1.92    0.18 
  -4  -3   5    1.78    0.15 
   3   3  -5   -0.03    0.03 
  -3  -3   5    0.29    0.07 
   2   3  -5    0.35    0.09 
   2   3  -5    0.53    0.05 
  -2  -3   5    0.40    0.07 
   1   3  -5    0.37    0.09 
   1   3  -5    0.51    0.05 
  -1  -3   5    0.64    0.07 
   0   3  -5    3.41    0.34 
   0   3  -5    3.79    0.18 
  -1   3  -5    8.00    0.37 
  -1   3  -5    7.91    0.68 
  -2   3  -5   39.09    3.13 
  -2   3  -5   40.66    1.75 
  -3   3  -5    1.56    0.21 
  -3   3  -5    1.84    0.10 
  -3   3  -5    1.83    0.11 
  -4   3  -5    0.40    0.05 
  -4   3  -5    0.34    0.04 
  -5   3  -5    0.91    0.08 
  -5   3  -5    1.20    0.09 
  -6   3  -5    0.91    0.09 
  -6   3  -5    0.64    0.07 
  -7   3  -5    3.07    0.18 
  -7   3  -5    3.30    0.17 
  -8   3  -5    0.06    0.05 
  -8   3  -5    0.01    0.05 
  -9   3  -5   -0.01    0.04 
  -9   3  -5   -0.04    0.04 
   9   2  -5    0.03    0.05 
   7   2  -5    4.67    0.27 
  -7  -2   5    5.47    0.37 
   6   2  -5    6.56    0.35 
  -6  -2   5    7.60    0.46 
  -5  -2   5    8.62    0.51 
  -5  -2   5    7.78    0.44 
  -4  -2   5    2.77    0.22 
   3   2  -5    8.11    0.70 
  -3  -2   5    8.67    0.48 
   2   2  -5   16.96    1.37 
  -2  -2   5   17.19    0.92 
   1   2  -5    7.68    0.65 
  -1  -2   5    7.62    0.43 
   0   2  -5   38.45    3.01 
  -1   2  -5    1.76    0.20 
  -2   2  -5    3.18    0.31 
  -2   2  -5    3.30    0.17 
  -3   2  -5    1.04    0.15 
  -3   2  -5    1.18    0.08 
  -4   2  -5    0.01    0.02 
  -4   2  -5    0.00    0.03 
  -5   2  -5    1.07    0.08 
  -5   2  -5    0.91    0.07 
  -6   2  -5    0.26    0.05 
  -6   2  -5    0.17    0.04 
  -7   2  -5    1.80    0.12 
  -7   2  -5    1.70    0.13 
  -8   2  -5    1.78    0.11 
  -8   2  -5    1.57    0.13 
  -9   2  -5    0.47    0.06 
 -10   2  -5    0.00    0.03 
  10   1  -5    0.45    0.05 
 -10  -1   5    0.30    0.06 
  -9  -1   5   -0.02    0.05 
  -9  -1   5    0.00    0.03 
   8   1  -5    0.60    0.08 
  -8  -1   5    0.59    0.09 
   7   1  -5    1.60    0.13 
  -7  -1   5    1.76    0.16 
  -7  -1   5    1.59    0.18 
  -6  -1   5    4.45    0.29 
  -6  -1   5    4.55    0.29 
  -6  -1   5    5.26    0.34 
  -5  -1   5    0.24    0.06 
  -5  -1   5    0.30    0.08 
   4   1  -5    5.28    0.48 
  -4  -1   5    5.85    0.35 
   3   1  -5   12.16    1.00 
  -3  -1   5   12.43    0.68 
   2   1  -5   95.31    7.18 
  -2  -1   5   90.37    4.84 
   1   1  -5    0.48    0.10 
   1   1  -5    0.52    0.05 
   0   1  -5    8.83    0.75 
   0   1  -5    9.23    0.44 
  -1   1  -5   21.32    1.03 
  -1   1  -5   23.00    1.76 
  -2   1  -5    4.70    0.42 
  -3   1  -5    0.63    0.12 
  -6   1  -5    5.78    0.27 
  -6   1  -5    5.93    0.29 
  -7   1  -5    0.20    0.06 
  -8   1  -5    0.02    0.05 
  -9   1  -5    0.06    0.05 
  10   0  -5    1.38    0.09 
  10   0  -5    1.25    0.10 
 -10   0   5    1.19    0.11 
   9   0  -5    1.35    0.11 
  -9   0   5    1.30    0.12 
   8   0  -5    0.05    0.05 
  -8   0   5    0.06    0.07 
   7   0  -5   -0.02    0.05 
  -7   0   5    0.03    0.08 
  -7   0   5    0.05    0.07 
  -6   0   5    0.00    0.07 
  -6   0   5    0.16    0.08 
   5   0  -5    0.87    0.15 
  -5   0   5    0.94    0.12 
   4   0  -5    0.39    0.10 
  -4   0   5    0.24    0.06 
   3   0  -5    4.19    0.39 
  -3   0   5    4.39    0.27 
   2   0  -5  136.90    6.19 
   2   0  -5  130.58   10.32 
   1   0  -5    0.07    0.05 
   1   0  -5    0.10    0.03 
   0   0  -5   19.13    0.89 
   0   0  -5   18.78    1.51 
  -1   0  -5    4.30    0.39 
  -1   0  -5    4.25    0.21 
  -2   0  -5   11.75    0.96 
  -6   0  -5    2.36    0.15 
  -7   0  -5    0.14    0.06 
  -8   0  -5    2.40    0.15 
  -9   0  -5    0.76    0.08 
  10  -1  -5    0.04    0.04 
 -10   1   5    0.01    0.05 
   9  -1  -5    0.10    0.05 
  -9   1   5    0.10    0.07 
   8  -1  -5    2.23    0.16 
  -8   1   5    2.57    0.20 
   7  -1  -5    0.58    0.08 
  -7   1   5    0.47    0.11 
  -7   1   5    0.59    0.10 
  -6   1   5    0.18    0.08 
  -6   1   5    0.10    0.08 
   5  -1  -5    4.66    0.43 
  -5   1   5    4.58    0.30 
   4  -1  -5    4.54    0.43 
  -4   1   5    4.78    0.29 
   3  -1  -5   40.74    3.19 
   2  -1  -5    4.10    0.35 
   2  -1  -5    3.50    0.20 
   1  -1  -5    2.28    0.23 
   1  -1  -5    2.27    0.13 
   0  -1  -5   15.82    0.74 
   0  -1  -5   15.55    1.26 
  -1  -1  -5    2.04    0.21 
  -1  -1  -5    2.06    0.11 
  -2  -1  -5    5.90    0.53 
  -2  -1  -5    6.57    0.30 
  -4  -1  -5    3.26    0.23 
  -5  -1  -5   10.76    0.62 
  -6  -1  -5    8.92    0.43 
  -6  -1  -5    9.52    0.49 
  -7  -1  -5    0.10    0.07 
  -7  -1  -5    0.06    0.05 
  -8  -1  -5    0.21    0.06 
  -8  -1  -5    0.27    0.07 
  -9  -1  -5    1.41    0.10 
  -9  -1  -5    1.14    0.10 
  10  -2  -5    0.43    0.06 
 -10   2   5    0.47    0.07 
   9  -2  -5    2.65    0.16 
  -9   2   5    2.31    0.19 
   8  -2  -5    0.03    0.05 
  -8   2   5   -0.04    0.06 
   7  -2  -5    4.10    0.24 
  -7   2   5    4.20    0.27 
  -6   2   5    0.13    0.07 
  -6   2   5   -0.02    0.07 
   5  -2  -5   11.65    0.96 
  -5   2   5   10.90    0.64 
   4  -2  -5    5.86    0.53 
  -4   2   5    5.76    0.35 
   3  -2  -5    0.13    0.07 
   2  -2  -5    3.50    0.19 
   2  -2  -5    3.56    0.33 
   1  -2  -5    5.25    0.45 
   1  -2  -5    5.03    0.26 
   0  -2  -5    3.93    0.37 
   0  -2  -5    4.34    0.22 
  -2  -2  -5    1.89    0.11 
   2   2   5    1.77    0.16 
  -3  -2  -5    3.19    0.24 
  -3  -2  -5    3.42    0.18 
  -4  -2  -5   13.04    0.74 
  -4  -2  -5   12.94    0.62 
  -5  -2  -5    5.15    0.34 
  -5  -2  -5    4.96    0.31 
  -5  -2  -5    4.96    0.26 
  -6  -2  -5    0.14    0.06 
  -6  -2  -5    0.09    0.08 
  -6  -2  -5    0.09    0.06 
  -6  -2  -5    0.03    0.04 
  -7  -2  -5    0.82    0.10 
  -7  -2  -5    0.64    0.08 
  -8  -2  -5   -0.01    0.05 
  -8  -2  -5    0.03    0.05 
  -9  -2  -5    0.22    0.05 
  -9  -2  -5    0.12    0.04 
  10  -3  -5    0.36    0.05 
 -10   3   5    0.43    0.07 
   9  -3  -5    0.23    0.06 
  -9   3   5    0.20    0.07 
   8  -3  -5    3.02    0.18 
  -8   3   5    2.54    0.21 
   7  -3  -5    9.57    0.47 
  -7   3   5    9.21    0.50 
   6  -3  -5   36.11    1.68 
  -6   3   5   37.35    1.72 
   5  -3  -5   43.69    3.35 
   5  -3  -5   41.01    2.14 
   4  -3  -5   14.63    1.18 
  -4   3   5   13.77    0.78 
   3  -3  -5   21.09    1.70 
   2  -3  -5    0.05    0.03 
   2  -3  -5    0.08    0.07 
   1  -3  -5    2.07    0.13 
   1  -3  -5    1.90    0.21 
   0  -3  -5    7.52    0.37 
   0  -3  -5    7.23    0.62 
  -1  -3  -5    2.23    0.13 
   1   3   5    2.07    0.18 
  -2  -3  -5    0.45    0.05 
  -3  -3  -5    0.02    0.05 
  -3  -3  -5    0.03    0.03 
  -4  -3  -5   10.45    0.60 
  -4  -3  -5    9.83    0.50 
  -5  -3  -5   35.00    1.66 
  -5  -3  -5   36.49    1.66 
  -5  -3  -5   33.87    1.53 
  -5  -3  -5   35.67    1.53 
  -6  -3  -5    0.64    0.08 
  -6  -3  -5    0.51    0.07 
  -6  -3  -5    0.62    0.11 
  -7  -3  -5    0.33    0.07 
  -7  -3  -5    0.43    0.07 
  -8  -3  -5    0.11    0.05 
  -8  -3  -5    0.12    0.05 
  10  -4  -5    0.86    0.07 
 -10   4   5    0.84    0.08 
   9  -4  -5    0.44    0.07 
  -9   4   5    0.36    0.07 
   8  -4  -5    0.02    0.06 
  -8   4   5    0.03    0.06 
   7  -4  -5    1.63    0.14 
  -7   4   5    1.47    0.15 
   6  -4  -5   23.40    1.23 
   6  -4  -5   24.33    1.10 
  -6   4   5   23.25    1.13 
   5  -4  -5   10.56    0.60 
  -5   4   5   11.01    0.55 
   4  -4  -5    2.16    0.18 
   4  -4  -5    2.58    0.29 
   3  -4  -5    2.12    0.26 
   2  -4  -5    0.23    0.05 
   2  -4  -5    0.25    0.10 
   1  -4  -5    1.11    0.16 
   1  -4  -5    1.24    0.10 
   0  -4  -5    3.93    0.22 
  -1  -4  -5    0.05    0.03 
  -2  -4  -5    1.37    0.10 
  -3  -4  -5    7.95    0.40 
  -3  -4  -5    8.02    0.49 
  -4  -4  -5   12.16    0.62 
  -4  -4  -5   12.86    0.63 
  -4  -4  -5   12.49    0.59 
  -4  -4  -5   13.01    0.73 
  -5  -4  -5    9.05    0.44 
  -5  -4  -5    8.42    0.45 
  -5  -4  -5    9.02    0.47 
  -5  -4  -5    9.30    0.55 
  -5  -4  -5    9.06    0.43 
  -6  -4  -5    2.07    0.16 
  -6  -4  -5    2.26    0.18 
  -6  -4  -5    2.44    0.16 
  -7  -4  -5    0.10    0.05 
  -7  -4  -5    0.04    0.05 
  -8  -4  -5    0.03    0.04 
  -8  -4  -5    0.28    0.06 
   9  -5  -5    0.24    0.05 
  -9   5   5    0.19    0.06 
   8  -5  -5    0.03    0.05 
  -8   5   5    0.00    0.05 
   7  -5  -5    0.25    0.08 
   7  -5  -5    0.30    0.07 
  -7   5   5    0.40    0.08 
   6  -5  -5    0.29    0.09 
  -6   5   5    0.45    0.09 
   5  -5  -5   13.20    0.71 
  -5   5   5   12.70    0.65 
   4  -5  -5   10.65    0.57 
  -4   5   5    9.62    0.52 
   3  -5  -5    0.70    0.17 
   3  -5  -5    0.65    0.11 
   2  -5  -5    0.12    0.07 
   2  -5  -5    0.01    0.09 
   1  -5  -5    3.33    0.20 
   0  -5  -5    1.23    0.10 
  -1  -5  -5    4.83    0.26 
  -2  -5  -5    0.19    0.05 
  -2  -5  -5    0.10    0.05 
  -3  -5  -5    0.08    0.04 
  -3  -5  -5    0.04    0.05 
  -3  -5  -5    0.02    0.07 
  -3  -5  -5    0.03    0.06 
  -4  -5  -5    3.05    0.21 
  -4  -5  -5    3.36    0.21 
  -4  -5  -5    2.94    0.21 
  -4  -5  -5    3.02    0.19 
  -4  -5  -5    2.82    0.18 
  -5  -5  -5   -0.03    0.05 
  -5  -5  -5    0.06    0.05 
  -5  -5  -5    0.05    0.06 
  -6  -5  -5    0.02    0.05 
  -6  -5  -5   -0.04    0.04 
  -6  -5  -5    0.00    0.05 
  -7  -5  -5    0.03    0.05 
  -7  -5  -5    0.06    0.04 
  -7  -5  -5    0.03    0.04 
   9  -6  -5    0.74    0.07 
  -9   6   5    0.63    0.07 
   8  -6  -5    0.16    0.05 
  -8   6   5    0.11    0.06 
   7  -6  -5    2.90    0.21 
  -7   6   5    2.72    0.19 
   6  -6  -5    0.89    0.13 
  -6   6   5    0.76    0.10 
   5  -6  -5    0.55    0.11 
  -5   6   5    0.81    0.10 
   4  -6  -5    0.10    0.08 
   4  -6  -5    0.07    0.09 
  -4   6   5   -0.02    0.07 
   3  -6  -5    6.37    0.43 
   3  -6  -5    6.53    0.39 
   2  -6  -5    0.26    0.08 
   2  -6  -5    0.26    0.10 
  -2   6   5    0.17    0.07 
   1  -6  -5    0.13    0.09 
   1  -6  -5   -0.03    0.06 
  -1   6   5   -0.02    0.06 
   0  -6  -5    0.33    0.10 
   0  -6  -5    0.27    0.06 
  -1  -6  -5    4.63    0.28 
  -1  -6  -5    4.56    0.33 
  -1  -6  -5    4.68    0.26 
  -1  -6  -5    4.39    0.26 
  -1  -6  -5    4.69    0.26 
  -2  -6  -5    3.54    0.21 
  -2  -6  -5    3.20    0.20 
  -2  -6  -5    3.21    0.22 
  -2  -6  -5    2.84    0.19 
  -3  -6  -5    3.03    0.19 
  -3  -6  -5    3.07    0.21 
  -3  -6  -5    3.21    0.21 
  -3  -6  -5    3.31    0.21 
  -4  -6  -5    0.31    0.07 
  -4  -6  -5    0.36    0.08 
  -4  -6  -5    0.32    0.07 
  -4  -6  -5    0.28    0.08 
  -5  -6  -5    0.00    0.05 
  -5  -6  -5    0.12    0.06 
  -5  -6  -5   -0.05    0.05 
  -5  -6  -5   -0.05    0.05 
  -6  -6  -5    0.16    0.05 
  -6  -6  -5    0.20    0.05 
  -6  -6  -5    0.16    0.06 
  -7  -6  -5    0.11    0.04 
  -7  -6  -5    0.07    0.03 
   8  -7  -5    0.06    0.05 
   7  -7  -5   -0.02    0.06 
  -7   7   5    0.08    0.06 
   6  -7  -5    1.94    0.17 
  -6   7   5    1.91    0.15 
   5  -7  -5    0.83    0.12 
  -5   7   5    0.63    0.09 
  -5   7   5    0.61    0.09 
   4  -7  -5    1.76    0.17 
  -4   7   5    1.41    0.13 
  -4   7   5    1.31    0.12 
   3  -7  -5    0.56    0.11 
   3  -7  -5    0.53    0.12 
  -3   7   5    0.35    0.08 
   2  -7  -5    0.22    0.09 
   2  -7  -5    0.16    0.08 
  -2   7   5    0.11    0.06 
   1  -7  -5    1.15    0.16 
   1  -7  -5    1.06    0.11 
  -1   7   5    0.97    0.11 
   0  -7  -5    0.29    0.11 
   0  -7  -5    0.24    0.08 
   0   7   5    0.32    0.08 
  -1  -7  -5    7.24    0.45 
  -1  -7  -5    6.53    0.34 
  -1  -7  -5    6.73    0.37 
  -2  -7  -5    0.05    0.05 
  -2  -7  -5   -0.03    0.05 
  -2  -7  -5   -0.03    0.06 
  -3  -7  -5    1.15    0.11 
  -3  -7  -5    1.12    0.11 
  -3  -7  -5    0.96    0.11 
  -4  -7  -5    0.54    0.07 
  -4  -7  -5    0.46    0.08 
  -4  -7  -5    0.54    0.08 
  -5  -7  -5   -0.05    0.04 
  -5  -7  -5    0.07    0.04 
  -5  -7  -5    0.01    0.05 
  -6  -7  -5    0.01    0.03 
  -6  -7  -5    0.01    0.04 
   7  -8  -5    1.46    0.13 
  -6   8   5    2.12    0.15 
   5  -8  -5    0.17    0.08 
   5  -8  -5    0.33    0.09 
  -5   8   5    0.15    0.06 
   4  -8  -5    0.43    0.10 
   4  -8  -5    0.48    0.10 
  -4   8   5    0.28    0.07 
   3  -8  -5    0.50    0.11 
   3  -8  -5    0.60    0.10 
  -3   8   5    0.34    0.07 
  -3   8   5    0.46    0.09 
   2  -8  -5    0.36    0.11 
   2  -8  -5    0.36    0.09 
  -2   8   5    0.22    0.07 
   1  -8  -5    0.18    0.10 
   1  -8  -5    0.03    0.06 
  -1   8   5    0.08    0.06 
   0  -8  -5    0.16    0.09 
   0  -8  -5    0.14    0.06 
   0   8   5    0.04    0.07 
  -1  -8  -5    0.31    0.06 
  -1  -8  -5    0.40    0.08 
  -1  -8  -5    0.48    0.11 
   1   8   5    0.30    0.08 
  -2  -8  -5    0.04    0.05 
  -2  -8  -5    0.05    0.05 
   2   8   5    0.06    0.07 
  -3  -8  -5    0.53    0.07 
  -3  -8  -5    0.48    0.08 
  -4  -8  -5    0.01    0.05 
  -4  -8  -5   -0.01    0.04 
  -5  -8  -5    0.23    0.05 
  -5  -8  -5    0.15    0.04 
   6  -9  -5    0.30    0.07 
  -6   9   5    0.25    0.05 
   5  -9  -5    0.79    0.10 
   5  -9  -5    0.70    0.10 
  -5   9   5    0.55    0.07 
   4  -9  -5    0.02    0.07 
   4  -9  -5    0.09    0.07 
  -4   9   5    0.09    0.05 
   3  -9  -5    1.58    0.14 
   3  -9  -5    1.86    0.18 
  -3   9   5    1.39    0.13 
   2  -9  -5   -0.02    0.08 
  -2   9   5    0.03    0.06 
   1  -9  -5   -0.05    0.08 
  -1   9   5   -0.06    0.06 
   0  -9  -5    0.32    0.10 
   0  -9  -5    0.37    0.07 
   0   9   5    0.28    0.08 
  -1  -9  -5    0.30    0.07 
   1   9   5    0.29    0.08 
  -2  -9  -5    0.08    0.05 
  -2  -9  -5    0.03    0.05 
   2   9   5    0.01    0.06 
  -3  -9  -5    0.23    0.05 
  -3  -9  -5    0.12    0.04 
   3   9   5    0.18    0.06 
   4 -10  -5    0.09    0.05 
   4 -10  -5   -0.04    0.05 
  -4  10   5   -0.01    0.04 
   3 -10  -5    3.58    0.24 
  -3  10   5    3.19    0.20 
   2 -10  -5    0.02    0.06 
  -2  10   5   -0.03    0.04 
   1 -10  -5    0.05    0.07 
  -1  10   5   -0.03    0.04 
   0 -10  -5    0.02    0.04 
   0 -10  -5   -0.02    0.06 
   0  10   5   -0.07    0.05 
  -1 -10  -5    0.00    0.04 
   1  10   5    0.02    0.05 
   1 -11   6    0.26    0.09 
   2 -11   6    0.17    0.09 
   3 -11   6    0.23    0.09 
  -3 -10   6    0.17    0.05 
  -2 -10   6   -0.01    0.06 
   1  10  -6    0.38    0.05 
  -1 -10   6    0.40    0.08 
   0  10  -6    0.21    0.04 
   0 -10   6    0.23    0.12 
   0 -10   6    0.42    0.09 
  -1  10  -6    0.00    0.04 
   1 -10   6    0.12    0.11 
  -2  10  -6    0.06    0.04 
   2 -10   6    0.04    0.11 
  -3  10  -6    0.13    0.04 
   3 -10   6   -0.03    0.10 
   4 -10   6    0.14    0.10 
  -5  10  -6    0.32    0.05 
  -5  10  -6    0.28    0.04 
   5 -10   6    0.14    0.10 
   4   9  -6    0.11    0.03 
  -4  -9   6    0.08    0.06 
   3   9  -6    0.03    0.04 
  -3  -9   6    0.09    0.07 
   2   9  -6    0.21    0.05 
  -2  -9   6    0.30    0.09 
   1   9  -6    0.05    0.04 
   0   9  -6    0.47    0.06 
   0  -9   6    0.48    0.10 
  -1   9  -6    3.67    0.18 
   1  -9   6    3.08    0.24 
  -2   9  -6    0.23    0.05 
  -3   9  -6    0.44    0.06 
  -3   9  -6    0.46    0.08 
  -4   9  -6    0.01    0.04 
  -4   9  -6   -0.12    0.05 
  -5   9  -6    0.46    0.05 
  -5   9  -6    0.35    0.07 
  -6   9  -6    0.01    0.04 
  -6   9  -6    0.10    0.03 
  -7   9  -6    0.44    0.04 
  -7   9  -6    0.37    0.05 
   5   8  -6    0.68    0.06 
  -5  -8   6    0.66    0.06 
  -5  -8   6    0.71    0.09 
   4   8  -6    0.00    0.04 
  -4  -8   6    0.08    0.08 
   3   8  -6   -0.01    0.04 
  -3  -8   6    0.09    0.09 
   2   8  -6    0.70    0.08 
  -2  -8   6    0.45    0.11 
   1   8  -6    0.96    0.09 
   0   8  -6    4.02    0.23 
   0   8  -6    4.05    0.21 
  -1   8  -6    0.47    0.08 
  -1   8  -6    0.66    0.08 
  -2   8  -6    0.33    0.09 
  -2   8  -6    0.35    0.07 
  -2   8  -6    0.36    0.06 
  -3   8  -6    0.53    0.09 
  -3   8  -6    0.69    0.07 
  -4   8  -6    0.11    0.07 
  -4   8  -6    0.07    0.05 
  -5   8  -6    0.21    0.07 
  -5   8  -6    0.08    0.04 
  -6   8  -6    0.04    0.04 
  -6   8  -6    0.15    0.06 
  -7   8  -6    0.27    0.05 
  -7   8  -6    0.32    0.04 
  -8   8  -6    0.03    0.02 
  -8   8  -6    0.05    0.03 
   6   7  -6    0.66    0.06 
  -6  -7   6    0.60    0.06 
   5   7  -6    0.25    0.05 
  -5  -7   6    0.21    0.10 
  -5  -7   6    0.22    0.05 
   4   7  -6    0.05    0.04 
  -4  -7   6   -0.01    0.09 
   3   7  -6    0.19    0.05 
   2   7  -6   -0.08    0.05 
   2   7  -6    0.03    0.05 
   1   7  -6    0.08    0.06 
   1   7  -6    0.20    0.06 
   0   7  -6    0.24    0.06 
   0   7  -6    0.38    0.07 
  -1   7  -6    5.59    0.28 
  -1   7  -6    5.42    0.32 
  -1   7  -6    6.06    0.30 
  -1   7  -6    5.92    0.36 
  -2   7  -6    0.97    0.10 
  -2   7  -6    0.79    0.08 
  -2   7  -6    0.76    0.11 
  -2   7  -6    1.15    0.14 
  -3   7  -6    0.01    0.05 
  -3   7  -6   -0.08    0.06 
  -3   7  -6   -0.06    0.07 
  -3   7  -6   -0.04    0.04 
  -4   7  -6    0.72    0.10 
  -4   7  -6    0.94    0.09 
  -4   7  -6    0.90    0.09 
  -5   7  -6   -0.05    0.06 
  -5   7  -6    0.09    0.05 
  -6   7  -6    0.62    0.09 
  -6   7  -6    0.53    0.07 
  -7   7  -6    0.91    0.09 
  -7   7  -6    0.86    0.07 
  -8   7  -6    0.55    0.05 
  -8   7  -6    0.45    0.06 
   7   6  -6    0.20    0.04 
  -7  -6   6    0.17    0.04 
   6   6  -6   -0.02    0.04 
  -6  -6   6    0.02    0.04 
   5   6  -6    0.10    0.05 
   4   6  -6    4.03    0.21 
   4   6  -6    4.09    0.23 
   3   6  -6   12.31    0.58 
   3   6  -6   12.01    0.53 
   2   6  -6    3.89    0.22 
   2   6  -6    3.77    0.21 
   1   6  -6    4.87    0.26 
   1   6  -6    4.50    0.24 
   0   6  -6    3.34    0.20 
   0   6  -6    3.46    0.24 
  -1   6  -6    1.56    0.17 
  -1   6  -6    1.67    0.12 
  -2   6  -6    3.98    0.26 
  -2   6  -6    3.31    0.20 
  -3   6  -6    0.55    0.09 
  -3   6  -6    0.57    0.07 
  -3   6  -6    0.58    0.07 
  -3   6  -6    0.53    0.11 
  -4   6  -6    0.44    0.10 
  -4   6  -6    0.43    0.09 
  -4   6  -6    0.36    0.07 
  -4   6  -6    0.46    0.07 
  -5   6  -6    1.53    0.12 
  -5   6  -6    1.81    0.12 
  -5   6  -6    1.51    0.14 
  -6   6  -6    0.46    0.08 
  -6   6  -6    0.61    0.07 
  -7   6  -6    3.81    0.19 
  -7   6  -6    3.75    0.22 
  -8   6  -6    7.71    0.32 
  -8   6  -6    7.28    0.37 
  -9   6  -6    0.03    0.03 
  -9   6  -6    0.05    0.03 
   8   5  -6    0.93    0.07 
   7   5  -6    0.36    0.06 
  -7  -5   6    0.42    0.05 
   6   5  -6    0.06    0.05 
  -6  -5   6    0.06    0.05 
   5   5  -6    0.05    0.05 
   4   5  -6    5.33    0.29 
   4   5  -6    5.59    0.27 
   3   5  -6   16.97    0.71 
   3   5  -6   17.99    0.78 
  -3  -5   6   15.45    0.82 
   2   5  -6    4.01    0.21 
  -2  -5   6    3.61    0.23 
   1   5  -6    0.03    0.04 
   0   5  -6    0.09    0.09 
   0   5  -6    0.13    0.04 
   0   5  -6    0.10    0.07 
  -1   5  -6    1.19    0.14 
  -1   5  -6    1.14    0.10 
  -1   5  -6    0.84    0.17 
  -2   5  -6    0.86    0.12 
  -2   5  -6    0.67    0.16 
  -2   5  -6    1.03    0.09 
  -3   5  -6    0.98    0.09 
  -3   5  -6    1.07    0.14 
  -4   5  -6    2.92    0.21 
  -4   5  -6    2.37    0.19 
  -4   5  -6    2.49    0.15 
  -4   5  -6    2.95    0.17 
  -5   5  -6    0.72    0.10 
  -5   5  -6    0.55    0.11 
  -5   5  -6    0.64    0.08 
  -5   5  -6    0.64    0.08 
  -6   5  -6    0.03    0.05 
  -6   5  -6    0.03    0.06 
  -6   5  -6    0.01    0.04 
  -7   5  -6   11.98    0.59 
  -7   5  -6   12.36    0.51 
  -8   5  -6    2.13    0.12 
  -8   5  -6    1.96    0.14 
  -9   5  -6    2.64    0.13 
   8   4  -6    0.81    0.07 
  -8  -4   6    0.82    0.06 
   7   4  -6    1.53    0.11 
  -7  -4   6    1.35    0.10 
   6   4  -6    0.74    0.08 
   5   4  -6    0.31    0.07 
  -5  -4   6    0.32    0.09 
   4   4  -6    0.00    0.06 
   4   4  -6    0.06    0.06 
  -4  -4   6    0.07    0.07 
  -3  -4   6    7.49    0.45 
  -3  -4   6    7.52    0.40 
  -2  -4   6    7.85    0.41 
   1   4  -6   10.37    0.46 
   1   4  -6    9.05    0.82 
   0   4  -6    0.60    0.06 
   0   4  -6    0.46    0.12 
  -1   4  -6    0.31    0.05 
  -1   4  -6    0.13    0.09 
  -2   4  -6    3.29    0.17 
  -2   4  -6    2.78    0.32 
  -3   4  -6    0.06    0.04 
  -3   4  -6    0.04    0.09 
  -3   4  -6    0.03    0.08 
  -4   4  -6    2.62    0.22 
  -4   4  -6    3.29    0.18 
  -5   4  -6    2.04    0.17 
  -5   4  -6    1.78    0.18 
  -5   4  -6    2.49    0.14 
  -5   4  -6    2.06    0.14 
  -6   4  -6    0.00    0.06 
  -6   4  -6    0.04    0.05 
  -6   4  -6    0.04    0.05 
  -7   4  -6    0.15    0.07 
  -7   4  -6    0.06    0.04 
  -8   4  -6    0.04    0.04 
  -9   4  -6    0.25    0.04 
   9   3  -6    0.27    0.05 
   8   3  -6    0.07    0.05 
  -8  -3   6    0.14    0.04 
   7   3  -6    1.01    0.10 
   6   3  -6    0.93    0.09 
   6   3  -6    0.80    0.10 
  -6  -3   6    0.98    0.15 
   5   3  -6    0.15    0.06 
   5   3  -6    0.15    0.06 
  -5  -3   6    0.01    0.07 
  -4  -3   6    1.94    0.18 
  -4  -3   6    1.76    0.15 
  -3  -3   6    5.66    0.36 
   2   3  -6    0.14    0.08 
  -2  -3   6    0.05    0.05 
  -1  -3   6    1.92    0.14 
   0   3  -6    6.62    0.59 
  -1   3  -6    2.18    0.25 
  -2   3  -6    4.90    0.46 
  -3   3  -6    4.63    0.45 
  -4   3  -6    1.04    0.13 
  -4   3  -6    1.04    0.09 
  -5   3  -6    0.52    0.07 
  -6   3  -6    0.98    0.09 
  -6   3  -6    1.12    0.09 
  -7   3  -6    0.90    0.08 
  -8   3  -6    1.77    0.11 
   9   2  -6   -0.01    0.04 
   8   2  -6    2.65    0.17 
   8   2  -6    2.68    0.15 
   7   2  -6   -0.03    0.05 
   7   2  -6   -0.07    0.05 
   6   2  -6    1.51    0.13 
   6   2  -6    1.58    0.12 
  -6  -2   6    1.72    0.19 
  -5  -2   6    6.46    0.42 
  -4  -2   6    0.52    0.10 
   3   2  -6    3.69    0.37 
  -3  -2   6    3.96    0.26 
   2   2  -6    0.20    0.08 
  -2  -2   6    0.22    0.05 
   1   2  -6    2.01    0.23 
  -1  -2   6    2.01    0.15 
   0   2  -6    1.82    0.22 
  -1   2  -6    0.14    0.08 
  -2   2  -6    2.53    0.28 
  -3   2  -6   18.07    1.47 
  -4   2  -6   12.19    1.02 
   9   1  -6    0.09    0.05 
   9   1  -6    0.12    0.05 
  -9  -1   6    0.08    0.03 
  -9  -1   6    0.08    0.05 
   8   1  -6    0.06    0.05 
   8   1  -6    0.02    0.06 
  -8  -1   6   -0.08    0.06 
   7   1  -6    0.12    0.06 
   6   1  -6   -0.02    0.05 
  -6  -1   6   -0.02    0.07 
  -5  -1   6    0.09    0.06 
  -5  -1   6    0.11    0.07 
   4   1  -6    3.07    0.34 
  -4  -1   6    3.92    0.25 
   3   1  -6    4.93    0.46 
  -3  -1   6    5.18    0.32 
   2   1  -6    0.55    0.12 
  -2  -1   6    1.01    0.10 
   1   1  -6    7.99    0.69 
   0   1  -6    2.37    0.26 
   0   1  -6    2.45    0.14 
  -1   1  -6    7.39    0.35 
  -1   1  -6    6.93    0.63 
  -2   1  -6   11.64    0.96 
  -2   1  -6   11.31    0.54 
  -3   1  -6    3.68    0.36 
   9   0  -6   -0.01    0.05 
   9   0  -6    0.00    0.05 
  -9   0   6   -0.02    0.05 
   8   0  -6    0.26    0.06 
  -8   0   6    0.12    0.07 
   7   0  -6    0.93    0.10 
  -7   0   6    0.63    0.10 
  -7   0   6    0.89    0.14 
   6   0  -6    1.22    0.11 
  -6   0   6    1.17    0.15 
  -6   0   6    1.02    0.12 
   5   0  -6    2.73    0.31 
  -5   0   6    3.24    0.24 
   4   0  -6    1.63    0.21 
  -4   0   6    1.79    0.16 
   3   0  -6    4.28    0.42 
  -3   0   6    4.75    0.29 
   2   0  -6    0.65    0.07 
   1   0  -6   10.65    0.92 
   1   0  -6   11.26    0.53 
   0   0  -6    6.45    0.58 
   0   0  -6    6.80    0.33 
  -1   0  -6   15.98    1.31 
  -1   0  -6   16.22    0.76 
  -2   0  -6    0.77    0.05 
  -2   0  -6    0.65    0.13 
  10  -1  -6    1.05    0.08 
   9  -1  -6    1.19    0.10 
  -9   1   6    1.02    0.11 
   8  -1  -6    5.72    0.30 
  -8   1   6    5.31    0.32 
   7  -1  -6    1.51    0.13 
  -7   1   6    1.06    0.15 
  -7   1   6    1.48    0.14 
   6  -1  -6    0.07    0.06 
  -6   1   6    0.09    0.07 
  -6   1   6    0.26    0.09 
   5  -1  -6    0.02    0.08 
  -5   1   6    0.06    0.07 
   4  -1  -6    0.05    0.08 
  -4   1   6    0.04    0.05 
   3  -1  -6    0.67    0.13 
   2  -1  -6    7.52    0.37 
   2  -1  -6    7.14    0.64 
   1  -1  -6    2.06    0.23 
   1  -1  -6    1.99    0.13 
   0  -1  -6   38.92    1.76 
   0  -1  -6   36.53    2.97 
  -1  -1  -6    0.05    0.07 
  -1  -1  -6    0.06    0.02 
  -2  -1  -6    1.69    0.10 
  10  -2  -6    0.86    0.07 
   9  -2  -6    0.10    0.05 
  -9   2   6    0.05    0.06 
   8  -2  -6    1.12    0.11 
  -8   2   6    1.14    0.13 
   7  -2  -6    0.07    0.06 
  -7   2   6   -0.01    0.06 
   6  -2  -6    0.31    0.07 
  -6   2   6    0.33    0.09 
  -6   2   6    0.34    0.10 
   5  -2  -6    0.85    0.12 
  -5   2   6    0.83    0.12 
  -5   2   6    1.08    0.12 
   4  -2  -6    0.15    0.10 
   4  -2  -6    0.06    0.06 
  -4   2   6    0.03    0.06 
   3  -2  -6    0.87    0.16 
   2  -2  -6    0.44    0.06 
   2  -2  -6    0.06    0.08 
   1  -2  -6   41.87    3.40 
   1  -2  -6   44.81    2.03 
   0  -2  -6    5.20    0.49 
   0  -2  -6    5.74    0.28 
  -1  -2  -6    2.57    0.15 
  -2  -2  -6    2.31    0.14 
  -3  -2  -6    0.33    0.04 
  -4  -2  -6    0.27    0.07 
  -4  -2  -6    0.39    0.05 
  -5  -2  -6   16.67    0.82 
  -6  -2  -6    0.24    0.07 
  -7  -2  -6    0.11    0.05 
  -8  -2  -6    0.39    0.07 
   9  -3  -6    0.73    0.08 
  -9   3   6    0.70    0.09 
   8  -3  -6    0.00    0.05 
  -8   3   6   -0.05    0.06 
   7  -3  -6    1.73    0.14 
  -7   3   6    2.00    0.17 
   6  -3  -6    4.73    0.27 
  -6   3   6    4.89    0.31 
   5  -3  -6    0.14    0.08 
   5  -3  -6    0.23    0.07 
  -5   3   6    0.23    0.08 
  -5   3   6    0.15    0.07 
   4  -3  -6    3.65    0.38 
   4  -3  -6    3.47    0.24 
  -4   3   6    3.88    0.26 
   3  -3  -6    2.50    0.28 
   3  -3  -6    2.41    0.18 
   2  -3  -6    8.22    0.72 
   2  -3  -6    8.25    0.42 
   1  -3  -6    0.05    0.08 
   1  -3  -6    0.04    0.03 
   0  -3  -6    0.22    0.05 
  -1  -3  -6    0.40    0.06 
  -2  -3  -6    0.06    0.03 
  -3  -3  -6    1.89    0.16 
  -3  -3  -6    1.94    0.12 
  -4  -3  -6   -0.08    0.05 
  -4  -3  -6    0.03    0.03 
  -4  -3  -6   -0.02    0.06 
  -4  -3  -6   -0.03    0.05 
  -5  -3  -6    8.42    0.42 
  -5  -3  -6    7.96    0.39 
  -5  -3  -6    7.31    0.39 
  -6  -3  -6   10.82    0.55 
  -7  -3  -6    0.40    0.07 
  -8  -3  -6    0.02    0.04 
   9  -4  -6    0.03    0.04 
  -9   4   6    0.04    0.05 
   8  -4  -6    0.01    0.05 
  -8   4   6   -0.01    0.05 
   7  -4  -6    0.01    0.06 
  -7   4   6    0.02    0.07 
   6  -4  -6    2.12    0.16 
   6  -4  -6    2.12    0.18 
  -6   4   6    2.07    0.17 
   5  -4  -6   15.40    0.84 
  -5   4   6   15.68    0.77 
   4  -4  -6   11.66    0.63 
  -4   4   6   11.17    0.58 
   3  -4  -6    2.62    0.20 
   3  -4  -6    2.77    0.31 
   2  -4  -6    1.71    0.16 
   2  -4  -6    1.42    0.12 
   2  -4  -6    1.63    0.22 
   1  -4  -6    2.52    0.19 
   1  -4  -6    2.57    0.16 
   0  -4  -6    1.35    0.11 
  -1  -4  -6    0.26    0.05 
  -2  -4  -6    1.06    0.11 
  -2  -4  -6    1.11    0.09 
  -2  -4  -6    0.98    0.11 
  -3  -4  -6    1.02    0.11 
  -3  -4  -6    0.81    0.10 
  -3  -4  -6    1.58    0.14 
  -3  -4  -6    1.05    0.10 
  -4  -4  -6    0.45    0.08 
  -4  -4  -6    0.56    0.07 
  -4  -4  -6    0.55    0.09 
  -4  -4  -6    0.53    0.09 
  -5  -4  -6    0.05    0.06 
  -5  -4  -6    0.12    0.06 
  -6  -4  -6    0.11    0.05 
  -6  -4  -6    0.09    0.05 
  -7  -4  -6    0.85    0.09 
   9  -5  -6   -0.04    0.03 
  -9   5   6    0.02    0.04 
   8  -5  -6    0.10    0.05 
  -8   5   6    0.03    0.05 
   7  -5  -6    1.10    0.13 
   7  -5  -6    1.25    0.11 
  -7   5   6    1.21    0.12 
   6  -5  -6    0.37    0.09 
  -6   5   6    0.30    0.08 
   5  -5  -6   23.72    1.26 
  -5   5   6   24.41    1.15 
   4  -5  -6   31.55    1.57 
   4  -5  -6   28.23    1.68 
  -4   5   6   30.96    1.43 
   3  -5  -6    2.77    0.25 
   3  -5  -6    3.01    0.22 
   2  -5  -6    0.54    0.12 
   2  -5  -6    0.70    0.11 
   1  -5  -6   -0.02    0.08 
   1  -5  -6   -0.02    0.04 
   1  -5  -6   -0.01    0.05 
   0  -5  -6    0.10    0.04 
   0  -5  -6    0.13    0.06 
   0  -5  -6    0.08    0.08 
  -1  -5  -6    0.99    0.10 
  -1  -5  -6    0.76    0.11 
  -1  -5  -6    0.98    0.11 
  -1  -5  -6    0.77    0.09 
  -1  -5  -6    1.09    0.15 
  -2  -5  -6    0.25    0.06 
  -2  -5  -6    0.36    0.08 
  -2  -5  -6    0.20    0.06 
  -2  -5  -6    0.23    0.08 
  -3  -5  -6    0.15    0.07 
  -3  -5  -6    0.07    0.05 
  -3  -5  -6    0.12    0.05 
  -4  -5  -6    1.12    0.11 
  -4  -5  -6    1.08    0.11 
  -4  -5  -6    1.33    0.13 
  -5  -5  -6    0.03    0.05 
  -5  -5  -6    0.05    0.06 
  -5  -5  -6    0.06    0.05 
  -6  -5  -6    1.13    0.10 
  -6  -5  -6    1.48    0.12 
  -7  -5  -6    0.35    0.05 
  -8   6   6    0.09    0.05 
   7  -6  -6    0.09    0.07 
  -7   6   6    0.08    0.06 
   6  -6  -6    2.73    0.22 
  -6   6   6    3.03    0.20 
   5  -6  -6    0.58    0.11 
  -5   6   6    0.35    0.08 
   4  -6  -6    0.91    0.14 
   4  -6  -6    1.07    0.15 
  -4   6   6    1.05    0.12 
   3  -6  -6    0.20    0.09 
   3  -6  -6    0.22    0.09 
   2  -6  -6    2.73    0.20 
   2  -6  -6    2.50    0.23 
   1  -6  -6    0.12    0.09 
   1  -6  -6    0.12    0.07 
   1  -6  -6    0.11    0.07 
   0  -6  -6   -0.06    0.06 
   0  -6  -6    0.01    0.09 
   0  -6  -6    0.00    0.05 
   0  -6  -6    0.02    0.04 
  -1  -6  -6    4.20    0.30 
  -1  -6  -6    3.75    0.26 
  -1  -6  -6    4.09    0.24 
  -1  -6  -6    4.18    0.23 
  -1  -6  -6    3.58    0.23 
  -2  -6  -6    2.47    0.17 
  -2  -6  -6    2.35    0.17 
  -2  -6  -6    2.45    0.19 
  -2  -6  -6    1.95    0.15 
  -3  -6  -6    2.25    0.18 
  -3  -6  -6    2.12    0.16 
  -3  -6  -6    2.15    0.16 
  -4  -6  -6    0.05    0.05 
  -4  -6  -6    0.08    0.06 
  -4  -6  -6    0.11    0.06 
  -5  -6  -6   -0.01    0.05 
  -5  -6  -6   -0.01    0.04 
  -5  -6  -6   -0.06    0.05 
  -6  -6  -6    0.04    0.04 
  -6  -6  -6    0.02    0.03 
   7  -7  -6    0.03    0.06 
  -7   7   6    0.02    0.05 
   6  -7  -6    0.31    0.08 
  -6   7   6    0.41    0.07 
   5  -7  -6    0.55    0.11 
  -5   7   6    0.88    0.10 
   4  -7  -6    0.07    0.08 
   4  -7  -6    0.20    0.09 
  -4   7   6    0.15    0.07 
   3  -7  -6    0.56    0.12 
   3  -7  -6    0.48    0.10 
  -3   7   6    0.53    0.09 
   2  -7  -6    0.02    0.07 
   2  -7  -6   -0.07    0.08 
   1  -7  -6    0.14    0.09 
   1  -7  -6    0.14    0.07 
  -1   7   6   -0.01    0.06 
   0  -7  -6    1.01    0.12 
   0  -7  -6    1.08    0.15 
   0  -7  -6    1.10    0.10 
   0   7   6    1.04    0.12 
  -1  -7  -6   -0.11    0.08 
  -1  -7  -6   -0.07    0.05 
  -1  -7  -6    0.00    0.05 
   1   7   6    0.00    0.07 
  -2  -7  -6   -0.07    0.05 
  -2  -7  -6    0.10    0.05 
  -3  -7  -6    0.02    0.05 
  -3  -7  -6    0.01    0.04 
  -3  -7  -6    0.01    0.05 
  -4  -7  -6   -0.03    0.04 
  -4  -7  -6   -0.02    0.05 
  -4  -7  -6    0.03    0.05 
  -5  -7  -6    0.09    0.04 
  -5  -7  -6    0.11    0.04 
  -5  -7  -6    0.10    0.04 
   6  -8  -6    0.44    0.08 
  -6   8   6    0.47    0.07 
   5  -8  -6    0.15    0.07 
   5  -8  -6    0.12    0.07 
  -5   8   6    0.08    0.06 
   4  -8  -6   -0.01    0.07 
   4  -8  -6    0.09    0.07 
  -4   8   6    0.03    0.06 
   3  -8  -6    0.57    0.11 
   3  -8  -6    0.57    0.10 
  -3   8   6    0.56    0.09 
  -3   8   6    0.40    0.07 
   2  -8  -6    0.41    0.09 
   2  -8  -6    0.36    0.10 
  -2   8   6    0.19    0.06 
   1  -8  -6    0.69    0.09 
   1  -8  -6    1.00    0.14 
  -1   8   6    0.76    0.10 
   0  -8  -6    0.86    0.13 
   0  -8  -6    0.85    0.10 
   0   8   6    0.65    0.10 
  -1  -8  -6    0.16    0.06 
  -1  -8  -6    0.14    0.09 
  -1  -8  -6    0.13    0.05 
   1   8   6    0.11    0.07 
  -2  -8  -6    0.61    0.07 
  -2  -8  -6    0.67    0.08 
   2   8   6    0.65    0.09 
  -3  -8  -6    0.21    0.05 
  -3  -8  -6    0.12    0.05 
   3   8   6    0.26    0.07 
  -4  -8  -6   -0.01    0.04 
  -4  -8  -6    0.07    0.04 
   4   8   6    0.13    0.05 
   5  -9  -6    0.07    0.05 
   5  -9  -6   -0.07    0.05 
   4  -9  -6    0.02    0.06 
   4  -9  -6    0.04    0.05 
   3  -9  -6    1.40    0.12 
   3  -9  -6    1.66    0.16 
  -3   9   6    1.25    0.12 
   2  -9  -6    0.51    0.10 
  -2   9   6    0.33    0.07 
   1  -9  -6    0.00    0.07 
  -1   9   6   -0.05    0.05 
   0  -9  -6   -0.02    0.07 
   0  -9  -6   -0.04    0.04 
   0   9   6   -0.05    0.05 
  -1  -9  -6    0.08    0.05 
   1   9   6    0.02    0.06 
  -2  -9  -6   -0.04    0.04 
  -2  -9  -6    0.00    0.03 
   2   9   6   -0.02    0.05 
   3 -10  -6    0.29    0.07 
   2 -10  -6    0.43    0.08 
   1 -10  -6    0.06    0.06 
   2  10  -7    0.21    0.03 
   1  10  -7    0.07    0.03 
  -1 -10   7    0.13    0.06 
   0  10  -7    0.04    0.03 
   0 -10   7    0.03    0.06 
  -1  10  -7    0.03    0.03 
   1 -10   7    0.08    0.10 
  -2  10  -7    0.27    0.04 
   2 -10   7    0.22    0.10 
  -3  10  -7    0.08    0.03 
   3 -10   7    0.01    0.09 
   4 -10   7    0.12    0.09 
   3   9  -7    1.11    0.07 
  -3  -9   7    0.88    0.10 
   2   9  -7    0.36    0.05 
  -2  -9   7    0.32    0.09 
   1   9  -7    0.86    0.07 
  -1  -9   7    0.89    0.12 
   0   9  -7    0.07    0.04 
   0  -9   7   -0.05    0.08 
  -1   9  -7    0.20    0.05 
   1  -9   7    0.23    0.09 
  -2   9  -7    0.90    0.08 
  -2   9  -7    0.75    0.09 
  -3   9  -7   -0.07    0.05 
  -3   9  -7   -0.02    0.04 
  -4   9  -7    0.17    0.06 
  -4   9  -7    0.27    0.05 
  -5   9  -7    0.03    0.05 
  -5   9  -7    0.05    0.03 
  -6   9  -7    0.03    0.04 
  -6   9  -7    0.01    0.03 
   5   8  -7    0.69    0.06 
  -5  -8   7    0.67    0.08 
   4   8  -7    0.64    0.06 
  -4  -8   7    0.64    0.09 
   3   8  -7    0.22    0.05 
  -3  -8   7   -0.01    0.08 
   2   8  -7    0.04    0.04 
   1   8  -7    0.45    0.06 
   0   8  -7    0.36    0.06 
  -1   8  -7    0.36    0.06 
  -1   8  -7    0.27    0.07 
  -2   8  -7    1.01    0.09 
  -2   8  -7    0.97    0.11 
  -3   8  -7    2.74    0.16 
  -3   8  -7    2.69    0.19 
  -4   8  -7    0.13    0.05 
  -4   8  -7    0.16    0.07 
  -5   8  -7    0.21    0.05 
  -5   8  -7    0.27    0.07 
  -6   8  -7    0.10    0.05 
  -6   8  -7    0.16    0.04 
  -7   8  -7    0.39    0.04 
  -7   8  -7    0.37    0.05 
   6   7  -7    0.02    0.03 
   5   7  -7    0.28    0.05 
  -5  -7   7    0.29    0.09 
   4   7  -7    0.30    0.06 
  -4  -7   7    0.16    0.10 
   3   7  -7    0.31    0.06 
   2   7  -7    0.28    0.06 
   1   7  -7    1.88    0.15 
   1   7  -7    1.81    0.13 
   0   7  -7    1.34    0.11 
   0   7  -7    1.17    0.12 
   0   7  -7    1.19    0.11 
  -1   7  -7    0.28    0.06 
  -1   7  -7    0.10    0.06 
  -1   7  -7    0.16    0.08 
  -1   7  -7    0.17    0.07 
  -2   7  -7    7.81    0.41 
  -2   7  -7    7.46    0.35 
  -2   7  -7    7.75    0.45 
  -3   7  -7   -0.01    0.05 
  -3   7  -7   -0.06    0.06 
  -3   7  -7    0.06    0.07 
  -4   7  -7    0.25    0.05 
  -4   7  -7    0.00    0.07 
  -5   7  -7    0.30    0.07 
  -5   7  -7    0.35    0.05 
  -6   7  -7    0.00    0.05 
  -6   7  -7    0.06    0.04 
  -7   7  -7    0.15    0.05 
  -7   7  -7    0.21    0.04 
   7   6  -7    0.03    0.03 
   6   6  -7    1.41    0.09 
  -6  -6   7    1.17    0.09 
   5   6  -7    0.24    0.05 
   4   6  -7    0.76    0.08 
   3   6  -7    2.75    0.16 
   2   6  -7   -0.01    0.06 
   2   6  -7    0.02    0.05 
   1   6  -7    1.62    0.15 
   1   6  -7    2.02    0.13 
   0   6  -7    1.17    0.11 
   0   6  -7    1.24    0.14 
   0   6  -7    1.09    0.10 
   0   6  -7    0.88    0.10 
   0   6  -7    1.14    0.12 
  -1   6  -7    0.50    0.09 
  -1   6  -7    0.51    0.07 
  -1   6  -7    0.54    0.08 
  -1   6  -7    0.49    0.07 
  -1   6  -7    0.55    0.10 
  -2   6  -7    0.10    0.05 
  -2   6  -7    0.04    0.07 
  -2   6  -7    0.07    0.05 
  -2   6  -7    0.09    0.08 
  -3   6  -7    0.20    0.08 
  -3   6  -7    0.13    0.06 
  -3   6  -7    0.12    0.07 
  -3   6  -7    0.17    0.05 
  -4   6  -7    0.27    0.09 
  -4   6  -7    0.30    0.06 
  -4   6  -7    0.32    0.08 
  -4   6  -7    0.37    0.07 
  -5   6  -7    0.04    0.04 
  -5   6  -7    0.18    0.07 
  -6   6  -7    0.80    0.10 
  -6   6  -7    0.69    0.07 
  -7   6  -7    2.74    0.14 
  -7   6  -7    2.65    0.17 
  -8   6  -7    0.45    0.06 
  -8   6  -7    0.47    0.05 
   7   5  -7    0.79    0.07 
  -7  -5   7    0.71    0.06 
   6   5  -7    0.05    0.05 
   5   5  -7    0.48    0.07 
   4   5  -7    0.08    0.06 
   4   5  -7    0.05    0.05 
   3   5  -7    5.76    0.27 
   3   5  -7    5.41    0.31 
   2   5  -7    4.55    0.25 
   2   5  -7    4.18    0.26 
   2   5  -7    4.22    0.23 
   1   5  -7    4.91    0.29 
   1   5  -7    4.94    0.25 
   0   5  -7    0.25    0.09 
  -1   5  -7    1.33    0.15 
  -2   5  -7    1.20    0.14 
  -2   5  -7    0.98    0.09 
  -2   5  -7    1.02    0.12 
  -3   5  -7    2.29    0.14 
  -3   5  -7    2.70    0.21 
  -3   5  -7    2.44    0.18 
  -4   5  -7    2.48    0.20 
  -4   5  -7    2.29    0.18 
  -4   5  -7    2.40    0.15 
  -5   5  -7    0.75    0.10 
  -5   5  -7    0.76    0.12 
  -5   5  -7    0.78    0.08 
  -6   5  -7    0.23    0.07 
  -6   5  -7    0.23    0.05 
  -7   5  -7    0.03    0.04 
  -7   5  -7    0.08    0.06 
  -8   5  -7    0.56    0.07 
  -8   5  -7    0.51    0.05 
   8   4  -7    0.34    0.05 
   7   4  -7    0.41    0.06 
  -7  -4   7    0.33    0.05 
   6   4  -7    0.87    0.09 
   6   4  -7    0.76    0.09 
   5   4  -7    0.13    0.06 
   5   4  -7    0.12    0.06 
   4   4  -7    0.17    0.06 
   4   4  -7    0.19    0.06 
  -4  -4   7    0.15    0.07 
   3   4  -7   18.77    0.89 
   3   4  -7   19.00    0.86 
   3   4  -7   18.48    0.79 
  -3  -4   7   19.48    1.05 
   1   4  -7   25.12    2.16 
   1   4  -7   29.00    1.39 
   0   4  -7    0.77    0.17 
   0   4  -7    1.02    0.12 
  -1   4  -7    0.00    0.07 
  -1   4  -7    0.04    0.09 
  -2   4  -7   -0.08    0.07 
  -2   4  -7   -0.04    0.09 
  -3   4  -7    0.21    0.09 
  -4   4  -7    0.07    0.07 
  -4   4  -7    0.07    0.08 
  -4   4  -7    0.05    0.06 
  -5   4  -7    0.09    0.05 
  -5   4  -7    0.22    0.09 
  -5   4  -7    0.07    0.07 
  -6   4  -7    0.42    0.06 
  -6   4  -7    0.35    0.08 
  -7   4  -7    0.28    0.05 
  -8   4  -7    0.32    0.05 
   8   3  -7    1.17    0.09 
  -8  -3   7    0.96    0.07 
   7   3  -7    0.93    0.10 
   7   3  -7    0.87    0.09 
   6   3  -7    3.74    0.23 
   6   3  -7    3.96    0.20 
   5   3  -7    1.79    0.13 
   5   3  -7    1.45    0.13 
  -5  -3   7    1.63    0.18 
   4   3  -7    0.60    0.08 
   4   3  -7    0.42    0.07 
  -4  -3   7    0.33    0.09 
  -3  -3   7    2.74    0.22 
  -2  -3   7    5.88    0.36 
   1   3  -7    2.02    0.16 
  -1   3  -7    2.78    0.33 
  -1   3  -7    3.38    0.22 
  -2   3  -7    1.22    0.21 
  -2   3  -7    1.38    0.15 
  -3   3  -7    0.18    0.09 
  -3   3  -7    0.18    0.12 
  -4   3  -7   10.26    0.58 
  -4   3  -7   10.32    0.52 
   9   2  -7    0.08    0.04 
   8   2  -7    0.05    0.05 
   8   2  -7    0.03    0.05 
   7   2  -7    0.21    0.06 
   7   2  -7    0.25    0.06 
   6   2  -7    0.79    0.09 
   6   2  -7    0.53    0.08 
   5   2  -7    0.24    0.07 
   5   2  -7    0.21    0.06 
  -5  -2   7    0.13    0.08 
   4   2  -7    0.07    0.06 
  -4  -2   7    0.06    0.06 
   3   2  -7    0.47    0.13 
  -3  -2   7    0.85    0.11 
   2   2  -7    0.69    0.15 
  -2  -2   7    0.92    0.10 
   1   2  -7    1.10    0.19 
  -1  -2   7    1.30    0.12 
   0   2  -7    1.55    0.22 
  -1   2  -7    5.94    0.55 
  -2   2  -7    2.39    0.19 
  -2   2  -7    2.38    0.28 
  -3   2  -7    2.29    0.19 
  -3   2  -7    2.24    0.27 
   9   1  -7    0.37    0.06 
   8   1  -7    0.32    0.06 
   8   1  -7    0.39    0.07 
   7   1  -7    0.82    0.10 
   6   1  -7   10.76    0.53 
  -6  -1   7   10.74    0.64 
   5   1  -7    1.59    0.13 
  -5  -1   7    1.72    0.18 
  -4  -1   7    2.61    0.21 
   3   1  -7    4.61    0.29 
   3   1  -7    4.25    0.44 
  -3  -1   7    5.09    0.30 
   2   1  -7    4.00    0.37 
  -2  -1   7    3.16    0.24 
   1   1  -7    9.57    0.83 
   0   1  -7    0.09    0.09 
  -1   1  -7    0.25    0.11 
  -2   1  -7    0.09    0.10 
  -3   1  -7    0.13    0.08 
   9   0  -7    0.98    0.09 
  -9   0   7    0.78    0.08 
   8   0  -7    0.97    0.10 
  -8   0   7    0.81    0.10 
   7   0  -7    0.55    0.08 
  -7   0   7    0.35    0.08 
   6   0  -7   -0.02    0.05 
  -6   0   7    0.05    0.08 
   5   0  -7    0.09    0.06 
  -5   0   7    0.03    0.07 
  -4   0   7    0.93    0.12 
   3   0  -7    4.75    0.29 
   3   0  -7    4.19    0.44 
  -3   0   7    5.05    0.31 
   2   0  -7    0.03    0.08 
   1   0  -7    5.03    0.26 
   1   0  -7    4.66    0.46 
   0   0  -7    8.07    0.39 
   0   0  -7    7.50    0.69 
  -1   0  -7   15.33    0.69 
  -1   0  -7   13.50    1.20 
  -2   0  -7    1.16    0.19 
  -2   0  -7    1.32    0.08 
   9  -1  -7    0.02    0.04 
  -9   1   7   -0.02    0.05 
   8  -1  -7    0.03    0.06 
  -8   1   7    0.09    0.06 
   7  -1  -7   -0.01    0.05 
  -7   1   7    0.12    0.06 
   6  -1  -7    0.05    0.06 
  -6   1   7   -0.03    0.06 
  -6   1   7    0.06    0.08 
   5  -1  -7   -0.07    0.05 
  -5   1   7   -0.01    0.06 
  -5   1   7   -0.04    0.06 
   4  -1  -7    1.06    0.13 
  -4   1   7    1.11    0.13 
  -4   1   7    1.37    0.13 
   3  -1  -7    0.14    0.09 
   3  -1  -7    0.23    0.07 
  -3   1   7    0.09    0.06 
   2  -1  -7   14.51    0.78 
   2  -1  -7   15.05    0.71 
   2  -1  -7   14.05    1.21 
   1  -1  -7   18.12    0.85 
   1  -1  -7   17.22    1.45 
   0  -1  -7   14.17    1.24 
   0  -1  -7   15.80    0.73 
  -1  -1  -7    3.76    0.20 
  -1  -1  -7    3.71    0.37 
  -2  -1  -7    0.05    0.03 
   9  -2  -7   -0.04    0.04 
  -9   2   7    0.00    0.05 
   8  -2  -7    4.05    0.22 
  -8   2   7    3.67    0.24 
   7  -2  -7    1.65    0.14 
  -7   2   7    1.21    0.13 
   6  -2  -7    0.27    0.07 
  -6   2   7    0.49    0.09 
  -6   2   7    0.20    0.09 
   5  -2  -7    1.62    0.14 
   5  -2  -7    1.71    0.17 
  -5   2   7    1.77    0.17 
  -5   2   7    1.63    0.15 
   4  -2  -7    8.58    0.50 
  -4   2   7    9.08    0.52 
  -4   2   7    8.49    0.46 
   3  -2  -7    1.70    0.23 
   3  -2  -7    1.77    0.15 
   2  -2  -7    0.29    0.08 
   2  -2  -7    0.29    0.06 
   2  -2  -7    0.40    0.13 
   1  -2  -7    1.17    0.20 
   1  -2  -7    1.41    0.14 
   1  -2  -7    1.28    0.10 
   0  -2  -7    0.07    0.09 
   0  -2  -7    0.10    0.07 
   0  -2  -7    0.02    0.03 
  -1  -2  -7    0.24    0.05 
  -1  -2  -7    0.28    0.08 
  -2  -2  -7    1.52    0.10 
  -3  -2  -7    0.27    0.07 
  -3  -2  -7    0.28    0.07 
  -3  -2  -7    0.28    0.04 
  -4  -2  -7   -0.10    0.05 
  -4  -2  -7   -0.06    0.05 
  -5  -2  -7    5.87    0.34 
  -6  -2  -7    1.99    0.17 
   9  -3  -7    0.59    0.07 
  -9   3   7    0.56    0.07 
   8  -3  -7    1.28    0.11 
  -8   3   7    1.09    0.11 
   7  -3  -7    0.30    0.07 
  -7   3   7    0.29    0.08 
   6  -3  -7    0.07    0.06 
   6  -3  -7    0.03    0.07 
  -6   3   7   -0.05    0.06 
   5  -3  -7    1.48    0.13 
   5  -3  -7    1.36    0.15 
  -5   3   7    1.30    0.14 
  -5   3   7    0.96    0.14 
   4  -3  -7    6.97    0.41 
  -4   3   7    6.95    0.38 
  -4   3   7    6.62    0.42 
   3  -3  -7    0.99    0.14 
   3  -3  -7    1.08    0.13 
   2  -3  -7   10.57    0.60 
   2  -3  -7   11.27    0.55 
   2  -3  -7   11.03    0.95 
   1  -3  -7    3.64    0.21 
   1  -3  -7    3.42    0.24 
   1  -3  -7    3.82    0.38 
   0  -3  -7    1.13    0.13 
   0  -3  -7    1.22    0.10 
  -1  -3  -7    3.41    0.19 
  -1  -3  -7    3.19    0.22 
  -2  -3  -7    0.03    0.09 
  -2  -3  -7    0.05    0.05 
  -2  -3  -7    0.06    0.04 
  -2  -3  -7    0.07    0.06 
  -3  -3  -7   -0.05    0.06 
  -3  -3  -7   -0.01    0.03 
  -3  -3  -7   -0.10    0.04 
  -3  -3  -7   -0.01    0.05 
  -4  -3  -7    0.42    0.08 
  -4  -3  -7    0.60    0.06 
  -4  -3  -7    0.57    0.08 
  -4  -3  -7    0.44    0.08 
  -5  -3  -7    0.02    0.05 
  -5  -3  -7    0.07    0.06 
  -6  -3  -7    0.44    0.07 
  -7  -3  -7    1.56    0.12 
   9  -4  -7    0.22    0.04 
   8  -4  -7    1.62    0.12 
  -8   4   7    1.74    0.14 
   7  -4  -7    2.20    0.15 
  -7   4   7    2.00    0.17 
   6  -4  -7    0.01    0.07 
   6  -4  -7   -0.01    0.06 
  -6   4   7    0.06    0.06 
   5  -4  -7    1.14    0.15 
  -5   4   7    0.96    0.12 
   4  -4  -7   72.32    3.55 
  -4   4   7   65.90    3.71 
  -4   4   7   73.76    3.25 
   3  -4  -7    0.49    0.11 
   2  -4  -7    1.79    0.19 
   2  -4  -7    1.42    0.13 
   2  -4  -7    1.50    0.16 
   1  -4  -7    0.89    0.09 
   1  -4  -7    0.78    0.09 
   1  -4  -7    1.10    0.13 
   1  -4  -7    1.16    0.15 
   0  -4  -7    0.27    0.08 
   0  -4  -7    0.11    0.09 
   0  -4  -7    0.09    0.04 
   0  -4  -7    0.17    0.06 
  -1  -4  -7    0.58    0.09 
  -1  -4  -7    0.51    0.11 
  -1  -4  -7    0.47    0.07 
  -1  -4  -7    0.53    0.09 
  -1  -4  -7    0.59    0.08 
  -2  -4  -7    0.04    0.06 
  -2  -4  -7   -0.02    0.06 
  -2  -4  -7    0.04    0.04 
  -2  -4  -7   -0.01    0.08 
  -2  -4  -7   -0.03    0.05 
  -3  -4  -7    0.27    0.05 
  -3  -4  -7    0.12    0.06 
  -3  -4  -7    0.13    0.06 
  -3  -4  -7    0.26    0.08 
  -4  -4  -7    0.02    0.05 
  -4  -4  -7    0.02    0.06 
  -4  -4  -7    0.06    0.05 
  -5  -4  -7    0.27    0.06 
  -5  -4  -7    0.24    0.06 
  -6  -4  -7    3.05    0.17 
  -6  -4  -7    3.25    0.19 
  -7  -4  -7    3.03    0.17 
   8  -5  -7   -0.05    0.04 
  -8   5   7   -0.01    0.04 
   7  -5  -7    0.02    0.07 
  -7   5   7    0.01    0.05 
   6  -5  -7    0.01    0.07 
  -6   5   7   -0.03    0.06 
   5  -5  -7    1.53    0.17 
  -5   5   7    1.39    0.14 
   4  -5  -7    0.29    0.10 
   4  -5  -7    0.53    0.11 
  -4   5   7    0.33    0.09 
   3  -5  -7    0.06    0.08 
   3  -5  -7    0.11    0.08 
   2  -5  -7    1.15    0.14 
   2  -5  -7    1.06    0.15 
   1  -5  -7    0.09    0.05 
   1  -5  -7    0.07    0.05 
   1  -5  -7    0.12    0.09 
   1  -5  -7    0.12    0.07 
   1  -5  -7    0.12    0.07 
   0  -5  -7   -0.04    0.06 
   0  -5  -7   -0.08    0.08 
   0  -5  -7    0.01    0.04 
   0  -5  -7    0.02    0.05 
  -1  -5  -7    0.04    0.04 
  -1  -5  -7    0.07    0.07 
  -1  -5  -7   -0.06    0.08 
  -1  -5  -7   -0.04    0.05 
  -2  -5  -7    1.85    0.16 
  -2  -5  -7    1.61    0.13 
  -2  -5  -7    1.81    0.15 
  -2  -5  -7    1.87    0.16 
  -3  -5  -7    2.76    0.19 
  -3  -5  -7    2.68    0.19 
  -3  -5  -7    2.56    0.19 
  -4  -5  -7    0.21    0.07 
  -4  -5  -7    0.31    0.07 
  -4  -5  -7    0.31    0.07 
  -5  -5  -7    0.41    0.07 
  -5  -5  -7    0.40    0.06 
  -5  -5  -7    0.42    0.07 
  -6  -5  -7    0.88    0.08 
  -6  -5  -7    0.88    0.08 
  -8   6   7    0.00    0.04 
   7  -6  -7    0.09    0.06 
  -7   6   7    0.10    0.05 
   6  -6  -7    0.29    0.08 
  -6   6   7    0.33    0.07 
   5  -6  -7    2.98    0.22 
  -5   6   7    2.81    0.20 
   4  -6  -7   11.43    0.62 
   4  -6  -7   10.68    0.66 
  -4   6   7   10.79    0.56 
   3  -6  -7    2.65    0.25 
   3  -6  -7    2.75    0.22 
  -3   6   7    2.80    0.21 
   2  -6  -7    1.82    0.21 
   2  -6  -7    1.87    0.19 
   1  -6  -7    2.83    0.21 
   1  -6  -7    2.59    0.24 
   1  -6  -7    2.28    0.19 
   0  -6  -7    0.03    0.06 
   0  -6  -7    0.05    0.05 
   0  -6  -7   -0.06    0.08 
  -1  -6  -7    0.00    0.05 
  -1  -6  -7   -0.06    0.06 
  -1  -6  -7    0.10    0.09 
  -2  -6  -7    0.02    0.06 
  -2  -6  -7   -0.05    0.05 
  -3  -6  -7    0.36    0.07 
  -3  -6  -7    0.38    0.07 
  -3  -6  -7    0.40    0.08 
  -4  -6  -7    0.04    0.05 
  -4  -6  -7    0.00    0.05 
  -4  -6  -7    0.00    0.04 
  -5  -6  -7   -0.05    0.04 
  -5  -6  -7    0.03    0.04 
  -5  -6  -7    0.03    0.04 
  -7   7   7    3.17    0.18 
   6  -7  -7    0.40    0.08 
  -6   7   7    0.36    0.07 
   5  -7  -7    0.28    0.08 
  -5   7   7    0.48    0.08 
   4  -7  -7    0.69    0.12 
   4  -7  -7    0.92    0.12 
  -4   7   7    0.88    0.10 
   3  -7  -7    0.03    0.07 
   3  -7  -7    0.10    0.09 
  -3   7   7    0.09    0.07 
   2  -7  -7    0.10    0.08 
   2  -7  -7    0.09    0.09 
   1  -7  -7    0.02    0.05 
   1  -7  -7    0.20    0.10 
   0  -7  -7    0.03    0.06 
   0  -7  -7   -0.03    0.04 
   0  -7  -7    0.00    0.09 
  -1  -7  -7    0.03    0.05 
  -1  -7  -7    0.05    0.09 
  -1  -7  -7   -0.08    0.05 
  -2  -7  -7    0.06    0.05 
  -2  -7  -7    0.02    0.05 
  -3  -7  -7    2.44    0.16 
  -3  -7  -7    2.37    0.15 
   3   7   7    2.22    0.17 
  -4  -7  -7   -0.03    0.04 
  -4  -7  -7   -0.01    0.04 
   4   7   7    0.03    0.05 
   5  -8  -7   -0.02    0.05 
  -5   8   7   -0.01    0.05 
   4  -8  -7    0.24    0.08 
   4  -8  -7    0.23    0.07 
  -4   8   7    0.30    0.06 
   3  -8  -7    0.08    0.06 
   3  -8  -7    0.01    0.07 
  -3   8   7    0.04    0.06 
   2  -8  -7   -0.04    0.07 
  -2   8   7   -0.01    0.06 
   1  -8  -7    0.06    0.08 
   1  -8  -7    0.19    0.06 
   0  -8  -7    0.23    0.09 
   0  -8  -7    0.28    0.06 
  -1  -8  -7    0.13    0.04 
  -1  -8  -7    0.14    0.08 
  -1  -8  -7    0.18    0.06 
  -2  -8  -7    0.60    0.07 
  -2  -8  -7    0.57    0.06 
   2   8   7    0.51    0.07 
  -3  -8  -7    0.17    0.04 
  -3  -8  -7    0.19    0.04 
   4  -9  -7    0.13    0.05 
   3  -9  -7   -0.01    0.05 
   2  -9  -7    0.55    0.09 
  -2   9   7    0.40    0.07 
   1  -9  -7    0.07    0.06 
  -1   9   7   -0.09    0.05 
   0  -9  -7    0.04    0.04 
   0  -9  -7   -0.07    0.06 
  -1  -9  -7   -0.02    0.03 
  -1  10  -8    0.06    0.03 
  -2  -9   8    0.53    0.08 
   1   9  -8    0.04    0.03 
  -1  -9   8    0.02    0.06 
   0   9  -8    0.16    0.04 
   0  -9   8    0.10    0.07 
  -1   9  -8    0.02    0.03 
   1  -9   8   -0.13    0.07 
  -2   9  -8    0.00    0.04 
  -2   9  -8    0.02    0.05 
  -3   9  -8    0.15    0.05 
  -3   9  -8    0.23    0.04 
  -4   9  -8    0.54    0.06 
  -4   9  -8    0.65    0.05 
  -5   9  -8   -0.01    0.03 
  -5   9  -8    0.05    0.03 
   4   8  -8    0.10    0.03 
  -4  -8   8    0.14    0.06 
   3   8  -8    0.23    0.04 
  -3  -8   8    0.36    0.08 
   2   8  -8    0.52    0.06 
   1   8  -8    0.52    0.06 
   0   8  -8    0.10    0.06 
   0   8  -8    0.18    0.05 
  -1   8  -8    0.92    0.08 
  -1   8  -8    0.91    0.10 
  -2   8  -8    2.83    0.15 
  -2   8  -8    2.75    0.18 
  -3   8  -8    0.03    0.04 
  -3   8  -8   -0.01    0.05 
  -4   8  -8    0.57    0.06 
  -4   8  -8    0.61    0.08 
  -5   8  -8   -0.02    0.03 
  -5   8  -8    0.01    0.05 
  -6   8  -8    0.05    0.03 
  -6   8  -8   -0.03    0.03 
   5   7  -8    0.74    0.06 
   4   7  -8    0.08    0.04 
  -4  -7   8    0.08    0.08 
   3   7  -8    0.02    0.04 
   2   7  -8    0.14    0.06 
   2   7  -8    0.16    0.05 
   1   7  -8    0.38    0.06 
   1   7  -8    0.29    0.07 
   0   7  -8    0.19    0.07 
   0   7  -8    0.14    0.05 
   0   7  -8    0.22    0.07 
  -1   7  -8    0.62    0.07 
  -1   7  -8    0.71    0.10 
  -1   7  -8    0.81    0.11 
  -2   7  -8    0.13    0.08 
  -2   7  -8    0.13    0.05 
  -2   7  -8    0.14    0.07 
  -3   7  -8    0.18    0.08 
  -3   7  -8    0.19    0.05 
  -3   7  -8    0.15    0.07 
  -4   7  -8    0.01    0.04 
  -4   7  -8   -0.02    0.06 
  -5   7  -8    0.53    0.06 
  -5   7  -8    0.41    0.07 
  -6   7  -8    0.32    0.06 
  -6   7  -8    0.39    0.05 
  -7   7  -8   -0.01    0.02 
  -7   7  -8    0.02    0.03 
   6   6  -8    1.06    0.08 
   5   6  -8    1.00    0.08 
   4   6  -8    0.12    0.05 
   3   6  -8    0.00    0.06 
   3   6  -8    0.08    0.05 
   2   6  -8    0.13    0.06 
   2   6  -8    0.12    0.05 
   1   6  -8    0.40    0.08 
   1   6  -8    0.43    0.07 
   0   6  -8    0.11    0.05 
   0   6  -8    0.00    0.06 
   0   6  -8    0.04    0.07 
  -1   6  -8    4.45    0.26 
  -1   6  -8    3.91    0.23 
  -1   6  -8    4.20    0.28 
  -1   6  -8    4.27    0.21 
  -2   6  -8    4.95    0.28 
  -2   6  -8    4.92    0.24 
  -2   6  -8    4.61    0.31 
  -3   6  -8    0.02    0.07 
  -3   6  -8   -0.03    0.04 
  -3   6  -8   -0.06    0.06 
  -4   6  -8    1.44    0.16 
  -4   6  -8    1.78    0.11 
  -4   6  -8    1.43    0.14 
  -5   6  -8   -0.04    0.06 
  -5   6  -8   -0.02    0.04 
  -6   6  -8   -0.07    0.05 
  -6   6  -8    0.02    0.04 
  -7   6  -8    0.87    0.06 
  -7   6  -8    0.67    0.07 
   7   5  -8    0.07    0.03 
   6   5  -8    0.08    0.04 
   5   5  -8    0.31    0.06 
   5   5  -8    0.30    0.06 
   4   5  -8    2.04    0.13 
   4   5  -8    1.97    0.15 
   3   5  -8    0.39    0.07 
   3   5  -8    0.27    0.07 
   2   5  -8    3.83    0.20 
   2   5  -8    3.76    0.22 
   2   5  -8    3.63    0.23 
   1   5  -8   11.65    0.51 
   1   5  -8   11.55    0.55 
   1   5  -8   12.16    0.65 
   1   5  -8   11.67    0.59 
   0   5  -8    0.21    0.08 
   0   5  -8    0.29    0.06 
   0   5  -8    0.40    0.07 
   0   5  -8    0.33    0.09 
  -1   5  -8    1.25    0.13 
  -1   5  -8    1.18    0.10 
  -1   5  -8    1.06    0.14 
  -1   5  -8    0.84    0.09 
  -2   5  -8   -0.02    0.05 
  -2   5  -8   -0.03    0.07 
  -2   5  -8   -0.08    0.06 
  -2   5  -8    0.08    0.05 
  -3   5  -8    0.03    0.06 
  -3   5  -8   -0.08    0.07 
  -3   5  -8    0.04    0.05 
  -4   5  -8    0.10    0.08 
  -4   5  -8    0.08    0.07 
  -4   5  -8    0.10    0.05 
  -5   5  -8    0.04    0.08 
  -5   5  -8    0.00    0.04 
  -5   5  -8    0.02    0.06 
  -6   5  -8    0.12    0.04 
  -6   5  -8    0.20    0.06 
  -7   5  -8    0.51    0.07 
  -7   5  -8    0.57    0.05 
   7   4  -8    1.27    0.09 
   6   4  -8    0.47    0.07 
   6   4  -8    0.38    0.07 
   5   4  -8    0.26    0.06 
   5   4  -8    0.31    0.07 
   4   4  -8    0.11    0.06 
   4   4  -8    0.06    0.05 
   3   4  -8    0.28    0.06 
   3   4  -8    0.12    0.06 
   3   4  -8    0.18    0.06 
   2   4  -8    9.23    0.47 
   2   4  -8    9.31    0.41 
   2   4  -8    8.97    0.44 
   1   4  -8    0.09    0.06 
   1   4  -8    0.19    0.07 
   1   4  -8    0.23    0.06 
   1   4  -8    0.18    0.08 
   1   4  -8    0.18    0.08 
   0   4  -8    1.66    0.17 
   0   4  -8    1.86    0.14 
   0   4  -8    1.31    0.15 
   0   4  -8    1.77    0.12 
   0   4  -8    1.49    0.14 
  -1   4  -8    0.18    0.08 
  -1   4  -8    0.09    0.06 
  -1   4  -8    0.13    0.05 
  -1   4  -8    0.19    0.08 
  -1   4  -8    0.09    0.07 
  -2   4  -8    0.26    0.06 
  -2   4  -8    0.22    0.08 
  -2   4  -8    0.20    0.09 
  -2   4  -8    0.12    0.09 
  -3   4  -8    1.86    0.15 
  -3   4  -8    1.54    0.17 
  -4   4  -8    0.19    0.09 
  -4   4  -8    0.09    0.07 
  -5   4  -8    0.74    0.11 
  -5   4  -8    0.75    0.10 
   8   3  -8    0.91    0.07 
   7   3  -8    0.09    0.05 
   7   3  -8    0.09    0.05 
   6   3  -8    0.09    0.05 
   6   3  -8    0.05    0.05 
   5   3  -8    0.32    0.07 
   5   3  -8    0.20    0.06 
   4   3  -8    0.20    0.06 
   4   3  -8    0.19    0.06 
  -4  -3   8    0.28    0.08 
   3   3  -8    0.39    0.07 
   3   3  -8    0.37    0.08 
  -3  -3   8    0.32    0.08 
   2   3  -8   -0.03    0.06 
   2   3  -8    0.00    0.06 
   2   3  -8   -0.01    0.05 
   1   3  -8   21.38    1.09 
   1   3  -8   20.58    1.17 
   1   3  -8   20.31    0.98 
   0   3  -8    0.09    0.07 
   0   3  -8    0.02    0.06 
  -1   3  -8    2.30    0.19 
  -1   3  -8    2.06    0.19 
  -2   3  -8    0.24    0.07 
  -2   3  -8    0.19    0.09 
  -2   3  -8    0.45    0.10 
  -3   3  -8    0.02    0.08 
  -3   3  -8    0.00    0.08 
  -3   3  -8    0.05    0.07 
  -4   3  -8    0.91    0.13 
   8   2  -8    0.23    0.05 
   7   2  -8    0.59    0.08 
   6   2  -8    2.91    0.19 
   5   2  -8   -0.01    0.05 
   4   2  -8    2.40    0.18 
  -4  -2   8    2.77    0.22 
   3   2  -8    2.15    0.16 
   3   2  -8    1.89    0.16 
  -3  -2   8    2.53    0.19 
   2   2  -8    0.60    0.10 
   2   2  -8    0.73    0.12 
   2   2  -8    0.66    0.09 
  -2  -2   8    0.68    0.10 
   1   2  -8    0.13    0.07 
   1   2  -8    0.20    0.08 
  -1  -2   8    0.08    0.06 
   0   2  -8    0.95    0.12 
  -1   2  -8    4.58    0.30 
  -1   2  -8    4.81    0.33 
  -2   2  -8   -0.01    0.07 
  -2   2  -8    0.07    0.08 
  -3   2  -8    0.74    0.13 
  -3   2  -8    0.85    0.13 
  -4   2  -8    0.36    0.10 
   8   1  -8    0.25    0.06 
   7   1  -8    0.13    0.06 
   6   1  -8    0.19    0.06 
   5   1  -8    2.64    0.17 
  -5  -1   8    2.50    0.22 
   4   1  -8    0.21    0.07 
  -4  -1   8    0.34    0.09 
   3   1  -8    1.20    0.11 
   3   1  -8    1.17    0.13 
   3   1  -8    1.47    0.13 
  -3  -1   8    1.35    0.14 
   2   1  -8    0.52    0.11 
   2   1  -8    0.54    0.09 
  -2  -1   8    0.66    0.10 
   1   1  -8    2.08    0.17 
   0   1  -8    6.18    0.61 
   0   1  -8    7.17    0.40 
  -1   1  -8    4.62    0.30 
  -2   1  -8    0.28    0.09 
  -2   1  -8    0.17    0.09 
  -3   1  -8    3.26    0.26 
  -3   1  -8    2.88    0.19 
  -3   1  -8    3.31    0.24 
   8   0  -8    0.15    0.06 
   7   0  -8   -0.04    0.05 
   6   0  -8    0.70    0.09 
   5   0  -8    0.04    0.06 
  -5   0   8    0.01    0.07 
   4   0  -8    1.40    0.13 
   4   0  -8    1.17    0.14 
  -4   0   8    1.36    0.15 
   3   0  -8    3.29    0.21 
   3   0  -8    3.61    0.24 
  -3   0   8    3.58    0.25 
   2   0  -8    3.14    0.25 
   2   0  -8    2.90    0.22 
   1   0  -8    0.57    0.10 
   0   0  -8    0.13    0.04 
   0   0  -8   -0.01    0.07 
   0   0  -8    0.02    0.10 
  -1   0  -8    4.50    0.24 
  -1   0  -8    4.66    0.46 
  -1   0  -8    4.89    0.31 
  -1   0  -8    4.57    0.33 
  -2   0  -8    0.68    0.12 
  -2   0  -8    0.67    0.11 
  -2   0  -8    0.67    0.08 
  -2   0  -8    0.58    0.06 
  -3   0  -8   -0.01    0.09 
  -3   0  -8   -0.08    0.04 
  -3   0  -8    0.02    0.05 
   8  -1  -8    0.02    0.05 
  -8   1   8    0.01    0.05 
   7  -1  -8    0.07    0.06 
  -7   1   8    0.14    0.07 
   6  -1  -8    1.78    0.13 
  -6   1   8    1.13    0.12 
   5  -1  -8    2.33    0.17 
  -5   1   8    2.13    0.18 
  -5   1   8    2.38    0.21 
   4  -1  -8    0.01    0.06 
   4  -1  -8    0.04    0.07 
  -4   1   8    0.04    0.06 
   3  -1  -8    2.89    0.20 
   3  -1  -8    2.91    0.22 
  -3   1   8    3.14    0.23 
   2  -1  -8    0.51    0.11 
   2  -1  -8    0.74    0.11 
   2  -1  -8    0.80    0.09 
   1  -1  -8    3.67    0.25 
   1  -1  -8    3.88    0.28 
   1  -1  -8    3.59    0.21 
   0  -1  -8    1.83    0.12 
   0  -1  -8    1.90    0.14 
   0  -1  -8    1.45    0.17 
   0  -1  -8    1.75    0.16 
  -1  -1  -8    0.32    0.10 
  -1  -1  -8    0.28    0.09 
  -1  -1  -8    0.39    0.07 
  -1  -1  -8    0.31    0.05 
  -2  -1  -8    5.37    0.37 
  -2  -1  -8    5.37    0.30 
  -2  -1  -8    5.40    0.28 
  -2  -1  -8    5.83    0.28 
  -2  -1  -8    5.77    0.35 
  -3  -1  -8    0.68    0.08 
  -3  -1  -8    0.54    0.08 
  -4  -1  -8    0.57    0.07 
   8  -2  -8    1.52    0.11 
  -8   2   8    1.44    0.12 
   7  -2  -8    0.78    0.09 
  -7   2   8    0.49    0.08 
   6  -2  -8    0.53    0.09 
  -6   2   8    0.48    0.08 
   5  -2  -8   -0.01    0.06 
   5  -2  -8    0.03    0.06 
  -5   2   8    0.01    0.06 
   4  -2  -8    0.33    0.08 
   4  -2  -8    0.05    0.07 
  -4   2   8    0.27    0.08 
  -4   2   8    0.24    0.08 
   3  -2  -8    0.30    0.10 
   3  -2  -8    0.22    0.09 
  -3   2   8    0.20    0.08 
   2  -2  -8    5.95    0.34 
   2  -2  -8    5.18    0.30 
   2  -2  -8    4.91    0.29 
   2  -2  -8    5.32    0.37 
   1  -2  -8    0.05    0.06 
   1  -2  -8    0.18    0.08 
   1  -2  -8    0.08    0.04 
   0  -2  -8    0.07    0.04 
   0  -2  -8    0.07    0.07 
   0  -2  -8    0.04    0.08 
   0  -2  -8    0.10    0.05 
  -1  -2  -8   14.49    0.69 
  -1  -2  -8   13.66    0.83 
  -1  -2  -8   14.16    0.77 
  -1  -2  -8   14.11    0.65 
  -1  -2  -8   14.46    0.67 
  -2  -2  -8    3.05    0.18 
  -2  -2  -8    2.92    0.17 
  -2  -2  -8    2.96    0.20 
  -2  -2  -8    2.95    0.25 
  -3  -2  -8    0.10    0.05 
  -3  -2  -8    0.19    0.04 
  -3  -2  -8    0.18    0.07 
  -4  -2  -8    0.42    0.07 
  -4  -2  -8    0.48    0.07 
   8  -3  -8    2.07    0.13 
   7  -3  -8    1.71    0.13 
  -7   3   8    1.44    0.13 
   6  -3  -8    0.48    0.10 
   6  -3  -8    0.73    0.09 
  -6   3   8    0.57    0.09 
   5  -3  -8    1.21    0.14 
  -5   3   8    1.44    0.13 
   4  -3  -8    0.05    0.08 
  -4   3   8    0.05    0.07 
  -4   3   8    0.17    0.08 
   3  -3  -8    0.37    0.11 
   3  -3  -8    0.36    0.10 
  -3   3   8    0.57    0.09 
   2  -3  -8    2.23    0.16 
   2  -3  -8    2.33    0.19 
   2  -3  -8    2.47    0.22 
   2  -3  -8    2.25    0.19 
   1  -3  -8    2.36    0.20 
   1  -3  -8    2.43    0.19 
   1  -3  -8    2.17    0.21 
   1  -3  -8    2.33    0.16 
   1  -3  -8    2.46    0.16 
   0  -3  -8    0.07    0.05 
   0  -3  -8    0.06    0.07 
   0  -3  -8    0.05    0.04 
   0  -3  -8    0.02    0.06 
   0  -3  -8    0.07    0.08 
  -1  -3  -8    3.14    0.19 
  -1  -3  -8    2.56    0.24 
  -1  -3  -8    2.89    0.18 
  -1  -3  -8    3.15    0.21 
  -2  -3  -8    0.63    0.09 
  -2  -3  -8    0.61    0.07 
  -2  -3  -8    0.78    0.13 
  -2  -3  -8    0.55    0.08 
  -3  -3  -8    0.12    0.06 
  -3  -3  -8    0.18    0.06 
  -3  -3  -8    0.18    0.06 
  -4  -3  -8    0.56    0.08 
  -4  -3  -8    0.56    0.08 
  -4  -3  -8    0.66    0.08 
  -5  -3  -8    0.48    0.08 
  -5  -3  -8    0.50    0.07 
  -6  -3  -8    0.33    0.06 
   8  -4  -8    0.03    0.04 
  -8   4   8    0.05    0.04 
   7  -4  -8    0.10    0.05 
  -7   4   8   -0.05    0.05 
   6  -4  -8    0.52    0.10 
  -6   4   8    0.54    0.09 
   5  -4  -8    0.29    0.09 
  -5   4   8    0.24    0.08 
   4  -4  -8    0.23    0.09 
   4  -4  -8    0.29    0.10 
  -4   4   8    0.21    0.08 
   3  -4  -8    0.68    0.13 
   3  -4  -8    0.75    0.13 
  -3   4   8    0.72    0.11 
   2  -4  -8    0.32    0.09 
   2  -4  -8    0.30    0.10 
   1  -4  -8    0.58    0.08 
   1  -4  -8    0.85    0.13 
   1  -4  -8    0.92    0.13 
   1  -4  -8    0.62    0.08 
   1  -4  -8    0.65    0.09 
   0  -4  -8    1.57    0.12 
   0  -4  -8    1.36    0.12 
   0  -4  -8    1.65    0.14 
   0  -4  -8    1.69    0.17 
   0  -4  -8    1.68    0.18 
  -1  -4  -8    1.89    0.14 
  -1  -4  -8    1.57    0.12 
  -1  -4  -8    1.62    0.14 
  -1  -4  -8    1.60    0.18 
  -2  -4  -8    0.30    0.08 
  -2  -4  -8    0.38    0.07 
  -2  -4  -8    0.30    0.10 
  -3  -4  -8    0.11    0.05 
  -3  -4  -8   -0.01    0.06 
  -3  -4  -8    0.10    0.05 
  -4  -4  -8    0.04    0.05 
  -4  -4  -8   -0.02    0.05 
  -4  -4  -8   -0.03    0.05 
  -5  -4  -8   -0.02    0.04 
  -5  -4  -8    0.03    0.05 
  -6  -4  -8    0.38    0.06 
  -7   5   8   -0.03    0.04 
   6  -5  -8    0.82    0.11 
  -6   5   8    0.76    0.10 
   5  -5  -8    1.69    0.18 
  -5   5   8    1.70    0.15 
   4  -5  -8    1.36    0.16 
   4  -5  -8    1.39    0.17 
  -4   5   8    1.58    0.14 
   3  -5  -8   10.93    0.62 
   3  -5  -8   10.64    0.67 
  -3   5   8   11.31    0.56 
   2  -5  -8   19.42    1.12 
   2  -5  -8   19.39    1.04 
   1  -5  -8    0.04    0.05 
   1  -5  -8    0.04    0.06 
   1  -5  -8    0.06    0.08 
   1  -5  -8   -0.05    0.08 
   0  -5  -8    0.17    0.05 
   0  -5  -8    0.13    0.07 
   0  -5  -8    0.11    0.09 
  -1  -5  -8    0.05    0.06 
  -1  -5  -8    0.02    0.05 
  -1  -5  -8    0.00    0.08 
  -2  -5  -8    0.16    0.07 
  -2  -5  -8    0.13    0.06 
  -2  -5  -8    0.15    0.09 
  -3  -5  -8    0.37    0.07 
  -3  -5  -8    0.32    0.07 
  -4  -5  -8    0.13    0.05 
  -4  -5  -8    0.11    0.05 
  -5  -5  -8   -0.01    0.04 
  -7   6   8    0.04    0.04 
   6  -6  -8    0.63    0.09 
  -6   6   8    0.36    0.07 
   5  -6  -8    0.42    0.09 
  -5   6   8    0.45    0.08 
   4  -6  -8    0.74    0.12 
   4  -6  -8    0.88    0.13 
  -4   6   8    0.88    0.10 
   3  -6  -8    8.41    0.52 
   3  -6  -8    7.86    0.48 
  -3   6   8    8.18    0.43 
   2  -6  -8    3.75    0.27 
   2  -6  -8    4.22    0.31 
   1  -6  -8    0.30    0.07 
   1  -6  -8    0.25    0.05 
   1  -6  -8    0.41    0.10 
   1  -6  -8    0.39    0.11 
   0  -6  -8    0.57    0.08 
   0  -6  -8    0.50    0.07 
   0  -6  -8    0.67    0.13 
  -1  -6  -8    0.69    0.12 
  -1  -6  -8    0.58    0.07 
  -1  -6  -8    0.74    0.09 
  -2  -6  -8    0.05    0.05 
  -2  -6  -8    0.07    0.05 
  -3  -6  -8   -0.01    0.05 
  -3  -6  -8    0.09    0.05 
  -4  -6  -8    0.02    0.04 
  -4  -6  -8    0.11    0.04 
  -6   7   8    0.18    0.05 
   5  -7  -8   -0.01    0.05 
  -5   7   8    0.10    0.05 
   4  -7  -8   -0.03    0.06 
   4  -7  -8   -0.06    0.06 
  -4   7   8    0.08    0.05 
   3  -7  -8    0.29    0.09 
   3  -7  -8    0.36    0.09 
  -3   7   8    0.41    0.08 
   2  -7  -8    0.83    0.13 
   2  -7  -8    0.94    0.12 
  -2   7   8    0.93    0.10 
   1  -7  -8    0.33    0.06 
   1  -7  -8    0.36    0.10 
   0  -7  -8    0.02    0.04 
   0  -7  -8   -0.02    0.08 
   0  -7  -8    0.05    0.05 
  -1  -7  -8    0.09    0.08 
  -1  -7  -8    0.01    0.04 
  -1  -7  -8    0.03    0.05 
  -2  -7  -8    0.10    0.04 
  -2  -7  -8    0.13    0.05 
  -3  -7  -8    0.52    0.06 
  -3  -7  -8    0.48    0.05 
   4  -8  -8    0.04    0.05 
  -4   8   8    0.02    0.05 
   3  -8  -8    0.02    0.06 
  -3   8   8    0.05    0.05 
   2  -8  -8    0.03    0.07 
  -2   8   8    0.03    0.05 
   1  -8  -8    0.09    0.07 
  -1   8   8    0.15    0.06 
   0  -8  -8    0.10    0.04 
   0  -8  -8    0.11    0.07 
  -1  -8  -8    0.06    0.04 
   0   9  -9    0.18    0.03 
  -1   9  -9    0.04    0.03 
  -2   9  -9   -0.04    0.03 
  -2   9  -9   -0.03    0.02 
   3   8  -9    0.18    0.03 
   2   8  -9    1.09    0.07 
  -2  -8   9    1.10    0.11 
   1   8  -9    0.04    0.03 
   1   8  -9    0.03    0.04 
   0   8  -9    0.36    0.05 
   0   8  -9    0.23    0.05 
  -1   8  -9    0.00    0.03 
  -1   8  -9   -0.03    0.04 
  -2   8  -9    0.21    0.04 
  -2   8  -9    0.11    0.05 
  -3   8  -9    0.01    0.04 
  -3   8  -9    0.00    0.03 
  -4   8  -9    0.07    0.04 
  -4   8  -9    0.09    0.03 
   4   7  -9    0.27    0.04 
  -4  -7   9    0.19    0.07 
   3   7  -9    0.01    0.03 
   2   7  -9    0.31    0.05 
   2   7  -9    0.30    0.06 
   1   7  -9    0.02    0.05 
   1   7  -9    0.14    0.04 
   0   7  -9   -0.05    0.04 
   0   7  -9    0.02    0.05 
   0   7  -9    0.01    0.06 
  -1   7  -9    0.07    0.06 
  -1   7  -9    0.03    0.06 
  -1   7  -9    0.06    0.04 
  -2   7  -9    0.32    0.08 
  -2   7  -9    0.37    0.07 
  -2   7  -9    0.40    0.05 
  -3   7  -9    0.03    0.04 
  -3   7  -9    0.05    0.06 
  -4   7  -9    2.30    0.12 
  -5   7  -9    0.03    0.03 
  -5   7  -9    0.05    0.04 
   5   6  -9    0.45    0.05 
   4   6  -9    0.12    0.05 
   4   6  -9    0.18    0.04 
   3   6  -9    0.02    0.04 
   3   6  -9    0.00    0.05 
   2   6  -9    0.31    0.07 
   2   6  -9    0.21    0.05 
   1   6  -9   -0.02    0.05 
   1   6  -9    0.02    0.04 
   0   6  -9    1.14    0.11 
   0   6  -9    1.30    0.14 
  -1   6  -9    0.10    0.04 
  -1   6  -9    0.06    0.06 
  -1   6  -9    0.08    0.07 
  -2   6  -9    0.06    0.07 
  -2   6  -9    0.07    0.06 
  -2   6  -9    0.01    0.04 
  -3   6  -9    1.64    0.16 
  -3   6  -9    1.58    0.11 
  -3   6  -9    1.57    0.14 
  -4   6  -9    1.17    0.08 
  -4   6  -9    0.91    0.10 
  -4   6  -9    1.00    0.13 
  -5   6  -9    0.02    0.03 
  -5   6  -9   -0.02    0.05 
  -6   6  -9    0.12    0.03 
  -6   6  -9    0.07    0.04 
   6   5  -9    3.15    0.15 
   5   5  -9    0.37    0.06 
   5   5  -9    0.18    0.06 
   4   5  -9    0.10    0.05 
   4   5  -9    0.23    0.05 
   3   5  -9    1.65    0.11 
   3   5  -9    1.39    0.13 
   2   5  -9   -0.02    0.04 
   2   5  -9   -0.06    0.05 
   1   5  -9    0.02    0.06 
   1   5  -9   -0.06    0.04 
   1   5  -9    0.06    0.05 
   1   5  -9   -0.05    0.07 
   0   5  -9    0.58    0.10 
   0   5  -9    0.51    0.07 
   0   5  -9    0.36    0.08 
   0   5  -9    0.41    0.06 
  -1   5  -9   -0.01    0.05 
  -1   5  -9    0.03    0.05 
  -1   5  -9   -0.03    0.06 
  -1   5  -9   -0.02    0.07 
  -2   5  -9    1.15    0.12 
  -2   5  -9    1.42    0.11 
  -2   5  -9    1.44    0.10 
  -2   5  -9    1.09    0.14 
  -3   5  -9    0.53    0.09 
  -3   5  -9    0.45    0.06 
  -3   5  -9    0.45    0.10 
  -4   5  -9    0.11    0.08 
  -4   5  -9    0.15    0.07 
  -5   5  -9    0.13    0.06 
  -6   5  -9    0.17    0.05 
   6   4  -9    0.06    0.04 
   5   4  -9    0.09    0.05 
   5   4  -9    0.21    0.05 
   4   4  -9    0.10    0.06 
   4   4  -9    0.10    0.05 
   3   4  -9    0.19    0.06 
   3   4  -9    0.21    0.06 
   3   4  -9    0.28    0.06 
   2   4  -9    0.25    0.07 
   2   4  -9    0.21    0.05 
   1   4  -9    1.83    0.16 
   1   4  -9    1.70    0.15 
   1   4  -9    1.53    0.12 
   0   4  -9    5.12    0.28 
   0   4  -9    5.57    0.31 
   0   4  -9    5.07    0.33 
  -1   4  -9    2.60    0.19 
  -1   4  -9    2.49    0.21 
  -1   4  -9    2.46    0.16 
  -2   4  -9   -0.02    0.06 
  -2   4  -9   -0.01    0.04 
  -2   4  -9   -0.12    0.07 
  -3   4  -9    0.83    0.13 
  -3   4  -9    0.95    0.11 
  -4   4  -9   -0.03    0.07 
  -4   4  -9    0.02    0.06 
  -5   4  -9    0.10    0.06 
  -5   4  -9    0.02    0.07 
   7   3  -9    0.10    0.05 
   6   3  -9    0.46    0.07 
   5   3  -9    0.83    0.09 
   4   3  -9    0.14    0.06 
   3   3  -9    1.14    0.12 
   3   3  -9    0.92    0.09 
   2   3  -9    3.98    0.29 
   2   3  -9    4.11    0.25 
   2   3  -9    4.01    0.23 
   1   3  -9    4.83    0.26 
   1   3  -9    4.27    0.30 
   1   3  -9    4.86    0.27 
   1   3  -9    4.56    0.32 
   0   3  -9   28.52    1.48 
   0   3  -9   27.98    1.27 
   0   3  -9   29.08    1.59 
   0   3  -9   28.66    1.33 
  -1   3  -9    0.73    0.10 
  -1   3  -9    0.75    0.08 
  -1   3  -9    1.04    0.13 
  -1   3  -9    0.87    0.13 
  -2   3  -9    0.68    0.07 
  -2   3  -9    0.57    0.11 
  -2   3  -9    0.58    0.09 
  -2   3  -9    0.61    0.11 
  -3   3  -9    0.20    0.07 
  -3   3  -9    0.24    0.10 
  -3   3  -9    0.26    0.09 
  -4   3  -9    0.04    0.08 
   7   2  -9    0.13    0.05 
   6   2  -9    0.84    0.09 
   5   2  -9    0.06    0.05 
   4   2  -9    0.33    0.07 
   3   2  -9    0.05    0.06 
   3   2  -9    0.00    0.05 
   3   2  -9    0.01    0.06 
   2   2  -9    0.40    0.09 
   2   2  -9    0.35    0.07 
   2   2  -9    0.37    0.08 
   2   2  -9    0.39    0.08 
  -2  -2   9    0.31    0.08 
   1   2  -9    0.00    0.05 
   1   2  -9    0.15    0.07 
   1   2  -9    0.20    0.08 
   1   2  -9    0.13    0.07 
   0   2  -9    1.40    0.11 
   0   2  -9    1.10    0.14 
   0   2  -9    1.39    0.16 
   0   2  -9    1.29    0.13 
  -1   2  -9    0.07    0.05 
  -1   2  -9    0.05    0.07 
  -1   2  -9    0.00    0.07 
  -1   2  -9    0.06    0.07 
  -2   2  -9    0.48    0.10 
  -2   2  -9    0.54    0.07 
  -2   2  -9    0.49    0.10 
  -3   2  -9   -0.03    0.08 
  -3   2  -9   -0.07    0.07 
  -3   2  -9    0.05    0.05 
  -4   2  -9    0.23    0.09 
   7   1  -9    0.82    0.09 
   6   1  -9   -0.02    0.05 
   5   1  -9    0.21    0.07 
   4   1  -9    1.22    0.12 
   3   1  -9    1.00    0.11 
   3   1  -9    0.82    0.09 
   3   1  -9    0.66    0.10 
  -3  -1   9    0.73    0.11 
   2   1  -9    0.38    0.08 
   2   1  -9    0.40    0.09 
   2   1  -9    0.26    0.08 
   2   1  -9    0.33    0.06 
  -2  -1   9    0.50    0.09 
   1   1  -9    0.10    0.05 
   1   1  -9   -0.03    0.06 
   1   1  -9   -0.01    0.07 
   1   1  -9    0.04    0.06 
  -1  -1   9    0.11    0.07 
   0   1  -9    2.86    0.24 
   0   1  -9    2.58    0.18 
   0   1  -9    3.08    0.22 
  -1   1  -9    1.41    0.12 
  -1   1  -9    1.60    0.17 
  -1   1  -9    1.33    0.15 
  -2   1  -9    0.13    0.09 
  -2   1  -9    0.06    0.08 
  -2   1  -9    0.04    0.05 
  -3   1  -9    0.31    0.09 
  -3   1  -9    0.24    0.10 
  -3   1  -9    0.21    0.05 
   7   0  -9    0.33    0.07 
   6   0  -9   -0.03    0.06 
   5   0  -9    3.44    0.22 
   4   0  -9    1.29    0.14 
   4   0  -9    1.65    0.14 
   3   0  -9    1.60    0.13 
   3   0  -9    1.95    0.17 
   3   0  -9    2.28    0.16 
  -3   0   9    1.86    0.17 
   2   0  -9    2.75    0.18 
   2   0  -9    2.40    0.23 
   2   0  -9    2.68    0.21 
   2   0  -9    2.86    0.19 
  -2   0   9    2.79    0.21 
   1   0  -9    0.69    0.08 
   1   0  -9    0.57    0.10 
   1   0  -9    0.43    0.10 
   0   0  -9    0.24    0.06 
   0   0  -9    0.23    0.08 
   0   0  -9    0.15    0.08 
  -1   0  -9    0.04    0.07 
  -1   0  -9    0.01    0.07 
  -1   0  -9   -0.02    0.05 
  -2   0  -9    0.27    0.10 
  -2   0  -9    0.42    0.10 
  -2   0  -9    0.32    0.07 
  -3   0  -9    1.20    0.15 
  -3   0  -9    1.28    0.11 
   7  -1  -9   -0.06    0.05 
   6  -1  -9    0.02    0.06 
   5  -1  -9    0.19    0.07 
   5  -1  -9    0.12    0.08 
   4  -1  -9    0.02    0.07 
   4  -1  -9   -0.09    0.06 
   3  -1  -9    0.56    0.12 
   3  -1  -9    0.52    0.10 
  -3   1   9    0.69    0.11 
   2  -1  -9    2.06    0.16 
   2  -1  -9    1.90    0.17 
   2  -1  -9    1.74    0.19 
   1  -1  -9    0.17    0.08 
   1  -1  -9    0.07    0.08 
   1  -1  -9    0.05    0.06 
   0  -1  -9    0.65    0.09 
   0  -1  -9    0.73    0.12 
   0  -1  -9    0.74    0.11 
   0  -1  -9    0.58    0.07 
  -1  -1  -9    1.07    0.11 
  -1  -1  -9    1.10    0.14 
  -1  -1  -9    0.80    0.08 
  -1  -1  -9    0.92    0.13 
  -2  -1  -9    0.35    0.05 
  -2  -1  -9    0.52    0.07 
  -2  -1  -9    0.42    0.11 
  -2  -1  -9    0.50    0.07 
  -2  -1  -9    0.31    0.10 
  -3  -1  -9    0.07    0.09 
  -3  -1  -9    0.08    0.05 
  -3  -1  -9    0.02    0.04 
  -4  -1  -9    0.01    0.05 
  -4  -1  -9    0.04    0.05 
   7  -2  -9    0.05    0.05 
  -7   2   9    0.04    0.05 
   6  -2  -9    0.19    0.07 
  -6   2   9    0.28    0.07 
   5  -2  -9    0.24    0.08 
   5  -2  -9    0.23    0.08 
  -5   2   9    0.26    0.08 
   4  -2  -9    0.03    0.07 
  -4   2   9    0.05    0.06 
   3  -2  -9    2.02    0.17 
   3  -2  -9    1.76    0.19 
  -3   2   9    1.71    0.15 
   2  -2  -9    3.85    0.23 
   2  -2  -9    3.76    0.30 
   2  -2  -9    3.83    0.27 
   1  -2  -9    0.21    0.06 
   1  -2  -9    0.15    0.08 
   1  -2  -9    0.11    0.08 
   1  -2  -9    0.26    0.07 
   0  -2  -9   -0.04    0.07 
   0  -2  -9    0.01    0.08 
   0  -2  -9    0.03    0.06 
   0  -2  -9   -0.03    0.04 
  -1  -2  -9    0.48    0.11 
  -1  -2  -9    0.45    0.07 
  -1  -2  -9    0.37    0.06 
  -1  -2  -9    0.30    0.09 
  -1  -2  -9    0.46    0.08 
  -2  -2  -9    0.29    0.06 
  -2  -2  -9    0.27    0.07 
  -2  -2  -9    0.31    0.10 
  -3  -2  -9    0.65    0.08 
  -3  -2  -9    0.73    0.08 
  -4  -2  -9    0.45    0.07 
  -4  -2  -9    0.38    0.06 
   7  -3  -9    1.22    0.10 
  -7   3   9    1.37    0.11 
   6  -3  -9    0.00    0.07 
  -6   3   9    0.04    0.05 
   5  -3  -9    1.01    0.13 
  -5   3   9    1.04    0.11 
   4  -3  -9    0.10    0.08 
  -4   3   9    0.19    0.07 
   3  -3  -9   -0.06    0.08 
   3  -3  -9   -0.02    0.07 
  -3   3   9    0.08    0.07 
   2  -3  -9    0.34    0.10 
   2  -3  -9    0.42    0.08 
   2  -3  -9    0.41    0.11 
  -2   3   9    0.53    0.09 
   1  -3  -9    0.09    0.06 
   1  -3  -9    0.01    0.08 
   1  -3  -9    0.03    0.08 
   0  -3  -9    0.14    0.06 
   0  -3  -9    0.20    0.09 
   0  -3  -9    0.14    0.08 
   0  -3  -9    0.22    0.06 
  -1  -3  -9    0.14    0.06 
  -1  -3  -9    0.12    0.06 
  -1  -3  -9    0.10    0.09 
  -2  -3  -9    0.59    0.12 
  -2  -3  -9    0.52    0.08 
  -2  -3  -9    0.57    0.08 
  -3  -3  -9    0.17    0.05 
  -3  -3  -9    0.13    0.06 
  -4  -3  -9   -0.09    0.04 
  -4  -3  -9   -0.03    0.04 
  -5  -3  -9   -0.01    0.04 
  -7   4   9    0.17    0.05 
   6  -4  -9    2.43    0.18 
  -6   4   9    2.48    0.17 
   5  -4  -9    0.19    0.08 
  -5   4   9    0.30    0.07 
   4  -4  -9    0.05    0.08 
   4  -4  -9    0.18    0.08 
  -4   4   9    0.01    0.06 
   3  -4  -9    0.06    0.08 
   3  -4  -9    0.03    0.08 
  -3   4   9   -0.02    0.06 
   2  -4  -9    3.03    0.24 
   2  -4  -9    3.47    0.27 
  -2   4   9    3.04    0.21 
   1  -4  -9    0.77    0.13 
   1  -4  -9    0.64    0.12 
   1  -4  -9    0.74    0.09 
   0  -4  -9    0.06    0.08 
   0  -4  -9    0.03    0.06 
   0  -4  -9    0.17    0.09 
   0  -4  -9    0.03    0.05 
  -1  -4  -9    0.05    0.06 
  -1  -4  -9    0.08    0.05 
  -1  -4  -9   -0.01    0.08 
  -2  -4  -9    1.02    0.10 
  -2  -4  -9    1.09    0.11 
  -2  -4  -9    0.87    0.13 
  -3  -4  -9    0.59    0.07 
  -3  -4  -9    0.59    0.08 
  -4  -4  -9    0.08    0.04 
  -4  -4  -9    0.06    0.04 
  -5  -4  -9    0.16    0.04 
  -6   5   9    0.04    0.05 
   5  -5  -9    0.15    0.07 
  -5   5   9    0.09    0.05 
   4  -5  -9    0.24    0.08 
   4  -5  -9    0.17    0.08 
  -4   5   9    0.10    0.06 
   3  -5  -9    4.60    0.30 
   3  -5  -9    4.60    0.33 
  -3   5   9    4.51    0.27 
   2  -5  -9    3.01    0.25 
   2  -5  -9    2.62    0.21 
  -2   5   9    2.81    0.19 
   1  -5  -9    0.67    0.12 
   1  -5  -9    0.46    0.08 
   1  -5  -9    0.52    0.11 
   0  -5  -9    0.03    0.08 
   0  -5  -9    0.00    0.05 
   0  -5  -9    0.00    0.04 
  -1  -5  -9    0.09    0.06 
  -1  -5  -9    0.19    0.09 
  -1  -5  -9    0.16    0.05 
  -2  -5  -9    0.04    0.08 
  -2  -5  -9    0.04    0.05 
  -2  -5  -9   -0.01    0.04 
  -3  -5  -9    0.05    0.04 
  -3  -5  -9    0.03    0.04 
  -4  -5  -9    0.05    0.04 
  -4  -5  -9    0.06    0.04 
   5  -6  -9    0.18    0.06 
  -5   6   9    0.18    0.05 
   4  -6  -9   -0.03    0.06 
   4  -6  -9   -0.04    0.06 
  -4   6   9    0.00    0.05 
   3  -6  -9    0.82    0.11 
   3  -6  -9    0.88    0.12 
  -3   6   9    0.99    0.10 
   2  -6  -9    0.12    0.08 
   2  -6  -9    0.12    0.08 
  -2   6   9    0.16    0.06 
   1  -6  -9    0.34    0.06 
   1  -6  -9    0.37    0.10 
   0  -6  -9   -0.01    0.07 
   0  -6  -9    0.09    0.05 
  -1  -6  -9   -0.03    0.07 
  -1  -6  -9   -0.01    0.04 
  -1  -6  -9    0.04    0.04 
  -2  -6  -9    0.06    0.04 
  -2  -6  -9    0.08    0.04 
  -3  -6  -9    0.06    0.03 
  -3  -6  -9    0.11    0.04 
  -4   7   9    0.07    0.04 
   3  -7  -9    0.10    0.06 
  -3   7   9    0.17    0.05 
   2  -7  -9    1.21    0.13 
  -2   7   9    1.18    0.10 
   1  -7  -9    2.74    0.21 
  -1   7   9    2.69    0.17 
   0  -7  -9    0.02    0.04 
   0  -7  -9    0.11    0.07 
  -1  -7  -9    0.20    0.04 
  -1   8 -10    0.01    0.03 
  -1   8 -10   -0.04    0.03 
   2   7 -10    0.27    0.04 
   2   7 -10    0.30    0.05 
   1   7 -10    0.46    0.05 
   1   7 -10    0.39    0.06 
   0   7 -10    0.26    0.05 
   0   7 -10    0.28    0.04 
  -1   7 -10    0.19    0.05 
  -1   7 -10    0.26    0.04 
  -2   7 -10    0.82    0.06 
  -2   7 -10    0.63    0.07 
  -3   7 -10    0.24    0.05 
  -3   7 -10    0.31    0.04 
  -4   7 -10    0.21    0.04 
   3   6 -10    0.06    0.04 
   3   6 -10   -0.04    0.03 
   2   6 -10    0.03    0.04 
   2   6 -10   -0.01    0.04 
   1   6 -10   -0.04    0.04 
   1   6 -10   -0.03    0.04 
   0   6 -10    0.02    0.04 
   0   6 -10    0.07    0.06 
   0   6 -10    0.02    0.05 
  -1   6 -10    0.02    0.06 
  -1   6 -10    0.00    0.05 
  -1   6 -10    0.10    0.04 
  -2   6 -10    0.14    0.04 
  -2   6 -10    0.09    0.06 
  -2   6 -10    0.08    0.06 
  -3   6 -10    0.08    0.06 
  -3   6 -10   -0.02    0.05 
  -4   6 -10    0.28    0.05 
  -5   6 -10    0.12    0.04 
   4   5 -10   -0.01    0.04 
   4   5 -10    0.01    0.04 
   3   5 -10    0.08    0.04 
   3   5 -10    0.06    0.05 
   2   5 -10   -0.02    0.05 
   1   5 -10    0.07    0.06 
   1   5 -10   -0.01    0.06 
   1   5 -10    0.05    0.04 
   0   5 -10    0.66    0.07 
   0   5 -10    0.60    0.09 
   0   5 -10    0.57    0.09 
  -1   5 -10    0.02    0.04 
  -1   5 -10    0.05    0.06 
  -1   5 -10   -0.01    0.06 
  -2   5 -10    3.61    0.19 
  -2   5 -10    3.36    0.24 
  -2   5 -10    3.78    0.22 
  -3   5 -10    0.48    0.10 
  -3   5 -10    0.58    0.08 
  -4   5 -10    0.29    0.08 
  -4   5 -10    0.28    0.06 
  -5   5 -10    0.57    0.06 
   5   4 -10    0.45    0.06 
   4   4 -10    2.19    0.15 
   3   4 -10    0.91    0.10 
   2   4 -10    0.13    0.05 
   2   4 -10    0.09    0.06 
   1   4 -10    0.08    0.07 
   1   4 -10    0.11    0.05 
   1   4 -10    0.11    0.06 
   0   4 -10    6.02    0.30 
   0   4 -10    6.02    0.32 
   0   4 -10    5.68    0.36 
  -1   4 -10    0.68    0.08 
  -1   4 -10    0.90    0.10 
  -1   4 -10    0.95    0.12 
  -2   4 -10   -0.04    0.06 
  -2   4 -10    0.05    0.07 
  -2   4 -10    0.03    0.04 
  -3   4 -10    0.15    0.08 
  -3   4 -10    0.03    0.06 
  -4   4 -10    0.01    0.07 
  -4   4 -10   -0.06    0.05 
   6   3 -10    0.04    0.04 
   5   3 -10   -0.03    0.05 
   4   3 -10    0.19    0.06 
   3   3 -10    0.09    0.04 
   3   3 -10    0.02    0.05 
   2   3 -10    0.14    0.08 
   2   3 -10    0.24    0.07 
   2   3 -10    0.22    0.05 
   1   3 -10    0.13    0.07 
   1   3 -10    0.13    0.05 
   1   3 -10    0.08    0.07 
   1   3 -10    0.20    0.08 
   0   3 -10    0.95    0.11 
   0   3 -10    0.73    0.11 
   0   3 -10    0.74    0.12 
   0   3 -10    0.77    0.08 
  -1   3 -10    0.10    0.07 
  -1   3 -10    0.08    0.04 
  -1   3 -10    0.00    0.07 
  -1   3 -10    0.12    0.08 
  -2   3 -10    0.31    0.09 
  -2   3 -10    0.25    0.09 
  -2   3 -10    0.19    0.05 
  -2   3 -10    0.29    0.08 
  -3   3 -10    0.98    0.14 
  -4   3 -10    0.06    0.07 
   6   2 -10   -0.05    0.04 
   5   2 -10    0.11    0.05 
   4   2 -10    0.30    0.07 
   3   2 -10    0.97    0.09 
   3   2 -10    0.78    0.11 
   3   2 -10    1.05    0.11 
   2   2 -10    0.17    0.07 
   2   2 -10    0.25    0.07 
   2   2 -10    0.19    0.08 
   2   2 -10    0.33    0.06 
   1   2 -10    1.97    0.17 
   1   2 -10    2.00    0.19 
   1   2 -10    1.96    0.15 
   1   2 -10    1.82    0.16 
   0   2 -10   12.30    0.56 
   0   2 -10   11.39    0.66 
   0   2 -10   12.08    0.71 
   0   2 -10   11.82    0.59 
  -1   2 -10    3.71    0.27 
  -1   2 -10    4.14    0.22 
  -1   2 -10    3.95    0.29 
  -2   2 -10    3.71    0.26 
  -2   2 -10    3.78    0.28 
  -2   2 -10    3.60    0.20 
  -3   2 -10    0.13    0.08 
  -3   2 -10    0.33    0.10 
  -3   2 -10    0.28    0.05 
   6   1 -10    0.91    0.09 
   5   1 -10    0.33    0.07 
   4   1 -10    0.02    0.06 
   3   1 -10    1.27    0.12 
   3   1 -10    0.95    0.12 
   3   1 -10    1.01    0.09 
   2   1 -10    0.23    0.08 
   2   1 -10    0.27    0.08 
   2   1 -10    0.21    0.08 
   2   1 -10    0.23    0.06 
   1   1 -10    1.77    0.14 
   1   1 -10    1.92    0.19 
   1   1 -10    1.88    0.15 
   1   1 -10    1.79    0.16 
   0   1 -10    0.08    0.05 
   0   1 -10   -0.04    0.07 
   0   1 -10    0.12    0.08 
  -1   1 -10    0.87    0.13 
  -1   1 -10    0.83    0.12 
  -1   1 -10    0.81    0.08 
  -2   1 -10    0.91    0.13 
  -2   1 -10    0.92    0.13 
  -2   1 -10    0.87    0.08 
  -3   1 -10    0.39    0.09 
  -3   1 -10    0.29    0.09 
  -3   1 -10    0.35    0.06 
   6   0 -10    0.06    0.05 
   5   0 -10    0.02    0.06 
   4   0 -10    0.11    0.07 
   4   0 -10    0.10    0.07 
   3   0 -10    0.34    0.07 
   3   0 -10    0.42    0.09 
   3   0 -10    0.43    0.08 
   2   0 -10    0.04    0.07 
   2   0 -10    0.05    0.05 
   2   0 -10    0.00    0.07 
   1   0 -10    1.21    0.14 
   1   0 -10    1.15    0.15 
   1   0 -10    1.37    0.11 
   0   0 -10    2.27    0.20 
   0   0 -10    2.73    0.17 
   0   0 -10    2.49    0.22 
  -1   0 -10    0.13    0.08 
  -1   0 -10    0.04    0.08 
  -1   0 -10    0.13    0.05 
  -2   0 -10    0.95    0.13 
  -2   0 -10    1.16    0.10 
  -2   0 -10    0.97    0.13 
  -3   0 -10    0.91    0.13 
  -3   0 -10    0.91    0.08 
   6  -1 -10    0.26    0.06 
   5  -1 -10    0.43    0.08 
   4  -1 -10   -0.02    0.06 
   4  -1 -10    0.04    0.06 
   3  -1 -10    4.50    0.32 
   3  -1 -10    4.41    0.29 
   2  -1 -10    0.01    0.07 
   2  -1 -10    0.09    0.05 
   2  -1 -10    0.04    0.08 
   1  -1 -10    0.32    0.09 
   1  -1 -10    0.24    0.06 
   1  -1 -10    0.26    0.09 
   0  -1 -10   -0.04    0.07 
   0  -1 -10   -0.01    0.07 
   0  -1 -10    0.07    0.05 
  -1  -1 -10   -0.05    0.07 
  -1  -1 -10    0.01    0.07 
  -1  -1 -10   -0.03    0.05 
  -2  -1 -10   -0.02    0.08 
  -2  -1 -10   -0.01    0.04 
  -2  -1 -10   -0.01    0.07 
  -3  -1 -10    0.09    0.08 
  -3  -1 -10    0.24    0.05 
  -4  -1 -10    0.07    0.04 
   6  -2 -10    1.74    0.12 
   5  -2 -10    0.40    0.09 
   4  -2 -10    0.42    0.09 
   3  -2 -10    0.71    0.11 
   3  -2 -10    0.71    0.12 
   2  -2 -10    0.12    0.08 
   2  -2 -10    0.12    0.08 
   2  -2 -10    0.08    0.05 
   1  -2 -10    0.13    0.06 
   1  -2 -10    0.10    0.08 
   1  -2 -10    0.13    0.08 
   0  -2 -10    0.12    0.08 
   0  -2 -10    0.10    0.06 
   0  -2 -10    0.04    0.08 
  -1  -2 -10    0.60    0.11 
  -1  -2 -10    0.82    0.12 
  -1  -2 -10    0.63    0.08 
  -2  -2 -10    0.13    0.05 
  -2  -2 -10    0.23    0.09 
  -3  -2 -10    1.65    0.12 
  -4  -2 -10   -0.07    0.04 
   5  -3 -10    0.20    0.07 
  -5   3  10    0.30    0.06 
   4  -3 -10    0.19    0.08 
  -4   3  10    0.15    0.06 
   3  -3 -10    0.92    0.13 
   3  -3 -10    1.22    0.14 
  -3   3  10    1.06    0.10 
   2  -3 -10    0.09    0.08 
   2  -3 -10    0.06    0.08 
   2  -3 -10    0.01    0.05 
  -2   3  10    0.02    0.06 
   1  -3 -10    0.76    0.12 
   1  -3 -10    0.97    0.14 
   1  -3 -10    0.71    0.09 
  -1   3  10    0.89    0.10 
   0  -3 -10    0.41    0.09 
   0  -3 -10    0.42    0.07 
   0  -3 -10    0.41    0.11 
  -1  -3 -10    0.87    0.09 
  -1  -3 -10    0.58    0.11 
  -2  -3 -10    0.82    0.09 
  -2  -3 -10    1.03    0.13 
  -3  -3 -10    2.12    0.14 
  -4  -3 -10    0.27    0.05 
   5  -4 -10    0.06    0.06 
  -5   4  10    0.05    0.05 
   4  -4 -10    0.15    0.07 
  -4   4  10    0.12    0.06 
   3  -4 -10   -0.05    0.07 
   3  -4 -10    0.06    0.07 
  -3   4  10    0.02    0.05 
   2  -4 -10   -0.04    0.07 
   2  -4 -10    0.04    0.04 
  -2   4  10   -0.07    0.05 
   1  -4 -10    0.02    0.05 
   1  -4 -10   -0.01    0.07 
   1  -4 -10   -0.05    0.08 
  -1   4  10   -0.07    0.06 
   0  -4 -10   -0.04    0.08 
   0  -4 -10    0.09    0.05 
   0  -4 -10    0.00    0.07 
  -1  -4 -10    0.48    0.10 
  -1  -4 -10    0.36    0.07 
  -2  -4 -10    0.26    0.06 
  -2  -4 -10    0.26    0.08 
  -3  -4 -10    0.03    0.04 
   4  -5 -10    1.47    0.13 
  -4   5  10    1.35    0.11 
   3  -5 -10    0.00    0.06 
   3  -5 -10   -0.05    0.06 
  -3   5  10   -0.08    0.04 
   2  -5 -10    0.17    0.08 
   2  -5 -10    0.14    0.07 
  -2   5  10    0.16    0.06 
   1  -5 -10    0.31    0.06 
   1  -5 -10    0.20    0.08 
   1  -5 -10    0.18    0.07 
  -1   5  10    0.14    0.06 
   0  -5 -10    1.77    0.18 
   0  -5 -10    2.15    0.14 
  -1  -5 -10    1.12    0.10 
  -1  -5 -10    1.14    0.13 
  -2  -5 -10    0.14    0.04 
   3  -6 -10    0.05    0.06 
   2  -6 -10    1.36    0.13 
  -2   6  10    1.01    0.09 
   1  -6 -10    4.62    0.23 
   1  -6 -10    4.62    0.30 
  -1   6  10    4.32    0.24 
   0  -6 -10    2.50    0.14 
   0  -6 -10    2.39    0.19 
   1   6 -11    0.29    0.05 
   0   6 -11   -0.01    0.04 
  -1   6 -11    0.03    0.04 
  -2   6 -11    0.20    0.05 
   3   5 -11    0.02    0.04 
   2   5 -11    0.15    0.04 
   1   5 -11    0.10    0.05 
   1   5 -11    0.06    0.06 
   0   5 -11    0.14    0.05 
   0   5 -11    0.11    0.06 
  -1   5 -11   -0.04    0.04 
  -1   5 -11   -0.02    0.05 
  -2   5 -11    0.02    0.05 
  -2   5 -11    0.00    0.04 
  -3   5 -11    0.04    0.04 
  -3   5 -11    0.06    0.05 
   4   4 -11    0.24    0.05 
   3   4 -11    0.13    0.05 
   2   4 -11   -0.02    0.04 
   1   4 -11    0.32    0.05 
   1   4 -11    0.23    0.06 
   1   4 -11    0.15    0.07 
   0   4 -11    0.43    0.06 
   0   4 -11    0.43    0.08 
   0   4 -11    0.45    0.07 
  -1   4 -11    0.08    0.06 
  -1   4 -11    0.08    0.05 
  -1   4 -11   -0.02    0.03 
  -2   4 -11    0.51    0.06 
  -2   4 -11    0.43    0.07 
  -2   4 -11    0.56    0.09 
  -3   4 -11    0.05    0.06 
   4   3 -11    0.34    0.06 
   3   3 -11    0.40    0.06 
   2   3 -11    0.66    0.07 
   2   3 -11    0.52    0.07 
   2   3 -11    0.53    0.09 
   1   3 -11    0.31    0.08 
   1   3 -11    0.18    0.06 
   1   3 -11    0.19    0.05 
   0   3 -11    0.09    0.06 
   0   3 -11    0.11    0.04 
   0   3 -11    0.09    0.06 
  -1   3 -11    2.53    0.16 
  -1   3 -11    2.10    0.18 
  -1   3 -11    2.38    0.14 
  -2   3 -11    4.26    0.21 
  -2   3 -11    3.98    0.27 
  -3   3 -11    0.25    0.07 
   5   2 -11    0.21    0.05 
   4   2 -11    0.03    0.05 
   3   2 -11    0.04    0.06 
   3   2 -11    0.02    0.05 
   3   2 -11    0.04    0.04 
   2   2 -11   -0.07    0.06 
   2   2 -11   -0.03    0.06 
   2   2 -11   -0.01    0.04 
   2   2 -11    0.04    0.06 
   1   2 -11    0.01    0.06 
   1   2 -11   -0.02    0.04 
   1   2 -11   -0.01    0.06 
   1   2 -11   -0.02    0.05 
   0   2 -11    0.02    0.06 
   0   2 -11    0.02    0.06 
   0   2 -11    0.00    0.06 
   0   2 -11    0.12    0.04 
  -1   2 -11    2.70    0.21 
  -1   2 -11    3.30    0.18 
  -1   2 -11    3.00    0.23 
  -2   2 -11    5.82    0.35 
  -2   2 -11    5.16    0.33 
  -2   2 -11    5.27    0.27 
  -3   2 -11    0.13    0.07 
  -3   2 -11    0.08    0.04 
   5   1 -11    0.07    0.05 
   4   1 -11    0.76    0.08 
   3   1 -11    0.05    0.04 
   3   1 -11    0.05    0.06 
   3   1 -11   -0.02    0.06 
   2   1 -11   -0.01    0.06 
   2   1 -11    0.05    0.07 
   2   1 -11   -0.02    0.06 
   2   1 -11   -0.03    0.04 
   1   1 -11    0.75    0.08 
   1   1 -11    0.52    0.10 
   1   1 -11    0.70    0.10 
   0   1 -11   -0.01    0.06 
   0   1 -11    0.04    0.06 
   0   1 -11    0.02    0.04 
  -1   1 -11    0.30    0.08 
  -1   1 -11    0.30    0.08 
  -1   1 -11    0.38    0.06 
  -2   1 -11    0.13    0.07 
  -2   1 -11    0.13    0.04 
  -2   1 -11    0.05    0.07 
  -3   1 -11    0.11    0.07 
  -3   1 -11    0.03    0.04 
   5   0 -11    0.00    0.05 
   4   0 -11    0.08    0.06 
   4   0 -11    0.11    0.06 
   3   0 -11    0.35    0.06 
   3   0 -11    0.29    0.08 
   2   0 -11    0.77    0.11 
   2   0 -11    0.70    0.08 
   2   0 -11    0.66    0.10 
   1   0 -11    0.08    0.07 
   1   0 -11    0.02    0.04 
   1   0 -11    0.05    0.06 
   0   0 -11    0.03    0.07 
   0   0 -11   -0.02    0.07 
   0   0 -11    0.06    0.04 
  -1   0 -11    0.01    0.07 
  -1   0 -11   -0.05    0.04 
  -1   0 -11    0.01    0.06 
  -2   0 -11    0.40    0.09 
  -2   0 -11    0.32    0.08 
  -2   0 -11    0.27    0.05 
  -3   0 -11    0.08    0.07 
  -3   0 -11    0.05    0.04 
   4  -1 -11    0.20    0.07 
   3  -1 -11    0.06    0.07 
   3  -1 -11    0.08    0.06 
   2  -1 -11    1.12    0.09 
   2  -1 -11    1.13    0.12 
   2  -1 -11    0.96    0.12 
   1  -1 -11    0.23    0.08 
   1  -1 -11    0.26    0.08 
   1  -1 -11    0.25    0.05 
   0  -1 -11   -0.02    0.06 
   0  -1 -11    0.03    0.07 
   0  -1 -11    0.00    0.04 
  -1  -1 -11    0.10    0.07 
  -1  -1 -11    0.05    0.04 
  -1  -1 -11    0.13    0.07 
  -2  -1 -11    0.04    0.07 
  -2  -1 -11    0.09    0.04 
  -3  -1 -11    0.04    0.03 
  -3  -1 -11    0.06    0.07 
   4  -2 -11    0.91    0.10 
   3  -2 -11   -0.02    0.06 
   3  -2 -11   -0.02    0.06 
   2  -2 -11    0.04    0.07 
   2  -2 -11   -0.01    0.06 
   2  -2 -11    0.00    0.04 
   1  -2 -11    0.12    0.07 
   1  -2 -11    0.03    0.07 
   1  -2 -11    0.07    0.04 
   0  -2 -11    0.02    0.06 
   0  -2 -11    0.02    0.07 
   0  -2 -11    0.04    0.04 
  -1  -2 -11   -0.01    0.04 
  -1  -2 -11   -0.01    0.07 
  -1  -2 -11   -0.03    0.06 
  -2  -2 -11    0.23    0.08 
  -3  -2 -11    0.38    0.05 
   3  -3 -11    0.21    0.07 
   3  -3 -11    0.17    0.06 
   2  -3 -11    0.05    0.04 
   2  -3 -11    0.09    0.06 
   2  -3 -11    0.08    0.06 
   1  -3 -11    0.07    0.04 
   1  -3 -11    0.10    0.06 
   1  -3 -11    0.10    0.07 
   0  -3 -11   -0.04    0.04 
   0  -3 -11   -0.03    0.07 
   0  -3 -11    0.00    0.06 
  -1  -3 -11    0.03    0.07 
  -1  -3 -11    0.06    0.04 
  -2  -3 -11    0.01    0.03 
  -2  -3 -11   -0.01    0.06 
   2  -4 -11    0.13    0.07 
   1  -4 -11    0.01    0.06 
   1  -4 -11    0.00    0.03 
   0  -4 -11    0.03    0.03 
   0  -4 -11    0.03    0.07 
  -1  -4 -11    0.06    0.03 
  -1  -4 -11    0.00    0.06 
   0   4 -12    0.00    0.04 
   1   3 -12    0.03    0.04 
   1   3 -12    0.00    0.03 
   0   3 -12    0.18    0.05 
   0   3 -12    0.10    0.03 
  -1   3 -12    0.02    0.03 
   2   2 -12    0.54    0.06 
   2   2 -12    0.67    0.06 
   1   2 -12    0.00    0.03 
   1   2 -12    0.07    0.06 
   0   2 -12    0.27    0.04 
   0   2 -12    0.21    0.06 
  -1   2 -12    0.18    0.04 
  -1   2 -12    0.19    0.06 
  -2   2 -12    0.13    0.03 
   2   1 -12    0.10    0.03 
   1   1 -12    0.16    0.06 
   1   1 -12    0.21    0.06 
   1   1 -12    0.23    0.04 
   0   1 -12    0.03    0.06 
   0   1 -12    0.06    0.05 
   0   1 -12    0.00    0.03 
  -1   1 -12    0.10    0.04 
  -2   1 -12    1.07    0.08 
   2   0 -12    0.12    0.04 
   2   0 -12    0.13    0.06 
   1   0 -12    0.20    0.06 
   1   0 -12    0.40    0.05 
   1   0 -12    0.22    0.06 
   0   0 -12    0.11    0.04 
   0   0 -12    0.08    0.06 
   0   0 -12    0.09    0.06 
  -1   0 -12    0.13    0.04 
  -1   0 -12    0.06    0.06 
   2  -1 -12    0.14    0.06 
   1  -1 -12   -0.01    0.05 
   1  -1 -12    0.02    0.03 
   0  -1 -12    0.01    0.05 
   0  -1 -12   -0.02    0.03 
  -1  -1 -12    0.07    0.06 
  -1  -1 -12    0.11    0.03 
   1  -2 -12    0.20    0.06 
   0   0   0    0.00    0.00 
;
_shelx_hkl_checksum              72187
loop_
_space_group_symop_operation_xyz
'x, y, z'
'-x, -y, -z'
loop_
_atom_site_label
_atom_site_type_symbol
_atom_site_fract_x
_atom_site_fract_y
_atom_site_fract_z
_atom_site_U_iso_or_equiv
_atom_site_adp_type
_atom_site_occupancy
_atom_site_site_symmetry_order
_atom_site_calc_flag
_atom_site_refinement_flags_posn
_atom_site_refinement_flags_adp
S1 S 1.04466(8) 0.70388(8) 0.19678(8) 0.0709(3) Uani 1 1 d . .
N1 N 0.2739(2) 0.8223(2) 0.5381(2) 0.0543(5) Uani 1 1 d . .
N2 N 0.7487(2) 0.7951(2) 0.1007(2) 0.0512(5) Uani 1 1 d . .
N3 N 0.7227(3) 0.7254(2) -0.0155(2) 0.0620(6) Uani 1 1 d . .
O1 O 0.1956(2) 1.0140(2) 0.5007(2) 0.0758(6) Uani 1 1 d . .
O2 O 0.3566(2) 0.6355(2) 0.5803(2) 0.0733(6) Uani 1 1 d . .
O3 O 0.6071(2) 0.6516(2) -0.0284(2) 0.0801(6) Uani 1 1 d . .
O4 O 1.1950(2) 0.8450(2) 0.0327(3) 0.0817(7) Uani 1 1 d . .
C1 C 0.2752(2) 0.9351(3) 0.4722(3) 0.0552(6) Uani 1 1 d . .
C2 C 0.3619(3) 0.7271(3) 0.5140(2) 0.0527(6) Uani 1 1 d . .
C3 C 0.4596(2) 0.7454(2) 0.4041(2) 0.0475(6) Uani 1 1 d . .
C4 C 0.4656(2) 0.8585(2) 0.3345(2) 0.0434(5) Uani 1 1 d . .
C5 C 0.3766(2) 0.9536(2) 0.3654(2) 0.0476(6) Uani 1 1 d . .
C6 C 0.3842(3) 1.0642(3) 0.2981(3) 0.0566(6) Uani 1 1 d . .
H6 H 0.3263 1.1272 0.3202 0.068 Uiso 1 1 calc R U
C7 C 0.4782(3) 1.0822(3) 0.1966(3) 0.0569(6) Uani 1 1 d . .
H7 H 0.4825 1.1573 0.1517 0.068 Uiso 1 1 calc R U
C8 C 0.5643(2) 0.9906(2) 0.1623(2) 0.0496(6) Uani 1 1 d . .
H8 H 0.6250 1.0029 0.0933 0.060 Uiso 1 1 calc R U
C9 C 0.5609(2) 0.8776(2) 0.2314(2) 0.0432(5) Uani 1 1 d . .
C10 C 0.6489(2) 0.7789(2) 0.2041(2) 0.0483(6) Uani 1 1 d . .
C11 C 0.6396(3) 0.6697(2) 0.2707(3) 0.0573(6) Uani 1 1 d . .
H11 H 0.6967 0.6060 0.2489 0.069 Uiso 1 1 calc R U
C12 C 0.5440(3) 0.6525(3) 0.3726(3) 0.0575(6) Uani 1 1 d . .
H12 H 0.5385 0.5779 0.4184 0.069 Uiso 1 1 calc R U
C13 C 0.8832(3) 0.8873(3) 0.1150(3) 0.0571(6) Uani 1 1 d . .
H13A H 0.8626 0.9767 0.1325 0.069 Uiso 1 1 calc R U
H13B H 0.9317 0.8835 0.0333 0.069 Uiso 1 1 calc R U
C14 C 0.9826(3) 0.8604(3) 0.2216(3) 0.0647(7) Uani 1 1 d . .
H14A H 0.9334 0.8634 0.3030 0.078 Uiso 1 1 calc R U
H14B H 1.0650 0.9309 0.2300 0.078 Uiso 1 1 calc R U
C15 C 1.1700(3) 0.7386(3) 0.0736(3) 0.0652(7) Uani 1 1 d . .
C16 C 1.2411(4) 0.6219(4) 0.0301(5) 0.0970(12) Uani 1 1 d . .
H16A H 1.2146 0.5933 -0.0594 0.145 Uiso 1 1 calc R U
H16B H 1.2109 0.5505 0.0826 0.145 Uiso 1 1 calc R U
H16C H 1.3433 0.6475 0.0392 0.145 Uiso 1 1 calc R U
C17 C 0.1714(3) 0.8001(3) 0.6432(3) 0.0650(7) Uani 1 1 d . .
H17A H 0.1522 0.8852 0.6810 0.078 Uiso 1 1 calc R U
H17B H 0.2146 0.7581 0.7110 0.078 Uiso 1 1 calc R U
C18 C 0.0320(3) 0.7145(3) 0.5959(3) 0.0690(8) Uani 1 1 d . .
H18A H 0.0508 0.6287 0.5596 0.083 Uiso 1 1 calc R U
H18B H -0.0107 0.7557 0.5272 0.083 Uiso 1 1 calc R U
C19 C -0.0722(3) 0.6948(3) 0.7040(3) 0.0705(8) Uani 1 1 d . .
H19A H -0.0281 0.6555 0.7732 0.085 Uiso 1 1 calc R U
H19B H -0.0914 0.7808 0.7391 0.085 Uiso 1 1 calc R U
C20 C -0.2115(3) 0.6079(4) 0.6610(4) 0.0851(10) Uani 1 1 d . .
H20A H -0.2553 0.6453 0.5916 0.128 Uiso 1 1 calc R U
H20B H -0.2743 0.6020 0.7328 0.128 Uiso 1 1 calc R U
H20C H -0.1941 0.5208 0.6311 0.128 Uiso 1 1 calc R U
loop_
_atom_site_aniso_label
_atom_site_aniso_U_11
_atom_site_aniso_U_22
_atom_site_aniso_U_33
_atom_site_aniso_U_23
_atom_site_aniso_U_13
_atom_site_aniso_U_12
S1 0.0560(4) 0.0812(5) 0.0826(6) 0.0243(4) 0.0158(4) 0.0212(3)
N1 0.0417(11) 0.0673(13) 0.0516(12) -0.0043(10) 0.0154(9) 0.0058(9)
N2 0.0452(11) 0.0622(12) 0.0478(11) -0.0011(9) 0.0129(9) 0.0152(9)
N3 0.0622(14) 0.0714(14) 0.0547(13) -0.0040(10) 0.0082(11) 0.0223(11)
O1 0.0564(11) 0.0868(14) 0.0888(15) -0.0057(11) 0.0249(11) 0.0305(10)
O2 0.0802(14) 0.0737(12) 0.0690(13) 0.0200(10) 0.0272(11) 0.0114(10)
O3 0.0729(14) 0.0912(15) 0.0713(14) -0.0122(11) 0.0029(11) 0.0096(12)
O4 0.0665(13) 0.0806(14) 0.1032(17) 0.0229(12) 0.0317(12) 0.0168(10)
C1 0.0379(12) 0.0667(15) 0.0582(15) -0.0094(12) 0.0067(11) 0.0077(11)
C2 0.0484(13) 0.0589(14) 0.0486(13) -0.0001(11) 0.0085(11) 0.0042(10)
C3 0.0419(12) 0.0522(13) 0.0486(13) 0.0026(10) 0.0084(10) 0.0086(9)
C4 0.0342(11) 0.0502(12) 0.0441(12) -0.0022(9) 0.0010(10) 0.0056(8)
C5 0.0362(11) 0.0538(13) 0.0523(13) -0.0041(10) 0.0030(10) 0.0106(9)
C6 0.0443(13) 0.0579(14) 0.0700(16) -0.0013(12) -0.0021(12) 0.0197(10)
C7 0.0523(14) 0.0583(14) 0.0635(16) 0.0119(12) -0.0005(13) 0.0157(11)
C8 0.0411(12) 0.0602(14) 0.0487(13) 0.0077(11) 0.0021(10) 0.0103(10)
C9 0.0348(11) 0.0509(12) 0.0438(12) 0.0003(9) 0.0025(9) 0.0086(9)
C10 0.0405(12) 0.0565(13) 0.0489(13) 0.0012(10) 0.0096(10) 0.0121(10)
C11 0.0544(14) 0.0562(14) 0.0663(16) 0.0060(12) 0.0181(13) 0.0219(11)
C12 0.0582(15) 0.0562(14) 0.0620(16) 0.0143(11) 0.0153(13) 0.0153(11)
C13 0.0468(13) 0.0622(14) 0.0641(16) 0.0041(12) 0.0169(12) 0.0128(11)
C14 0.0481(14) 0.0805(18) 0.0655(17) -0.0018(14) 0.0101(13) 0.0142(12)
C15 0.0471(14) 0.0741(18) 0.0761(19) 0.0054(14) 0.0077(14) 0.0154(12)
C16 0.076(2) 0.096(2) 0.126(3) -0.001(2) 0.020(2) 0.0379(18)
C17 0.0506(14) 0.0851(19) 0.0547(15) -0.0099(13) 0.0201(13) 0.0036(12)
C18 0.0545(16) 0.088(2) 0.0586(16) -0.0100(14) 0.0162(13) 0.0023(13)
C19 0.0522(15) 0.090(2) 0.0657(17) -0.0030(15) 0.0162(14) 0.0049(13)
C20 0.0586(18) 0.102(2) 0.088(2) -0.0050(19) 0.0162(17) -0.0032(16)
loop_
_atom_type_symbol
_atom_type_description
_atom_type_scat_dispersion_real
_atom_type_scat_dispersion_imag
_atom_type_scat_source
C C 0.0181 0.0091 'International Tables Vol C Tables 4.2.6.8 and 6.1.1.4'
H H 0.0000 0.0000 'International Tables Vol C Tables 4.2.6.8 and 6.1.1.4'
N N 0.0311 0.0180 'International Tables Vol C Tables 4.2.6.8 and 6.1.1.4'
O O 0.0492 0.0322 'International Tables Vol C Tables 4.2.6.8 and 6.1.1.4'
S S 0.3331 0.5567 'International Tables Vol C Tables 4.2.6.8 and 6.1.1.4'
loop_
_geom_angle_atom_site_label_1
_geom_angle_atom_site_label_2
_geom_angle_atom_site_label_3
_geom_angle
C15 S1 C14 100.47(14)
C1 N1 C2 125.5(2)
C1 N1 C17 118.1(2)
C2 N1 C17 116.4(2)
N3 N2 C10 121.7(2)
N3 N2 C13 115.5(2)
C10 N2 C13 122.8(2)
O3 N3 N2 115.1(2)
O1 C1 N1 121.1(2)
O1 C1 C5 121.8(3)
N1 C1 C5 117.1(2)
O2 C2 N1 120.4(2)
O2 C2 C3 123.0(2)
N1 C2 C3 116.5(2)
C12 C3 C4 120.7(2)
C12 C3 C2 119.2(2)
C4 C3 C2 120.1(2)
C5 C4 C3 120.8(2)
C5 C4 C9 118.9(2)
C3 C4 C9 120.3(2)
C6 C5 C4 120.5(2)
C6 C5 C1 119.7(2)
C4 C5 C1 119.8(2)
C5 C6 C7 120.2(2)
C5 C6 H6 119.9
C7 C6 H6 119.9
C8 C7 C6 120.9(2)
C8 C7 H7 119.6
C6 C7 H7 119.6
C7 C8 C9 120.1(2)
C7 C8 H8 119.9
C9 C8 H8 119.9
C8 C9 C4 119.4(2)
C8 C9 C10 123.8(2)
C4 C9 C10 116.8(2)
C11 C10 C9 121.9(2)
C11 C10 N2 119.4(2)
C9 C10 N2 118.7(2)
C10 C11 C12 120.3(2)
C10 C11 H11 119.8
C12 C11 H11 119.8
C3 C12 C11 119.9(2)
C3 C12 H12 120.0
C11 C12 H12 120.0
N2 C13 C14 114.0(2)
N2 C13 H13A 108.7
C14 C13 H13A 108.7
N2 C13 H13B 108.7
C14 C13 H13B 108.7
H13A C13 H13B 107.6
C13 C14 S1 114.6(2)
C13 C14 H14A 108.6
S1 C14 H14A 108.6
C13 C14 H14B 108.6
S1 C14 H14B 108.6
H14A C14 H14B 107.6
O4 C15 C16 124.7(3)
O4 C15 S1 122.3(2)
C16 C15 S1 113.0(3)
C15 C16 H16A 109.5
C15 C16 H16B 109.5
H16A C16 H16B 109.5
C15 C16 H16C 109.5
H16A C16 H16C 109.5
H16B C16 H16C 109.5
N1 C17 C18 112.5(2)
N1 C17 H17A 109.1
C18 C17 H17A 109.1
N1 C17 H17B 109.1
C18 C17 H17B 109.1
H17A C17 H17B 107.8
C17 C18 C19 111.8(2)
C17 C18 H18A 109.3
C19 C18 H18A 109.3
C17 C18 H18B 109.2
C19 C18 H18B 109.2
H18A C18 H18B 107.9
C20 C19 C18 113.4(3)
C20 C19 H19A 108.9
C18 C19 H19A 108.9
C20 C19 H19B 108.9
C18 C19 H19B 108.9
H19A C19 H19B 107.7
C19 C20 H20A 109.5
C19 C20 H20B 109.5
H20A C20 H20B 109.5
C19 C20 H20C 109.5
H20A C20 H20C 109.5
H20B C20 H20C 109.5
loop_
_geom_bond_atom_site_label_1
_geom_bond_atom_site_label_2
_geom_bond_distance
S1 C15 1.778(3)
S1 C14 1.797(3)
N1 C1 1.391(4)
N1 C2 1.393(3)
N1 C17 1.480(3)
N2 N3 1.338(3)
N2 C10 1.444(3)
N2 C13 1.453(3)
N3 O3 1.223(3)
O1 C1 1.215(3)
O2 C2 1.206(3)
O4 C15 1.194(4)
C1 C5 1.483(3)
C2 C3 1.486(3)
C3 C12 1.362(3)
C3 C4 1.411(3)
C4 C5 1.410(3)
C4 C9 1.417(3)
C5 C6 1.374(4)
C6 C7 1.395(4)
C6 H6 0.9300
C7 C8 1.369(3)
C7 H7 0.9300
C8 C9 1.410(3)
C8 H8 0.9300
C9 C10 1.425(3)
C10 C11 1.357(4)
C11 C12 1.407(4)
C11 H11 0.9300
C12 H12 0.9300
C13 C14 1.507(4)
C13 H13A 0.9700
C13 H13B 0.9700
C14 H14A 0.9700
C14 H14B 0.9700
C15 C16 1.506(4)
C16 H16A 0.9600
C16 H16B 0.9600
C16 H16C 0.9600
C17 C18 1.507(4)
C17 H17A 0.9700
C17 H17B 0.9700
C18 C19 1.511(4)
C18 H18A 0.9700
C18 H18B 0.9700
C19 C20 1.501(4)
C19 H19A 0.9700
C19 H19B 0.9700
C20 H20A 0.9600
C20 H20B 0.9600
C20 H20C 0.9600
loop_
_geom_hbond_atom_site_label_D
_geom_hbond_atom_site_label_H
_geom_hbond_atom_site_label_A
_geom_hbond_distance_DH
_geom_hbond_distance_HA
_geom_hbond_distance_DA
_geom_hbond_angle_DHA
_geom_hbond_site_symmetry_A
C16 H16C O3 0.96 2.60 3.498(4) 155.4 1_655
C13 H13B O4 0.97 2.59 3.176(3) 119.3 .
C16 H16C O3 0.96 2.60 3.498(4) 155.4 1_655
C13 H13B O4 0.97 2.59 3.176(3) 119.3 .
C13 H13B O4 0.97 2.59 3.176(3) 119.3 .
C16 H16C O3 0.96 2.60 3.498(4) 155.4 1_655
loop_
_geom_torsion_atom_site_label_1
_geom_torsion_atom_site_label_2
_geom_torsion_atom_site_label_3
_geom_torsion_atom_site_label_4
_geom_torsion
C10 N2 N3 O3 2.6(3)
C13 N2 N3 O3 -177.4(2)
C2 N1 C1 O1 -179.1(2)
C17 N1 C1 O1 0.7(4)
C2 N1 C1 C5 1.5(4)
C17 N1 C1 C5 -178.7(2)
C1 N1 C2 O2 176.9(2)
C17 N1 C2 O2 -2.9(4)
C1 N1 C2 C3 -3.2(4)
C17 N1 C2 C3 177.0(2)
O2 C2 C3 C12 2.5(4)
N1 C2 C3 C12 -177.4(2)
O2 C2 C3 C4 -176.8(2)
N1 C2 C3 C4 3.4(3)
C12 C3 C4 C5 178.9(2)
C2 C3 C4 C5 -1.8(3)
C12 C3 C4 C9 -0.6(4)
C2 C3 C4 C9 178.7(2)
C3 C4 C5 C6 179.4(2)
C9 C4 C5 C6 -1.2(3)
C3 C4 C5 C1 0.0(3)
C9 C4 C5 C1 179.5(2)
O1 C1 C5 C6 1.5(4)
N1 C1 C5 C6 -179.1(2)
O1 C1 C5 C4 -179.1(2)
N1 C1 C5 C4 0.3(3)
C4 C5 C6 C7 1.2(4)
C1 C5 C6 C7 -179.4(2)
C5 C6 C7 C8 0.0(4)
C6 C7 C8 C9 -1.3(4)
C7 C8 C9 C4 1.3(3)
C7 C8 C9 C10 -178.6(2)
C5 C4 C9 C8 -0.1(3)
C3 C4 C9 C8 179.4(2)
C5 C4 C9 C10 179.8(2)
C3 C4 C9 C10 -0.7(3)
C8 C9 C10 C11 -178.2(2)
C4 C9 C10 C11 1.9(4)
C8 C9 C10 N2 0.6(4)
C4 C9 C10 N2 -179.34(19)
N3 N2 C10 C11 75.5(3)
C13 N2 C10 C11 -104.4(3)
N3 N2 C10 C9 -103.3(3)
C13 N2 C10 C9 76.7(3)
C9 C10 C11 C12 -1.8(4)
N2 C10 C11 C12 179.4(2)
C4 C3 C12 C11 0.7(4)
C2 C3 C12 C11 -178.5(2)
C10 C11 C12 C3 0.5(4)
N3 N2 C13 C14 -120.1(2)
C10 N2 C13 C14 59.8(3)
N2 C13 C14 S1 63.8(3)
C15 S1 C14 C13 74.1(2)
C14 S1 C15 O4 1.7(3)
C14 S1 C15 C16 -179.4(2)
C1 N1 C17 C18 93.1(3)
C2 N1 C17 C18 -87.1(3)
N1 C17 C18 C19 -179.0(3)
C17 C18 C19 C20 -179.0(3)
