#------------------------------------------------------------------------------
#$Date: 2017-02-04 04:17:45 +0200 (Sat, 04 Feb 2017) $
#$Revision: 191361 $
#$URL: file:///home/coder/svn-repositories/cod/cif/1/54/48/1544841.cif $
#------------------------------------------------------------------------------
#
# This file is available in the Crystallography Open Database (COD),
# http://www.crystallography.net/
#
# All data on this site have been placed in the public domain by the
# contributors.
#
data_1544841
loop_
_publ_author_name
'Chen, Changjuan'
'Cui, Yaqin'
'Mao, Xiaoyang'
'Pan, Xiaobo'
'Wu, Jincai'
_publ_section_title
;
 Suppressing Cyclic Polymerization for Isoselective Synthesis of
 High-Molecular-Weight Linear Polylactide Catalyzed by Sodium/Potassium
 Sulfonamidate Complexes
;
_journal_issue                   1
_journal_name_full               Macromolecules
_journal_page_first              83
_journal_paper_doi               10.1021/acs.macromol.6b02271
_journal_volume                  50
_journal_year                    2017
_chemical_formula_moiety         'C40 H55 K N O9 S, 1(C7 H8)'
_chemical_formula_sum            'C47 H63 K N O9 S'
_chemical_formula_weight         857.14
_space_group_crystal_system      triclinic
_space_group_IT_number           2
_space_group_name_Hall           '-P 1'
_space_group_name_H-M_alt        'P -1'
_symmetry_space_group_name_Hall  '-P 1'
_symmetry_space_group_name_H-M   'P -1'
_atom_sites_solution_hydrogens   geom
_atom_sites_solution_primary     direct
_audit_creation_date             2016-04-16
_audit_creation_method
;
Olex2 1.2
(compiled 2016.02.19 svn.r3266 for OlexSys, GUI svn.r5155)
;
_cell_angle_alpha                76.475(5)
_cell_angle_beta                 86.282(5)
_cell_angle_gamma                88.815(4)
_cell_formula_units_Z            2
_cell_length_a                   10.9876(5)
_cell_length_b                   12.4673(7)
_cell_length_c                   18.4805(12)
_cell_measurement_reflns_used    3392
_cell_measurement_temperature    291.23(10)
_cell_measurement_theta_max      26.7070
_cell_measurement_theta_min      3.6860
_cell_volume                     2456.1(2)
_computing_cell_refinement
;
CrysAlisPro, Agilent Technologies,
Version 1.171.37.35 (release 13-08-2014 CrysAlis171 .NET)
(compiled Aug 13 2014,18:06:01)
;
_computing_data_collection
;
CrysAlisPro, Agilent Technologies,
Version 1.171.37.35 (release 13-08-2014 CrysAlis171 .NET)
(compiled Aug 13 2014,18:06:01)
;
_computing_data_reduction
;
CrysAlisPro, Agilent Technologies,
Version 1.171.37.35 (release 13-08-2014 CrysAlis171 .NET)
(compiled Aug 13 2014,18:06:01)
;
_computing_molecular_graphics    'Olex2 (Dolomanov et al., 2009)'
_computing_publication_material  'Olex2 (Dolomanov et al., 2009)'
_computing_structure_refinement  'ShelXL (Sheldrick, 2015)'
_computing_structure_solution    'ShelXS (Sheldrick, 2008)'
_diffrn_ambient_environment      air
_diffrn_ambient_temperature      291.23(10)
_diffrn_detector                 'CCD plate'
_diffrn_detector_area_resol_mean 16.0733
_diffrn_detector_type            Eos
_diffrn_measured_fraction_theta_full 0.985
_diffrn_measured_fraction_theta_max 0.985
_diffrn_measurement_details
;
#__ type_ start__ end____ width___ exp.time_
  1 omega   -9.00   82.00   1.0000    8.0000
omega____ theta____ kappa____ phi______ frames
    -       20.5854   77.0000    0.0000 91

#__ type_ start__ end____ width___ exp.time_
  2 omega   21.00   54.00   1.0000    8.0000
omega____ theta____ kappa____ phi______ frames
    -       20.5854   57.0000   90.0000 33

#__ type_ start__ end____ width___ exp.time_
  3 omega   -5.00   85.00   1.0000    8.0000
omega____ theta____ kappa____ phi______ frames
    -       20.5854   38.0000  -90.0000 90

#__ type_ start__ end____ width___ exp.time_
  4 omega  -12.00   14.00   1.0000    8.0000
omega____ theta____ kappa____ phi______ frames
    -      -17.1479  -99.0000   90.0000 26

#__ type_ start__ end____ width___ exp.time_
  5 omega   41.00   69.00   1.0000    8.0000
omega____ theta____ kappa____ phi______ frames
    -       20.5854  178.0000   30.0000 28

#__ type_ start__ end____ width___ exp.time_
  6 omega  -52.00   46.00   1.0000    8.0000
omega____ theta____ kappa____ phi______ frames
    -       20.5854  -38.0000   90.0000 98
;
_diffrn_measurement_device       'four-circle diffractometer'
_diffrn_measurement_device_type  'SuperNova, Dual, Cu at zero, Eos'
_diffrn_measurement_method       '\w scans'
_diffrn_orient_matrix_UB_11      -0.0029878000
_diffrn_orient_matrix_UB_12      -0.0222484000
_diffrn_orient_matrix_UB_13      -0.0318248000
_diffrn_orient_matrix_UB_21      -0.0059629000
_diffrn_orient_matrix_UB_22      -0.0537485000
_diffrn_orient_matrix_UB_23      0.0234175000
_diffrn_orient_matrix_UB_31      -0.0643470000
_diffrn_orient_matrix_UB_32      0.0063480000
_diffrn_orient_matrix_UB_33      0.0017625000
_diffrn_radiation_monochromator  mirror
_diffrn_radiation_probe          x-ray
_diffrn_radiation_type           MoK\a
_diffrn_radiation_wavelength     0.71073
_diffrn_reflns_av_R_equivalents  0.0282
_diffrn_reflns_av_unetI/netI     0.0604
_diffrn_reflns_Laue_measured_fraction_full 0.985
_diffrn_reflns_Laue_measured_fraction_max 0.985
_diffrn_reflns_limit_h_max       13
_diffrn_reflns_limit_h_min       -11
_diffrn_reflns_limit_k_max       14
_diffrn_reflns_limit_k_min       -14
_diffrn_reflns_limit_l_max       21
_diffrn_reflns_limit_l_min       -21
_diffrn_reflns_number            15012
_diffrn_reflns_point_group_measured_fraction_full 0.985
_diffrn_reflns_point_group_measured_fraction_max 0.985
_diffrn_reflns_theta_full        25.000
_diffrn_reflns_theta_max         25.000
_diffrn_reflns_theta_min         3.361
_diffrn_source                   'SuperNova (Mo) X-ray Source'
_exptl_absorpt_coefficient_mu    0.201
_exptl_absorpt_correction_T_max  1.00000
_exptl_absorpt_correction_T_min  0.73777
_exptl_absorpt_correction_type   multi-scan
_exptl_absorpt_process_details
;
CrysAlisPro, Agilent Technologies,
Version 1.171.37.35 (release 13-08-2014 CrysAlis171 .NET)
(compiled Aug 13 2014,18:06:01)
Empirical absorption correction using spherical harmonics,
 implemented in SCALE3 ABSPACK scaling algorithm.
;
_exptl_crystal_colour            colourless
_exptl_crystal_colour_primary    colourless
_exptl_crystal_density_diffrn    1.159
_exptl_crystal_description       block
_exptl_crystal_F_000             918
_exptl_crystal_size_max          0.25
_exptl_crystal_size_mid          0.22
_exptl_crystal_size_min          0.18
_refine_diff_density_max         0.544
_refine_diff_density_min         -0.467
_refine_diff_density_rms         0.056
_refine_ls_extinction_method     none
_refine_ls_goodness_of_fit_ref   1.067
_refine_ls_hydrogen_treatment    constr
_refine_ls_matrix_type           full
_refine_ls_number_parameters     631
_refine_ls_number_reflns         8518
_refine_ls_number_restraints     177
_refine_ls_restrained_S_all      1.066
_refine_ls_R_factor_all          0.0912
_refine_ls_R_factor_gt           0.0627
_refine_ls_shift/su_max          0.000
_refine_ls_shift/su_mean         0.000
_refine_ls_structure_factor_coef Fsqd
_refine_ls_weighting_details
'w=1/[\s^2^(Fo^2^)+(0.0948P)^2^] where P=(Fo^2^+2Fc^2^)/3'
_refine_ls_weighting_scheme      calc
_refine_ls_wR_factor_gt          0.1611
_refine_ls_wR_factor_ref         0.1816
_reflns_Friedel_coverage         0.000
_reflns_number_gt                5991
_reflns_number_total             8518
_reflns_threshold_expression     'I > 2\s(I)'
_cod_data_source_file            ma6b02271_si_006.cif
_cod_data_source_block           wujc_0415
_cod_depositor_comments
'Adding full bibliography for 1544839--1544842.cif.'
_cod_database_code               1544841
_shelx_space_group_comment
;
The symmetry employed for this shelxl refinement is uniquely defined
by the following loop, which should always be used as a source of
symmetry information in preference to the above space-group names.
They are only intended as comments.
;
_reflns_odcompleteness_completeness 98.57
_reflns_odcompleteness_iscentric 1
_reflns_odcompleteness_theta     26.32
_olex2_refinement_description
;
1. Fixed Uiso
 At 1.2 times of:
  All C(H) groups, All C(H,H) groups
 At 1.5 times of:
  All C(H,H,H) groups
2. Restrained distances
 C7B-C1B \\sim C1B-C3B
 with sigma of 0.02
 C7C-C1C \\sim C1C-C3C
 with sigma of 0.02
3. Restrained planarity
 C1B, C2B, C3B, C4B, C5B, C6B, C7B
 with sigma of 0.1
4. Rigid bond restraints
 C2C, C3C, C4C, C5C, C6C, C7C, C1C
 with sigma for 1-2 distances of 0.01 and sigma for 1-3 distances of 0.01
 C1B, C2B, C3B, C4B, C5B, C6B, C7B
 with sigma for 1-2 distances of 0.01 and sigma for 1-3 distances of 0.01
 C1A, C2A, C7A, C6A, C5A, C4A, C3A
 with sigma for 1-2 distances of 0.01 and sigma for 1-3 distances of 0.01
5. Uiso/Uaniso restraints and constraints
C2C \\sim C3C \\sim C4C \\sim C5C \\sim C6C \\sim C7C \\sim C1C: within 2A with
sigma of 0.04 and sigma for terminal atoms of 0.08
C1B \\sim C2B \\sim C3B \\sim C4B \\sim C5B \\sim C6B \\sim C7B: within 2A with
sigma of 0.04 and sigma for terminal atoms of 0.08
C1A \\sim C2A \\sim C7A \\sim C6A \\sim C5A \\sim C4A \\sim C3A: within 2A with
sigma of 0.04 and sigma for terminal atoms of 0.08
6. Others
 Fixed Sof: C1B(0.33333) H1BA(0.33333) H1BB(0.33333) H1BC(0.33333)
 C2B(0.33333) C3B(0.33333) H3B(0.33333) C4B(0.33333) H4B(0.33333) C5B(0.33333)
 H5B(0.33333) C6B(0.33333) H6B(0.33333) C7B(0.33333) H7B(0.33333) C2C(0.33333)
 C3C(0.33333) H3C(0.33333) C4C(0.33333) H4C(0.33333) C5C(0.33333) H5C(0.33333)
 C6C(0.33333) H6C(0.33333) C7C(0.33333) H7C(0.33333) C1C(0.33333) H1CA(0.33333)
 H1CB(0.33333) H1CC(0.33333) C1A(0.33333) H1AA(0.33333) H1AB(0.33333)
 H1AC(0.33333) C2A(0.33333) C7A(0.33333) H7A(0.33333) C6A(0.33333) H6A(0.33333)
 C5A(0.33333) H5A(0.33333) C4A(0.33333) H4A(0.33333) C3A(0.33333) H3A(0.33333)
7.a Ternary CH refined with riding coordinates:
 C16(H16), C7(H7), C13(H13), C10(H10)
7.b Secondary CH2 refined with riding coordinates:
 C29(H29A,H29B), C30(H30A,H30B), C32(H32A,H32B), C40(H40A,H40B), C39(H39A,
 H39B), C37(H37A,H37B), C35(H35A,H35B), C36(H36A,H36B), C34(H34A,H34B),
 C38(H38A,H38B), C33(H33A,H33B)
7.c Aromatic/amide H refined with riding coordinates:
 C27(H27), C25(H25), C24(H24), C3(H3), C26(H26), C18(H18), C21(H21), C5(H5),
 C31(H31), C20(H20), C19(H19), C3B(H3B), C4B(H4B), C5B(H5B), C6B(H6B), C7B(H7B),
  C3C(H3C), C4C(H4C), C5C(H5C), C6C(H6C), C7C(H7C), C7A(H7A), C6A(H6A),
 C5A(H5A), C4A(H4A), C3A(H3A)
7.d Fitted hexagon refined as free rotating group:
 C2B(C3B,C4B,C5B,C6B,C7B), C2C(C3C,C4C,C5C,C6C,C7C), C2A(C7A,C6A,C5A,C4A,C3A)
7.e Idealised Me refined as rotating group:
 C9(H9A,H9B,H9C), C8(H8A,H8B,H8C), C15(H15A,H15B,H15C), C12(H12A,H12B,H12C),
 C11(H11A,H11B,H11C), C14(H14A,H14B,H14C), C1B(H1BA,H1BB,H1BC), C1C(H1CA,H1CB,
 H1CC), C1A(H1AA,H1AB,H1AC)
;
_shelx_res_file
;
    wujc_0415.res created by SHELXL-2014/7

TITL wujc_0415 in P-1 #2
CELL 0.71073 10.987612 12.467298 18.480474 76.475 86.2819 88.8152
ZERR 2 0.000485 0.000697 0.001248 0.0053 0.0045 0.004
LATT 1
SFAC C H K N O S
UNIT 94 126 2 2 18 2
SADI C7B C1B C1B C3B
SADI C7C C1C C1C C3C
FLAT C1B C2B C3B C4B C5B C6B C7B
DELU C2C > C1C
DELU C1B > C7B
DELU C1A > C3A
SIMU C2C > C1C
SIMU C1B > C7B
SIMU C1A > C3A

L.S. 100
PLAN  20
BOND
MORE -1
BOND $H
CONF
fmap 2
acta
OMIT -0.01 50
OMIT 3 -6 3
OMIT 2 2 1
OMIT 1 0 3
OMIT 1 3 5
OMIT 1 2 2
OMIT -3 6 3
OMIT -1 -1 2
OMIT -5 11 15
OMIT -1 2 3
OMIT 1 1 4
OMIT 9 3 0
OMIT -9 0 3
OMIT 1 3 6
OMIT 0 0 3
OMIT 2 4 0
OMIT 1 -1 2
OMIT 2 1 3
OMIT 0 2 2
OMIT 0 3 5
OMIT 1 1 3
OMIT 0 2 4
OMIT -1 -4 1
OMIT 1 5 7
OMIT 0 1 3
OMIT 2 3 9
OMIT 1 2 3
OMIT 2 2 7
OMIT 1 4 6
OMIT -2 14 5
OMIT 1 5 10
OMIT -6 -3 6
OMIT 2 5 0
OMIT 0 -3 4
OMIT 5 -1 1
REM <olex2.extras>
REM <HklSrc "%.\\wujc_0415.hkl">
REM </olex2.extras>

WGHT    0.094800
FVAR       3.09506
K1    3    0.455439    0.253848    0.103563    11.00000    0.03026    0.03383 =
         0.05262   -0.00858    0.00649   -0.00360
S1    6    0.285988    0.030596    0.199296    11.00000    0.03410    0.04465 =
         0.02525    0.00190    0.00120    0.00217
O5    5    0.707251    0.181531    0.112367    11.00000    0.03515    0.04283 =
         0.05093   -0.00363    0.00066    0.00243
O4    5    0.563018    0.138840    0.001992    11.00000    0.03688    0.04476 =
         0.05508   -0.01253    0.00442   -0.00079
O3    5   -0.003253    0.390191    0.105772    11.00000    0.04462    0.03772 =
         0.04670   -0.01221   -0.00442    0.01154
O9    5    0.401259    0.305923   -0.059249    11.00000    0.03014    0.04039 =
         0.08500   -0.00429   -0.00023   -0.00082
O6    5    0.598241    0.288678    0.218902    11.00000    0.04477    0.04727 =
         0.06691   -0.01878    0.00395   -0.00753
O7    5    0.437252    0.452736    0.158900    11.00000    0.04222    0.04497 =
         0.08688   -0.01320    0.01787    0.00018
C28   1    0.066394    0.206565    0.096334    11.00000    0.02299    0.03384 =
         0.03030   -0.00330    0.00350   -0.00831
C16   1    0.112678    0.177914    0.174869    11.00000    0.02841    0.02940 =
         0.02842   -0.00249    0.00318   -0.00718
AFIX  13
H16   2    0.069017    0.112509    0.203844    11.00000   -1.20000
AFIX   0
C17   1    0.085456    0.272127    0.212516    11.00000    0.03154    0.03409 =
         0.03207   -0.00784    0.00903   -0.01060
C27   1    0.074949    0.130707    0.051493    11.00000    0.03792    0.03100 =
         0.03911   -0.00922   -0.00327   -0.00493
AFIX  43
H27   2    0.109945    0.061893    0.069644    11.00000   -1.20000
AFIX   0
O8    5    0.312718    0.449539    0.031586    11.00000    0.04229    0.03210 =
         0.08957   -0.00376    0.00437   -0.00540
C23   1    0.014242    0.308172    0.066735    11.00000    0.02591    0.03384 =
         0.03521   -0.00787    0.00231   -0.00090
C22   1    0.031170    0.370214    0.177778    11.00000    0.03111    0.03551 =
         0.03999   -0.00865    0.00490   -0.00794
C25   1   -0.017597    0.258358   -0.047619    11.00000    0.03292    0.05663 =
         0.03616   -0.00585   -0.00865   -0.00383
AFIX  43
H25   2   -0.045676    0.275354   -0.095399    11.00000   -1.20000
AFIX   0
C4    1    0.168847   -0.123537    0.447688    11.00000    0.04301    0.03867 =
         0.02975   -0.00020    0.00392    0.00412
C2    1    0.128302   -0.091082    0.315670    11.00000    0.04013    0.02664 =
         0.02858   -0.00038   -0.00322    0.00324
C24   1   -0.026051    0.335640   -0.005176    11.00000    0.03214    0.04471 =
         0.04218   -0.00062   -0.00618    0.00007
AFIX  43
H24   2   -0.058271    0.405327   -0.024290    11.00000   -1.20000
AFIX   0
C3    1    0.100508   -0.138322    0.391143    11.00000    0.04049    0.03291 =
         0.03043   -0.00358    0.00434   -0.00257
AFIX  43
H3    2    0.031582   -0.182432    0.403853    11.00000   -1.20000
AFIX   0
C26   1    0.032435    0.155577   -0.019572    11.00000    0.04018    0.04634 =
         0.03838   -0.01329   -0.00255   -0.00797
AFIX  43
H26   2    0.037565    0.103308   -0.048252    11.00000   -1.20000
AFIX   0
C7    1    0.038492   -0.116935    0.262565    11.00000    0.05113    0.02977 =
         0.03095   -0.00387   -0.00110   -0.00635
AFIX  13
H7    2    0.057223   -0.068135    0.213401    11.00000   -1.20000
AFIX   0
C29   1    0.688893    0.110664    0.004704    11.00000    0.03857    0.04442 =
         0.06084   -0.01289    0.01127    0.00604
AFIX  23
H29A  2    0.737582    0.171715   -0.024235    11.00000   -1.20000
H29B  2    0.705131    0.047055   -0.016316    11.00000   -1.20000
AFIX   0
C30   1    0.721510    0.085100    0.083734    11.00000    0.04015    0.04752 =
         0.07670   -0.01329    0.00373    0.01600
AFIX  23
H30A  2    0.669255    0.027068    0.113112    11.00000   -1.20000
H30B  2    0.805318    0.059309    0.087013    11.00000   -1.20000
AFIX   0
C13   1    0.136470   -0.180865    0.528506    11.00000    0.06101    0.05260 =
         0.02424    0.00259    0.00182   -0.00413
AFIX  13
H13   2    0.058797   -0.218985    0.530437    11.00000   -1.20000
AFIX   0
C18   1    0.117700    0.262263    0.285879    11.00000    0.06551    0.04382 =
         0.03398   -0.00942    0.00154   -0.01139
AFIX  43
H18   2    0.154440    0.197424    0.310790    11.00000   -1.20000
AFIX   0
C21   1    0.008909    0.454602    0.213545    11.00000    0.04758    0.03887 =
         0.05487   -0.01593    0.01361   -0.00291
AFIX  43
H21   2   -0.027214    0.519784    0.188664    11.00000   -1.20000
AFIX   0
C9    1    0.054306   -0.235359    0.254568    11.00000    0.09098    0.04030 =
         0.05017   -0.01517   -0.00397   -0.00632
AFIX 137
H9A   2    0.136441   -0.246324    0.236518    11.00000   -1.50000
H9B   2   -0.001424   -0.249240    0.219934    11.00000   -1.50000
H9C   2    0.037869   -0.285152    0.302212    11.00000   -1.50000
AFIX   0
C32   1    0.724912    0.262839    0.215213    11.00000    0.04546    0.06794 =
         0.05044   -0.00620   -0.00404   -0.01051
AFIX  23
H32A  2    0.756160    0.251136    0.264373    11.00000   -1.20000
H32B  2    0.769223    0.323479    0.182260    11.00000   -1.20000
AFIX   0
C40   1    0.522596    0.150840   -0.070444    11.00000    0.04695    0.04567 =
         0.06177   -0.01671    0.00298   -0.00349
AFIX  23
H40A  2    0.522941    0.079803   -0.083416    11.00000   -1.20000
H40B  2    0.576316    0.200003   -0.106494    11.00000   -1.20000
AFIX   0
C6    1    0.301756   -0.003162    0.353761    11.00000    0.03959    0.06261 =
         0.03146    0.00474   -0.00119   -0.00768
C5    1    0.268311   -0.054246    0.427803    11.00000    0.04379    0.06664 =
         0.02795    0.00111   -0.00985   -0.00150
AFIX  43
H5    2    0.314675   -0.041192    0.465184    11.00000   -1.20000
AFIX   0
C31   1    0.741958    0.161391    0.186695    11.00000    0.05043    0.05809 =
         0.05052    0.00099   -0.00545    0.01122
AFIX  43
H31   2    0.771180    0.094406    0.213747    11.00000   -1.20000
AFIX   0
C8    1   -0.094329   -0.095247    0.286309    11.00000    0.04843    0.06134 =
         0.04478   -0.00923   -0.00740   -0.00682
AFIX 137
H8A   2   -0.117504   -0.146480    0.332366    11.00000   -1.50000
H8B   2   -0.146365   -0.104398    0.248442    11.00000   -1.50000
H8C   2   -0.102266   -0.021285    0.292985    11.00000   -1.50000
AFIX   0
C20   1    0.039967    0.442800    0.286054    11.00000    0.07810    0.05103 =
         0.05482   -0.02675    0.02618   -0.01563
AFIX  43
H20   2    0.023340    0.499009    0.310690    11.00000   -1.20000
AFIX   0
C39   1    0.396270    0.197344   -0.071271    11.00000    0.04577    0.05001 =
         0.07312   -0.01464   -0.00401   -0.00811
AFIX  23
H39A  2    0.362798    0.199641   -0.118908    11.00000   -1.20000
H39B  2    0.344201    0.151318   -0.032360    11.00000   -1.20000
AFIX   0
C37   1    0.296812    0.469244   -0.046853    11.00000    0.03574    0.04738 =
         0.08569    0.01411    0.01315    0.00573
AFIX  23
H37A  2    0.365873    0.509663   -0.074891    11.00000   -1.20000
H37B  2    0.223503    0.512610   -0.059125    11.00000   -1.20000
AFIX   0
C19   1    0.096326    0.346089    0.321870    11.00000    0.09242    0.05834 =
         0.04099   -0.02067    0.00774   -0.01821
AFIX  43
H19   2    0.119668    0.338030    0.370341    11.00000   -1.20000
AFIX   0
C15   1    0.120502   -0.100421    0.578519    11.00000    0.07984    0.07367 =
         0.03104   -0.00546    0.00438    0.00184
AFIX 137
H15A  2    0.196783   -0.064905    0.579752    11.00000   -1.50000
H15B  2    0.094163   -0.139522    0.628035    11.00000   -1.50000
H15C  2    0.060446   -0.045871    0.559456    11.00000   -1.50000
AFIX   0
C35   1    0.334477    0.522050    0.136528    11.00000    0.03143    0.05178 =
         0.14845   -0.04968    0.00830    0.00165
AFIX  23
H35A  2    0.339602    0.589769    0.153419    11.00000   -1.20000
H35B  2    0.259614    0.484764    0.158401    11.00000   -1.20000
AFIX   0
C36   1    0.334629    0.547209    0.054471    11.00000    0.03754    0.03431 =
         0.13769   -0.00928   -0.02028    0.00102
AFIX  23
H36A  2    0.271786    0.601399    0.037552    11.00000   -1.20000
H36B  2    0.412818    0.577692    0.032766    11.00000   -1.20000
AFIX   0
C10   1    0.410094    0.076266    0.342117    11.00000    0.06333    0.14917 =
         0.03497    0.00635   -0.00995   -0.05692
AFIX  13
H10   2    0.412304    0.120191    0.290606    11.00000   -1.20000
AFIX   0
C34   1    0.445999    0.419079    0.236878    11.00000    0.07646    0.05818 =
         0.07948   -0.02849    0.02648   -0.00998
AFIX  23
H34A  2    0.389814    0.359267    0.257957    11.00000   -1.20000
H34B  2    0.425930    0.480062    0.259947    11.00000   -1.20000
AFIX   0
C38   1    0.286943    0.361316   -0.065909    11.00000    0.02959    0.06970 =
         0.06312    0.00251    0.00035    0.00365
AFIX  23
H38A  2    0.225568    0.316982   -0.032645    11.00000   -1.20000
H38B  2    0.262186    0.371997   -0.116553    11.00000   -1.20000
AFIX   0
C12   1    0.530064    0.008593    0.352837    11.00000    0.04200    0.28750 =
         0.05268    0.01762   -0.00713   -0.04645
AFIX 137
H12A  2    0.527409   -0.038852    0.401982    11.00000   -1.50000
H12B  2    0.597882    0.057910    0.346724    11.00000   -1.50000
H12C  2    0.539269   -0.035229    0.316452    11.00000   -1.50000
AFIX   0
C11   1    0.398365    0.155511    0.394196    11.00000    0.14028    0.15587 =
         0.04667   -0.00086   -0.01581   -0.11118
AFIX 137
H11A  2    0.319256    0.189838    0.391078    11.00000   -1.50000
H11B  2    0.460077    0.211137    0.379656    11.00000   -1.50000
H11C  2    0.408403    0.115263    0.444519    11.00000   -1.50000
AFIX   0
C14   1    0.232441   -0.267117    0.557959    11.00000    0.14036    0.07747 =
         0.03627    0.01164    0.00182    0.03685
AFIX 137
H14A  2    0.245178   -0.315595    0.524706    11.00000   -1.50000
H14B  2    0.205059   -0.309046    0.606534    11.00000   -1.50000
H14C  2    0.307596   -0.231091    0.561208    11.00000   -1.50000
AFIX   0
O1    5    0.237236   -0.045388    0.159649    11.00000    0.05281    0.04145 =
         0.02936   -0.00364    0.00437    0.00420
N1    4    0.243940    0.153187    0.174609    11.00000    0.02541    0.03998 =
         0.02809    0.00199    0.00082   -0.00228
O2    5    0.418588    0.031010    0.195523    11.00000    0.03225    0.06558 =
         0.03846    0.00815    0.00141    0.00675
C33   1    0.574313    0.381656    0.250415    11.00000    0.07211    0.05978 =
         0.06599   -0.02522    0.00898   -0.01675
AFIX  23
H33A  2    0.630405    0.440768    0.227547    11.00000   -1.20000
H33B  2    0.585371    0.361526    0.303549    11.00000   -1.20000
AFIX   0
C1    1    0.233357   -0.025127    0.296940    11.00000    0.03702    0.04130 =
         0.02664    0.00167   -0.00222    0.00327

PART -1
C1B   1    0.448183   -0.253786    0.300518    10.33333    0.08492    0.08675 =
         0.05152   -0.02411   -0.01779    0.00869
AFIX 137
H1BA  2    0.408908   -0.311522    0.284470    10.33333   -1.50000
H1BB  2    0.465702   -0.193391    0.258432    10.33333   -1.50000
H1BC  2    0.395282   -0.228860    0.336729    10.33333   -1.50000
AFIX  66
C2B   1    0.549876   -0.291362    0.330382    10.33333    0.06729    0.02924 =
         0.05575    0.00598    0.01380    0.00444
C3B   1    0.572660   -0.277312    0.400691    10.33333    0.09922    0.04062 =
         0.04722   -0.00146   -0.00260   -0.00064
AFIX  43
H3B   2    0.518001   -0.237571    0.425006    10.33333   -1.20000
AFIX  65
C4B   1    0.677137   -0.322658    0.434658    10.33333    0.13301    0.06685 =
         0.09001    0.01038   -0.03419   -0.01523
AFIX  43
H4B   2    0.692380   -0.313257    0.481700    10.33333   -1.20000
AFIX  65
C5B   1    0.758831   -0.382055    0.398318    10.33333    0.08056    0.05581 =
         0.14518    0.01997   -0.03074   -0.00980
AFIX  43
H5B   2    0.828733   -0.412394    0.421044    10.33333   -1.20000
AFIX  65
C6B   1    0.736048   -0.396107    0.328009    10.33333    0.03001    0.05579 =
         0.14125   -0.00321    0.00372   -0.01568
AFIX  43
H6B   2    0.790707   -0.435848    0.303695    10.33333   -1.20000
AFIX  65
C7B   1    0.631572   -0.350761    0.294041    10.33333    0.06770    0.05050 =
         0.07017   -0.01325    0.01105    0.01111
AFIX  43
H7B   2    0.616330   -0.360162    0.246999    10.33333   -1.20000
AFIX  66

PART 0
PART -3
C2C   1    0.596343   -0.381644    0.321733    10.33333    0.09509    0.09100 =
         0.07912   -0.07357   -0.01276   -0.00536
C3C   1    0.534351   -0.456502    0.379213    10.33333    0.10536    0.03730 =
         0.05266   -0.02760   -0.05412    0.03883
AFIX  43
H3C   2    0.576363   -0.514648    0.408386    10.33333   -1.20000
AFIX  65
C4C   1    0.409568   -0.444453    0.393091    10.33333    0.13261    0.10450 =
         0.07526   -0.05926    0.00281    0.00283
AFIX  43
H4C   2    0.368092   -0.494538    0.431549    10.33333   -1.20000
AFIX  65
C5C   1    0.346774   -0.357547    0.349489    10.33333    0.08253    0.15632 =
         0.10836   -0.10157   -0.02811    0.06543
AFIX  43
H5C   2    0.263286   -0.349486    0.358775    10.33333   -1.20000
AFIX  65
C6C   1    0.408765   -0.282688    0.292009    10.33333    0.17044    0.08907 =
         0.08830   -0.06712   -0.05129    0.05359
AFIX  43
H6C   2    0.366752   -0.224543    0.262836    10.33333   -1.20000
AFIX  65
C7C   1    0.533549   -0.294736    0.278130    10.33333    0.18095    0.07327 =
         0.04454   -0.01610   -0.00119   -0.02534
AFIX  43
H7C   2    0.575024   -0.244651    0.239672    10.33333   -1.20000
AFIX   0
C1C   1    0.697227   -0.387560    0.310658    10.33333    0.09793    0.22304 =
         0.15519   -0.12704   -0.03118   -0.05933
AFIX 137
H1CA  2    0.737695   -0.380222    0.353739    10.33333   -1.50000
H1CB  2    0.723242   -0.329712    0.268687    10.33333   -1.50000
H1CC  2    0.717357   -0.457826    0.300041    10.33333   -1.50000
AFIX   0

PART 0
PART -2
C1A   1    0.950545   -0.524462    0.509498    10.33333    0.24472    0.15820 =
         0.12188   -0.10312   -0.05698   -0.02265
AFIX 137
H1AA  2    0.998264   -0.524189    0.551167    10.33333   -1.50000
H1AB  2    0.994636   -0.487915    0.464185    10.33333   -1.50000
H1AC  2    0.934519   -0.599218    0.507821    10.33333   -1.50000
AFIX  66
C2A   1    0.843815   -0.471038    0.516991    10.33333    0.23149    0.11281 =
         0.05612   -0.04777    0.01084   -0.06945
C7A   1    0.746402   -0.525295    0.561353    10.33333    0.28074    0.09916 =
         0.02610   -0.01774   -0.00190   -0.12955
AFIX  43
H7A   2    0.755948   -0.597425    0.588646    10.33333   -1.20000
AFIX  65
C6A   1    0.634721   -0.471745    0.564924    10.33333    0.24216    0.17541 =
         0.07111   -0.06417    0.04122   -0.15656
AFIX  43
H6A   2    0.569545   -0.508047    0.594606    10.33333   -1.20000
AFIX  65
C5A   1    0.620453   -0.363938    0.524132    10.33333    0.19863    0.16293 =
         0.07842   -0.08473    0.02802   -0.10506
AFIX  43
H5A   2    0.545731   -0.328110    0.526521    10.33333   -1.20000
AFIX  65
C4A   1    0.717866   -0.309679    0.479769    10.33333    0.20130    0.12699 =
         0.07504   -0.02882   -0.00234   -0.08622
AFIX  43
H4A   2    0.708319   -0.237549    0.452476    10.33333   -1.20000
AFIX  65
C3A   1    0.829547   -0.363228    0.476197    10.33333    0.19083    0.09004 =
         0.02886   -0.01220    0.02377   -0.10267
AFIX  43
H3A   2    0.894722   -0.326925    0.446515    10.33333   -1.20000
AFIX   0
HKLF 4

REM  wujc_0415 in P-1 #2
REM R1 =  0.0627 for    5991 Fo > 4sig(Fo)  and  0.0912 for all    8518 data
REM    631 parameters refined using    177 restraints

END

WGHT      0.0947      0.0000

REM Highest difference peak  0.544,  deepest hole -0.467,  1-sigma level  0.056
Q1    1   0.6756  0.1001  0.2215  11.00000  0.05    0.54
Q2    1   0.7971 -0.3562  0.4848  11.00000  0.05    0.51
Q3    1   0.8391  0.1450  0.1882  11.00000  0.05    0.48
Q4    1   0.6817 -0.5650  0.6038  11.00000  0.05    0.43
Q5    1   0.4990  0.0525  0.3518  11.00000  0.05    0.35
Q6    1   0.4306 -0.3870  0.3503  11.00000  0.05    0.34
Q7    1   0.6587 -0.3485  0.3354  11.00000  0.05    0.33
Q8    1   0.5137 -0.4398  0.3700  11.00000  0.05    0.33
Q9    1   0.6970 -0.5023  0.5463  11.00000  0.05    0.31
Q10   1   0.6994 -0.4009  0.5105  11.00000  0.05    0.31
Q11   1   0.4778 -0.3007  0.3030  11.00000  0.05    0.31
Q12   1   0.4336 -0.2227  0.2989  11.00000  0.05    0.29
Q13   1   0.6335 -0.2936  0.2814  11.00000  0.05    0.28
Q14   1   0.5852  0.0987  0.3445  11.00000  0.05    0.27
Q15   1   0.4126  0.1021  0.3832  11.00000  0.05    0.26
Q16   1   0.7432 -0.4239  0.3237  11.00000  0.05    0.26
Q17   1   0.5983 -0.3173  0.5094  11.00000  0.05    0.25
Q18   1   0.4586 -0.2454  0.3481  11.00000  0.05    0.25
Q19   1   0.6211 -0.2595  0.3963  11.00000  0.05    0.25
Q20   1   0.6604 -0.3319  0.3900  11.00000  0.05    0.25
;
_shelx_res_checksum              39486
_shelx_hkl_file
;
   0   0   3 5197.28 193.836   6
   0   0   4 4645.46 212.659   6
   0   0   4 4460.38 151.032   1
   0   0   5 3186.37 194.796   6
   0   0   5 3279.86 144.858   1
   0   0  -5 3105.46 151.917   1
   0   0   6 3675.49 229.070   6
   0   0  -6 3685.74 181.433   1
   0   0   6 4117.10 176.296   1
   0   0   7 5451.56 298.236   6
   0   0   7 5651.84 222.305   1
   0   0  -7 5540.89 242.968   1
   0   0  -8 38343.6 689.700   1
   0   0   8 38666.7 614.807   1
   0   0   8 39532.8 872.556   6
   0   0  -9 1805.66 117.627   4
   0   0   9 1851.31 207.758   6
   0   0  -9 1922.39 165.533   1
   0   0   9 1793.02 140.856   1
   0   0  10 20125.0 699.728   6
   0   0 -10 18577.5 540.119   1
   0   0 -10 19498.8 395.624   4
   0   0  10 18612.9 473.717   1
   0   0 -11 10247.2 295.017   4
   0   0  11 10341.3 526.046   6
   0   0  11 10021.0 363.793   1
   0   0  12 393.316 75.1199   1
   0   0  12 347.466 114.410   6
   0   0 -12 410.543 62.3203   4
   0   0 -13 2325.30 143.902   4
   0   0  13 1508.73 224.535   6
   0   0  13 2102.73 182.315   1
   0   0  14 76.5978 46.8890   1
   0   0  14 46.6595 64.4617   6
   0   0  15 71.3404 48.7108   1
   0   0  15-19.9769 77.7455   6
   0   0  16 12.1691 33.1041   1
   0   0  16 7.80190 72.4450   6
   0   0  17 194.840 74.9452   1
   0   0  17 172.205 88.6651   6
   0   0  18 916.482 220.241   6
   0   0  19 1171.87 263.537   6
   0   0  20 1984.10 340.097   6
   0   0  21 259.081 149.482   6
   0   0  22 896.536 255.169   6
   0   0  23 229.385 154.302   6
   0  -1  23-80.5660 104.474   6
   0  -1  22-91.9029 94.0781   6
   0  -1  21 39.1873 70.4239   6
   0  -1  20 1872.39 337.832   6
   0  -1  19 97.3572 72.4942   6
   0  -1  18 2961.81 399.562   6
   0  -1  17 2096.50 204.438   1
   0  -1  17 2429.83 345.911   6
   0  -1  16 877.427 131.776   1
   0  -1  16 901.174 208.049   6
   0  -1  15 1227.23 221.731   6
   0  -1  15 1266.60 151.715   1
   0  -1  14 1265.05 224.419   6
   0  -1  14 1314.62 148.764   1
   0  -1  13-0.64953 36.4222   1
   0  -1  13 49.9487 93.2203   6
   0  -1  12 9089.68 358.314   1
   0  -1  12 9970.36 558.513   6
   0  -1  11 41477.7 740.860   1
   0  -1  11 41514.4 1086.10   6
   0  -1  10 10262.5 518.617   6
   0  -1  10 10095.1 351.839   1
   0  -1   9 2812.47 178.626   1
   0  -1   9 2876.53 260.663   6
   0  -1   8 84485.5 1299.98   6
   0  -1   8 81775.4 916.878   1
   0  -1   7 4784.15 212.481   1
   0  -1   7 4618.56 288.095   6
   0  -1   6 3534.66 233.620   6
   0  -1   6 3294.05 165.849   1
   0  -1   5 1049.24 88.1119   1
   0  -1   5 1255.41 127.011   6
   0  -1   4 125968. 1172.55   6
   0  -1   4 125586. 781.750   4
   0  -1   4 127601. 876.286   1
   0  -1   3 100.636 27.4535   4
   0  -1   3 82.2113 37.6463   6
   0   1   3 150.223 38.8634   6
   0   1   3 176.302 31.5143   1
   0   1   4 44098.4 661.525   6
   0   1   4 44917.1 506.477   1
   0   1   5 69986.6 688.276   1
   0   1   5 68853.5 911.292   6
   0   1   6 10063.0 382.251   6
   0   1   6 10929.9 296.532   1
   0  -1  -6 11037.2 314.013   1
   0   1   7 5560.46 303.993   6
   0  -1  -7 5957.46 251.183   1
   0   1   7 5731.15 230.718   1
   0  -1  -8 14156.8 417.732   1
   0   1   8 13702.1 379.686   1
   0   1   8 13912.3 519.340   6
   0  -1  -9 22485.7 563.999   1
   0   1   9 22276.6 700.128   6
   0   1   9 22636.0 511.814   1
   0   1  10 5096.84 356.944   6
   0   1  10 4924.06 253.792   1
   0   1  11 48.0869 33.6318   1
   0   1  11 122.580 80.7453   6
   0   1  12 6559.37 318.416   1
   0   1  12 6761.79 454.254   6
   0   1  13 8750.84 381.855   1
   0   1  13 7947.09 520.476   6
   0  -1 -14 471.441 75.2495   4
   0   1  14 522.428 148.747   6
   0   1  14 546.077 102.427   1
   0   1  15 2233.85 300.487   6
   0   1  15 2274.76 211.084   1
   0  -1 -15 2389.28 163.484   4
   0   1  16 4144.01 419.949   6
   0   1  16 4200.32 297.304   1
   0   1  17 1491.08 183.799   1
   0   1  17 1726.11 291.179   6
   0   1  18 622.527 124.909   1
   0   1  18 427.328 147.961   6
   0   1  19-101.167 79.7057   6
   0   1  20 1223.34 276.607   6
   0   1  21 227.274 136.553   6
   0   1  22 1426.72 310.303   6
   0   1  23 53.3059 77.1994   6
   0  -2  22 214.298 137.961   6
   0  -2  21 199.189 138.226   6
   0  -2  20 290.714 154.712   6
   0  -2  19 1001.03 240.752   6
   0  -2  18 2448.72 354.847   6
   0  -2  17 61.6617 68.4410   6
   0  -2  16-12.1009 67.3589   6
   0  -2  16-11.2615 40.3843   1
   0  -2  15 374.609 83.9722   1
   0  -2  15 249.530 94.9382   6
   0  -2  14 79.7839 49.9487   1
   0  -2  14-61.0382 93.2415   6
   0  -2  13 1840.41 259.570   6
   0  -2  13 1678.88 164.583   1
   0  -2  12 27.3792 69.7410   6
   0  -2  12 23.2441 43.9270   1
   0  -2  11-42.1781 44.3595   1
   0  -2  11-27.6470 60.1949   6
   0  -2  10 7918.87 467.641   6
   0  -2  10 7637.51 319.769   1
   0  -2   9 9666.51 350.153   1
   0  -2   9 9747.40 489.673   6
   0  -2   8 11093.1 358.614   1
   0  -2   8 10652.7 487.760   6
   0  -2   7 10112.0 301.226   4
   0  -2   7 9582.75 321.101   1
   0  -2   7 9286.35 431.802   6
   0  -2   6 96247.6 891.368   4
   0  -2   6 95100.0 967.426   1
   0  -2   6 99154.1 1328.32   6
   0  -2   5 9749.77 397.741   6
   0  -2   5 8692.09 255.601   4
   0  -2   4 3966.33 239.663   6
   0  -2   3 38827.0 697.892   6
   0  -2   2 7926.85 304.919   3
   0  -2   1 24424.5 507.174   3
   0   2   0 803.425 76.1931   2
   0  -2  -2 9248.93 303.952   3
   0   2   2 10066.5 257.937   1
   0   2   3 55349.9 629.421   1
   0   2   4 279.734 66.3843   6
   0   2   4 347.461 54.6771   1
   0   2   5 94654.6 1168.43   6
   0   2   5 96072.4 911.247   1
   0  -2  -6 13379.9 361.606   1
   0   2   6 13277.2 359.805   1
   0   2   6 13978.3 475.511   6
   0  -2  -7 2225.74 156.860   1
   0   2   7 2406.77 161.675   1
   0   2   7 2210.18 203.709   6
   0   2   8 2306.60 166.555   1
   0   2   8 2143.23 212.761   6
   0  -2  -8 2432.99 175.716   1
   0   2   9 201.257 62.1813   6
   0   2   9 206.240 60.0494   1
   0   2  10 570.182 137.959   6
   0   2  10 776.157 107.305   1
   0   2  11 2382.46 260.262   6
   0   2  11 2801.74 209.755   1
   0   2  12 1246.18 189.746   6
   0   2  12 1192.80 143.361   1
   0   2  13 1298.01 160.126   1
   0   2  13 1226.08 208.806   6
   0   2  14 20670.8 873.336   6
   0   2  14 19952.6 627.357   1
   0   2  15 467.617 157.740   6
   0   2  15 576.813 116.204   1
   0   2  16 1084.83 160.648   1
   0   2  16 759.570 192.324   6
   0   2  17 1690.59 206.206   1
   0   2  17 1593.13 282.212   6
   0   2  18 6018.68 391.997   1
   0   2  18 5206.21 515.575   6
   0   2  19-46.9970 82.2828   6
   0   2  19 84.5016 62.2466   1
   0   2  20 1108.38 266.525   6
   0   2  21 126.186 107.250   6
   0   2  22 1100.94 293.892   6
   0   2  23 228.859 158.538   6
   0   2  24-277.654 161.594   6
   0  -3  22 205.238 135.591   6
   0  -3  21 91.5135 116.050   6
   0  -3  20 304.750 157.960   6
   0  -3  19 338.644 158.377   6
   0  -3  18 30.4276 79.0020   6
   0  -3  17 791.592 199.380   6
   0  -3  16 256.476 95.5344   6
   0  -3  15 371.574 84.2639   1
   0  -3  15 377.499 140.738   6
   0  -3  14 89.9152 60.4582   1
   0  -3  14-65.1477 85.9798   6
   0  -3  13 416.798 87.0883   1
   0  -3  13 527.984 149.332   6
   0  -3  12 935.537 133.953   1
   0  -3  12 1043.61 200.843   6
   0  -3  11 1817.15 172.786   1
   0  -3  11 2120.46 264.858   6
   0  -3  10 147.978 53.7554   1
   0  -3  10 137.088 89.7062   6
   0  -3   9 5496.79 280.295   1
   0  -3   9 5426.58 259.990   4
   0  -3   9 5694.48 395.065   6
   0  -3   8 2226.89 241.806   6
   0  -3   8 2346.19 168.151   4
   0  -3   8 2239.78 173.816   1
   0  -3   7 2216.71 228.428   6
   0  -3   7 2143.67 157.189   4
   0  -3   6 31904.4 577.365   4
   0  -3   6 33313.1 844.585   6
   0  -3   5 709.797 122.580   6
   0  -3   4-3.91556 51.6816   3
   0  -3   4 7.77252 47.7641   6
   0  -3   3 6898.62 346.836   3
   0  -3   2 28374.0 675.679   3
   0  -3   1 21820.7 579.780   3
   0  -3   0 2542.04 202.353   3
   0   3   0 2531.50 161.668   2
   0   3   1 15466.3 388.192   2
   0   3   1 15524.4 298.270   5
   0  -3  -1 14220.4 463.339   3
   0  -3  -2 99253.1 1211.16   3
   0  -3  -3 32153.0 697.761   3
   0   3   3 31447.0 566.299   1
   0  -3  -4 2902.66 218.090   3
   0   3   4 2741.67 172.385   1
   0   3   5 7947.90 378.954   6
   0   3   5 7658.04 294.687   1
   0   3   6 13934.6 414.248   1
   0   3   6 14616.6 544.092   6
   0   3   7 39651.0 716.757   1
   0  -3  -7 42106.4 724.286   1
   0   3   7 39522.3 925.999   6
   0   3   8 20718.9 542.132   1
   0   3   8 20874.2 692.911   6
   0   3   9 1955.87 218.587   6
   0   3   9 2078.46 181.870   1
   0   3  10 1796.55 228.525   6
   0   3  10 1344.73 153.349   1
   0   3  11 732.233 122.922   1
   0   3  11 839.273 165.792   6
   0   3  12 1428.97 170.109   1
   0   3  12 1250.63 212.991   6
   0   3  13 2647.78 233.720   1
   0   3  13 2467.64 296.821   6
   0   3  14 18109.4 625.707   1
   0   3  14 18670.2 854.145   6
   0   3  15 1178.76 171.687   1
   0   3  15 948.019 208.244   6
   0   3  16-212.076 144.739   6
   0   3  16 121.574 89.7164   1
   0   3  17 3368.10 407.633   6
   0   3  17 3018.08 285.626   1
   0   3  18 2574.95 269.979   1
   0   3  18 3348.27 431.144   6
   0   3  19 2121.19 355.525   6
   0   3  19 2279.74 261.422   1
   0   3  20 2807.23 424.714   6
   0   3  20 2479.64 277.876   1
   0   3  21 179.452 119.641   6
   0   3  22 707.176 223.921   6
   0   3  23-91.3045 95.3315   6
   0   3  24 205.230 129.066   6
   0  -4  21 720.499 244.920   6
   0  -4  20 847.927 248.333   6
   0  -4  19-48.9642 126.969   6
   0  -4  18 671.581 209.464   6
   0  -4  17-57.9981 97.3745   6
   0  -4  16 1203.89 253.494   6
   0  -4  15 178.414 138.067   6
   0  -4  14 25.5333 39.0791   1
   0  -4  14 38.8488 61.4957   6
   0  -4  13 11634.5 460.991   1
   0  -4  13 12899.2 722.636   6
   0  -4  12 7821.54 544.337   6
   0  -4  12 6509.17 342.705   1
   0  -4  11 40.9846 30.1907   1
   0  -4  11-45.1395 98.1364   6
   0  -4  10 2382.31 193.790   4
   0  -4  10 2538.19 292.097   6
   0  -4  10 2420.12 205.100   1
   0  -4   9-37.3087 47.7748   1
   0  -4   9-13.3669 27.6282   4
   0  -4   9 18.6944 57.5981   6
   0  -4   8 17895.6 718.311   6
   0  -4   8 16771.2 488.206   4
   0  -4   7 15934.3 657.308   6
   0  -4   7 14042.7 433.878   4
   0  -4   6 9155.09 484.250   6
   0  -4   5 41.5752 61.2144   6
   0  -4   4 2823.98 259.637   3
   0  -4   3 20432.9 668.109   3
   0  -4   2 30772.8 804.129   3
   0  -4   1 3578.81 270.143   3
   0  -4   0 1472.95 176.788   3
   0   4   0 1418.71 138.837   2
   0  -4  -1 13331.2 440.804   2
   0   4   1 14298.1 344.716   5
   0   4   1 14277.7 430.471   2
   0  -4  -1 12850.6 508.095   3
   0   4   2 12816.1 310.975   5
   0  -4  -2 13118.9 510.775   3
   0   4   2 13517.8 420.361   2
   0  -4  -3 43534.3 936.280   3
   0  -4  -4 5293.82 334.205   3
   0  -4  -4 4445.24 160.292   5
   0   4   4 4222.43 243.781   1
   0  -4  -5 5916.41 357.632   3
   0   4   5 6249.64 299.653   1
   0  -4  -6 77644.1 1332.77   3
   0   4   6 76758.9 1072.82   1
   0   4   7 5089.74 289.186   1
   0   4   7 4941.88 356.480   6
   0   4   8 8615.32 382.635   1
   0   4   8 8013.59 471.123   6
   0   4   9 9055.17 406.728   1
   0   4   9 9177.80 522.602   6
   0   4  10 103.837 60.8319   6
   0   4  10 61.6609 50.0627   1
   0   4  11 201.097 89.6305   6
   0   4  11 352.492 88.6174   1
   0   4  12 13912.1 553.264   1
   0   4  12 14185.6 718.071   6
   0   4  13 269.429 89.8697   1
   0   4  13 256.974 114.582   6
   0   4  14 10116.0 655.714   6
   0   4  14 9954.64 493.953   1
   0   4  15 2300.86 329.185   6
   0   4  15 2326.35 252.301   1
   0   4  16 20527.4 993.155   6
   0   4  16 21157.2 765.437   1
   0   4  17 4972.69 379.501   1
   0   4  17 4604.94 486.803   6
   0   4  18 221.623 133.745   6
   0   4  18 182.924 88.9996   1
   0   4  19 1152.82 256.249   6
   0   4  19 1213.52 205.810   1
   0   4  20 2949.01 433.901   6
   0   4  20 2419.02 290.300   1
   0   4  21-70.0327 94.6752   6
   0   4  21 122.301 101.647   1
   0   4  22 560.720 208.714   6
   0   4  23 106.355 78.1246   6
   0   4  24 738.898 265.453   6
   0  -5  20 338.401 150.856   6
   0  -5  19 447.985 226.354   6
   0  -5  18 3005.41 434.498   6
   0  -5  17 90.7235 87.1757   6
   0  -5  16 2604.33 374.109   6
   0  -5  15 1094.42 243.657   6
   0  -5  14 2966.88 381.607   6
   0  -5  13 5103.26 320.745   1
   0  -5  13 4816.93 466.702   6
   0  -5  12 2951.38 352.081   6
   0  -5  12 2973.65 245.027   1
   0  -5  11 16091.0 566.348   1
   0  -5  11 15129.1 768.056   6
   0  -5  10 5136.16 437.152   6
   0  -5  10 4763.58 307.746   1
   0  -5   9 1213.62 212.873   6
   0  -5   8 5808.90 444.370   6
   0  -5   7 9724.58 561.248   6
   0  -5   6 6826.37 450.635   6
   0  -5   5 3261.63 309.262   6
   0  -5   5 4449.99 363.916   3
   0  -5   4 8937.72 500.684   3
   0  -5   3 12367.1 578.864   3
   0  -5   2 188.167 79.8063   3
   0  -5   1 7652.77 446.967   3
   0  -5   0 5176.01 361.772   3
   0  -5   0 4907.31 307.073   2
   0   5   0 5181.51 290.996   2
   0  -5  -1 4001.31 273.216   2
   0  -5  -1 4082.35 322.520   3
   0   5   1 4042.43 211.224   5
   0   5   1 4176.29 262.913   2
   0   5   2 30254.5 548.718   5
   0   5   2 30308.8 702.958   2
   0  -5  -2 29372.3 865.473   3
   0  -5  -3 12812.7 570.617   3
   0   5   3 12145.0 445.261   2
   0  -5  -4 14879.7 618.288   3
   0  -5  -5 15731.8 643.893   3
   0  -5  -5 14963.9 313.076   5
   0   5   5 14524.9 504.842   1
   0   5   6-15.2688 63.2741   1
   0  -5  -6 235.097 95.9632   3
   0   5   7 107.648 64.0142   1
   0  -5  -7 59.4024 52.9039   3
   0  -5  -8 41137.1 1114.08   3
   0   5   8 40883.0 902.444   1
   0   5   9 5211.21 334.868   1
   0   5  10 250.459 86.4276   1
   0   5  10 189.668 97.3530   6
   0   5  11 1142.16 202.721   6
   0   5  11 1279.32 179.479   1
   0   5  12 5414.02 366.151   1
   0   5  12 5480.79 462.481   6
   0   5  13 77.6763 71.4231   1
   0   5  13-67.3530 111.233   6
   0   5  14 5722.79 400.778   1
   0   5  14 5610.32 511.411   6
   0   5  15 7882.06 479.511   1
   0   5  15 8033.24 638.467   6
   0   5  16 4389.63 365.961   1
   0   5  16 3724.60 438.902   6
   0   5  17 1479.76 225.559   1
   0   5  17 1098.71 262.625   6
   0   5  18 1018.80 247.451   6
   0   5  18 680.434 150.975   1
   0   5  19-78.0497 93.9647   1
   0   5  19-28.0253 94.9313   6
   0   5  20 480.443 148.318   1
   0   5  20 699.043 226.759   6
   0   5  21 1193.18 223.270   1
   0   5  21 1319.97 312.699   6
   0   5  22 807.678 252.194   6
   0   5  23 44.7143 108.989   6
   0   5  24 462.981 232.387   6
   0  -6  19 2576.01 428.354   6
   0  -6  18 1222.11 288.007   6
   0  -6  17 1238.15 281.139   6
   0  -6  16 5376.89 550.078   6
   0  -6  15-81.9161 85.8792   6
   0  -6  14 2195.26 337.143   6
   0  -6  13 1112.41 246.108   6
   0  -6  12 2288.44 228.547   1
   0  -6  12 2312.71 328.688   6
   0  -6  11 4610.49 447.276   6
   0  -6  11 4447.25 319.896   1
   0  -6  10 965.927 212.985   6
   0  -6   9 7289.02 542.952   6
   0  -6   8 7557.94 536.360   6
   0  -6   7 1365.95 231.614   6
   0  -6   6 16957.7 769.686   6
   0  -6   5 7993.27 520.078   3
   0  -6   4 22.5917 81.8997   3
   0  -6   3 268.735 117.736   3
   0  -6   2 5015.59 401.849   3
   0  -6   1 825.439 179.049   3
   0  -6   0 4.11155 57.7748   3
   0  -6  -1 35.0332 54.2376   3
   0   6   1 82.6556 56.8315   2
   0   6   1 41.4218 39.9256   5
   0   6   2 6555.19 289.949   5
   0  -6  -2 6265.73 439.685   3
   0   6   2 6258.12 346.744   2
   0   6   3 3706.90 270.296   2
   0   6   3 3579.25 207.138   5
   0  -6  -3 3560.18 337.743   3
   0  -6  -4 1181.35 195.434   3
   0   6   4 1060.93 145.159   2
   0  -6  -5 14321.5 668.661   3
   0   6   6 36474.2 882.666   1
   0  -6  -6 35625.5 501.274   5
   0  -6  -6 35829.7 1076.89   3
   0  -6  -7 40.6094 20.9754   5
   0  -6  -7 41.4804 65.9463   3
   0   6   7 115.159 79.2720   1
   0   6   8 73.8448 47.4103   1
   0  -6  -8 32.8064 72.4890   3
   0  -6  -9 4288.27 398.383   3
   0   6   9 4301.86 325.147   1
   0  -6 -10 842.203 171.813   3
   0   6  10 828.491 145.921   1
   0  -6 -11 544.295 150.746   3
   0   6  11 872.184 160.457   1
   0   6  12 2097.41 248.433   1
   0   6  13 206.867 101.095   6
   0   6  13 213.743 98.5577   1
   0   6  14 3185.11 391.125   6
   0   6  14 3716.52 342.997   1
   0   6  15 21338.5 832.354   1
   0   6  15 20189.6 1025.42   6
   0   6  16 270.266 113.661   1
   0   6  16 53.9108 96.5902   6
   0   6  17-67.9848 71.3541   1
   0   6  17-13.3943 110.531   6
   0   6  18 236.817 114.849   1
   0   6  18 141.727 85.7466   6
   0   6  19 35.2616 88.0055   6
   0   6  19 12.0204 66.7481   1
   0   6  20-33.2139 66.5616   1
   0   6  20-135.036 153.384   6
   0   6  21 91.5294 112.939   6
   0   6  21 425.950 149.867   1
   0   6  22-17.7291 76.8625   1
   0   6  22 101.499 123.711   6
   0   6  23-34.3125 111.641   6
   0   6  24-57.1476 104.311   6
   0  -7  18 289.571 157.926   6
   0  -7  17 445.543 157.627   6
   0  -7  16 1819.94 333.564   6
   0  -7  15 180.644 104.453   6
   0  -7  14 1829.66 327.685   6
   0  -7  13 293.907 128.837   6
   0  -7  12 1419.70 271.615   6
   0  -7  11 1035.50 230.166   6
   0  -7  10 456.389 172.311   6
   0  -7   9 693.019 189.127   6
   0  -7   8 70.6352 85.0555   6
   0  -7   7 3048.56 354.994   6
   0  -7   6 3915.67 392.145   6
   0  -7   6 4150.31 411.397   3
   0  -7   5 5505.58 467.934   3
   0  -7   4 1067.09 207.100   3
   0  -7   3 9309.00 586.841   3
   0  -7   2 1845.89 266.479   3
   0  -7   1 7633.78 529.745   3
   0  -7   0 18108.5 807.241   3
   0  -7  -1 188.774 106.138   3
   0   7   1 27.4274 43.5776   2
   0   7   1 79.7807 48.2303   5
   0  -7  -2 1029.37 203.967   3
   0   7   2 1056.13 133.734   5
   0   7   2 877.572 135.862   2
   0   7   3 28785.0 794.464   2
   0   7   3 26891.7 633.900   5
   0  -7  -3 28434.5 1010.60   3
   0   7   4 33618.5 861.884   2
   0  -7  -4 31352.5 1071.13   3
   0  -7  -5 28942.3 1028.26   3
   0   7   5 28838.3 803.671   2
   0   7   6 3448.05 281.619   2
   0  -7  -6 3278.83 352.602   3
   0  -7  -7 19011.8 859.516   3
   0  -7  -8 168.356 90.6090   3
   0   7   8-8.62095 59.0735   1
   0  -7  -8 106.301 30.2046   5
   0   7   9 17.5522 53.8800   1
   0  -7  -9 93.7204 90.7722   3
   0  -7 -10 3111.19 364.399   3
   0   7  10 3337.29 311.153   1
   0   7  11 531.843 139.528   1
   0  -7 -11 498.260 151.970   3
   0  -7 -12 2796.62 363.977   3
   0   7  12 3235.75 314.828   1
   0   7  13 228.801 82.6551   1
   0  -7 -13 395.518 157.008   3
   0   7  14 7626.91 505.916   1
   0  -7 -14 8452.54 668.846   3
   0   7  15 1662.32 249.401   1
   0  -7 -15 1922.40 339.505   3
   0   7  16 4217.25 395.993   1
   0   7  17 500.829 158.028   1
   0   7  18 1045.68 207.721   1
   0   7  19-2.69477 86.7865   6
   0   7  19 104.081 93.1034   1
   0   7  20 534.307 159.009   1
   0   7  20 798.020 238.990   6
   0   7  21 242.907 156.110   6
   0   7  21 284.174 119.878   1
   0   7  22 26.1004 70.7424   1
   0   7  22-14.8478 98.9668   6
   0   7  23-45.5428 93.4213   6
   0   7  23-22.3458 66.1509   1
   0  -8  17 173.916 118.390   6
   0  -8  16 531.524 206.963   6
   0  -8  15 1212.32 277.769   6
   0  -8  14 2578.47 394.503   6
   0  -8  13 1964.04 336.581   6
   0  -8  12 339.449 137.943   6
   0  -8  11 4668.75 500.558   6
   0  -8  10 242.985 156.126   6
   0  -8   9-50.6678 100.731   6
   0  -8   8 224.476 124.389   6
   0  -8   7 944.911 220.953   6
   0  -8   6-7.30609 135.556   3
   0  -8   6-31.4242 88.3060   6
   0  -8   5 40.8073 74.6894   3
   0  -8   4 4876.49 461.356   3
   0  -8   3 1989.74 294.096   3
   0  -8   2 2024.66 291.866   3
   0  -8   1 5900.40 495.568   3
   0   8   0 1998.77 212.287   5
   0  -8   0 2317.40 313.304   3
   0   8   1 9187.36 435.002   5
   0  -8  -1 9517.25 625.522   3
   0   8   2 8480.95 459.353   2
   0   8   2 9402.51 423.467   5
   0  -8  -2 9386.29 626.374   3
   0   8   3 9459.35 485.032   2
   0  -8  -3 8829.31 607.405   3
   0   8   3 9552.62 412.877   5
   0   8   4 6405.05 400.138   2
   0  -8  -4 6168.91 511.510   3
   0  -8  -5 2740.95 341.645   3
   0   8   5 2634.04 262.834   2
   0   8   6 6179.70 399.560   2
   0  -8  -6 5685.38 497.455   3
   0   8   7 1497.16 200.407   2
   0  -8  -7 1135.05 230.026   3
   0  -8  -8 15365.4 832.165   3
   0  -8  -9 8775.60 636.872   3
   0  -8  -9 8039.80 241.370   5
   0  -8 -10 1707.21 282.707   3
   0  -8 -10 1384.48 109.139   5
   0  -8 -11 71.9956 82.8564   3
   0   8  11-66.7073 103.505   1
   0   8  12 918.792 171.335   1
   0  -8 -12 969.133 232.723   3
   0   8  13-93.2898 111.676   1
   0  -8 -13 127.782 114.051   3
   0   8  14-14.2539 88.1358   1
   0  -8 -14-39.8255 78.4469   3
   0   8  15 811.811 184.996   1
   0  -8 -15 1166.15 276.568   3
   0   8  16 73.5281 71.8374   1
   0  -8 -16 10.7920 89.6302   3
   0   8  17-90.7885 97.6623   1
   0  -8 -17 4.85604 113.113   3
   0   8  18 241.590 119.885   1
   0  -8 -18 333.141 167.436   3
   0  -8 -19 870.000 249.028   3
   0   8  19 797.603 187.568   1
   0   8  20 1461.47 268.569   1
   0  -8 -20 1992.87 402.229   3
   0   8  21 10.3883 68.2427   1
   0  -8 -21 7.44705 122.912   3
   0   8  22-11.0967 70.9471   1
   0  -8 -22 244.276 184.642   3
   0  -8 -23 54.1237 103.148   3
   0   8  23-167.359 112.360   1
   0  -9  15 105.667 85.1700   6
   0  -9  14 157.198 141.264   6
   0  -9  13 132.903 127.205   6
   0  -9  12 2566.02 394.131   6
   0  -9  11 1073.60 255.716   6
   0  -9  10 200.565 147.445   6
   0  -9   9 4252.26 487.142   6
   0  -9   8 56.0213 95.2378   6
   0  -9   7 1985.60 318.193   6
   0  -9   6 711.430 201.733   3
   0  -9   6 110.925 88.9541   6
   0  -9   5 1288.25 256.371   3
   0  -9   4 147.146 108.250   3
   0  -9   3 2932.40 377.510   3
   0  -9   2 6082.62 537.018   3
   0  -9   1 1348.51 261.186   3
   0   9  -1 1426.11 201.768   5
   0   9   0 527.434 127.055   5
   0  -9   0 1090.97 230.180   3
   0  -9  -1 4035.47 437.761   3
   0   9   1 3730.73 301.038   5
   0  -9  -2 334.737 138.058   3
   0   9   2 368.594 106.704   2
   0   9   2 379.719 97.3074   5
   0   9   3 15894.1 663.980   2
   0  -9  -3 16577.9 878.383   3
   0   9   3 16210.4 587.817   5
   0  -9  -4 5843.90 532.272   3
   0   9   4 5575.59 393.438   2
   0  -9  -5 575.941 179.645   3
   0   9   5 536.811 131.574   2
   0  -9  -6 799.187 206.439   3
   0   9   6 746.400 155.762   2
   0  -9  -7-120.089 119.790   3
   0   9   7 130.907 73.6260   2
   0   9   8 2358.03 267.142   2
   0  -9  -8 2369.67 350.408   3
   0  -9  -9 2653.09 381.370   3
   0  -9 -10 1045.99 246.281   3
   0  -9 -11 3022.07 415.454   3
   0  -9 -12 2546.74 379.971   3
   0  -9 -13 241.426 149.890   3
   0  -9 -14 2025.46 361.303   3
   0  -9 -15 1162.34 269.584   3
   0   9  15 1112.54 226.343   1
   0  -9 -16 36.7345 119.422   3
   0   9  16-49.4081 103.197   1
   0   9  17-52.7435 84.5092   1
   0  -9 -17 36.0442 106.045   3
   0  -9 -18 1085.73 280.491   3
   0   9  18 322.362 136.340   1
   0  -9 -19 168.519 144.185   3
   0   9  19-66.7721 106.633   1
   0  -9 -20 838.507 284.155   3
   0   9  20 77.4401 90.9224   1
   0  -9 -21 436.738 228.642   3
   0  -9 -22 229.105 168.964   3
   0 -10  14 535.957 197.852   6
   0 -10  13 61.2075 122.548   6
   0 -10  12 58.1826 79.2300   6
   0 -10  11 129.533 121.438   6
   0 -10  10 41.2163 91.1357   6
   0 -10   9 155.443 144.100   6
   0 -10   8-23.1229 103.509   6
   0 -10   7 448.229 186.042   6
   0 -10   6 773.075 218.213   3
   0 -10   6 624.789 191.343   6
   0 -10   5 1656.75 304.704   3
   0 -10   4 370.830 188.381   3
   0 -10   3 746.915 220.515   3
   0 -10   2-20.5312 119.381   3
   0  10  -2-35.2260 80.2069   5
   0 -10   1 6748.02 594.500   3
   0  10  -1 6689.52 459.451   5
   0  10   0 7396.78 467.317   5
   0 -10   0 7909.96 644.170   3
   0  10   1 399.566 106.029   5
   0 -10  -1 680.215 192.310   3
   0 -10  -2-66.4363 136.577   3
   0  10   2 59.4478 46.8525   5
   0  10   3 222.994 75.7907   5
   0 -10  -3 322.758 151.418   3
   0 -10  -4 420.423 160.034   3
   0  10   4 741.717 155.261   2
   0 -10  -5 2068.47 340.996   3
   0  10   5 2097.17 254.870   2
   0  10   6 7559.41 479.699   2
   0 -10  -6 6793.33 614.655   3
   0 -10  -7 3289.34 425.262   3
   0  10   7 3310.82 329.242   2
   0 -10  -8 334.907 176.924   3
   0  10   8 83.6977 67.0422   2
   0  10   9 867.331 173.613   2
   0 -10  -9 824.632 217.940   3
   0 -10 -10 2541.89 389.576   3
   0  10  10 2240.91 279.031   2
   0 -10 -11 938.211 253.686   3
   0 -10 -12 776.509 204.398   3
   0 -10 -13 1628.47 332.573   3
   0 -10 -14 2455.99 408.065   3
   0 -10 -15 44.4151 93.0078   3
   0 -10 -16-68.0708 88.6464   3
   0 -10 -17 303.633 189.040   3
   0 -10 -18 2.09475 104.775   3
   0 -10 -19 124.253 120.247   3
   0 -10 -20 174.334 176.272   3
   0 -10 -21 90.8157 117.950   3
   0 -10 -22 69.6302 121.752   3
   0 -11  12-47.4591 109.010   6
   0 -11  11 105.124 118.299   6
   0 -11  10 604.397 201.838   6
   0 -11   9-202.724 136.417   6
   0 -11   8 82.9093 102.867   6
   0 -11   7 282.775 177.498   6
   0 -11   6 2254.69 374.552   3
   0 -11   6 2820.63 419.057   6
   0 -11   5 463.384 191.803   3
   0 -11   4 1777.78 332.896   3
   0  11  -3 345.044 126.895   5
   0 -11   3 474.985 183.480   3
   0  11  -2 150.531 95.9857   5
   0 -11   2 171.650 140.591   3
   0 -11   1 234.959 140.525   3
   0  11  -1 208.531 94.2594   5
   0  11   0 1794.33 247.567   5
   0 -11   0 2021.62 349.081   3
   0 -11  -1 472.054 169.636   3
   0  11   1 599.294 144.538   5
   0 -11  -2 355.831 166.777   3
   0  11   2 403.246 108.495   5
   0  11   3 225.173 81.9553   5
   0 -11  -3 271.666 159.420   3
   0  11   4 600.648 147.119   2
   0 -11  -4 1104.86 257.871   3
   0 -11  -5 3288.76 446.108   3
   0  11   5 3678.19 353.638   2
   0 -11  -6 4550.96 529.963   3
   0  11   6 4955.57 409.886   2
   0  11   7 406.431 126.529   2
   0 -11  -7 485.141 233.131   3
   0  11   8 132.253 77.7689   2
   0 -11  -8-26.5063 89.8495   3
   0  11   9 45.3093 42.3308   2
   0 -11  -9 476.200 193.815   3
   0  11  10 84.0634 57.5572   2
   0 -11 -10-6.69725 96.9108   3
   0 -11 -11 674.725 241.100   3
   0  11  11 198.780 97.2729   2
   0 -11 -12 366.869 163.673   3
   0  11  12 261.616 108.254   2
   0 -11 -13-94.6068 123.014   3
   0 -11 -14 270.169 155.495   3
   0 -11 -15 1184.47 309.336   3
   0 -11 -16 2575.73 455.736   3
   0 -11 -17 427.900 220.666   3
   0 -11 -18-102.822 149.107   3
   0 -11 -19 117.803 112.267   3
   0 -11 -20 864.236 285.077   3
   0 -11 -21 579.968 262.453   3
   0 -12  10 473.315 171.379   6
   0 -12   9 215.607 137.294   6
   0 -12   8 88.0367 72.1666   6
   0 -12   7 359.692 174.002   6
   0 -12   6 701.569 229.699   6
   0 -12   6 297.126 159.943   3
   0  12  -5 1523.89 285.000   5
   0 -12   5 1444.69 324.424   3
   0 -12   4 4270.35 528.456   3
   0  12  -4 3572.96 410.470   5
   0  12  -3 344.795 128.993   5
   0 -12   3 213.319 160.187   3
   0 -12   2 367.225 169.359   3
   0  12  -2 632.831 165.689   5
   0  12  -1 1237.51 222.235   5
   0 -12   1 1846.81 341.949   3
   0 -12   0 879.784 260.974   3
   0  12   0 903.540 184.656   5
   0 -12  -1 2337.20 385.525   3
   0  12   1 2658.95 308.270   5
   0 -12  -2 110.558 119.852   3
   0 -12  -3 151.318 146.684   3
   0 -12  -4 153.040 151.852   3
   0  12   5 2985.57 330.506   2
   0 -12  -5 2810.71 426.925   3
   0  12   6 897.160 187.080   2
   0 -12  -6 762.287 227.576   3
   0  12   7 34.2235 80.9574   2
   0 -12  -7 124.833 125.714   3
   0 -12  -8 1694.25 349.407   3
   0  12   8 1484.19 235.355   2
   0 -12  -9 1365.33 312.641   3
   0  12   9 1357.05 228.547   2
   0 -12 -10 89.7628 69.7994   3
   0  12  10-34.2261 72.8324   2
   0 -12 -11 209.627 132.662   3
   0 -12 -12-30.0344 101.366   3
   0 -12 -13 78.8345 76.6619   3
   0 -12 -14 363.678 183.919   3
   0 -12 -15 976.702 286.126   3
   0 -12 -16 506.186 216.935   3
   0 -12 -17 407.673 205.966   3
   0 -12 -18 312.412 185.051   3
   0 -12 -19-69.7003 108.492   3
   0 -12 -20 12.0793 98.4770   3
   0  13 -10 834.582 269.337   5
   0  13  -9 1763.61 356.648   5
   0 -13   8 360.827 184.776   6
   0  13  -8 625.979 206.638   5
   0  13  -7 433.594 171.114   5
   0 -13   7 804.034 261.296   6
   0 -13   6 11.1113 123.037   6
   0  13  -6 295.402 142.064   5
   0 -13   6 170.807 158.586   3
   0  13  -5 18.0735 89.9940   5
   0 -13   5 139.862 120.226   3
   0 -13   4 879.256 262.976   3
   0  13  -4 866.187 212.669   5
   0  13  -3 2870.05 378.402   5
   0 -13   3 2851.64 454.439   3
   0  13  -2 1407.24 257.736   5
   0 -13   2 1765.56 361.394   3
   0 -13   1 1155.07 298.253   3
   0 -13   0 443.407 203.537   3
   0 -13  -1 65.6367 83.8694   3
   0 -13  -2 330.051 183.910   3
   0 -13  -3 1251.08 310.878   3
   0 -13  -4 88.3865 114.543   3
   0 -13  -5 130.470 157.384   3
   0 -13  -6 100.252 89.6192   3
   0  13   7 870.484 188.062   2
   0 -13  -7 221.407 168.973   3
   0 -13  -8 1291.92 331.555   3
   0  13   8 1487.85 239.576   2
   0 -13  -9-275.306 163.286   3
   0 -13 -10-71.5263 81.0011   3
   0 -13 -11 558.890 238.346   3
   0 -13 -12 51.3196 102.312   3
   0 -13 -13 497.082 221.014   3
   0 -13 -14-116.978 149.166   3
   0 -13 -15-306.100 180.661   3
   0 -13 -16 140.302 129.670   3
   0 -13 -17-183.823 155.136   3
   0 -13 -18-135.050 129.521   3
   0 -13 -19 369.643 234.340   3
   0  14  -8 230.336 146.110   5
   0  14  -7 275.911 139.101   5
   0 -14   5 382.372 196.262   3
   0 -14   4 947.265 282.980   3
   0 -14   3 881.562 253.700   3
   0 -14   2 799.679 257.471   3
   0 -14   1 459.707 229.389   3
   0 -14   0 2752.84 453.501   3
   0 -14  -1 1056.01 292.349   3
   0 -14  -2 282.006 221.186   3
   0 -14  -3 1033.27 284.755   3
   0 -14  -4 3175.95 506.660   3
   0 -14  -5 1276.41 326.224   3
   0 -14  -6-20.3213 84.3277   3
   0 -14  -7 268.619 181.978   3
   0 -14  -8 373.105 169.770   3
   0 -14  -9 605.544 241.320   3
   0 -14 -10 94.8911 129.961   3
   0 -14 -11-2.02383 115.790   3
   0 -14 -12-86.9671 143.366   3
   0 -14 -13 1016.33 307.073   3
   0 -14 -14 737.947 280.017   3
   0 -14 -15 180.350 199.561   3
   0 -14 -16-478.578 223.635   3
   0 -14 -17-97.2640 132.820   3
   0 -15   1 221.005 141.172   3
   0 -15   0 14.5656 126.351   3
   0 -15  -1 471.907 209.925   3
   0 -15  -2 2295.45 442.858   3
   0 -15  -3 965.567 303.528   3
   0 -15  -4-55.1839 112.186   3
   0 -15  -5 439.232 194.108   3
   0 -15  -6 1903.37 402.544   3
   0 -15  -7 180.149 163.713   3
   0 -15  -8 494.459 219.919   3
   0 -15  -9-132.587 106.625   3
   0 -15 -10 459.243 202.610   3
   0 -15 -11 715.232 267.168   3
   0 -15 -12 234.001 189.873   3
   0 -15 -13 467.116 234.213   3
   0 -15 -14 75.2824 129.860   3
   0 -16  -6 784.361 289.552   3
   0 -16  -7 57.1754 110.744   3
   1 -15 -13 27.8306 95.2869   3
   1 -15 -12 525.476 236.612   3
   1 -15 -11 103.363 162.431   3
   1 -15 -10 132.518 158.356   3
   1 -15  -9 220.260 188.330   3
   1 -15  -8 289.766 185.193   3
   1 -15  -7 100.494 128.014   3
   1 -15  -6 56.3128 103.948   3
   1 -15  -5 931.889 296.050   3
   1 -15  -4 237.885 153.677   3
   1 -15  -3 193.833 159.908   3
   1 -15  -2 226.611 145.255   3
   1 -15  -1 876.763 297.178   3
   1 -15   0 165.941 190.794   3
   1 -15   1 314.759 185.766   3
   1 -14 -16-294.837 189.346   3
   1 -14 -15-203.787 165.376   3
   1 -14 -14 248.283 177.505   3
   1 -14 -13 165.014 163.972   3
   1 -14 -12 539.619 252.727   3
   1 -14 -11 60.3632 94.9802   3
   1 -14 -10 385.159 222.043   3
   1 -14  -9 802.725 281.423   3
   1 -14  -8 600.997 239.642   3
   1 -14  -7-109.588 146.956   3
   1 -14  -6-44.5137 91.2871   3
   1 -14  -5 280.752 183.747   3
   1 -14  -4 865.977 269.174   3
   1 -14  -3 1036.17 292.886   3
   1 -14  -2 167.519 138.078   3
   1 -14  -1 240.393 172.490   3
   1 -14   0 168.453 158.341   3
   1 -14   1 742.187 266.852   3
   1 -14   2 1536.23 350.126   3
   1 -14   3 316.277 161.613   3
   1 -14   4 1324.09 342.926   3
   1 -14   5 546.716 211.350   3
  -1  14  -5 124.198 83.2598   5
  -1  14  -6 108.228 120.047   5
  -1  14  -7 17.4028 75.3781   5
  -1  14  -8 142.387 138.310   5
   1 -13 -18-22.9487 108.441   3
   1 -13 -17-110.320 124.517   3
   1 -13 -16 622.336 248.403   3
   1 -13 -15 296.005 188.247   3
   1 -13 -14 119.735 151.413   3
   1 -13 -13-26.3454 131.095   3
   1 -13 -12-178.809 140.840   3
   1 -13 -11 773.034 255.015   3
   1 -13 -10 1104.45 309.195   3
   1 -13  -9 70.3631 91.5054   3
   1 -13  -8-93.8950 94.3896   3
   1 -13  -7 1016.58 286.941   3
   1 -13  -6 527.766 163.528   3
   1 -13  -5 743.029 226.677   3
   1 -13  -4 997.725 278.346   3
   1 -13  -3 2.18657 125.029   3
   1 -13  -2-393.016 187.171   3
   1 -13  -1 23.9893 89.5234   3
   1 -13   0-105.141 138.337   3
  -1  13  -1 58.6190 81.9670   5
   1 -13   1 220.871 161.846   3
  -1  13  -2 798.389 205.257   5
   1 -13   2 817.888 246.330   3
   1 -13   3 2817.95 450.788   3
  -1  13  -3 2527.81 368.997   5
   1 -13   4 3424.65 493.331   3
  -1  13  -4 3129.39 421.403   5
   1 -13   5 3.45062 95.7681   3
  -1  13  -5 109.445 105.655   5
   1 -13   6 101.816 93.1509   6
   1 -13   6-10.5107 84.9874   3
  -1  13  -7 91.3469 115.067   5
   1 -13   7-12.2818 105.229   6
   1 -13   8-203.205 143.151   6
  -1  13  -8 68.9147 85.1043   5
  -1  13  -9 452.855 202.993   5
  -1  13 -10 93.1031 98.8591   5
   1 -12 -19 150.100 160.424   3
   1 -12 -18 161.239 142.987   3
   1 -12 -17-21.2292 117.284   3
   1 -12 -16 111.300 165.424   3
   1 -12 -15 928.245 288.970   3
   1 -12 -14 38.4502 90.4430   3
   1 -12 -13 385.627 164.350   3
   1 -12 -12 3.85588 110.214   3
   1 -12 -11 410.136 188.973   3
   1 -12 -10-88.7322 131.559   3
   1 -12  -9 512.418 213.404   3
  -1  12   8 1509.72 214.682   2
   1 -12  -8 1987.97 382.551   3
   1 -12  -7 53.9576 97.8748   3
   1 -12  -6 1752.53 361.223   3
   1 -12  -5 3017.03 452.578   3
   1 -12  -4 7153.08 688.295   3
   1 -12  -3 1365.54 319.440   3
   1 -12  -2 105.779 100.472   3
  -1  12   1 183.255 72.9140   5
   1 -12  -1 154.375 120.396   3
  -1  12   0 145.229 79.4018   5
   1 -12   0 234.600 152.532   3
   1 -12   1-9.57517 84.8660   3
  -1  12  -1 5.85616 84.1994   5
   1 -12   2 1631.38 330.544   3
  -1  12  -2 1954.71 305.835   5
   1 -12   3 31.7453 103.705   3
  -1  12  -3-107.535 102.271   5
   1 -12   4 133.749 121.318   3
  -1  12  -4 230.763 139.421   5
   1 -12   5 3713.78 510.274   3
  -1  12  -5 2909.01 402.815   5
  -1  12  -6 2356.80 373.344   5
   1 -12   6 2684.72 426.572   3
   1 -12   7 252.559 156.465   3
  -1  12  -7 217.619 141.997   5
   1 -12   7 50.5069 107.922   6
  -1  12  -8 633.784 234.952   5
   1 -12   8 43.8278 94.5848   6
  -1  12  -9 206.788 131.736   5
   1 -12   9 144.858 109.408   6
  -1  12 -10 359.588 192.355   5
   1 -12  10-172.302 149.171   6
  -1  12 -11 100.855 126.288   5
   1 -11 -20 456.700 236.744   3
   1 -11 -19-179.528 149.158   3
   1 -11 -18 96.4876 110.939   3
   1 -11 -17 113.496 168.257   3
   1 -11 -16 895.835 296.843   3
   1 -11 -15 993.926 288.310   3
   1 -11 -14 241.650 144.623   3
   1 -11 -13 1414.36 316.027   3
   1 -11 -12 1373.50 322.976   3
   1 -11 -11 274.927 150.199   3
   1 -11 -10 311.302 141.578   3
  -1  11  10 298.768 95.4668   2
   1 -11  -9 320.027 155.432   3
  -1  11   9 193.116 82.4940   2
  -1  11   8 97.3463 56.1662   2
   1 -11  -8 333.053 150.717   3
   1 -11  -7-19.8044 107.655   3
  -1  11   7 13.9159 36.8681   2
   1 -11  -6 1798.72 335.467   3
  -1  11   6 1949.35 233.220   2
   1 -11  -5 986.399 259.620   3
   1 -11  -4 1231.83 285.434   3
   1 -11  -3 11271.1 835.448   3
  -1  11   2 11653.7 630.636   5
   1 -11  -2 10935.9 808.173   3
  -1  11   1 1670.10 247.777   5
   1 -11  -1 2211.13 366.104   3
  -1  11   0-7.38355 56.0155   5
   1 -11   0-98.4069 128.382   3
   1 -11   1 865.301 246.101   3
  -1  11  -1 649.347 163.006   5
  -1  11  -2 846.678 187.126   5
   1 -11   2 1633.60 319.985   3
   1 -11   3 2865.38 424.698   3
  -1  11  -3 3068.68 368.111   5
  -1  11  -4 717.278 206.101   5
   1 -11   4 1066.77 261.283   3
   1 -11   5 2427.17 391.223   3
  -1  11  -5 3146.40 397.937   5
  -1  11  -6 91.3515 86.5385   5
   1 -11   6 93.0621 109.647   3
  -1  11  -7 4228.51 486.220   5
   1 -11   7 3983.10 497.767   6
   1 -11   7 4045.72 510.648   3
  -1  11  -8 5349.14 566.011   5
   1 -11   8 4507.68 533.355   6
   1 -11   9 466.179 174.940   6
   1 -11  10 627.355 212.198   6
   1 -11  11 154.056 127.700   6
   1 -11  12 81.1694 124.914   6
   1 -10 -21-51.4784 92.4891   3
   1 -10 -20 628.907 270.856   3
   1 -10 -19 558.387 242.607   3
   1 -10 -18 150.497 118.379   3
   1 -10 -17 141.285 133.247   3
   1 -10 -16 716.294 233.574   3
   1 -10 -15 209.667 143.613   3
   1 -10 -14 132.017 125.652   3
   1 -10 -13 1821.55 362.260   3
  -1  10  12 24.1797 45.1250   2
   1 -10 -12 46.0900 80.0133   3
   1 -10 -11 1189.73 294.759   3
  -1  10  11 1021.86 176.345   2
   1 -10 -10 2106.23 365.159   3
  -1  10  10 1925.57 232.660   2
  -1  10   9 4383.73 343.092   2
   1 -10  -9 3874.37 489.741   3
  -1  10   8 539.883 117.409   2
   1 -10  -8 663.562 199.808   3
  -1  10   7 1679.96 212.540   2
   1 -10  -7 1532.06 299.015   3
  -1  10   6 1417.05 193.619   2
   1 -10  -6 1332.21 279.252   3
  -1  10   5 4678.35 344.816   2
   1 -10  -5 5075.15 537.186   3
   1 -10  -4 12785.9 843.275   3
   1 -10  -3 15301.6 922.388   3
  -1  10   2 1194.97 195.402   5
   1 -10  -2 800.475 213.728   3
   1 -10  -1 1111.43 240.335   3
  -1  10   1 1290.68 209.064   5
  -1  10   0 2945.82 319.247   5
   1 -10   0 2961.69 399.395   3
   1 -10   1 3890.34 462.474   3
  -1  10  -1 3687.09 356.463   5
   1 -10   2 1625.12 312.714   3
  -1  10  -2 1549.12 241.789   5
   1 -10   3 253.870 148.413   3
  -1  10  -3 158.672 75.8122   5
   1 -10   4 227.885 152.528   3
  -1  10  -4 319.755 128.080   5
   1 -10   5 576.697 196.269   3
  -1  10  -5 370.921 132.125   5
   1 -10   6 792.379 220.990   3
   1 -10   7 907.803 241.873   6
   1 -10   7 1273.45 294.669   3
   1 -10   8-51.1872 106.279   6
   1 -10   9 1199.91 273.100   6
   1 -10  10 2278.78 375.311   6
   1 -10  11 282.713 155.839   6
   1 -10  12 269.537 148.806   6
   1 -10  13 1096.57 276.692   6
   1 -10  14 196.860 131.848   6
   1  -9 -22 6.46566 95.5736   3
   1  -9 -21 1795.76 417.561   3
   1  -9 -20 308.508 196.029   3
   1  -9 -19 77.9100 115.519   3
   1  -9 -18 1355.18 321.572   3
   1  -9 -17 936.890 266.982   3
   1  -9 -16 441.124 174.330   3
   1  -9 -15 214.266 169.557   3
   1  -9 -14 443.164 187.899   3
   1  -9 -13 92.9085 110.833   3
   1  -9 -12 740.767 221.757   3
   1  -9 -11 779.848 202.526   3
  -1   9  10 2419.46 252.352   2
   1  -9 -10 3011.70 416.291   3
  -1   9   9 2315.43 240.004   2
   1  -9  -9 2287.00 347.762   3
  -1   9   8 5364.51 358.988   2
   1  -9  -8 5589.16 549.988   3
   1  -9  -7 6742.95 598.796   3
  -1   9   7 6096.44 379.233   2
   1  -9  -6 2414.30 346.632   3
  -1   9   6 2318.68 232.219   2
  -1   9   5 644.848 128.360   2
   1  -9  -5 1146.70 247.164   3
  -1   9   4 6451.09 385.892   2
   1  -9  -4 5532.09 527.583   3
   1  -9  -3 5959.32 539.163   3
   1  -9  -2 201.589 115.226   3
  -1   9   2 61.8087 51.8764   5
  -1   9   1 2561.31 271.116   5
   1  -9  -1 2525.47 355.994   3
   1  -9   0 4278.87 455.749   3
  -1   9   0 4210.51 355.869   5
   1  -9   1 847.751 218.073   3
  -1   9  -1 693.349 154.217   5
   1  -9   2 7696.06 612.010   3
  -1   9  -2 7445.89 493.158   5
  -1   9  -3 8139.34 534.003   5
   1  -9   3 7384.27 601.679   3
   1  -9   4 510.021 173.885   3
   1  -9   5 1059.54 238.957   3
   1  -9   6 702.799 204.895   3
   1  -9   7 242.830 128.514   3
   1  -9   7 33.9037 78.7458   6
   1  -9   8 923.998 232.058   6
   1  -9   9 37.7302 118.330   6
   1  -9  10 1630.16 309.541   6
   1  -9  11 498.510 154.432   6
   1  -9  12 1288.39 281.546   6
   1  -9  13 2694.65 404.887   6
   1  -9  14 14.2420 89.4251   6
   1  -9  15 2918.34 441.812   6
   1  -9  16-47.7523 84.2905   6
   1  -8 -22 154.632 117.529   3
   1  -8 -21-56.6136 94.5683   3
   1  -8 -20 200.668 159.503   3
   1  -8 -19 401.299 192.416   3
   1  -8 -18 270.087 143.407   3
   1  -8 -17 1323.70 317.842   3
   1  -8 -16 1254.86 282.391   3
   1  -8 -15 986.755 249.508   3
   1  -8 -14 232.479 131.256   3
   1  -8 -13 2214.40 359.129   3
   1  -8 -12 19.0303 94.0227   3
   1  -8 -11 1158.60 245.409   3
   1  -8 -10 34.6566 95.5974   3
   1  -8  -9 3395.73 398.535   3
   1  -8  -9 2908.05 209.930   5
   1  -8  -8 17973.6 505.760   5
  -1   8   8 18200.4 634.859   2
   1  -8  -8 17521.2 914.391   3
   1  -8  -7 9362.04 362.440   5
   1  -8  -7 9942.41 675.297   3
  -1   8   7 9536.18 451.203   2
  -1   8   6 416.611 101.652   2
   1  -8  -6 302.123 131.997   3
   1  -8  -5 6190.64 532.256   3
  -1   8   5 5874.19 345.750   2
   1  -8  -4-13.9410 88.6696   3
  -1   8   4-24.9819 44.5736   2
   1  -8  -3 87.6913 108.830   3
  -1   8   3 11.3105 45.8814   2
   1  -8  -2 903.646 212.604   3
  -1   8   2 1208.70 170.409   5
  -1   8   1 576.611 126.152   5
   1  -8  -1 595.094 163.975   3
  -1   8   0 482.787 118.380   5
   1  -8   0 557.354 148.070   3
  -1   8  -1 1440.48 204.276   5
   1  -8   1 1523.55 265.931   3
  -1   8  -2 4721.08 367.168   5
   1  -8   2 5535.15 490.915   3
   1  -8   3 1675.55 278.744   3
   1  -8   4 969.599 206.146   3
   1  -8   5 4524.32 454.845   3
   1  -8   6-6.81544 68.4572   3
   1  -8   7-32.8589 116.088   6
   1  -8   7 214.601 134.939   3
   1  -8   8-33.7091 73.6601   6
   1  -8   9 382.399 152.993   6
   1  -8  10 62.5190 103.422   6
   1  -8  11 3223.22 412.105   6
   1  -8  12 657.407 192.190   6
   1  -8  13 716.691 209.628   6
   1  -8  14 218.479 149.489   6
   1  -8  15 2436.04 387.815   6
   1  -8  16 270.223 122.383   6
   1  -8  17 386.719 176.041   6
  -1   7  23 14.8497 84.8108   6
  -1   7  22 183.714 161.455   6
  -1   7  21 514.330 187.858   6
  -1   7  20 117.899 123.275   6
  -1   7  19 1109.16 277.873   6
  -1   7  19 801.922 190.294   1
  -1   7  18 204.604 133.723   6
  -1   7  18 59.8495 62.8502   1
  -1   7  17 901.542 249.021   6
  -1   7  17 1066.68 209.517   1
  -1   7  16 648.936 164.633   1
  -1   7  15 4005.10 384.123   1
   1  -7 -15 4086.12 493.989   3
  -1   7  14-95.4783 134.571   1
   1  -7 -14-14.5208 80.9547   3
   1  -7 -13 4566.88 488.461   3
   1  -7 -12 244.061 126.743   3
   1  -7 -11 1473.38 272.119   3
   1  -7 -10 1675.42 276.729   3
   1  -7  -9 3517.40 392.406   3
   1  -7  -8 167.343 86.8068   3
   1  -7  -7 120.363 40.6322   5
   1  -7  -7 323.475 141.240   3
  -1   7   7 124.529 49.8544   2
   1  -7  -6 1539.82 144.892   5
  -1   7   6 1264.98 152.972   2
   1  -7  -6 1174.65 213.105   3
   1  -7  -5 1900.29 160.664   5
  -1   7   5 1948.37 186.113   2
   1  -7  -5 1385.32 239.545   3
  -1   7   4 121.725 43.8620   2
   1  -7  -4 167.976 102.584   3
  -1   7   3 15.3670 38.7223   2
   1  -7  -3 98.6824 101.923   3
  -1   7   2 18.7967 35.5346   5
   1  -7  -2 49.8937 61.1815   3
   1  -7  -1 2185.02 287.493   3
  -1   7   1 1854.02 203.652   5
   1  -7   0 120.313 82.1616   3
  -1   7   0 150.203 66.3077   5
  -1   7  -1 200.903 69.8517   5
   1  -7   1 181.660 103.451   3
   1  -7   2-8.30444 59.9446   3
  -1   7  -2 116.315 70.4271   5
   1  -7   3 621.355 165.914   3
   1  -7   4 13222.0 715.151   3
   1  -7   5 15450.0 784.398   3
   1  -7   6 4240.68 416.339   3
   1  -7   7 7127.76 554.722   3
   1  -7   7 5582.87 478.053   6
   1  -7   8 10288.0 655.739   6
   1  -7   9-106.993 105.383   6
   1  -7  10-21.4543 85.9289   6
   1  -7  11 1636.50 280.134   6
   1  -7  12 1552.97 219.490   1
   1  -7  12 1795.19 300.701   6
   1  -7  13 12.2792 97.8271   6
   1  -7  14 570.943 191.179   6
   1  -7  15 315.683 156.255   6
   1  -7  16-61.7695 116.258   6
   1  -7  17 2210.56 380.505   6
   1  -7  18 590.122 207.300   6
  -1   6  23 382.000 193.555   6
  -1   6  22-345.998 183.626   6
  -1   6  21 230.170 156.144   6
  -1   6  21 105.676 75.9432   1
  -1   6  20 125.340 95.1563   6
  -1   6  20-30.7003 51.7715   1
  -1   6  19 425.810 159.857   6
  -1   6  19 268.401 109.843   1
  -1   6  18 82.4336 81.7213   6
  -1   6  18 175.986 79.0584   1
  -1   6  17 128.889 95.5859   1
  -1   6  17-14.5896 98.7552   6
  -1   6  16 2314.82 286.774   1
  -1   6  16 2096.90 357.886   6
  -1   6  15 2618.62 295.221   1
  -1   6  15 3187.12 415.838   6
  -1   6  14 7153.45 472.575   1
  -1   6  14 6811.96 584.263   6
  -1   6  13 3504.52 320.463   1
  -1   6  13 3575.11 423.188   6
  -1   6  12-46.5917 76.3545   1
  -1   6  12-17.6051 76.2379   6
   1  -6 -11 370.658 146.752   3
  -1   6  11 280.721 82.2916   1
   1  -6 -10 5164.05 467.626   3
   1  -6  -9 5740.07 474.606   3
   1  -6  -8 642.401 167.138   3
   1  -6  -7 1921.83 262.486   3
   1  -6  -6 18045.7 786.022   3
   1  -6  -6 17587.6 487.771   5
  -1   6   5 6151.30 303.969   2
   1  -6  -5 5957.82 278.336   5
   1  -6  -5 5848.70 446.313   3
   1  -6  -4 8766.81 334.316   5
  -1   6   4 9041.80 367.779   2
   1  -6  -4 9340.31 560.021   3
  -1   6   3 19264.3 532.469   2
   1  -6  -3 18551.9 781.583   3
  -1   6   2 3060.83 217.487   2
  -1   6   2 2666.75 216.586   5
   1  -6  -2 2757.55 307.466   3
  -1   6   1 694.840 115.161   5
   1  -6  -1 901.954 134.591   2
   1  -6  -1 783.449 164.239   3
  -1   6   0 1450.09 169.555   5
   1  -6   0 1664.88 237.705   3
  -1   6  -1 336.847 91.5142   5
   1  -6   1 165.946 92.6457   3
   1  -6   2 6323.48 463.874   3
   1  -6   3 573.644 147.135   3
   1  -6   4 526.500 130.043   3
   1  -6   5 2264.40 280.587   3
   1  -6   6 7004.50 500.255   3
   1  -6   6 6669.44 478.563   6
   1  -6   7 7857.37 529.114   6
   1  -6   8 1.09375 79.6732   6
   1  -6   9 18042.1 832.107   6
   1  -6  10 7638.88 557.167   6
   1  -6  11 4341.73 434.537   6
   1  -6  12 107.430 116.980   6
   1  -6  12 187.298 70.6856   1
   1  -6  13 3743.64 322.095   1
   1  -6  13 3631.73 423.724   6
   1  -6  14 30.2798 81.5759   6
   1  -6  15 296.014 142.188   6
   1  -6  16-17.8867 75.8005   6
   1  -6  17 1399.25 290.634   6
   1  -6  18 32.0129 71.3735   6
   1  -6  19 97.1223 126.126   6
   1  -6  20 395.099 190.029   6
  -1   5  23 604.029 231.089   6
  -1   5  22 293.717 177.408   6
  -1   5  21 898.357 272.347   6
  -1   5  20 1154.77 214.342   1
  -1   5  20 735.072 232.843   6
  -1   5  19 1088.81 200.669   1
  -1   5  19 1168.01 281.697   6
  -1   5  18 680.541 215.422   6
  -1   5  18 434.016 126.029   1
  -1   5  17-126.382 132.750   6
  -1   5  17 106.281 90.0268   1
  -1   5  16 6217.42 589.147   6
  -1   5  16 6862.02 465.235   1
  -1   5  15-35.4230 92.3669   6
  -1   5  15-143.134 109.656   1
  -1   5  14 2425.59 354.415   6
  -1   5  14 2591.02 271.925   1
  -1   5  13 763.367 193.976   6
  -1   5  13 584.981 132.109   1
  -1   5  12-34.3965 64.9996   1
  -1   5  12 177.693 89.3191   6
  -1   5  11 1870.54 212.793   1
  -1   5  11 2046.97 290.507   6
  -1   5  10 7667.57 418.907   1
  -1   5  10 7868.51 537.060   6
  -1   5   9-5.80413 45.3841   1
  -1   5   9-51.4571 96.5961   6
  -1   5   8-13.7560 70.4187   1
   1  -5  -8-45.4949 89.5246   3
   1  -5  -7 2279.33 269.225   3
   1  -5  -6 27576.3 902.498   3
   1  -5  -5 20.8720 70.8964   3
   1  -5  -4 152.037 45.0895   5
  -1   5   4 106.485 42.2387   2
   1  -5  -4 157.241 81.0669   3
  -1   5   3 2.67596 33.0865   2
   1  -5  -3-7.48514 79.4066   3
   1  -5  -3 39.7817 29.2396   5
  -1   5   2 80543.9 980.869   2
   1  -5  -2 79851.8 1461.99   3
  -1   5   1 63332.5 985.606   5
   1  -5  -1 65201.5 1011.72   2
   1  -5  -1 64871.4 1328.06   3
  -1   5   0 1590.93 166.303   5
   1  -5   0 1442.05 203.369   3
   1  -5   0 1732.21 168.939   2
   1  -5   1 2057.30 188.579   2
  -1   5  -1 2593.71 212.856   5
   1  -5   1 2382.69 260.145   3
   1  -5   2 26357.8 855.907   3
   1  -5   3 4929.59 373.465   3
   1  -5   4-70.7681 93.8135   3
   1  -5   5 539.227 144.247   3
   1  -5   6 2799.96 299.016   3
   1  -5   6 2861.79 287.192   6
   1  -5   7 7121.21 469.898   6
   1  -5   8 14463.5 678.817   6
   1  -5   9 17510.3 765.243   6
   1  -5  10 10952.9 628.508   6
   1  -5  11 3178.48 352.585   6
   1  -5  11 2711.31 257.015   1
   1  -5  12 6181.94 505.191   6
   1  -5  12 6014.06 389.681   1
   1  -5  13 2041.62 296.195   6
   1  -5  13 2163.19 237.877   1
   1  -5  14 141.517 63.0485   1
   1  -5  14 268.832 110.986   6
   1  -5  15 1293.11 254.289   6
   1  -5  16 52.5633 99.5172   6
   1  -5  17 148.660 132.004   6
   1  -5  18-18.6164 91.0813   6
   1  -5  19 376.200 152.716   6
   1  -5  20 591.070 200.191   6
  -1   4  23 725.630 242.777   6
  -1   4  22 3.20439 91.4937   6
  -1   4  21 1345.14 311.237   6
  -1   4  20 138.809 115.694   6
  -1   4  20 206.079 102.147   1
  -1   4  19 4428.97 522.117   6
  -1   4  19 3764.30 353.520   1
  -1   4  18 2022.98 256.730   1
  -1   4  18 2393.56 376.747   6
  -1   4  17 545.973 186.614   6
  -1   4  17 365.163 120.090   1
  -1   4  16 296.530 107.280   1
  -1   4  16 467.492 203.480   6
  -1   4  15 24174.7 804.179   1
  -1   4  15 24890.9 1075.28   6
  -1   4  14 416.702 110.580   1
  -1   4  14 133.568 95.1260   6
  -1   4  13 299.671 95.1837   1
  -1   4  13 316.930 124.681   6
  -1   4  12 608.892 123.079   1
  -1   4  12 493.446 154.276   6
  -1   4  11 7749.78 527.210   6
  -1   4  11 7835.19 405.264   1
  -1   4  10 3221.93 331.801   6
  -1   4  10 2924.99 243.227   1
  -1   4   9 8830.10 405.384   1
  -1   4   9 8768.46 520.124   6
  -1   4   8 2644.17 279.963   6
  -1   4   8 2103.09 192.463   1
  -1   4   7 8322.79 473.054   6
  -1   4   7 8653.78 383.288   1
   1  -4  -6 2289.59 245.677   3
   1  -4  -5 2735.00 258.422   3
   1  -4  -4 55311.5 1116.30   3
   1  -4  -3 1321.10 120.025   5
  -1   4   3 1206.13 105.164   2
   1  -4  -3 1094.28 159.824   3
   1  -4  -2 13863.6 386.228   5
   1  -4  -2 13759.0 547.353   3
  -1   4   2 14218.6 356.927   2
   1  -4  -1 20926.2 676.457   3
   1  -4  -1 20159.6 481.265   2
  -1   4   1 20371.9 512.517   5
   1  -4   0 64485.9 888.432   2
   1  -4   0 66327.3 1193.12   3
  -1   4   0 66541.6 938.653   5
  -1   4  -1 59573.6 921.276   5
   1  -4   1 59866.3 1151.67   3
   1  -4   1 58397.8 868.417   2
   1  -4   2 21450.3 692.323   3
   1  -4   3 5397.39 354.901   3
   1  -4   4 17548.3 646.548   3
   1  -4   5 1552.38 194.786   6
   1  -4   5 1962.44 226.263   3
   1  -4   6-1.86592 60.1278   6
   1  -4   7 6469.87 412.777   6
   1  -4   8 11433.6 564.829   6
   1  -4   9 3948.47 342.093   6
   1  -4   9 3715.20 212.422   4
   1  -4  10 398.561 92.5269   1
   1  -4  10 537.091 85.5564   4
   1  -4  10 371.118 121.109   6
   1  -4  11 10162.0 360.395   4
   1  -4  11 11773.0 509.770   1
   1  -4  11 11779.8 631.900   6
   1  -4  12 10849.9 626.823   6
   1  -4  12 10139.2 481.543   1
   1  -4  13 342.614 134.701   6
   1  -4  13 381.674 100.084   1
   1  -4  14 4752.20 441.957   6
   1  -4  14 5132.87 352.165   1
   1  -4  15 1666.74 274.795   6
   1  -4  15 1161.98 171.481   1
   1  -4  16 847.312 213.086   6
   1  -4  17 449.233 163.840   6
   1  -4  18 62.0977 78.6043   6
   1  -4  19 791.031 213.818   6
   1  -4  20 177.978 128.240   6
   1  -4  21 24.9399 70.8130   6
  -1   3  23 1160.03 299.540   6
  -1   3  22 242.932 151.781   6
  -1   3  21 394.049 177.899   6
  -1   3  20 63.1327 97.3176   6
  -1   3  19 1863.87 237.647   1
  -1   3  19 2589.10 394.595   6
  -1   3  18 596.796 215.011   6
  -1   3  18 1053.53 171.955   1
  -1   3  17 4888.98 505.781   6
  -1   3  17 4402.04 343.864   1
  -1   3  16 9533.96 672.027   6
  -1   3  16 9300.84 483.132   1
  -1   3  15 7594.40 423.119   1
  -1   3  15 6837.41 561.540   6
  -1   3  14 1061.89 158.143   1
  -1   3  14 755.962 194.513   6
  -1   3  13 404.003 101.430   1
  -1   3  13 337.725 127.208   6
  -1   3  12 157.234 73.7597   1
  -1   3  12 47.9581 63.9934   6
  -1   3  11-3.98026 42.2154   1
  -1   3  11-67.4462 97.4291   6
  -1   3  10 1209.65 199.439   6
  -1   3  10 1207.08 143.165   1
  -1   3   9-6.95895 48.8584   6
  -1   3   9 47.1634 43.9404   1
  -1   3   8-30.5174 48.5274   1
  -1   3   8 23.4861 53.2478   6
   1  -3  -7 17199.0 457.953   1
  -1   3   7 16777.2 484.941   1
  -1   3   7 16944.4 629.939   6
   1  -3  -6 9191.82 329.628   1
  -1   3   6 8939.89 440.104   6
  -1   3   6 8779.56 340.123   1
  -1   3   5 7.89051 53.6449   6
   1  -3  -4 301.777 78.5620   3
   1  -3  -3 59752.6 1009.57   3
  -1   3   2 5035.52 171.428   2
   1  -3  -2 4858.65 217.868   5
   1  -3  -2 4920.20 289.318   3
  -1   3   1 49314.2 717.190   5
   1  -3  -1 48522.4 681.392   5
   1  -3  -1 47111.7 595.849   2
   1  -3  -1 47911.2 891.083   3
   1  -3   0 12253.1 454.288   3
   1  -3   0 12684.4 319.650   2
  -1   3   0 12619.9 367.588   5
   1  -3   1 1559.90 165.875   3
  -1   3  -1 1628.37 141.584   5
   1  -3   2 18109.6 564.026   3
   1  -3   3 61143.4 1043.45   3
   1  -3   4 3334.66 254.328   3
   1  -3   5 12971.5 495.706   6
   1  -3   6 1124.82 156.141   6
   1  -3   7 17808.8 629.514   6
   1  -3   8 246.685 84.0795   6
   1  -3   8 299.374 54.3641   4
   1  -3   8 213.024 59.2630   1
   1  -3   9 525.683 116.644   6
   1  -3   9 512.626 69.9295   4
   1  -3   9 551.173 102.367   1
   1  -3  10 735.817 84.2154   4
   1  -3  10 743.582 122.413   1
   1  -3  10 873.188 181.758   6
   1  -3  11 2075.29 205.210   1
   1  -3  11 2323.24 271.259   6
   1  -3  12 1529.99 227.528   6
   1  -3  12 1234.14 160.046   1
   1  -3  13 2410.73 234.098   1
   1  -3  13 3005.92 328.396   6
   1  -3  14 2447.62 314.845   6
   1  -3  14 2278.43 227.625   1
   1  -3  15 115.900 74.3532   6
   1  -3  15 177.033 76.3204   1
   1  -3  16 1037.05 218.154   6
   1  -3  16 873.843 150.083   1
   1  -3  17 2007.01 317.370   6
   1  -3  18-134.583 124.437   6
   1  -3  19 800.955 212.600   6
   1  -3  20 82.4849 101.593   6
   1  -3  21 362.557 172.082   6
   1  -3  22 368.769 182.548   6
  -1   2  23 181.660 127.040   6
  -1   2  22-44.6204 107.864   6
  -1   2  21 1600.89 329.668   6
  -1   2  20-80.6197 91.0436   6
  -1   2  19-29.6896 127.817   6
  -1   2  18 104.481 96.1985   6
  -1   2  18 174.473 75.9990   1
  -1   2  17 120.649 93.3200   6
  -1   2  17 81.6306 45.0897   1
  -1   2  16 1160.19 247.149   6
  -1   2  16 1269.25 167.272   1
  -1   2  15 887.707 137.870   1
  -1   2  15 1025.07 216.547   6
  -1   2  14 2451.48 221.016   1
  -1   2  14 2279.69 311.680   6
  -1   2  13 7212.66 360.854   1
  -1   2  13 7022.71 503.115   6
  -1   2  12 110.275 44.7308   1
  -1   2  12 97.3275 76.7218   6
  -1   2  11 9333.98 532.849   6
  -1   2  11 8820.92 370.728   1
  -1   2  10 15099.9 652.171   6
  -1   2  10 14625.8 456.954   1
   1  -2  -9 1425.30 134.278   1
  -1   2   9 1456.51 139.133   1
  -1   2   9 1067.32 169.734   6
   1  -2  -8 1431.87 127.496   1
  -1   2   8 949.454 149.632   6
  -1   2   8 1300.83 129.575   1
   1  -2  -7 10480.4 322.320   1
  -1   2   7 10432.5 342.747   1
  -1   2   7 11105.0 473.249   6
  -1   2   6 4843.19 225.014   1
   1  -2  -6 5184.10 216.565   1
  -1   2   6 4729.57 297.236   6
  -1   2   5 22863.7 467.908   1
   1  -2  -5 23810.7 450.231   1
  -1   2   5 22586.7 608.242   6
  -1   2   4 17355.2 503.636   6
  -1   2   3 1278.65 132.541   6
   1  -2  -2 52767.6 789.301   3
   1  -2  -1 204068. 1522.16   3
  -1   2   0 132858. 1074.52   5
   1  -2   0 133587. 1245.74   3
   1  -2   1 169239. 1417.90   3
  -1   2  -1 170775. 1251.42   5
   1  -2   2 5015.00 250.578   3
   1  -2   3 11667.3 395.461   3
   1  -2   4 1117.07 125.437   6
   1  -2   5 4199.53 248.354   6
   1  -2   6 18563.5 553.291   6
   1  -2   7 24454.1 384.178   4
   1  -2   7 26603.8 698.304   6
   1  -2   7 25875.8 611.255   1
   1  -2   8 996.420 127.037   1
   1  -2   8 604.986 109.603   6
   1  -2   8 950.251 79.2186   4
   1  -2   9 3987.90 255.028   1
   1  -2   9 4720.33 327.869   6
   1  -2  10 3089.18 231.854   1
   1  -2  10 2813.89 269.792   6
   1  -2  11 5145.04 379.031   6
   1  -2  11 5243.51 310.430   1
   1  -2  12 4988.03 309.099   1
   1  -2  12 4166.50 360.170   6
   1  -2  13 1043.23 145.447   1
   1  -2  13 1231.93 211.581   6
   1  -2  14 671.818 121.780   1
   1  -2  14 629.095 148.695   6
   1  -2  15 416.695 99.4811   1
   1  -2  15 277.533 100.485   6
   1  -2  16 5954.76 503.120   6
   1  -2  16 5881.63 362.233   1
   1  -2  17 457.857 149.631   6
   1  -2  17 191.945 75.5136   1
   1  -2  18 898.191 231.609   6
   1  -2  19 190.926 117.496   6
   1  -2  20-53.6321 74.9965   6
   1  -2  21 2861.94 427.502   6
   1  -2  22-142.566 119.711   6
   1  -2  23 127.153 96.8009   6
  -1   1  23-148.539 125.312   6
  -1   1  22-143.307 155.458   6
  -1   1  21 3153.21 451.312   6
  -1   1  20 190.990 142.007   6
  -1   1  19 2611.11 385.566   6
  -1   1  18 805.068 194.988   6
  -1   1  17 152.080 97.8690   6
  -1   1  17-6.00010 41.8630   1
   1  -1 -16 84.0921 50.5713   4
  -1   1  16 63.1034 43.0370   1
  -1   1  16 7.33578 76.9468   6
  -1   1  15 4878.15 453.305   6
   1  -1 -15 5192.11 297.872   4
  -1   1  15 5489.18 317.067   1
  -1   1  14 3007.54 226.838   1
  -1   1  14 3022.36 339.660   6
  -1   1  13 1041.69 190.830   6
  -1   1  13 1121.16 133.045   1
  -1   1  12 4962.49 401.498   6
  -1   1  12 4825.31 265.174   1
   1  -1 -11 360.825 76.7278   1
  -1   1  11 454.880 125.605   6
  -1   1  11 474.863 83.6940   1
  -1   1  10 2023.57 236.706   6
  -1   1  10 2001.09 156.265   1
   1  -1 -10 1806.62 155.984   1
  -1   1   9 33030.7 593.701   1
   1  -1  -9 33610.3 623.015   1
  -1   1   9 34704.8 915.911   6
  -1   1   8 8382.90 425.926   6
   1  -1  -8 8710.66 293.438   1
  -1   1   8 8475.86 285.105   1
  -1   1   7 20.3243 26.3507   1
  -1   1   7 43.5733 54.0573   6
   1  -1  -7 25.5036 21.2097   1
   1  -1  -6 74.6055 25.6044   1
  -1   1   6 95.5420 43.5545   6
  -1   1   6 96.7943 31.6699   1
  -1   1   5 19389.6 523.115   6
   1  -1  -5 19731.2 345.209   1
  -1   1   5 19628.1 362.276   1
   1  -1  -4 35643.5 437.049   1
  -1   1   4 36281.4 650.597   6
  -1   1   4 36875.0 468.747   1
  -1   1   3 8640.16 292.529   6
   1  -1   2 529.357 64.5198   3
   1  -1   3 54086.4 644.394   6
   1  -1   4 23876.7 476.775   6
  -1   1  -5 4393.09 234.725   6
   1  -1   5 4185.30 221.164   6
   1  -1   5 4047.63 209.796   1
   1  -1   6 23093.0 556.612   6
  -1   1  -6 24367.8 600.490   6
   1  -1   6 22281.8 511.731   1
   1  -1   7 3687.45 244.892   6
   1  -1   7 3408.27 212.333   1
  -1   1  -7 3659.18 252.942   6
   1  -1   8 404.036 86.7211   1
   1  -1   8 549.310 104.287   6
   1  -1   9 44167.7 951.007   6
   1  -1   9 45757.1 828.952   1
   1  -1  10 15991.8 611.564   6
   1  -1  10 16196.5 514.479   1
   1  -1  11 15277.1 629.549   6
   1  -1  11 15345.8 511.513   1
   1  -1  12 2354.88 206.824   1
   1  -1  12 2683.69 281.694   6
   1  -1  13-8.78417 40.5494   1
   1  -1  13-36.7265 76.9847   6
   1  -1  14 1418.67 171.712   1
   1  -1  14 1481.65 224.873   6
   1  -1  15 63.5266 54.8192   1
   1  -1  15-71.9558 89.2202   6
   1  -1  16 1239.63 241.962   6
   1  -1  16 1575.75 186.564   1
   1  -1  17-65.2386 104.741   6
   1  -1  17-57.9556 42.0609   1
   1  -1  18 1144.14 243.135   6
   1  -1  18 832.876 144.157   1
   1  -1  19 1461.19 282.924   6
   1  -1  20 435.261 161.706   6
   1  -1  21 3217.08 440.748   6
   1  -1  22 81.5560 65.9187   6
   1  -1  23-144.767 124.354   6
  -1   0  23-199.965 144.407   6
  -1   0  22 15.3916 83.2287   6
  -1   0  21 598.063 206.876   6
  -1   0  20 1936.97 341.945   6
  -1   0  19 222.891 128.258   6
  -1   0  18 39.9211 87.9480   6
  -1   0  17 185.728 129.537   6
  -1   0  16 163.061 61.3638   1
  -1   0  16 174.953 88.3760   6
  -1   0  15 255.680 119.632   6
   1   0 -15 375.889 77.7580   4
  -1   0  15 436.351 89.4136   1
  -1   0  14 11.0150 67.0379   6
   1   0 -14 75.4965 37.0666   4
  -1   0  14 40.9220 26.6526   1
  -1   0  13 255.818 63.2221   1
  -1   0  13 233.931 109.990   6
   1   0 -13 121.175 46.4932   4
  -1   0  12 706.586 166.206   6
   1   0 -12 678.455 107.431   1
   1   0 -12 959.628 114.453   4
  -1   0  12 798.029 102.758   1
   1   0 -11 105.717 33.8186   4
   1   0 -11 87.7400 37.2258   1
  -1   0  11 165.573 89.6202   6
  -1   0  11 83.8482 45.2963   1
  -1   0  10 396.594 118.291   6
  -1   0  10 469.861 72.8364   1
   1   0 -10 200.750 47.0677   4
   1   0 -10 286.389 63.3367   1
   1   0  -9 12958.4 377.870   1
  -1   0   9 13469.5 346.953   1
  -1   0   9 12269.5 544.575   6
  -1   0   8 423.873 102.676   6
  -1   0   8 664.421 74.4760   1
   1   0  -8 700.173 83.1889   1
   1   0  -7 49816.4 624.159   1
  -1   0   7 49882.1 575.849   1
  -1   0   7 49627.2 964.051   6
  -1   0   6 3626.50 244.857   6
   1   0  -6 3542.30 148.751   1
  -1   0   6 3687.88 141.207   1
  -1   0   5 42405.9 760.717   6
  -1   0   5 44280.9 433.190   1
   1   0  -5 43785.6 454.787   1
   1   0  -4 4700.75 124.321   1
  -1   0   4 4589.97 227.463   6
  -1   0   4 4610.56 122.956   1
  -1   0   3 13040.9 340.729   6
   1   0   3 918.993 83.0741   1
   1   0   3 759.892 62.8063   6
   1   0   4 112176. 962.315   1
   1   0   4 110383. 902.565   6
  -1   0  -5 18602.3 432.494   6
   1   0   5 18651.3 425.962   1
   1   0   5 18720.3 427.583   6
  -1   0  -6 636.151 89.0939   6
  -1   0  -6 622.575 89.8559   1
   1   0   6 609.960 88.0889   6
   1   0   6 552.032 78.2343   1
  -1   0  -7 610.136 99.8096   6
   1   0   7 665.239 95.5599   1
  -1   0  -7 571.089 90.0830   1
   1   0   7 559.896 94.2272   6
  -1   0  -8 28609.8 705.995   6
  -1   0  -8 27685.9 651.676   1
   1   0   8 27514.0 682.625   6
   1   0   8 28286.9 605.422   1
   1   0   9 1335.60 140.867   1
   1   0   9 1325.17 170.399   6
   1   0  10 868.930 121.455   1
   1   0  10 574.434 121.785   6
   1   0  11 504.443 95.2402   1
   1   0  11 765.937 145.753   6
   1   0  12 5010.78 295.509   1
   1   0  12 5468.69 393.600   6
   1   0  13 11.9693 37.7140   1
   1   0  13-32.7443 69.3929   6
   1   0  14 646.047 154.188   6
   1   0  14 657.922 119.077   1
   1   0  15-44.7834 56.1807   1
   1   0  15 14.9379 67.0535   6
   1   0  16 106.151 83.3265   6
   1   0  16 82.9580 50.1139   1
   1   0  17-51.8763 67.0764   1
   1   0  17-156.151 118.307   6
   1   0  18 822.801 201.481   6
   1   0  18 767.851 138.600   1
   1   0  19 1701.04 296.531   6
   1   0  19 1827.71 218.294   1
   1   0  20 644.484 202.935   6
   1   0  21 1289.54 279.724   6
   1   0  22 26.2869 94.5606   6
   1   0  23 433.962 180.320   6
   1   0  24 214.960 149.984   6
  -1  -1  22 263.557 158.496   6
  -1  -1  21 136.093 126.220   6
  -1  -1  20-44.4263 114.609   6
  -1  -1  19-102.877 108.035   6
  -1  -1  18 22.4626 107.956   6
  -1  -1  17-92.6876 91.1359   6
  -1  -1  16 318.852 130.393   6
  -1  -1  15 891.257 204.609   6
  -1  -1  15 842.389 114.319   1
  -1  -1  14 4793.26 257.685   1
  -1  -1  14 4833.50 435.711   6
  -1  -1  13 1031.56 200.969   6
  -1  -1  13 1293.49 128.333   1
  -1  -1  12 2114.89 267.405   6
  -1  -1  12 1968.09 151.148   1
   1   1 -12 1863.57 158.767   4
  -1  -1  11 11164.7 583.254   6
   1   1 -11 10487.5 369.905   4
  -1  -1  10 46948.5 1131.54   6
   1   1 -10 47197.7 772.632   4
  -1  -1  10 47952.1 656.645   1
   1   1  -9 23453.0 525.645   4
  -1  -1   9 24479.0 440.384   1
  -1  -1   9 24423.9 776.161   6
   1   1  -8 2851.94 180.696   4
  -1  -1   8 2443.04 131.048   1
  -1  -1   8 2559.21 239.091   6
  -1  -1   7 139545. 885.294   1
  -1  -1   7 138334. 1648.85   6
   1   1  -7 143224. 1208.98   4
  -1  -1   6 2554.51 211.639   6
  -1  -1   6 2657.77 109.959   1
   1   1  -6 2581.22 158.790   4
   1   1  -5 10.2930 23.7666   4
  -1  -1   5 6.76734 29.7754   6
  -1  -1   5 54.0940 16.7647   1
   1   1  -4 7841.07 251.283   4
  -1  -1   4 7592.28 311.204   6
  -1  -1   3 3549.28 191.943   6
  -1  -1   3 3779.69 173.264   4
  -1  -1   2 1862.73 113.884   4
  -1  -1   2 1820.07 123.476   6
   1   1   3 2916.71 138.526   1
   1   1   3 2906.86 133.997   6
   1   1   4 5346.80 208.744   6
   1   1   4 5328.67 204.016   1
   1   1   5 18639.4 410.234   1
   1   1   5 19051.0 437.826   6
  -1  -1  -5 19119.5 434.167   6
   1   1   6 51219.5 721.224   1
  -1  -1  -6 52886.7 796.683   6
   1   1   6 51037.1 798.233   6
   1   1   7 4846.24 272.263   6
   1   1   7 5213.80 244.265   1
  -1  -1  -7 5149.00 271.476   6
  -1  -1  -7 4911.72 255.671   1
  -1  -1  -8 7388.46 349.858   6
   1   1   8 7183.27 304.402   1
   1   1   8 7605.91 361.843   6
  -1  -1  -8 7201.08 328.381   1
   1   1   9 44958.4 782.924   1
   1   1   9 44132.3 944.047   6
   1   1  10 100.135 68.1029   6
   1   1  10 32.1771 35.3853   1
   1   1  11 4.55588 36.2149   1
   1   1  11-27.9593 66.7205   6
   1   1  12 1823.08 180.232   1
   1   1  12 1742.55 229.232   6
   1   1  13 18618.9 757.080   6
  -1  -1 -13 16864.1 294.331   4
   1   1  13 19604.8 603.353   1
   1   1  14 563.388 150.198   6
   1   1  14 657.740 116.998   1
  -1  -1 -14 668.979 53.0654   4
   1   1  15 766.468 174.700   6
   1   1  15 1174.19 159.741   1
   1   1  16-33.0816 48.2770   1
   1   1  16-15.1154 69.0703   6
   1   1  17 2157.61 311.162   6
   1   1  17 2241.80 235.285   1
   1   1  18-42.0165 53.6532   1
   1   1  18-25.2726 67.7230   6
   1   1  19 622.189 134.369   1
   1   1  19 159.380 87.5310   6
   1   1  20 290.881 141.670   6
   1   1  21 213.991 117.797   6
   1   1  22-84.6687 120.157   6
   1   1  23 993.728 272.979   6
   1   1  24 113.133 123.317   6
  -1  -2  22 562.421 210.661   6
  -1  -2  21 365.996 173.819   6
  -1  -2  20 407.302 161.078   6
  -1  -2  19-139.982 104.024   6
  -1  -2  18 114.751 109.064   6
  -1  -2  17 1835.82 307.526   6
  -1  -2  16 71.3446 88.1712   6
  -1  -2  15 122.131 70.5440   6
  -1  -2  14 696.654 94.6325   1
  -1  -2  14 354.832 115.547   6
  -1  -2  13 52.6267 28.3345   1
  -1  -2  13 52.2387 96.8783   6
  -1  -2  12 117.838 86.1028   6
  -1  -2  12 2.54964 21.8966   1
  -1  -2  11 2119.78 265.373   6
  -1  -2  11 2413.70 154.575   1
  -1  -2  10 10351.1 304.173   1
  -1  -2  10 11400.5 576.685   6
  -1  -2   9 11250.9 545.324   6
  -1  -2   9 10724.7 297.691   1
  -1  -2   8 616.887 67.6130   1
  -1  -2   8 704.725 136.270   6
  -1  -2   7 46483.3 554.383   1
  -1  -2   7 47428.5 1017.11   6
  -1  -2   6 4395.83 160.777   1
  -1  -2   6 4608.31 302.440   6
  -1  -2   6 4472.75 230.253   4
  -1  -2   5 17984.3 557.499   6
  -1  -2   5 16584.4 426.648   4
  -1  -2   4 90486.4 955.012   4
  -1  -2   4 90178.1 1176.92   6
  -1  -2   3 5414.76 222.149   4
  -1  -2   3 5389.91 272.523   6
  -1  -2   2 114594. 1173.49   6
   1   2  -2 116572. 1117.10   2
  -1  -2   2 118724. 991.442   4
  -1  -2   1 88.8811 34.6076   3
   1   2  -1 145.287 47.5054   2
   1   2   0 34747.4 405.564   1
   1   2   0 34744.8 596.956   2
  -1  -2   0 34953.8 547.595   3
   1   2   1 5688.07 172.664   1
  -1  -2  -1 5798.33 219.460   3
  -1  -2  -2 385.916 59.2531   3
   1   2   2 366.699 51.8956   1
  -1  -2  -3 869.499 90.0373   3
   1   2   3 717.136 76.7428   1
   1   2   4 97259.6 1035.08   6
   1   2   4 95977.6 895.718   1
  -1  -2  -5 178542. 1452.87   6
   1   2   5 178812. 1305.07   1
   1   2   5 177572. 1505.23   6
   1   2   6 31868.1 679.089   6
   1   2   6 33301.4 599.388   1
  -1  -2  -6 32858.9 662.204   6
   1   2   7 1623.81 140.903   1
  -1  -2  -7 1933.27 172.950   6
   1   2   7 1663.09 165.701   6
   1   2   8 4352.71 240.267   1
  -1  -2  -8 5669.66 312.707   6
   1   2   8 5035.64 306.325   6
   1   2   9 2417.44 229.512   6
   1   2   9 3091.53 213.334   1
   1   2  10 6841.75 401.308   6
   1   2  10 7074.82 333.502   1
   1   2  11 668.160 107.547   1
   1   2  11 616.140 133.421   6
   1   2  12 1173.58 150.758   1
   1   2  12 1292.04 193.633   6
   1   2  13 8655.81 525.951   6
   1   2  13 8609.76 407.352   1
   1   2  14 30.1345 66.5220   6
   1   2  14 160.500 52.3236   1
   1   2  15 5796.07 356.721   1
   1   2  15 5641.68 471.650   6
   1   2  16 93.9948 65.4251   6
   1   2  16 54.7865 50.0403   1
   1   2  17 1461.68 195.337   1
   1   2  17 1525.27 270.127   6
   1   2  18 2156.60 328.539   6
   1   2  18 2268.34 250.245   1
   1   2  19 3389.81 424.493   6
   1   2  19 3847.02 327.960   1
   1   2  20 300.537 144.212   6
   1   2  20 354.076 110.941   1
   1   2  21 637.796 206.370   6
   1   2  22 16.9064 72.3073   6
   1   2  23-60.0100 131.240   6
   1   2  24-216.334 171.277   6
  -1  -3  21 298.215 154.631   6
  -1  -3  20 0.43590 66.8091   6
  -1  -3  19 390.979 170.173   6
  -1  -3  18-51.4131 107.157   6
  -1  -3  17 598.455 191.269   6
  -1  -3  16 388.025 137.354   6
  -1  -3  15 892.349 212.529   6
  -1  -3  14 413.022 145.139   6
  -1  -3  13 5707.72 260.323   1
  -1  -3  13 5725.18 480.445   6
  -1  -3  12 24682.4 951.719   6
  -1  -3  12 24773.1 524.847   1
  -1  -3  11 8617.29 303.843   1
  -1  -3  11 8429.66 541.172   6
  -1  -3  10 4849.06 224.631   1
  -1  -3  10 4137.39 366.305   6
  -1  -3   9 3085.92 301.930   6
  -1  -3   9 3349.20 181.109   1
  -1  -3   8 4691.36 268.524   4
  -1  -3   8 4651.70 208.870   1
  -1  -3   8 4877.53 359.662   6
  -1  -3   7 6530.36 407.939   6
  -1  -3   7 6743.92 243.615   1
  -1  -3   7 6610.68 310.059   4
  -1  -3   6 483.437 105.235   6
  -1  -3   6 647.001 94.6808   4
  -1  -3   5 18170.3 614.581   6
  -1  -3   5 17924.6 476.074   4
  -1  -3   4 17625.1 453.962   4
  -1  -3   4 16779.6 567.717   6
  -1  -3   3 15659.3 526.688   6
  -1  -3   2 178114. 1644.96   3
   1   3  -2 178193. 1582.05   2
  -1  -3   1 21490.4 550.254   3
  -1  -3   1 20916.7 393.742   1
   1   3  -1 20240.4 531.170   2
   1   3   0 5551.50 210.181   1
  -1  -3   0 6070.54 287.515   3
   1   3   0 5631.55 279.381   2
   1   3   1 49277.0 638.208   1
  -1  -3  -1 50593.8 822.235   3
   1   3   1 49896.1 824.445   2
   1   3   2 9284.90 285.417   1
  -1  -3  -2 9307.35 350.192   3
   1   3   3 183.772 44.3959   1
  -1  -3  -3 203.128 56.8475   3
  -1  -3  -4 51255.3 851.261   3
   1   3   4 51501.7 726.073   1
  -1  -3  -5 6083.53 304.006   6
   1   3   5 5259.80 243.596   1
  -1  -3  -5 5781.98 301.281   3
   1   3   6 6350.27 281.749   1
   1   3   6 6770.14 348.815   6
  -1  -3  -6 6824.91 334.269   6
   1   3   7 65733.7 1146.26   6
   1   3   7 69500.0 963.844   1
  -1  -3  -7 67713.4 1088.23   6
   1   3   8 37454.5 903.723   6
   1   3   8 37339.6 740.328   1
   1   3   9 6281.17 391.231   6
   1   3   9 6351.79 319.070   1
   1   3  10 993.756 169.881   6
   1   3  10 1337.26 154.811   1
   1   3  11 5272.41 390.346   6
   1   3  11 6065.92 332.989   1
   1   3  12 308.556 100.085   6
   1   3  12 316.482 84.8145   1
   1   3  13 9217.43 560.877   6
   1   3  13 10243.3 464.183   1
   1   3  14 4557.37 418.440   6
   1   3  14 4469.66 319.124   1
   1   3  15 339.103 97.7866   1
   1   3  15 259.663 96.6132   6
   1   3  16 4997.18 355.532   1
   1   3  16 4716.30 450.014   6
   1   3  17 264.189 95.9916   1
   1   3  17 20.3850 77.2986   6
   1   3  18 4892.43 372.266   1
   1   3  18 5116.06 516.649   6
   1   3  19 2223.43 347.266   6
   1   3  19 2205.79 262.203   1
   1   3  20 1511.05 220.901   1
   1   3  20 1122.04 266.737   6
   1   3  21 545.378 196.408   6
   1   3  21 420.658 127.727   1
   1   3  22 593.184 214.792   6
   1   3  23 327.597 156.768   6
   1   3  24 272.126 179.219   6
  -1  -4  20 516.094 192.445   6
  -1  -4  19 770.702 229.307   6
  -1  -4  18 247.355 118.387   6
  -1  -4  17 1853.86 320.602   6
  -1  -4  16 153.189 93.1570   6
  -1  -4  15 265.820 114.644   6
  -1  -4  14 1012.34 216.064   6
  -1  -4  13 6508.82 285.940   1
  -1  -4  13 6680.76 542.118   6
  -1  -4  12 5402.86 463.637   6
  -1  -4  12 4830.15 246.975   1
  -1  -4  11 1882.82 154.057   1
  -1  -4  11 2242.82 299.359   6
  -1  -4  10 6425.44 474.307   6
  -1  -4  10 5732.95 267.179   1
  -1  -4   9 4010.30 220.464   1
  -1  -4   9 4778.48 398.244   6
  -1  -4   8 3824.42 342.693   6
  -1  -4   7 4189.32 344.749   6
  -1  -4   6 281.858 96.7574   6
  -1  -4   5 3159.01 284.969   6
  -1  -4   4 23050.3 737.129   6
  -1  -4   3 11252.2 485.920   3
  -1  -4   2 850.558 92.7065   1
  -1  -4   2 794.765 130.523   3
  -1  -4   1 1361.28 159.950   3
  -1  -4   1 1560.85 126.694   1
   1   4  -1 1301.31 150.822   2
  -1  -4   0 25531.6 521.094   1
   1   4   0 23055.9 624.566   2
  -1  -4   0 24258.8 671.696   3
   1   4   1 11543.5 440.906   2
  -1  -4  -1 11494.2 457.812   3
   1   4   1 12228.9 373.189   1
   1   4   2 72.8803 28.4214   1
  -1  -4  -2 33.7695 37.9160   3
   1   4   3 7142.08 298.388   1
   1   4   3 7348.40 362.915   3
  -1  -4  -3 6559.54 350.982   3
   1   4   4 20038.4 600.295   3
   1   4   4 20022.7 506.119   1
  -1  -4  -4 19535.2 604.960   3
  -1  -4  -5 2819.65 231.609   6
   1   4   5 3197.00 209.999   1
  -1  -4  -5 3380.21 257.213   3
  -1  -4  -6 4300.73 301.402   3
   1   4   6 4109.05 250.028   1
  -1  -4  -6 4018.92 284.166   6
  -1  -4  -7 7098.45 401.812   3
   1   4   7 7717.86 346.830   1
   1   4   8 8999.92 390.350   1
   1   4   9 4216.99 276.286   1
   1   4   9 3713.89 315.282   6
   1   4  10 14407.9 647.204   6
   1   4  10 14827.8 535.118   1
   1   4  11 1787.35 246.273   6
   1   4  11 1904.83 196.630   1
   1   4  12 5445.11 430.000   6
   1   4  12 5319.91 339.260   1
   1   4  13 11253.8 512.182   1
   1   4  13 12210.1 673.474   6
   1   4  14 6129.60 499.359   6
   1   4  14 6154.54 389.059   1
   1   4  15 4737.15 354.249   1
   1   4  15 4161.59 422.590   6
   1   4  16 173.100 97.2559   1
   1   4  16-137.084 142.797   6
   1   4  17 1029.97 233.306   6
   1   4  17 1173.96 189.285   1
   1   4  18-143.840 94.4370   1
   1   4  18-193.069 142.828   6
   1   4  19 54.7056 93.6517   6
   1   4  19-37.4019 56.0820   1
   1   4  20 644.415 201.632   6
   1   4  20 545.954 146.793   1
   1   4  21 1679.43 328.720   6
   1   4  21 1068.59 203.144   1
   1   4  22 108.107 103.720   6
   1   4  22-38.7873 50.6385   1
   1   4  23 2989.19 466.095   6
   1   4  24 1930.02 398.092   6
  -1  -5  19 124.286 123.955   6
  -1  -5  18 1693.58 326.034   6
  -1  -5  17 2184.98 356.418   6
  -1  -5  16 73.1489 76.1219   6
  -1  -5  15 332.595 158.154   6
  -1  -5  14 116.347 85.4027   6
  -1  -5  13 57.7050 78.8993   6
  -1  -5  12 3800.70 236.584   1
  -1  -5  12 3835.08 416.131   6
  -1  -5  11 511.844 88.1955   1
  -1  -5  11 332.838 124.974   6
  -1  -5  10 2528.73 312.225   6
  -1  -5  10 2387.97 190.033   1
  -1  -5   9 655.059 162.828   6
  -1  -5   8 4216.85 382.900   6
  -1  -5   7 1823.45 247.958   6
  -1  -5   6 6544.02 452.772   6
  -1  -5   5 132.513 90.6083   6
  -1  -5   4 20933.4 753.203   3
  -1  -5   3 19555.9 706.148   3
  -1  -5   2 8609.94 463.521   3
  -1  -5   2 8624.11 333.134   1
  -1  -5   1 1966.59 217.386   3
  -1  -5   1 2270.04 172.808   1
   1   5  -1 1983.90 202.624   2
   1   5   0 53.8448 59.4509   2
  -1  -5   0 24.8630 49.3170   3
  -1  -5   0 61.7741 36.7907   1
   1   5   1 1981.64 204.401   2
  -1  -5  -1 1815.76 159.968   1
  -1  -5  -1 1599.58 194.242   3
   1   5   2 51277.2 868.900   1
  -1  -5  -2 53143.1 1106.74   3
   1   5   2 53331.5 1132.34   3
   1   5   2 50693.1 1011.14   2
   1   5   3 2003.01 177.477   1
   1   5   3 1943.04 101.026   5
   1   5   3 1782.30 204.872   3
  -1  -5  -3 1951.62 213.495   3
   1   5   4 213.868 61.1842   1
   1   5   4 98.5260 38.5677   3
  -1  -5  -4 264.308 86.1415   3
  -1  -5  -5 22094.4 735.237   3
   1   5   5 22742.9 615.049   1
  -1  -5  -6 12643.0 566.708   3
   1   5   6 11333.9 452.044   1
   1   5   7 8841.06 412.204   1
  -1  -5  -7 8309.90 469.420   3
  -1  -5  -8 15884.6 664.948   3
   1   5   8 16049.1 559.124   1
  -1  -5  -9 575.644 139.946   3
   1   5   9 604.227 110.619   1
   1   5  10 181.083 78.0364   1
   1   5  11 6472.38 386.986   1
   1   5  11 6999.99 493.965   6
   1   5  12 4997.75 438.063   6
   1   5  12 5450.78 364.265   1
   1   5  13 11365.0 538.601   1
   1   5  13 11888.3 685.263   6
   1   5  14 1201.13 190.947   1
   1   5  14 786.031 195.862   6
   1   5  15 22813.3 807.993   1
   1   5  15 22707.1 1024.09   6
   1   5  16 5090.86 394.635   1
   1   5  16 4826.13 493.359   6
   1   5  17 53.9582 76.0100   1
   1   5  17-94.6494 122.528   6
   1   5  18 37.9257 81.9636   6
   1   5  18 44.5434 58.2697   1
   1   5  19 24.8736 70.3651   6
   1   5  19 143.374 73.5274   1
   1   5  20 5.46575 75.0958   6
   1   5  20 283.919 108.830   1
   1   5  21 198.669 96.8529   1
   1   5  21 29.4897 72.3610   6
   1   5  22 414.876 197.204   6
   1   5  22 526.454 158.692   1
   1   5  23 1169.78 319.948   6
   1   5  24-141.013 136.022   6
  -1  -6  19 24.7790 91.1021   6
  -1  -6  18 793.713 240.327   6
  -1  -6  17 873.726 252.051   6
  -1  -6  16 1120.83 263.421   6
  -1  -6  15 4494.01 502.368   6
  -1  -6  14-4.92728 81.9237   6
  -1  -6  13 3810.31 440.720   6
  -1  -6  12 4878.50 486.329   6
  -1  -6  11 195.528 111.504   6
  -1  -6  11 139.099 59.7277   1
  -1  -6  10 1957.79 295.802   6
  -1  -6   9 223.757 119.780   6
  -1  -6   8 5938.80 488.015   6
  -1  -6   7 2152.32 282.453   6
  -1  -6   6-34.6971 82.5626   6
  -1  -6   5 21536.7 845.163   3
  -1  -6   5 21019.0 845.522   6
  -1  -6   4 17275.9 737.576   3
  -1  -6   3 218.775 89.7242   3
  -1  -6   2 3610.52 331.065   3
  -1  -6   1 5347.60 398.936   3
   1   6  -1 5677.22 366.773   2
  -1  -6   0 853.362 160.785   3
   1   6   0 738.277 138.978   2
   1   6   1 512.879 116.428   2
  -1  -6  -1 630.039 137.934   3
   1   6   2 8727.46 452.290   2
  -1  -6  -2 8397.30 487.986   3
  -1  -6  -3 22.1292 59.2560   3
   1   6   3 114.355 32.0648   5
   1   6   3 100.013 74.6791   2
   1   6   4 717.248 105.844   1
  -1  -6  -4 896.075 164.473   3
  -1  -6  -5 1093.91 187.331   3
   1   6   5 1070.98 148.175   1
  -1  -6  -6 7591.01 478.428   3
   1   6   6 6949.76 383.596   1
   1   6   7 2933.30 255.723   1
  -1  -6  -7 2349.21 277.463   3
   1   6   8 8161.79 435.723   1
  -1  -6  -8 8447.63 523.096   3
  -1  -6  -9 203.714 98.8384   3
   1   6   9 129.617 77.6280   1
  -1  -6 -10 2192.82 281.057   3
   1   6  10 2060.44 229.731   1
  -1  -6 -11 204.488 108.914   3
   1   6  11 173.469 81.6543   1
   1   6  12 369.036 108.559   1
  -1  -6 -12 216.201 119.387   3
   1   6  13 2043.93 249.053   1
   1   6  14 15204.9 685.785   1
   1   6  15 7320.74 598.869   6
   1   6  15 6950.79 471.619   1
   1   6  16 3082.75 410.787   6
   1   6  16 3194.44 329.844   1
   1   6  17 1751.59 247.066   1
   1   6  17 2336.48 364.190   6
   1   6  18 624.094 163.703   1
   1   6  18 283.226 159.303   6
   1   6  19-17.8176 93.9177   6
   1   6  19-17.2235 65.3830   1
   1   6  20 358.955 142.005   1
   1   6  20 140.528 114.136   6
   1   6  21 188.751 128.980   6
   1   6  21 186.281 106.236   1
   1   6  22 165.657 108.451   1
   1   6  22-2.95739 92.3711   6
   1   6  23 172.207 127.944   6
   1   6  23 200.796 112.180   1
   1   6  24 375.948 206.414   6
  -1  -7  17 207.710 120.237   6
  -1  -7  16 1852.07 346.698   6
  -1  -7  15 1587.19 314.671   6
  -1  -7  14 204.892 144.240   6
  -1  -7  13 396.395 160.325   6
  -1  -7  12 599.102 190.846   6
  -1  -7  11 419.857 177.330   6
  -1  -7  10 8007.39 619.012   6
  -1  -7   9 778.630 207.098   6
  -1  -7   8 530.561 160.273   6
  -1  -7   7 17.9337 82.9466   6
  -1  -7   6 2414.53 314.153   6
  -1  -7   5 261.366 103.534   6
  -1  -7   5 452.786 160.950   3
  -1  -7   4 3284.00 348.411   3
  -1  -7   3 4347.91 394.953   3
  -1  -7   2 3088.95 329.068   3
  -1  -7   1 420.662 118.583   3
   1   7   0 15153.1 630.624   2
  -1  -7   0 14422.1 700.667   3
   1   7   1 22845.0 776.104   2
  -1  -7  -1 23473.9 885.760   3
  -1  -7  -2 1680.91 238.537   3
   1   7   2 1976.24 234.990   2
   1   7   3 4883.94 232.407   5
  -1  -7  -3 4362.33 384.523   3
   1   7   3 5355.11 378.840   2
   1   7   4 48728.1 1140.45   2
  -1  -7  -4 48721.6 1288.44   3
   1   7   4 45892.0 634.004   5
   1   7   5 62769.2 1299.11   2
   1   7   5 60246.9 1184.62   1
  -1  -7  -5 63481.1 1486.25   3
  -1  -7  -6 1528.11 227.947   3
   1   7   6 1521.14 195.459   1
  -1  -7  -7 12931.4 687.332   3
   1   7   7 12364.7 554.158   1
  -1  -7  -8 4560.22 412.631   3
   1   7   8 3770.98 315.153   1
   1   7   9 1672.13 219.840   1
  -1  -7  -9 1463.19 238.862   3
  -1  -7 -10 1396.25 245.581   3
   1   7  10 1324.64 196.474   1
  -1  -7 -11 188.084 87.7885   3
   1   7  11 352.981 111.962   1
   1   7  12 1132.71 192.269   1
  -1  -7 -12 957.345 216.908   3
   1   7  13 152.433 90.6463   1
  -1  -7 -13 74.7141 119.229   3
   1   7  14 175.445 117.417   1
  -1  -7 -14 420.942 188.023   3
   1   7  15 101.022 96.1764   1
  -1  -7 -15-16.2472 85.4303   3
   1   7  16 1144.65 210.218   1
  -1  -7 -16 960.788 244.292   3
   1   7  17 1718.89 262.633   1
   1   7  18 62.5239 59.4712   1
   1   7  19-16.5176 54.3593   1
   1   7  20 95.3442 94.5441   1
   1   7  21 269.240 135.712   1
   1   7  22 280.836 131.051   1
   1   7  23-5.01501 81.7521   1
  -1  -8  16 201.194 117.854   6
  -1  -8  15 559.802 202.375   6
  -1  -8  14 185.740 149.075   6
  -1  -8  13 115.488 99.9381   6
  -1  -8  12 278.312 140.177   6
  -1  -8  11 2388.98 363.756   6
  -1  -8  10 12380.5 796.720   6
  -1  -8   9 2169.05 336.917   6
  -1  -8   8 434.387 148.526   6
  -1  -8   7 149.273 89.4537   6
  -1  -8   6 5488.55 497.317   6
  -1  -8   5 8.36980 70.1255   3
  -1  -8   4 4384.83 432.779   3
  -1  -8   3 2283.55 307.715   3
  -1  -8   2 205.490 134.870   3
  -1  -8   1 732.120 183.098   3
   1   8   0-4.59790 68.5477   2
  -1  -8   0 5.94739 65.4038   3
  -1  -8  -1 736.233 188.249   3
   1   8   1 548.648 141.057   2
   1   8   2 320.095 74.1664   5
  -1  -8  -2 312.982 136.501   3
   1   8   2 234.188 92.2130   2
   1   8   3 163.904 51.6412   5
   1   8   3 144.915 91.2313   2
  -1  -8  -3 230.410 122.349   3
  -1  -8  -4 785.596 179.936   3
   1   8   4 723.029 145.752   2
   1   8   4 852.603 101.379   5
   1   8   5 2.89771 64.5069   2
  -1  -8  -5 88.0298 96.7984   3
   1   8   6 4625.19 375.211   2
  -1  -8  -6 3749.22 395.303   3
   1   8   7 890.881 169.879   1
  -1  -8  -7 659.357 177.613   3
   1   8   8 226.512 98.4158   1
  -1  -8  -8 44.7962 72.2649   3
   1   8   9 8983.19 521.562   1
  -1  -8  -9 10607.7 688.255   3
   1   8  10 1715.61 239.993   1
  -1  -8 -10 2228.45 323.300   3
  -1  -8 -11 2036.72 309.335   3
   1   8  11 1645.43 240.331   1
   1   8  12 681.548 156.546   1
  -1  -8 -12 976.560 234.975   3
   1   8  13 707.660 153.113   1
  -1  -8 -13 709.941 189.500   3
   1   8  14 526.545 145.685   1
  -1  -8 -14 362.189 140.768   3
   1   8  15 217.328 113.171   1
  -1  -8 -15 488.475 187.011   3
   1   8  16-9.41618 71.2556   1
  -1  -8 -16-92.0791 121.321   3
  -1  -8 -17-36.7904 113.363   3
   1   8  17 16.7575 59.7896   1
   1   8  18 134.651 84.3060   1
  -1  -8 -18 223.320 150.434   3
  -1  -8 -19 320.069 159.506   3
   1   8  19 146.099 75.2789   1
  -1  -8 -20 720.382 248.772   3
   1   8  20 129.905 112.637   1
   1   8  21 204.617 116.339   1
  -1  -8 -21 321.918 169.546   3
   1   8  22-27.4582 63.5085   1
  -1  -8 -22 21.6386 98.5185   3
   1   8  23 23.1115 70.5441   1
  -1  -8 -23 388.300 195.326   3
  -1  -8 -24-39.2087 108.359   3
   1   8  24-72.9679 89.6339   1
  -1  -9  15-48.3557 95.6986   6
  -1  -9  14 104.408 120.913   6
  -1  -9  13-36.3906 80.2844   6
  -1  -9  12 65.9153 114.041   6
  -1  -9  11-107.153 118.435   6
  -1  -9  10 136.628 132.882   6
  -1  -9   9 873.702 236.599   6
  -1  -9   8 467.630 174.471   6
  -1  -9   7 3912.83 458.483   6
  -1  -9   6 961.072 226.274   6
  -1  -9   5 625.986 198.849   3
  -1  -9   4 2365.89 343.429   3
  -1  -9   3-53.8054 102.661   3
  -1  -9   2 6581.64 547.066   3
  -1  -9   1 4483.83 454.711   3
  -1  -9   0 188.203 122.946   3
   1   9   1 1268.54 204.299   2
  -1  -9  -1 846.333 203.655   3
   1   9   2 2539.66 223.064   5
   1   9   2 2412.54 282.438   2
  -1  -9  -2 2813.48 357.073   3
   1   9   3 15885.6 722.272   2
   1   9   3 15524.6 513.973   5
  -1  -9  -3 15516.7 833.544   3
  -1  -9  -4-20.0653 73.0775   3
   1   9   4 120.601 76.5130   2
   1   9   4-33.9379 46.7420   5
   1   9   5 1070.85 187.701   2
  -1  -9  -5 1530.07 261.849   3
   1   9   6 7098.87 487.281   2
  -1  -9  -6 6667.01 564.255   3
   1   9   7 18.6237 54.0804   2
  -1  -9  -7 84.0471 103.944   3
  -1  -9  -8 1344.65 266.653   3
  -1  -9  -9 1239.02 253.306   3
   1   9   9 1126.65 206.181   1
   1   9  10 7777.50 524.498   1
  -1  -9 -10 8770.04 675.352   3
   1   9  11-13.7342 93.0975   1
  -1  -9 -11-90.6445 136.956   3
   1   9  12 4819.23 429.324   1
  -1  -9 -12 4563.85 502.913   3
   1   9  13 4721.80 426.620   1
  -1  -9 -13 5303.11 547.400   3
   1   9  14 564.607 167.243   1
  -1  -9 -14 868.753 236.950   3
  -1  -9 -15 176.241 106.676   3
   1   9  15 277.866 114.012   1
   1   9  16-9.00970 87.5810   1
  -1  -9 -16-44.2059 102.586   3
   1   9  17 208.383 129.021   1
  -1  -9 -17-50.2720 131.700   3
  -1  -9 -18 78.8482 101.783   3
   1   9  18 213.476 96.1879   1
  -1  -9 -19 329.834 176.095   3
   1   9  19-20.6776 98.0758   1
  -1  -9 -20 677.915 249.545   3
   1   9  20 246.110 123.955   1
  -1  -9 -21 182.283 137.037   3
   1   9  21 333.573 141.679   1
  -1  -9 -22 282.792 186.202   3
   1   9  22 344.001 151.001   1
   1   9  23-291.383 141.361   1
  -1  -9 -23-113.623 126.986   3
  -1 -10  13-13.9513 94.6365   6
  -1 -10  12 26.0300 85.1418   6
  -1 -10  11 196.223 135.717   6
  -1 -10  10 230.086 154.773   6
  -1 -10   9 19.5317 96.0173   6
  -1 -10   8 63.3232 126.245   6
  -1 -10   7 434.334 167.215   6
  -1 -10   6 616.692 197.538   6
  -1 -10   5 3767.78 452.206   3
  -1 -10   4 113.339 107.372   3
  -1 -10   3 261.026 136.107   3
  -1 -10   2 110.317 119.838   3
  -1 -10   1 2732.05 372.068   3
  -1 -10   0 219.433 126.195   3
  -1 -10  -1 11033.9 738.762   3
   1  10   1 10444.4 505.103   5
  -1 -10  -2 7376.55 607.302   3
   1  10   2 7606.89 412.546   5
   1  10   2 7794.73 524.726   2
   1  10   3 248.303 78.9980   5
  -1 -10  -3 310.368 152.491   3
   1  10   3 259.803 126.963   2
   1  10   4 13048.1 677.376   2
  -1 -10  -4 12689.1 798.850   3
   1  10   4 12035.4 460.515   5
  -1 -10  -5 2346.11 355.986   3
   1  10   5 2082.03 272.825   2
   1  10   6-11.7344 82.8600   2
  -1 -10  -6 129.244 107.355   3
   1  10   7 3828.46 372.615   2
  -1 -10  -7 4089.76 472.052   3
   1  10   8 2375.34 300.944   2
  -1 -10  -8 1935.07 327.079   3
  -1 -10  -9 228.808 119.215   3
   1  10   9 414.605 130.793   2
  -1 -10 -10-36.2352 81.4382   3
  -1 -10 -11 3974.30 480.387   3
  -1 -10 -12 3105.26 433.836   3
   1  10  13 1034.40 216.319   1
  -1 -10 -13 930.882 243.823   3
   1  10  14 1097.59 222.817   1
  -1 -10 -14 1172.51 289.229   3
   1  10  15 1701.52 281.064   1
  -1 -10 -15 1033.09 262.859   3
   1  10  16-110.143 124.049   1
  -1 -10 -16-120.932 146.873   3
   1  10  17 96.8406 68.2625   1
  -1 -10 -17 251.992 147.744   3
   1  10  18 809.154 207.132   1
  -1 -10 -18 29.2048 86.0230   3
  -1 -10 -19 207.165 142.933   3
   1  10  19 442.170 176.835   1
  -1 -10 -20-15.7627 110.530   3
   1  10  20 109.474 108.499   1
  -1 -10 -21-232.431 169.267   3
   1  10  21-4.83551 103.777   1
   1  10  22 17.0019 72.3141   1
  -1 -10 -22 71.7741 161.408   3
  -1 -11  12 165.064 87.7011   6
  -1 -11  11-57.0363 98.5265   6
  -1 -11  10 551.931 209.777   6
  -1 -11   9 226.083 141.219   6
  -1 -11   8 2.38776 87.5124   6
  -1 -11   7 305.176 167.943   6
  -1 -11   6 785.000 219.226   6
  -1 -11   5 758.248 223.636   3
  -1 -11   4 7796.51 670.237   3
  -1 -11   3 4117.54 483.320   3
  -1 -11   2 143.577 111.532   3
  -1 -11   1 1498.26 294.042   3
   1  11   0 85.9381 74.5678   5
  -1 -11   0 0.18393 109.416   3
  -1 -11  -1 264.954 129.484   3
   1  11   1 222.003 85.9099   5
   1  11   2 5032.51 361.419   5
  -1 -11  -2 4847.69 522.159   3
   1  11   2 5447.92 457.565   2
   1  11   3 3527.53 365.467   2
   1  11   3 3627.13 293.767   5
  -1 -11  -3 3309.81 428.264   3
  -1 -11  -4 1691.17 314.277   3
   1  11   4 1775.66 264.238   2
  -1 -11  -5-64.9064 106.131   3
   1  11   5 134.964 86.1099   2
   1  11   6 1715.94 259.008   2
  -1 -11  -6 1742.34 321.029   3
  -1 -11  -7 4160.50 494.478   3
   1  11   7 4283.10 410.742   2
  -1 -11  -8 205.872 122.823   3
   1  11   8 181.332 97.5404   2
  -1 -11  -9 141.460 105.720   3
   1  11   9 6.27776 64.0855   2
  -1 -11 -10 135.323 126.201   3
   1  11  10 321.802 123.946   2
  -1 -11 -11-24.3091 98.8696   3
   1  11  11 19.6250 83.0938   2
  -1 -11 -12 565.339 198.505   3
  -1 -11 -13 284.877 176.449   3
  -1 -11 -14-72.2399 75.4631   3
  -1 -11 -15 156.735 103.297   3
  -1 -11 -16 123.507 94.2761   3
  -1 -11 -17 1463.14 335.593   3
  -1 -11 -18 372.709 170.981   3
  -1 -11 -19-23.8877 82.9365   3
  -1 -11 -20 630.638 247.007   3
  -1 -11 -21-326.896 193.875   3
  -1 -11 -22 23.3318 136.187   3
  -1 -12  10 581.369 249.116   6
  -1 -12   9 237.963 165.386   6
  -1 -12   8 1.42844 113.584   6
  -1 -12   7-108.007 143.781   6
  -1 -12   6 661.921 234.335   6
  -1 -12   5 198.374 154.916   6
  -1 -12   5 154.358 123.321   3
  -1 -12   4 1472.12 313.722   3
  -1 -12   3 306.985 165.914   3
   1  12  -2 759.149 183.384   5
  -1 -12   2 1073.47 266.226   3
   1  12  -1 1114.47 207.493   5
  -1 -12   1 1355.51 291.426   3
   1  12   0 552.558 146.173   5
  -1 -12   0 404.425 166.297   3
  -1 -12  -1 25.4462 111.399   3
  -1 -12  -2 5036.99 558.388   3
  -1 -12  -3 7299.17 667.338   3
   1  12   4 2125.93 295.516   2
  -1 -12  -4 1352.96 284.940   3
  -1 -12  -5 1077.51 259.193   3
   1  12   5 1302.14 236.020   2
  -1 -12  -6 2130.86 363.331   3
   1  12   6 2067.90 294.092   2
  -1 -12  -7 1622.75 330.896   3
   1  12   7 1227.09 231.892   2
   1  12   8 211.608 108.785   2
  -1 -12  -8 219.435 148.426   3
  -1 -12  -9 543.095 194.420   3
   1  12   9 478.614 152.095   2
   1  12  10 1452.43 254.378   2
  -1 -12 -10 1805.62 364.084   3
   1  12  11 414.598 145.816   2
  -1 -12 -11 316.952 196.672   3
  -1 -12 -12 15.1317 102.147   3
   1  12  12 332.448 128.002   2
  -1 -12 -13 169.973 125.911   3
  -1 -12 -14 18.9878 95.6476   3
  -1 -12 -15-43.0562 134.008   3
  -1 -12 -16 482.920 220.655   3
  -1 -12 -17 286.145 189.656   3
  -1 -12 -18 284.341 210.368   3
  -1 -12 -19 139.288 143.597   3
  -1 -12 -20 49.9665 135.332   3
  -1 -12 -21 507.384 255.839   3
  -1 -13   7-273.389 168.773   6
  -1 -13   6 154.667 166.903   6
  -1 -13   5 669.425 223.501   3
  -1 -13   5 702.785 227.698   6
  -1 -13   4 982.072 268.770   3
   1  13  -4 824.190 204.984   5
   1  13  -3-74.7759 92.6663   5
  -1 -13   3-35.7186 127.055   3
  -1 -13   2 658.570 219.902   3
  -1 -13   1 1031.20 266.543   3
  -1 -13   0 0.22361 99.7072   3
  -1 -13  -1 2908.54 443.297   3
  -1 -13  -2 1636.13 334.964   3
  -1 -13  -3-19.8358 128.299   3
  -1 -13  -4 78.8328 97.5769   3
   1  13   5 81.5182 87.5597   2
  -1 -13  -5-104.807 132.320   3
   1  13   6 30.8907 60.6737   2
  -1 -13  -6 234.593 143.677   3
  -1 -13  -7 184.329 92.9063   3
   1  13   7 138.412 96.1856   2
   1  13   8 267.375 127.355   2
  -1 -13  -8 234.443 128.209   3
   1  13   9 550.332 169.559   2
  -1 -13  -9 117.291 114.877   3
   1  13  10-8.40421 53.5908   2
  -1 -13 -10 120.306 93.5117   3
  -1 -13 -11 203.074 130.416   3
  -1 -13 -12 776.359 267.439   3
  -1 -13 -13-111.204 161.079   3
  -1 -13 -14-68.6198 108.643   3
  -1 -13 -15 231.422 178.686   3
  -1 -13 -16 110.868 128.997   3
  -1 -13 -17 6.93739 89.9765   3
  -1 -13 -18 962.326 309.993   3
  -1 -13 -19 79.5866 105.000   3
  -1 -14   5 968.301 282.075   3
  -1 -14   4 472.575 224.027   3
  -1 -14   3 1044.01 293.198   3
  -1 -14   2-196.149 143.890   3
  -1 -14   1 3.93705 99.9738   3
  -1 -14   0 367.263 176.243   3
  -1 -14  -1 696.933 235.031   3
  -1 -14  -2 133.571 103.072   3
  -1 -14  -3 151.922 118.331   3
  -1 -14  -4 2074.53 398.636   3
  -1 -14  -5 2011.35 391.550   3
   1  14   6 355.242 135.473   2
  -1 -14  -6 344.371 157.641   3
  -1 -14  -7-211.805 153.395   3
   1  14   7 49.1302 65.1488   2
  -1 -14  -8-307.024 170.050   3
   1  14   8 99.5832 84.0856   2
  -1 -14  -9 85.0570 119.149   3
  -1 -14 -10 1161.57 312.497   3
  -1 -14 -11-136.833 160.573   3
  -1 -14 -12 6.57208 93.0026   3
  -1 -14 -13 118.436 139.044   3
  -1 -14 -14 608.079 235.439   3
  -1 -14 -15-310.173 184.409   3
  -1 -14 -16 42.5517 127.623   3
  -1 -14 -17-237.823 170.287   3
  -1 -14 -18-58.3270 107.485   3
  -1 -15   2 359.825 174.420   3
  -1 -15   1-178.365 136.203   3
  -1 -15   0 130.162 146.807   3
  -1 -15  -1 131.787 117.085   3
  -1 -15  -2 85.9791 101.284   3
  -1 -15  -3 409.042 196.212   3
  -1 -15  -4 337.868 179.701   3
  -1 -15  -5 281.903 158.594   3
  -1 -15  -6 371.349 184.208   3
  -1 -15  -7 189.681 150.696   3
  -1 -15  -8 85.7226 76.5866   3
  -1 -15  -9-64.7395 91.1590   3
  -1 -15 -10 160.463 157.250   3
  -1 -15 -11 105.648 95.0091   3
  -1 -15 -12 951.333 299.246   3
  -1 -15 -13 269.176 151.850   3
  -1 -15 -14 31.9416 117.143   3
  -1 -15 -15 41.1390 102.622   3
  -1 -16  -4-5.88131 121.421   3
  -1 -16  -5 233.062 121.785   3
  -1 -16  -6-315.596 182.057   3
  -1 -16  -7-187.225 157.479   3
  -1 -16  -8 222.661 155.109   3
  -1 -16  -9 1473.82 372.037   3
  -1 -16 -10 546.599 269.247   3
  -1 -16 -11-51.6319 98.0381   3
   2 -15 -11 577.810 265.253   3
   2 -15 -10 550.506 247.152   3
   2 -15  -9 176.446 181.220   3
   2 -15  -8-382.204 205.382   3
   2 -15  -7 108.673 106.362   3
   2 -15  -6-59.0995 114.516   3
   2 -15  -5 26.2542 81.0434   3
   2 -15  -4 282.253 173.017   3
   2 -15  -3-319.701 179.908   3
   2 -15  -2 672.853 245.242   3
   2 -15  -1 2209.33 449.590   3
   2 -15   0 1190.34 334.006   3
   2 -14 -14 350.426 181.632   3
   2 -14 -13 722.319 263.526   3
   2 -14 -12 192.714 163.622   3
   2 -14 -11 897.438 298.809   3
   2 -14 -10 146.752 128.580   3
   2 -14  -9 621.851 230.702   3
   2 -14  -8 1598.93 379.362   3
   2 -14  -7 194.253 175.195   3
   2 -14  -6-205.945 150.656   3
   2 -14  -5 122.842 102.902   3
   2 -14  -4 15.4025 109.274   3
   2 -14  -3 846.825 265.847   3
   2 -14  -2 771.338 271.453   3
   2 -14  -1 205.962 128.035   3
   2 -14   0-4.02145 90.7725   3
   2 -14   1 1583.38 369.627   3
   2 -14   2-31.8617 132.211   3
   2 -14   3 770.951 260.322   3
   2 -14   4 413.546 195.248   3
  -2  14  -4 65.0353 93.1997   5
  -2  14  -5 496.695 196.803   5
  -2  14  -6 77.3472 87.8899   5
  -2  14  -7-49.9886 99.6381   5
  -2  14  -8 117.130 118.025   5
   2 -13 -17 111.914 125.102   3
   2 -13 -16 109.553 152.216   3
   2 -13 -15 260.805 163.086   3
   2 -13 -14 226.202 186.313   3
   2 -13 -13 124.743 109.793   3
   2 -13 -12 197.903 93.2667   3
   2 -13 -11 244.770 195.278   3
   2 -13 -10 1148.58 317.779   3
   2 -13  -9 339.517 194.640   3
   2 -13  -8-57.1598 122.861   3
   2 -13  -7 1293.81 317.900   3
   2 -13  -6 2362.04 434.012   3
   2 -13  -5 699.527 242.146   3
   2 -13  -4 2043.33 399.114   3
   2 -13  -3 1616.72 349.711   3
   2 -13  -2 82.5564 139.201   3
   2 -13  -1-64.8332 152.599   3
  -2  13   0-192.005 130.722   5
   2 -13   0-56.4793 81.6750   3
   2 -13   1 448.768 203.751   3
  -2  13  -1 86.7141 79.0244   5
  -2  13  -2 50.1811 82.2158   5
   2 -13   2 133.778 99.7946   3
  -2  13  -3 16.9830 79.5245   5
   2 -13   3-16.1861 109.891   3
   2 -13   4 853.926 260.975   3
  -2  13  -4 784.062 234.521   5
  -2  13  -5 137.161 126.231   5
   2 -13   5 130.797 141.668   3
   2 -13   6 698.836 253.559   3
  -2  13  -6 515.888 190.043   5
   2 -13   7-36.2541 124.115   6
  -2  13  -7 3.33454 83.2318   5
   2 -13   7-34.7603 97.4035   3
   2 -13   8-70.6573 94.2292   6
  -2  13  -8-59.1783 138.189   5
  -2  13  -9 150.990 121.001   5
  -2  13 -10-98.9281 119.269   5
   2 -12 -18 301.347 183.809   3
   2 -12 -17 511.410 226.545   3
   2 -12 -16 96.2288 136.723   3
   2 -12 -15 818.801 268.986   3
   2 -12 -14 882.985 274.508   3
   2 -12 -13 264.033 161.647   3
   2 -12 -12 57.4092 81.9046   3
   2 -12 -11 175.299 155.892   3
   2 -12 -10 1283.19 309.483   3
   2 -12  -9 654.512 255.587   3
   2 -12  -8 631.298 235.528   3
   2 -12  -7 607.795 224.630   3
   2 -12  -6 46.4538 94.0063   3
   2 -12  -5 306.698 187.808   3
   2 -12  -4 40.3431 132.290   3
   2 -12  -3 14.8675 108.158   3
   2 -12  -2 181.038 116.866   3
   2 -12  -1 12.1996 89.5088   3
   2 -12   0-54.6912 126.964   3
  -2  12   0 59.1296 88.9563   5
   2 -12   1 514.507 186.741   3
  -2  12  -1 484.209 164.257   5
   2 -12   2 55.5343 82.8384   3
  -2  12  -2-46.6629 78.8899   5
  -2  12  -3 136.705 61.6273   5
   2 -12   3 260.492 142.152   3
  -2  12  -4 151.946 85.4629   5
   2 -12   4 129.280 121.394   3
   2 -12   5 138.089 121.592   3
  -2  12  -5 31.6924 73.3837   5
  -2  12  -6 453.603 181.683   5
   2 -12   6 284.437 167.640   3
   2 -12   7 374.459 179.614   6
  -2  12  -7 261.867 157.990   5
   2 -12   7 187.552 171.075   3
   2 -12   8-58.4715 72.0671   6
  -2  12  -8 127.429 121.389   5
   2 -12   9 201.899 138.351   6
  -2  12  -9 142.669 125.974   5
   2 -12  10 238.113 162.953   6
  -2  12 -10 172.102 145.140   5
  -2  12 -11 26.0702 97.7006   5
   2 -12  11-11.0867 80.0678   6
   2 -11 -19 240.381 208.874   3
   2 -11 -18 13.6348 106.499   3
   2 -11 -17-83.3451 129.575   3
   2 -11 -16 783.226 250.454   3
   2 -11 -15 689.576 247.255   3
   2 -11 -14 441.574 189.161   3
   2 -11 -13 81.7161 104.507   3
   2 -11 -12-20.1199 133.491   3
   2 -11 -11 828.700 255.633   3
   2 -11 -10 1902.46 371.164   3
   2 -11  -9 1176.61 293.744   3
   2 -11  -8 546.847 208.595   3
   2 -11  -7 85.4701 123.877   3
   2 -11  -6-127.996 145.884   3
   2 -11  -5 597.402 214.073   3
   2 -11  -4 1597.65 340.886   3
   2 -11  -3 12539.6 883.923   3
   2 -11  -2 2024.21 362.487   3
   2 -11  -1 98.7969 94.8877   3
  -2  11   1 255.298 124.941   5
  -2  11   0 61.2071 54.8911   5
   2 -11   0-54.8291 115.690   3
   2 -11   1 567.489 200.537   3
  -2  11  -1 726.545 185.495   5
   2 -11   2 1780.42 339.168   3
  -2  11  -2 2051.72 309.095   5
   2 -11   3 34.1531 137.643   3
  -2  11  -3-44.8612 99.8141   5
  -2  11  -4 91.6613 78.8179   5
   2 -11   4 9.26680 92.9565   3
  -2  11  -5 900.210 226.829   5
   2 -11   5 1227.73 284.370   3
  -2  11  -6 181.697 121.978   5
   2 -11   6 586.759 218.987   3
   2 -11   7 1227.09 290.071   3
  -2  11  -7 859.249 239.159   5
   2 -11   7 667.542 220.639   6
   2 -11   8 1987.13 351.723   6
  -2  11  -8 2812.31 422.946   5
   2 -11   8 3180.09 467.783   3
  -2  11  -9 2245.35 390.427   5
   2 -11   9 1770.13 342.872   6
  -2  11 -10 140.373 122.743   5
   2 -11  10 208.439 140.921   6
  -2  11 -11 503.944 203.517   5
   2 -11  11 209.016 131.151   6
   2 -11  12 6.24525 74.7023   6
  -2  11 -12 3.74386 80.0130   5
   2 -11  13 0.23809 82.7853   6
   2 -10 -20 177.783 183.950   3
   2 -10 -19 142.173 117.605   3
   2 -10 -18 1335.35 352.022   3
   2 -10 -17 143.406 157.341   3
   2 -10 -16 245.283 175.487   3
   2 -10 -15-59.6970 117.828   3
   2 -10 -14 428.415 178.211   3
   2 -10 -13 785.082 245.582   3
   2 -10 -12 2911.67 445.532   3
   2 -10 -11-125.111 159.696   3
   2 -10 -10 384.322 155.394   3
  -2  10   9 1925.92 192.365   2
   2 -10  -9 1820.36 346.262   3
   2 -10  -8 6933.10 653.345   3
  -2  10   8 6741.68 358.262   2
   2 -10  -7 8.74154 92.8123   3
   2 -10  -6 2032.36 350.419   3
   2 -10  -5 73.8357 84.2233   3
   2 -10  -4 90.1027 148.103   3
   2 -10  -3 1354.85 293.793   3
   2 -10  -2 15954.5 945.616   3
  -2  10   1 588.115 152.715   5
   2 -10  -1 357.554 155.981   3
   2 -10   0 2866.26 408.463   3
  -2  10   0 3065.15 341.543   5
  -2  10  -1 2114.92 290.424   5
   2 -10   1 2210.26 346.189   3
   2 -10   2 1807.49 330.104   3
  -2  10  -2 1941.36 282.006   5
   2 -10   3-56.9440 102.509   3
  -2  10  -3 13.2703 74.5649   5
  -2  10  -4 27.7058 64.9057   5
   2 -10   4-76.7311 123.021   3
   2 -10   5 403.182 174.540   3
  -2  10  -5 387.149 157.947   5
  -2  10  -6 764.192 206.238   5
   2 -10   6 563.425 181.342   3
   2 -10   7-2.57767 75.8408   6
  -2  10  -7 63.2700 75.1431   5
   2 -10   8 121.358 133.709   3
   2 -10   8-64.7608 104.043   6
  -2  10  -8 27.3348 76.1985   5
   2 -10   9-23.1386 69.6821   6
  -2  10  -9-92.5296 103.137   5
   2 -10  10 1437.48 292.902   6
  -2  10 -10 2243.37 403.690   5
  -2  10 -11 1957.98 362.978   5
   2 -10  11 1096.52 265.362   6
  -2  10 -12 277.832 175.766   5
   2 -10  12-0.84737 85.6084   6
  -2  10 -13 209.803 163.524   5
   2 -10  13 226.952 140.692   6
  -2  10 -14 192.956 156.619   5
   2 -10  14 624.260 221.323   6
   2 -10  15 172.399 144.855   6
   2  -9 -21 130.747 146.164   3
   2  -9 -20 1069.49 308.824   3
   2  -9 -19-132.423 135.839   3
   2  -9 -18-131.191 143.995   3
   2  -9 -17 3237.62 497.043   3
   2  -9 -16 4267.78 569.191   3
   2  -9 -15 7.86369 96.3063   3
   2  -9 -14 101.904 105.388   3
   2  -9 -13 404.579 163.607   3
   2  -9 -12 458.680 184.441   3
  -2   9  11 913.485 133.839   2
   2  -9 -11 684.398 207.818   3
  -2   9  10 3012.18 234.693   2
   2  -9 -10 2781.57 403.899   3
  -2   9   9 1124.29 141.182   2
   2  -9  -9 1188.87 268.576   3
   2  -9  -8 855.371 219.783   3
  -2   9   8 992.732 132.721   2
  -2   9   7 4033.21 264.666   2
   2  -9  -7 3201.32 419.293   3
   2  -9  -6 5453.27 541.919   3
   2  -9  -5 1380.30 273.156   3
   2  -9  -4-81.1978 112.868   3
   2  -9  -3 1584.46 290.307   3
   2  -9  -2 5015.42 503.941   3
   2  -9  -1 4088.78 455.498   3
  -2   9   1 4509.96 384.121   5
  -2   9   0 23.3911 67.4822   5
   2  -9   0 31.4314 77.3348   3
  -2   9  -1 11.5973 70.5855   5
   2  -9   1 38.1836 94.5859   3
  -2   9  -2 1015.69 197.042   5
   2  -9   2 1691.31 301.864   3
   2  -9   3 2051.20 327.133   3
  -2   9  -3 2519.39 317.028   5
   2  -9   4 4513.37 478.189   3
  -2   9  -4 4123.84 411.267   5
  -2   9  -5 280.339 131.914   5
   2  -9   5 218.257 136.086   3
  -2   9  -6 25.7671 70.0529   5
   2  -9   6 49.1376 73.6413   3
   2  -9   7 85.5170 115.671   3
  -2   9  -7 113.688 105.060   5
  -2   9  -8 230.460 140.265   5
   2  -9   8-79.0439 106.711   6
   2  -9   8-37.2022 83.6549   3
   2  -9   9 198.082 129.740   6
   2  -9  10 968.132 228.795   6
   2  -9  11 328.745 150.763   6
   2  -9  12 172.556 111.312   6
   2  -9  13 470.817 186.011   6
   2  -9  14 1067.96 263.031   6
   2  -9  15 323.167 157.371   6
   2  -9  16 884.207 258.597   6
   2  -8 -22 108.952 169.926   3
   2  -8 -21 246.042 173.223   3
   2  -8 -20 271.564 191.506   3
   2  -8 -19 1511.71 353.179   3
   2  -8 -18 371.562 195.052   3
   2  -8 -17 366.618 177.458   3
   2  -8 -16 1748.87 345.978   3
   2  -8 -15 3490.77 483.565   3
   2  -8 -14 7593.55 686.852   3
   2  -8 -13 3050.64 423.129   3
   2  -8 -12 272.826 133.580   3
   2  -8 -11-46.8250 119.491   3
   2  -8 -10 7.65742 85.6193   3
  -2   8  10-15.0090 40.5165   2
  -2   8   9 624.850 102.899   2
   2  -8  -9 798.288 212.467   3
  -2   8   8 6318.59 309.908   2
   2  -8  -8 6738.24 580.923   3
  -2   8   7 18519.4 528.046   2
   2  -8  -7 18375.0 943.076   3
  -2   8   6 1536.94 152.082   2
   2  -8  -6 1297.69 248.747   3
   2  -8  -5-58.0072 102.046   3
   2  -8  -4 4337.11 449.189   3
   2  -8  -3 1537.92 275.377   3
   2  -8  -2-85.9374 114.795   3
   2  -8  -1 8631.22 624.113   3
  -2   8   1 9038.58 515.627   5
   2  -8   0 3852.87 424.499   3
  -2   8   0 3798.36 338.893   5
  -2   8  -1 1888.91 245.922   5
   2  -8   1 2250.54 324.470   3
  -2   8  -2 2446.33 285.897   5
   2  -8   2 2146.07 321.256   3
  -2   8  -3 1376.02 222.708   5
   2  -8   3 1185.18 246.013   3
  -2   8  -4 3869.46 376.323   5
   2  -8   4 3151.13 375.831   3
   2  -8   5 4370.08 450.031   3
  -2   8  -5 4521.29 424.423   5
  -2   8  -6 8214.87 587.192   5
   2  -8   6 7858.89 608.076   3
   2  -8   7 1316.50 249.644   6
   2  -8   7 1126.97 241.648   3
   2  -8   8 311.990 129.731   6
   2  -8   9 124.656 76.5804   6
   2  -8  10 107.389 138.123   6
   2  -8  11 363.279 144.466   6
   2  -8  12 784.900 214.566   6
   2  -8  13 72.4379 83.0275   6
   2  -8  14 17.1815 88.9256   6
   2  -8  15 264.620 152.693   6
   2  -8  16 1301.11 285.048   6
   2  -8  17 94.2615 82.4931   6
   2  -8  18 0.46199 79.7367   6
  -2   7  22 369.200 204.020   6
  -2   7  21-70.0109 149.611   6
  -2   7  20 294.653 169.644   6
  -2   7  19 159.686 137.937   6
  -2   7  18 868.534 249.942   6
  -2   7  17 1034.70 279.238   6
  -2   7  16 129.672 127.010   6
  -2   7  15 1376.06 284.818   6
   2  -7 -15 1767.46 339.164   3
   2  -7 -14 2737.84 402.375   3
   2  -7 -13 760.837 220.940   3
   2  -7 -12 9535.68 711.179   3
   2  -7 -11 3823.00 442.213   3
   2  -7 -10 320.391 130.239   3
   2  -7  -9 458.889 152.737   3
   2  -7  -8 1967.92 297.587   3
  -2   7   8 1867.56 160.195   2
   2  -7  -7 2097.92 303.834   3
  -2   7   7 1973.54 160.731   2
   2  -7  -7 1982.64 201.073   5
   2  -7  -6 6388.16 354.107   5
   2  -7  -6 6620.90 523.052   3
  -2   7   6 6866.24 292.711   2
  -2   7   5 10431.9 362.783   2
   2  -7  -5 10144.8 648.752   3
   2  -7  -5 9264.39 421.492   5
   2  -7  -4 17394.8 833.372   3
   2  -7  -3 6548.57 511.279   3
   2  -7  -2 7696.79 401.618   2
   2  -7  -2 7750.62 558.403   3
  -2   7   1 1093.18 171.058   5
   2  -7  -1 1437.12 241.388   3
  -2   7   0 900.719 160.706   5
   2  -7   0 874.467 188.419   3
  -2   7  -1 84.1175 53.8941   5
   2  -7   1-164.567 124.183   3
   2  -7   2 81.4052 83.6345   3
  -2   7  -2 158.723 89.4033   5
   2  -7   3 75.2801 72.4465   3
  -2   7  -3 132.496 99.5837   5
  -2   7  -4 544.140 147.436   5
   2  -7   4 938.122 211.861   3
   2  -7   5 4050.11 407.993   3
  -2   7  -5 4381.61 393.573   5
   2  -7   6 8078.45 580.755   3
   2  -7   7 3460.81 398.030   3
   2  -7   7 3516.55 373.518   6
   2  -7   8 8265.37 581.941   6
   2  -7   9 1691.85 271.334   6
   2  -7  10 781.869 186.621   6
   2  -7  11 11487.6 718.080   6
   2  -7  12 36.9301 67.5186   6
   2  -7  12 88.1359 81.7311   1
   2  -7  13 217.055 95.1804   1
   2  -7  13 54.6640 76.5879   6
   2  -7  14 241.089 134.950   6
   2  -7  15-2.94407 73.0957   6
   2  -7  16-45.5668 95.5485   6
   2  -7  17 160.131 124.199   6
   2  -7  18 14.7151 85.3780   6
   2  -7  19 69.5171 87.2621   6
  -2   6  22 857.292 281.153   6
  -2   6  21-46.8985 119.355   6
  -2   6  20 1166.50 305.538   6
  -2   6  19 610.310 217.163   6
  -2   6  18-68.1572 105.333   6
  -2   6  17 1869.06 355.865   6
  -2   6  16-45.7518 124.405   6
  -2   6  15 420.934 151.200   6
  -2   6  14 890.914 222.262   6
  -2   6  13 346.152 150.514   6
  -2   6  12 7352.40 588.463   6
  -2   6  11 28.2033 89.2752   6
   2  -6 -11 30.9753 71.5908   3
   2  -6 -10 2972.52 364.173   3
   2  -6  -9 5609.38 487.085   3
   2  -6  -8 2479.46 313.383   3
   2  -6  -7 1453.28 247.936   3
  -2   6   7 1723.34 138.842   2
   2  -6  -6 921.465 193.181   3
  -2   6   6 1028.99 104.264   2
   2  -6  -5 3674.88 367.536   3
  -2   6   5 3420.42 182.890   2
   2  -6  -5 3066.62 239.696   5
   2  -6  -4 299.500 75.9742   5
   2  -6  -4 312.728 129.032   3
   2  -6  -3 23136.1 649.543   5
   2  -6  -3 22652.1 885.192   3
   2  -6  -2 50771.3 913.026   2
   2  -6  -2 52411.6 1337.98   3
   2  -6  -2 51957.6 970.618   5
   2  -6  -1 11869.7 635.453   3
  -2   6   1 12707.7 541.297   5
   2  -6  -1 12532.9 470.428   2
  -2   6   0 14842.1 594.340   5
   2  -6   0 15245.1 532.403   2
   2  -6   0 15836.1 732.151   3
  -2   6  -1 3222.05 281.485   5
   2  -6   1 3980.92 369.051   3
  -2   6  -2 4993.93 360.550   5
   2  -6   2 4708.81 405.799   3
  -2   6  -3 2730.67 273.009   5
   2  -6   3 2805.70 316.666   3
  -2   6  -4 811.392 160.790   5
   2  -6   4 891.048 182.065   3
   2  -6   5 615.681 151.096   3
   2  -6   6 276.808 122.885   3
   2  -6   7 7614.70 508.830   6
   2  -6   7 7724.76 538.223   3
   2  -6   8 1435.38 230.770   6
   2  -6   9 190.279 99.2867   6
   2  -6  10 7289.79 536.234   6
   2  -6  11 1431.06 244.339   6
   2  -6  12 1975.08 291.294   6
   2  -6  12 1995.31 258.706   1
   2  -6  13 5199.25 414.029   1
   2  -6  13 6731.83 548.240   6
   2  -6  14 510.475 157.065   6
   2  -6  14 638.664 143.450   1
   2  -6  15-48.9674 76.9757   6
   2  -6  16-42.6171 92.4487   6
   2  -6  17 164.363 133.260   6
   2  -6  18 145.802 115.076   6
   2  -6  19 239.466 148.583   6
   2  -6  20 476.168 202.594   6
  -2   5  23 107.579 150.962   6
  -2   5  22 227.893 161.708   6
  -2   5  21-17.5116 80.3646   6
  -2   5  20 2311.61 408.151   6
  -2   5  19 3235.68 476.115   6
  -2   5  18 246.860 150.392   6
  -2   5  17 1082.91 275.971   6
  -2   5  16 586.299 198.465   6
  -2   5  15 3143.35 411.389   6
  -2   5  14 261.493 129.938   6
  -2   5  13 1757.43 288.601   6
  -2   5  12 39.8636 102.559   6
  -2   5  11 2032.49 293.252   6
  -2   5  10 381.504 134.391   6
  -2   5   9 212.342 80.3908   6
  -2   5   8 6444.09 472.743   6
   2  -5  -8 5571.27 453.657   3
   2  -5  -7 183.199 98.1161   3
   2  -5  -6 17424.3 753.223   3
  -2   5   5 937.868 84.1856   2
   2  -5  -5 1127.79 193.596   3
  -2   5   4 2113.50 123.337   2
   2  -5  -4 1982.65 246.811   3
   2  -5  -4 1915.88 182.797   5
   2  -5  -3 1647.56 168.965   5
   2  -5  -3 1472.80 206.687   3
   2  -5  -2 711.857 93.7758   2
   2  -5  -2 504.315 120.534   3
   2  -5  -2 463.782 91.7444   5
   2  -5  -1 58001.2 870.743   2
  -2   5   1 58358.2 1087.18   5
   2  -5  -1 58203.8 994.107   5
   2  -5  -1 55911.8 1264.56   3
  -2   5   0 20829.6 662.481   5
   2  -5   0 21785.3 551.982   2
   2  -5   0 21350.4 779.331   3
  -2   5  -1 193.665 69.8457   5
   2  -5   1 261.232 86.0648   3
   2  -5   2 18652.6 731.054   3
  -2   5  -2 17947.0 633.850   5
  -2   5  -3 189.944 69.9484   5
   2  -5   3 465.504 121.511   3
   2  -5   4 457.607 132.169   3
  -2   5  -4 748.122 149.682   5
   2  -5   5 2479.04 276.741   3
   2  -5   6 8869.84 529.115   3
   2  -5   7 2693.65 288.528   6
   2  -5   8 155.162 84.1691   6
   2  -5   9-41.2161 62.9654   6
   2  -5  10 630.048 159.824   6
   2  -5  11 224.624 63.4967   1
   2  -5  11 443.029 140.392   6
   2  -5  12 73.0918 77.2770   6
   2  -5  12-67.9136 94.9418   1
   2  -5  13 4606.70 433.893   6
   2  -5  13 4664.22 379.101   1
   2  -5  14 1008.33 180.160   1
   2  -5  14 919.259 207.950   6
   2  -5  15 88.9763 78.0980   6
   2  -5  15 286.414 107.248   1
   2  -5  16 948.708 222.201   6
   2  -5  17 336.542 154.852   6
   2  -5  18 99.8487 72.7805   6
   2  -5  19 112.792 107.212   6
   2  -5  20-7.57608 64.1763   6
   2  -5  21-139.226 120.715   6
  -2   4  23 157.275 135.217   6
  -2   4  22 146.818 110.317   6
  -2   4  21 53.5976 79.9571   6
  -2   4  20 1408.32 307.874   6
  -2   4  19 191.747 124.598   6
  -2   4  18 205.607 78.1630   1
  -2   4  18 210.660 127.255   6
  -2   4  17 39.0498 48.3209   1
  -2   4  17 126.268 134.748   6
  -2   4  16 1633.77 217.568   1
  -2   4  16 1595.29 301.088   6
  -2   4  15 1282.15 183.040   1
  -2   4  15 1505.05 288.784   6
  -2   4  14 1582.06 271.329   6
  -2   4  14 1224.71 178.098   1
  -2   4  13 195.044 121.488   6
  -2   4  13 30.0005 42.5703   1
  -2   4  12 1294.15 232.854   6
  -2   4  11 28.1006 60.7630   6
  -2   4  10 398.133 142.359   6
  -2   4   9-52.9588 77.5671   6
  -2   4   8 312.385 108.209   6
  -2   4   7 21041.7 779.055   6
  -2   4   6 1265.47 192.728   6
   2  -4  -6 1475.95 206.290   3
   2  -4  -5 304.395 96.3192   3
   2  -4  -4 760.588 141.986   3
  -2   4   4 811.938 60.1869   2
   2  -4  -3 26591.9 798.435   3
   2  -4  -2 3000.65 218.284   5
   2  -4  -2 3296.18 160.960   2
   2  -4  -2 3298.85 277.583   3
   2  -4  -1 10621.2 499.251   3
   2  -4  -1 10138.3 300.290   2
   2  -4  -1 10337.0 402.534   5
  -2   4   0 6482.36 345.614   5
   2  -4   0 6930.14 330.291   5
   2  -4   0 5894.00 371.429   3
  -2   4  -1 92.5140 48.5161   5
   2  -4   1 92.9207 53.6876   3
   2  -4   2 3718.09 299.987   3
  -2   4  -2 3953.71 283.349   5
  -2   4  -3 7826.54 406.822   5
   2  -4   3 7844.09 435.811   3
   2  -4   4 1423.74 188.396   3
   2  -4   5 22005.3 746.715   3
   2  -4   6 5267.10 355.754   6
   2  -4   6 5162.03 375.160   3
   2  -4   7 326.713 101.016   6
   2  -4   8 4294.15 338.773   6
   2  -4   9 16.2866 50.1432   6
   2  -4  10 279.061 110.152   6
   2  -4  10 373.158 96.7381   1
   2  -4  10 395.950 65.8018   4
   2  -4  11 1209.24 112.128   4
   2  -4  11 1345.67 215.795   6
   2  -4  11 1337.53 188.101   1
   2  -4  12 804.523 155.053   1
   2  -4  12 811.597 173.191   6
   2  -4  13 5139.51 436.704   6
   2  -4  13 4823.94 367.450   1
   2  -4  14 79.7252 94.9705   6
   2  -4  14 19.8271 53.9628   1
   2  -4  15 5501.27 399.562   1
   2  -4  15 6393.06 524.462   6
   2  -4  16 2166.89 328.743   6
   2  -4  16 2127.05 253.568   1
   2  -4  17 1004.92 229.921   6
   2  -4  18 656.451 187.777   6
   2  -4  19 296.448 158.977   6
   2  -4  20 252.720 124.854   6
   2  -4  21 124.984 140.382   6
   2  -4  22-56.7729 92.3805   6
  -2   3  23-136.932 122.463   6
  -2   3  22 1961.35 384.228   6
  -2   3  21 229.904 159.758   6
  -2   3  20-46.4848 96.8040   6
  -2   3  19 113.354 100.119   6
  -2   3  18 766.385 148.978   1
  -2   3  18 719.721 214.494   6
  -2   3  17 5348.64 542.590   6
  -2   3  17 4403.12 340.413   1
  -2   3  16 3564.55 432.332   6
  -2   3  16 3173.88 284.540   1
  -2   3  15 78.8100 68.8799   6
  -2   3  15 380.077 97.2563   1
  -2   3  14 3572.94 285.160   1
  -2   3  14 2909.16 358.757   6
  -2   3  13 387.207 95.0162   1
  -2   3  13 362.162 117.621   6
  -2   3  12 338.390 111.747   6
  -2   3  12 476.643 105.027   1
  -2   3  11 8449.72 399.427   1
  -2   3  11 8564.96 553.332   6
  -2   3  10 444.899 121.910   6
  -2   3  10 502.245 94.8007   1
  -2   3   9 13.4609 60.0592   6
  -2   3   8 1620.92 216.232   6
  -2   3   7 2877.78 271.704   6
   2  -3  -7 3309.43 210.127   1
  -2   3   6 534.538 114.503   6
   2  -3  -6 652.798 94.5387   1
   2  -3  -5 16916.6 468.231   1
  -2   3   5 16563.7 601.216   6
   2  -3  -4 3932.03 288.496   3
  -2   3   4 3937.98 284.494   6
   2  -3  -3 3226.41 250.053   3
   2  -3  -2 49241.1 441.807   2
   2  -3  -2 52103.5 980.750   3
   2  -3  -1 5720.06 323.238   3
  -2   3   0 8241.58 361.655   5
   2  -3   0 8746.11 400.360   3
  -2   3  -1 92217.9 1234.92   5
   2  -3   1 93550.5 1304.46   3
   2  -3   2 14147.7 515.905   3
  -2   3  -2 13989.7 487.049   5
   2  -3   3-13.8907 36.4335   3
  -2   3  -3-16.6537 34.7089   5
   2  -3   4 20407.6 633.017   3
  -2   3  -4 20489.6 677.297   3
   2  -3   5 14623.1 550.727   3
   2  -3   5 13677.0 499.804   6
   2  -3   6 1661.02 182.963   6
   2  -3   7 3392.16 266.238   6
   2  -3   8 7988.01 425.323   6
   2  -3   9 28.6957 43.2186   1
   2  -3   9 4.29640 58.9714   6
   2  -3  10 902.347 79.7666   4
   2  -3  10 927.397 164.729   6
   2  -3  10 1060.44 161.552   1
   2  -3  11 371.873 100.033   1
   2  -3  11 296.217 100.264   6
   2  -3  12 3675.62 302.950   1
   2  -3  12 3525.87 332.777   6
   2  -3  13 1847.87 223.112   1
   2  -3  13 2600.35 304.161   6
   2  -3  14 3679.21 371.609   6
   2  -3  14 4188.99 336.673   1
   2  -3  15 3061.89 290.996   1
   2  -3  15 2896.62 343.980   6
   2  -3  16 26.9070 74.4744   1
   2  -3  16 63.3716 66.9107   6
   2  -3  17 2196.79 253.410   1
   2  -3  17 2063.46 312.192   6
   2  -3  18 1217.72 250.123   6
   2  -3  19 64.6688 95.7521   6
   2  -3  20 1263.58 283.203   6
   2  -3  21 551.070 191.428   6
   2  -3  22 268.354 160.470   6
  -2   2  23 532.921 246.768   6
  -2   2  22 817.468 238.486   6
  -2   2  21 113.745 105.282   6
  -2   2  20 480.867 187.057   6
  -2   2  19 141.754 123.384   6
  -2   2  18 1810.49 334.460   6
  -2   2  17 3009.16 263.649   1
  -2   2  17 3188.37 413.768   6
  -2   2  16 95.0581 89.0404   6
  -2   2  16 139.437 71.0282   1
  -2   2  15 2743.23 355.182   6
  -2   2  15 2644.18 234.573   1
  -2   2  14 1503.42 266.479   6
  -2   2  14 1130.34 148.798   1
  -2   2  13 11272.6 660.675   6
  -2   2  13 10577.2 437.753   1
  -2   2  12 979.996 188.828   6
  -2   2  12 1359.57 151.548   1
  -2   2  11 3224.81 227.458   1
  -2   2  11 3471.58 338.836   6
   2  -2 -10 12258.4 393.128   1
  -2   2  10 12200.5 425.400   1
  -2   2  10 11673.2 600.113   6
   2  -2  -9 817.579 97.4475   1
  -2   2   9 903.422 159.046   6
  -2   2   9 661.153 96.0892   1
   2  -2  -8 56.6957 28.8668   1
  -2   2   8-19.9932 65.3724   6
  -2   2   7 1012.48 155.974   6
   2  -2  -7 1246.18 113.581   1
   2  -2  -6 285.345 56.6119   1
  -2   2   6 302.124 78.4513   6
   2  -2  -5-2.34274 16.3347   1
  -2   2   5 66.9800 53.7602   6
  -2   2   4 43679.8 843.396   6
  -2   2   3 63.3387 48.7008   6
   2  -2  -2 13895.0 443.326   3
  -2   2   2 14271.5 438.459   6
   2  -2  -1 2223.39 174.118   3
   2  -2   0 101333. 1155.98   3
   2  -2   1 416.677 76.3558   3
  -2   2  -1 548.044 94.9012   5
  -2   2  -2 4593.99 259.594   5
   2  -2   2 4392.41 243.303   3
  -2   2  -3 4250.45 258.459   5
   2  -2   3 4103.48 243.908   3
  -2   2  -3 4128.97 254.096   3
   2  -2   4 260.084 67.5288   3
  -2   2  -4 207.842 62.9096   3
  -2   2  -5 2388.97 211.686   3
   2  -2   5 2257.01 175.684   6
   2  -2   6 38063.5 760.854   6
   2  -2   7 20489.2 591.149   6
   2  -2   7 20957.9 614.004   1
   2  -2   8 13907.3 516.556   1
   2  -2   8 13887.4 513.510   6
   2  -2   9 25.3478 48.8156   6
   2  -2   9 67.0645 38.3852   1
   2  -2  10 73.6257 45.5843   1
   2  -2  10 56.0203 54.9291   6
   2  -2  11 28.0528 43.8522   6
   2  -2  11 55.7156 60.5171   1
   2  -2  12 158.207 72.0008   1
   2  -2  12 173.654 77.8054   6
   2  -2  13 2226.12 236.652   1
   2  -2  13 2772.10 300.633   6
   2  -2  14 207.556 91.1484   6
   2  -2  14 135.188 68.6418   1
   2  -2  15 15.1224 79.5427   6
   2  -2  15-30.6309 55.9327   1
   2  -2  16 466.976 140.622   6
   2  -2  16 172.577 84.5204   1
   2  -2  17 777.383 150.811   1
   2  -2  17 659.770 179.074   6
   2  -2  18 593.208 140.319   1
   2  -2  18 618.693 184.484   6
   2  -2  19 1327.34 268.865   6
   2  -2  20 2112.01 342.786   6
   2  -2  21-224.506 132.011   6
   2  -2  22 761.084 227.313   6
   2  -2  23 165.062 141.246   6
  -2   1  22-133.150 123.476   6
  -2   1  21 766.585 237.911   6
  -2   1  20 1093.20 268.395   6
  -2   1  19-53.2029 117.549   6
  -2   1  18 1265.34 270.674   6
  -2   1  17 892.965 219.819   6
  -2   1  16 152.554 106.404   6
  -2   1  16 441.388 93.3464   1
  -2   1  15 855.382 124.650   1
  -2   1  15 783.286 189.775   6
  -2   1  14 4377.88 430.138   6
  -2   1  14 4389.31 270.920   1
  -2   1  13 172.211 59.3820   1
  -2   1  13 217.638 113.257   6
  -2   1  12 1853.66 164.016   1
   2  -1 -12 1667.21 155.849   1
  -2   1  12 1693.92 253.709   6
   2  -1 -11 6187.43 281.257   1
  -2   1  11 6725.96 471.750   6
  -2   1  11 6656.36 295.528   1
  -2   1  10 2055.60 255.594   6
   2  -1 -10 2200.02 157.172   1
  -2   1  10 2232.23 164.522   1
   2  -1  -9 9936.33 308.683   1
  -2   1   9 10227.3 518.685   6
  -2   1   9 9747.63 326.908   1
  -2   1   8 37813.5 612.359   1
  -2   1   8 38187.8 953.375   6
   2  -1  -8 37291.1 562.081   1
  -2   1   7 1044.11 151.464   6
   2  -1  -7 979.160 85.2495   1
   2  -1  -6 5587.47 195.971   1
  -2   1   6 5621.27 325.066   6
  -2   1   5 696.480 113.228   6
   2  -1  -5 684.286 70.7062   1
  -2   1   4 11325.5 267.606   2
  -2   1   4 12011.2 408.480   6
  -2   1   3 62132.3 571.911   2
  -2   1   3 63830.9 867.868   6
  -2   1   2 10369.9 320.334   6
  -2   1   1 1728.47 120.066   6
   2  -1  -1 1560.67 121.369   3
   2  -1   0 61744.3 713.306   3
   2  -1   1 23419.7 437.982   3
  -2   1  -2-1.78259 43.1513   5
  -2   1  -2 81.9335 28.7215   3
   2  -1   2 75.6777 33.1541   3
  -2   1  -3 51855.7 819.087   5
  -2   1  -3 51791.1 735.488   3
   2  -1   3 51235.7 688.433   3
  -2   1  -4 17902.3 464.213   3
  -2   1  -4 17460.2 501.130   5
   2  -1   4 17180.4 377.382   6
   2  -1   5 1413.29 140.999   1
   2  -1   5 1487.46 123.894   6
  -2   1  -5 1566.70 148.328   3
   2  -1   6 432.072 77.7020   6
  -2   1  -6 399.444 83.7348   3
   2  -1   6 374.892 78.2935   1
  -2   1  -6 377.026 74.2332   6
   2  -1   7 3631.30 244.747   1
  -2   1  -7 3476.49 234.247   6
  -2   1  -7 3773.43 268.416   3
   2  -1   7 3104.19 208.175   6
  -2   1  -8 8535.94 395.991   6
   2  -1   8 9036.75 384.061   6
   2  -1   8 8676.71 388.571   1
   2  -1   9 7464.35 372.122   1
   2  -1   9 7627.81 379.957   6
   2  -1  10 1781.17 194.213   1
   2  -1  10 2043.94 214.006   6
   2  -1  11 92.5684 55.0276   1
   2  -1  11 117.539 64.5435   6
   2  -1  12 179.827 83.4371   6
   2  -1  12 316.386 91.2905   1
   2  -1  13 63.4698 51.4552   1
   2  -1  13 10.7715 59.5027   6
   2  -1  14 14.9175 56.4506   6
   2  -1  14 119.604 69.6245   1
   2  -1  15 844.571 186.189   6
   2  -1  15 1121.01 172.553   1
   2  -1  16 1542.57 248.675   6
   2  -1  16 1227.53 184.192   1
   2  -1  17 10.6833 48.7155   1
   2  -1  17 30.5145 79.6314   6
   2  -1  18-32.2470 62.8717   6
   2  -1  18 104.153 63.7067   1
   2  -1  19 644.618 197.480   6
   2  -1  19 983.382 172.464   1
   2  -1  20 1540.81 293.882   6
   2  -1  21 106.374 108.827   6
   2  -1  22 2443.37 402.315   6
   2  -1  23-108.047 110.638   6
  -2   0  22 6.56397 84.0553   6
  -2   0  21 277.428 146.925   6
  -2   0  20 154.847 125.769   6
  -2   0  19 3104.50 438.998   6
  -2   0  18 1817.30 331.298   6
  -2   0  17 9.56853 85.2604   6
  -2   0  16 183.917 112.442   6
  -2   0  15 1286.68 249.745   6
  -2   0  15 1443.34 149.724   1
  -2   0  14-20.3833 74.1486   6
   2   0 -14 7.76089 37.1799   4
  -2   0  14 11.0565 25.8688   1
   2   0 -13-29.9436 29.9606   1
  -2   0  13 40.2571 30.7402   1
   2   0 -13 17.5254 40.2932   4
  -2   0  13-13.4254 83.2285   6
   2   0 -12 624.751 92.2324   1
   2   0 -12 487.651 102.411   4
  -2   0  12 658.329 88.8295   1
  -2   0  12 506.522 127.956   6
  -2   0  11 643.720 145.577   6
  -2   0  11 515.901 76.0396   1
   2   0 -11 546.810 79.4992   1
   2   0 -11 521.019 97.8608   4
   2   0 -10 1488.98 123.162   1
  -2   0  10 1443.80 212.243   6
  -2   0  10 1730.09 127.879   1
  -2   0   9 451.983 60.0265   1
   2   0  -9 377.945 59.1341   1
  -2   0   9 420.676 118.858   6
  -2   0   8 23197.1 403.925   1
   2   0  -8 22895.5 401.228   1
  -2   0   8 22123.6 726.012   6
  -2   0   7 2516.79 227.546   6
   2   0  -7 2672.60 122.897   1
  -2   0   7 2666.17 127.934   1
  -2   0   6 9312.76 416.971   6
   2   0  -6 9055.93 199.573   1
   2   0  -5 1807.10 81.1315   1
  -2   0   5 1820.15 170.651   6
  -2   0   4 45568.4 781.467   6
   2   0  -4 46497.0 410.993   1
  -2   0   4 45885.1 668.434   2
  -2   0   3 8129.17 270.093   2
  -2   0   3 7998.82 295.430   6
  -2   0   2 920.713 92.5330   6
   2   0  -2 818.668 77.4873   2
  -2   0   1 76625.4 694.665   6
  -2   0   0 28211.9 337.915   6
   2   0   2 14458.1 362.527   1
  -2   0  -2 14364.3 390.885   5
   2   0   3 95083.6 988.731   1
  -2   0  -3 97671.1 1030.66   5
  -2   0  -3 94826.4 751.428   3
   2   0   4 20075.3 484.463   1
  -2   0  -4 20921.8 350.334   6
   2   0   4 20781.3 283.674   4
   2   0   4 20408.5 334.265   6
  -2   0  -4 20797.1 496.228   5
   2   0   5 55063.8 658.585   6
   2   0   5 55563.0 841.077   1
  -2   0  -5 54373.1 672.359   6
   2   0   6 28738.8 544.444   6
  -2   0  -6 27987.3 545.510   6
   2   0   6 28092.5 625.982   1
   2   0   7 2862.47 210.673   1
   2   0   7 2851.09 191.924   6
  -2   0  -7 2788.20 191.219   6
  -2   0  -8 26037.3 637.072   6
   2   0   8 25324.6 646.072   1
   2   0   8 26227.4 631.999   6
   2   0   9 3513.93 249.294   1
   2   0   9 4322.08 278.023   6
   2   0  10 2754.03 242.079   6
   2   0  10 2717.26 227.006   1
   2   0  11 4026.69 303.816   6
   2   0  11 4422.92 295.129   1
   2   0  12 12731.5 516.910   1
   2   0  12 12480.8 571.085   6
   2   0  13 1051.75 157.160   1
   2   0  13 1076.84 183.003   6
   2   0  14 4199.70 364.444   6
   2   0  14 4651.68 326.727   1
   2   0  15 1745.91 252.828   6
   2   0  15 1627.44 199.273   1
   2   0  16 649.093 135.495   1
   2   0  16 943.604 200.863   6
   2   0  17 1282.05 188.133   1
   2   0  17 959.525 205.221   6
   2   0  18 1304.82 190.363   1
   2   0  18 1261.84 255.750   6
   2   0  19 351.207 129.563   6
   2   0  19 162.360 86.8097   1
   2   0  20 160.937 106.223   6
   2   0  20-80.6773 73.8535   1
   2   0  21 59.1931 115.578   6
   2   0  22 1906.73 351.274   6
   2   0  23 48.1367 83.0567   6
   2   0  24 231.078 148.772   6
  -2  -1  22 171.799 119.301   6
  -2  -1  21 121.466 104.543   6
  -2  -1  20-1.71940 106.516   6
  -2  -1  19-81.3343 131.075   6
  -2  -1  18 336.901 148.648   6
  -2  -1  17 2962.27 392.719   6
  -2  -1  16 1524.76 281.353   6
  -2  -1  15 194.952 121.012   6
  -2  -1  14 279.985 56.1462   1
  -2  -1  14 219.262 77.6611   6
   2   1 -13 1270.73 159.354   4
  -2  -1  13 742.546 171.129   6
  -2  -1  13 1064.06 104.427   1
   2   1 -12 518.507 101.576   4
  -2  -1  12 399.814 61.0883   1
  -2  -1  12 412.231 124.158   6
  -2  -1  11 5758.84 214.955   1
  -2  -1  11 5187.18 411.146   6
   2   1 -11 5372.85 310.294   4
   2   1 -10 9010.54 393.650   4
  -2  -1  10 9531.20 256.407   1
  -2  -1  10 8645.32 509.106   6
   2   1  -9 274.531 70.4928   4
  -2  -1   9 138.002 54.2911   6
  -2  -1   9 233.598 37.9460   1
   2   1  -8 179.987 57.4126   4
  -2  -1   8 27.2737 55.8927   6
  -2  -1   8 194.963 33.2707   1
   2   1  -7 14757.8 468.024   4
  -2  -1   7 15719.1 583.612   6
  -2  -1   7 14452.6 227.567   1
   2   1  -6 63456.4 940.037   4
  -2  -1   6 62315.3 1093.78   6
  -2  -1   5 22537.8 610.509   6
   2   1  -5 22727.2 544.493   4
  -2  -1   5 22799.1 563.255   2
  -2  -1   4 137.404 53.6213   6
  -2  -1   3 174481. 1454.09   6
   2   1  -3 177852. 1377.09   2
  -2  -1   2 292064. 1697.01   6
   2   1  -2 292130. 1765.55   2
  -2  -1   1 44257.0 579.496   6
  -2  -1   1 44382.9 442.809   1
   2   1  -1 44565.9 420.209   1
   2   1  -1 44016.5 684.115   2
  -2  -1   0 16991.6 312.180   6
   2   1   0 17212.3 305.000   1
  -2  -1   0 16322.5 384.407   4
   2   1   1 7671.54 228.218   1
  -2  -1  -1 6999.94 238.366   4
  -2  -1  -2 49307.3 598.726   4
   2   1   2 49854.3 634.379   1
   2   1   3 3.20362 32.9975   1
  -2  -1  -3-6.92260 20.5721   4
  -2  -1  -3 8.60189 13.8123   6
   2   1   3 22.9600 29.4259   5
  -2  -1  -3-3.15305 27.7499   5
  -2  -1  -4 14527.1 288.631   4
  -2  -1  -4 15318.1 291.865   6
   2   1   4 15151.3 404.630   1
  -2  -1  -4 15155.9 384.881   5
   2   1   4 15925.9 313.679   6
  -2  -1  -5 268.211 60.3320   5
   2   1   5 180.710 42.4362   6
  -2  -1  -5 216.948 44.5689   6
  -2  -1  -5 187.874 34.6272   4
   2   1   5 190.132 59.4468   1
   2   1   6 753.313 105.486   1
  -2  -1  -6 732.878 57.7867   4
   2   1   6 786.958 96.3630   6
  -2  -1  -6 988.919 99.9089   6
  -2  -1  -7 3000.96 192.184   6
  -2  -1  -7 2896.09 106.235   4
   2   1   7 3221.09 219.537   1
   2   1   7 2587.25 184.676   6
   2   1   8 5025.71 280.429   6
   2   1   8 5224.45 286.762   1
  -2  -1  -8 4889.67 267.354   6
   2   1   9 11406.7 453.377   6
   2   1   9 10601.1 423.305   1
  -2  -1  -9 11790.5 446.748   6
   2   1  10 20323.9 651.952   6
   2   1  10 19809.5 598.954   1
   2   1  11 991.045 145.466   1
   2   1  11 727.908 135.525   6
   2   1  12 2087.87 208.811   1
   2   1  12 2228.61 242.587   6
   2   1  13 2297.51 264.084   6
   2   1  13 2252.57 221.807   1
   2   1  14 14711.6 577.812   1
   2   1  14 15505.2 704.261   6
   2   1  15 3352.43 286.040   1
   2   1  15 3323.81 345.177   6
   2   1  16 2216.73 237.366   1
   2   1  16 2073.81 283.178   6
   2   1  17 1074.34 220.687   6
   2   1  17 694.550 139.909   1
   2   1  18 286.453 88.2698   1
   2   1  18 332.252 120.068   6
   2   1  19 280.074 125.207   6
   2   1  19 423.154 114.617   1
   2   1  20 145.727 95.8866   6
   2   1  20 129.893 55.1954   1
   2   1  21-32.7114 84.8339   6
   2   1  22 14.7804 67.2020   6
   2   1  23-55.5780 90.5066   6
   2   1  24 516.295 208.560   6
  -2  -2  21 561.865 218.532   6
  -2  -2  20 1787.63 346.995   6
  -2  -2  19 1119.26 269.393   6
  -2  -2  18 257.062 112.811   6
  -2  -2  17 1224.80 272.563   6
  -2  -2  16 1028.99 226.764   6
  -2  -2  15 704.105 172.792   6
  -2  -2  14 1371.78 239.993   6
  -2  -2  13 1159.53 225.812   6
  -2  -2  13 1132.56 97.6122   1
  -2  -2  12 1834.87 117.823   1
  -2  -2  12 2290.17 298.890   6
  -2  -2  11 1945.41 263.830   6
  -2  -2  11 1756.90 106.944   1
  -2  -2  10 90.4155 60.8996   6
   2   2 -10 89.5853 51.1218   4
  -2  -2  10 11.4099 12.3180   1
  -2  -2   9 9996.80 208.672   1
   2   2  -9 9845.48 401.506   4
  -2  -2   9 9544.27 524.114   6
   2   2  -8 1269.43 147.757   4
  -2  -2   8 1061.42 167.153   6
  -2  -2   8 1255.54 65.9075   1
   2   2  -7 1579.22 156.618   4
  -2  -2   7 1280.07 181.743   6
   2   2  -6 14514.9 456.430   4
  -2  -2   6 14598.7 559.862   6
  -2  -2   5-55.8029 62.5836   6
   2   2  -5 35.4925 34.7912   4
   2   2  -4 19.5890 28.4337   4
  -2  -2   4 38.9949 36.1817   6
  -2  -2   4 20.5856 20.9616   4
  -2  -2   3 6875.92 319.175   6
   2   2  -3 6589.76 307.089   2
  -2  -2   3 6930.93 298.074   4
   2   2  -2 268264. 1934.40   2
  -2  -2   2 266008. 926.213   1
  -2  -2   2 264561. 1854.30   6
  -2  -2   2 264375. 1777.39   4
   2   2  -2 272984. 943.275   1
   2   2  -1 968280. 2015.45   1
   2   2  -1 996547. 3181.75   3
   2   2  -1 970198. 3682.33   2
  -2  -2   1 972294. 3287.29   4
   2   2   0 58433.6 557.951   1
  -2  -2   0 60426.5 670.804   3
   2   2   0 58518.4 715.898   3
  -2  -2   0 60945.8 783.240   4
  -2  -2   0 59171.8 581.797   1
  -2  -2  -1 664.927 83.7642   4
   2   2   1 541.777 65.9445   3
   2   2   1 497.226 59.2986   1
  -2  -2  -1 610.903 64.9698   3
  -2  -2  -2 7629.69 220.826   3
   2   2   2 7763.98 222.587   3
   2   2   2 8063.54 250.492   1
  -2  -2  -3 32885.0 476.969   3
   2   2   3 34019.5 556.358   1
   2   2   3 33058.2 477.715   5
   2   2   4 8021.56 288.683   1
  -2  -2  -4 7855.48 264.625   6
  -2  -2  -4 7884.37 250.773   5
   2   2   5 45592.9 729.813   1
  -2  -2  -5 44802.2 665.642   6
   2   2   5 45228.2 704.614   6
  -2  -2  -5 43435.3 619.991   5
   2   2   6 32293.6 645.997   6
   2   2   6 32318.0 642.000   1
  -2  -2  -6 32531.0 608.262   6
   2   2   7 384.336 77.6110   6
  -2  -2  -7 467.228 78.1835   6
   2   2   7 537.954 94.8631   1
  -2  -2  -8-5.46091 29.6450   6
   2   2   8-11.7284 46.6542   6
   2   2   8 22.9441 40.3624   1
   2   2   9 9589.27 431.498   6
   2   2   9 10269.5 411.838   1
  -2  -2  -9 9995.29 415.777   6
   2   2  10 5666.62 317.317   1
   2   2  10 4951.91 326.951   6
   2   2  11 1791.38 189.001   1
   2   2  11 1911.32 218.357   6
   2   2  12 243.324 66.0961   1
   2   2  12 135.361 69.2874   6
   2   2  13 26.4766 57.1845   6
   2   2  13 17.0310 43.5201   1
   2   2  14 5415.16 353.208   1
   2   2  14 5204.63 411.563   6
   2   2  15 1290.22 217.403   6
   2   2  15 1147.37 166.283   1
   2   2  16 431.872 111.024   1
   2   2  16 668.977 169.448   6
   2   2  17-66.1311 92.2426   6
   2   2  17-87.2758 83.8911   1
   2   2  18 31.2041 61.3433   6
   2   2  18 96.7332 58.4864   1
   2   2  19 727.093 159.422   1
   2   2  19 810.719 209.519   6
   2   2  20 1133.26 248.822   6
   2   2  20 1455.80 218.968   1
   2   2  21 94.6311 86.7764   6
   2   2  21 208.196 99.9408   1
   2   2  22 217.926 137.994   6
   2   2  23 0.22037 112.174   6
   2   2  24 243.462 158.121   6
  -2  -3  20 329.010 164.184   6
  -2  -3  19 420.525 204.434   6
  -2  -3  18 1503.13 307.337   6
  -2  -3  17-54.1391 115.117   6
  -2  -3  16 356.446 149.703   6
  -2  -3  15-114.813 138.643   6
  -2  -3  14 38.5866 79.2966   6
  -2  -3  13 2922.33 347.837   6
  -2  -3  12 9186.11 604.979   6
  -2  -3  12 10053.6 254.811   1
  -2  -3  11 12870.1 682.225   6
  -2  -3  11 11232.7 254.649   1
  -2  -3  10 1284.07 208.918   6
  -2  -3  10 1053.08 73.4152   1
  -2  -3   9 12415.2 623.560   6
  -2  -3   9 11974.8 232.154   1
  -2  -3   8 1451.83 76.9000   1
  -2  -3   8 2060.63 246.826   6
  -2  -3   7 4243.17 336.103   6
  -2  -3   7 3946.00 124.644   1
  -2  -3   6 813.102 156.090   6
  -2  -3   6 726.170 55.4019   1
  -2  -3   5 11300.2 430.362   4
  -2  -3   5 11191.7 207.430   1
  -2  -3   5 12069.8 517.069   6
  -2  -3   4 789.841 132.363   6
  -2  -3   4 614.427 98.7436   4
  -2  -3   4 809.263 57.1315   1
  -2  -3   3 6491.29 171.143   1
  -2  -3   3 6991.53 315.989   4
   2   3  -3 6035.40 327.339   2
  -2  -3   3 6590.34 348.166   6
  -2  -3   2 58068.6 990.702   6
   2   3  -2 58523.4 1009.74   2
  -2  -3   2 59296.3 891.292   4
  -2  -3   2 57437.2 550.311   1
  -2  -3   1 22632.3 537.747   4
  -2  -3   1 23272.4 555.151   3
   2   3  -1 24027.7 603.736   3
  -2  -3   1 23055.6 373.851   1
   2   3  -1 23230.9 391.960   1
   2   3  -1 23089.7 633.650   2
   2   3   0 28.2221 20.2982   1
   2   3   0 70.9754 39.3515   3
  -2  -3   0 5.93472 43.2155   3
   2   3   0-11.2710 58.1087   2
  -2  -3   0 70.1482 27.0295   1
   2   3   1 45426.0 763.475   3
   2   3   1 43891.2 592.301   1
  -2  -3  -1 44336.5 597.758   1
  -2  -3  -1 45583.7 721.778   3
  -2  -3  -2 248.007 54.8687   3
   2   3   2 227.737 55.4422   3
   2   3   2 402.541 64.4915   1
   2   3   3 786.781 94.3237   1
  -2  -3  -3 940.915 105.329   3
   2   3   3 773.347 94.0627   3
   2   3   4 1896.68 93.1254   5
   2   3   4 2121.43 155.687   1
  -2  -3  -4 1888.34 153.311   3
  -2  -3  -5 15.8972 31.9507   3
  -2  -3  -5 71.7380 40.6014   6
   2   3   5-24.1769 43.8854   1
  -2  -3  -6 18345.3 379.755   5
   2   3   6 18735.2 505.213   1
  -2  -3  -6 17886.0 507.035   6
   2   3   7 6366.13 336.153   6
   2   3   7 7138.85 329.813   1
  -2  -3  -7 6334.46 316.139   6
   2   3   8 50512.3 904.211   1
  -2  -3  -8 47967.6 903.891   6
   2   3   8 47402.9 967.730   6
   2   3   9 526.470 103.174   1
   2   3   9 369.307 96.9089   6
   2   3  10 5712.24 370.196   6
   2   3  10 6106.38 338.150   1
   2   3  11 5627.75 337.999   1
   2   3  11 5974.28 397.685   6
   2   3  12 8705.81 427.878   1
   2   3  12 8532.17 503.875   6
   2   3  13 373.550 102.373   1
   2   3  13 170.823 72.2912   6
   2   3  14 3712.50 300.620   1
   2   3  14 3708.51 365.944   6
   2   3  15 522.246 148.922   6
   2   3  15 790.133 141.012   1
   2   3  16 1032.38 212.491   6
   2   3  16 1046.91 181.281   1
   2   3  17 402.633 111.752   1
   2   3  17 514.389 163.206   6
   2   3  18 10.3703 52.4194   1
   2   3  18 57.8640 78.2494   6
   2   3  19 1320.88 276.210   6
   2   3  19 1740.13 234.832   1
   2   3  20 944.571 186.315   1
   2   3  20 828.741 215.074   6
   2   3  21-47.9342 61.5517   1
   2   3  21-35.8819 97.3163   6
   2   3  22 898.182 252.399   6
   2   3  22 981.491 194.484   1
   2   3  23 337.779 164.825   6
   2   3  24 28.7714 107.947   6
  -2  -4  20 25.0647 89.2411   6
  -2  -4  19 1353.99 303.543   6
  -2  -4  18 1567.33 318.662   6
  -2  -4  17 89.2827 82.4649   6
  -2  -4  16 1176.23 260.018   6
  -2  -4  15 575.578 180.909   6
  -2  -4  14 843.108 214.112   6
  -2  -4  13 894.279 205.085   6
  -2  -4  12-21.7907 81.9533   6
  -2  -4  11 102.866 29.4120   1
  -2  -4  11 74.5221 76.7354   6
  -2  -4  10 919.801 191.475   6
  -2  -4  10 843.169 74.0768   1
  -2  -4   9 3402.99 151.250   1
  -2  -4   9 3668.54 353.051   6
  -2  -4   8 119.980 69.7936   6
  -2  -4   8 60.5704 25.4028   1
  -2  -4   7 1752.56 233.235   6
  -2  -4   6 794.325 160.271   6
  -2  -4   6 549.248 60.3220   1
  -2  -4   5 6003.40 202.410   1
  -2  -4   5 6527.08 417.698   6
  -2  -4   4 22380.2 734.871   6
  -2  -4   4 21081.5 390.362   1
   2   4  -3 1365.95 176.091   2
  -2  -4   3 1357.12 100.303   1
  -2  -4   3 1203.49 168.167   6
   2   4  -2 2828.74 249.572   3
   2   4  -2 3007.19 250.866   2
  -2  -4   2 2982.11 237.698   3
  -2  -4   2 2997.50 154.672   1
   2   4  -1 496.380 102.476   3
   2   4  -1 558.832 125.638   2
  -2  -4   1 350.224 80.8307   3
  -2  -4   1 529.853 67.1879   1
  -2  -4   0 805.708 88.1556   1
   2   4   0 689.845 84.8771   1
   2   4   0 654.348 113.084   3
  -2  -4   0 713.022 113.464   3
   2   4   0 773.364 132.396   2
  -2  -4  -1 17067.4 413.890   1
   2   4   1 17421.4 431.766   1
   2   4   1 16943.6 595.016   2
  -2  -4  -1 16328.8 521.022   3
   2   4   1 17144.4 561.866   3
  -2  -4  -2 5350.62 240.758   1
  -2  -4  -2 5313.36 295.882   3
   2   4   2 5297.22 245.055   1
   2   4   2 5436.04 306.335   3
   2   4   3 6079.93 272.224   1
   2   4   3 5245.84 295.124   3
  -2  -4  -3 6085.72 315.834   3
   2   4   4 13442.6 465.400   3
   2   4   4 13880.3 427.321   1
  -2  -4  -4 13575.5 477.244   3
  -2  -4  -5 19363.3 581.934   3
   2   4   5 19353.4 524.836   1
  -2  -4  -6 1215.94 151.826   6
  -2  -4  -6 1203.38 154.181   3
   2   4   6 919.260 119.678   1
  -2  -4  -7 1400.92 168.000   3
   2   4   7 1441.32 157.642   1
  -2  -4  -7 1461.90 101.583   5
  -2  -4  -7 1496.59 170.991   6
  -2  -4  -8 6615.76 242.073   5
   2   4   8 6653.02 342.405   1
   2   4   9 2066.04 198.759   1
   2   4  10 5998.15 355.325   1
   2   4  10 5982.94 406.449   6
   2   4  11 3354.39 322.272   6
   2   4  11 3473.91 276.922   1
   2   4  12 4522.84 383.838   6
   2   4  12 4324.30 312.986   1
   2   4  13 3033.91 271.551   1
   2   4  13 3352.08 343.074   6
   2   4  14 1851.27 222.604   1
   2   4  14 1792.94 268.096   6
   2   4  15 7885.01 462.929   1
   2   4  15 7753.70 567.117   6
   2   4  16 2437.35 326.731   6
   2   4  16 2299.21 261.064   1
   2   4  17 191.975 118.947   6
   2   4  17 231.245 93.6460   1
   2   4  18 232.737 126.287   6
   2   4  18 284.981 96.6830   1
   2   4  19 643.954 159.397   1
   2   4  19 506.255 181.633   6
   2   4  20-54.8975 89.8482   6
   2   4  20-20.9270 74.1443   1
   2   4  21 262.741 102.865   1
   2   4  21 751.497 228.858   6
   2   4  22 713.283 169.602   1
   2   4  22 877.762 246.084   6
   2   4  23 627.937 225.173   6
   2   4  24 92.1444 86.3020   6
  -2  -5  19 741.327 232.253   6
  -2  -5  18 5.01652 99.1436   6
  -2  -5  17 779.324 234.316   6
  -2  -5  16 2165.62 361.637   6
  -2  -5  15 276.145 133.897   6
  -2  -5  14-36.5917 94.1565   6
  -2  -5  13 1221.60 247.067   6
  -2  -5  12 11899.6 733.684   6
  -2  -5  11 87.1524 112.783   6
  -2  -5  10 529.250 72.8407   1
  -2  -5  10 407.476 143.823   6
  -2  -5   9 2323.08 150.577   1
  -2  -5   9 2438.87 310.864   6
  -2  -5   8 3999.10 379.346   6
  -2  -5   7 4366.30 196.749   1
  -2  -5   7 4631.26 397.180   6
  -2  -5   6 11663.2 609.036   6
  -2  -5   6 10206.0 308.226   1
  -2  -5   5 10151.0 554.771   6
  -2  -5   5 10263.9 315.116   1
  -2  -5   4 108.633 36.6721   1
  -2  -5   4 61.7609 66.9533   6
  -2  -5   3 27.8590 27.2353   1
  -2  -5   3-3.59862 51.0461   3
  -2  -5   2 23981.2 754.410   3
   2   5  -2 23701.7 752.774   2
  -2  -5   2 25111.3 521.257   1
   2   5  -1 26300.4 795.003   2
  -2  -5   1 26252.4 766.335   3
  -2  -5   1 27556.1 558.220   1
   2   5   0 244.151 85.6024   2
  -2  -5   0 388.108 103.275   3
  -2  -5   0 418.171 73.5649   1
  -2  -5  -1 5483.53 261.723   1
  -2  -5  -1 5838.82 353.715   3
   2   5   1 5530.65 366.401   2
   2   5   1 5050.43 348.550   3
   2   5   1 5564.09 278.075   1
   2   5   2 4534.51 323.353   3
  -2  -5  -2 5044.79 329.557   3
   2   5   2 5058.58 268.335   1
   2   5   2 4473.18 328.237   2
   2   5   3 15802.8 485.590   1
  -2  -5  -3 16018.3 583.912   3
   2   5   3 15626.1 585.335   3
   2   5   4 2060.00 177.889   1
   2   5   4 1732.10 190.500   3
  -2  -5  -4 1880.14 204.185   3
   2   5   5 30228.7 800.121   3
   2   5   5 30628.6 714.131   1
  -2  -5  -5 28720.1 804.861   3
  -2  -5  -6 55200.0 1131.38   3
   2   5   6 55983.7 993.684   1
   2   5   7 13080.7 490.879   1
  -2  -5  -7 11880.5 543.948   3
   2   5   8 2278.16 212.668   1
  -2  -5  -8 2203.64 110.577   5
  -2  -5  -8 2426.85 251.831   3
  -2  -5  -9 15819.2 659.629   3
   2   5   9 16119.0 582.168   1
  -2  -5  -9 14929.8 346.938   5
  -2  -5 -10 800.159 158.741   3
   2   5  10 954.542 153.527   1
   2   5  11 10265.0 490.386   1
   2   5  12 73.0718 70.9689   1
   2   5  13 8782.38 572.809   6
   2   5  13 9180.63 496.054   1
   2   5  14 17805.3 855.273   6
   2   5  14 18551.2 713.409   1
   2   5  15 6465.96 435.452   1
   2   5  15 6510.61 534.741   6
   2   5  16 7209.36 470.357   1
   2   5  16 6865.51 570.167   6
   2   5  17 180.882 95.4166   1
   2   5  17 220.551 103.592   6
   2   5  18 906.360 217.628   6
   2   5  18 666.391 163.326   1
   2   5  19 248.072 121.682   1
   2   5  19 153.257 77.5673   6
   2   5  20-153.826 126.843   6
   2   5  20 2.13346 45.5640   1
   2   5  21 199.216 145.392   6
   2   5  21 92.8466 75.0893   1
   2   5  22-89.6756 80.3651   1
   2   5  22-450.288 187.097   6
   2   5  23-421.337 189.509   6
   2   5  23 120.789 100.351   1
   2   5  24 218.930 146.103   6
  -2  -6  18 167.695 140.452   6
  -2  -6  17 530.826 184.404   6
  -2  -6  16 1694.39 328.901   6
  -2  -6  15 1860.99 330.923   6
  -2  -6  14 13675.2 862.663   6
  -2  -6  13 11489.4 768.618   6
  -2  -6  12 1065.39 232.714   6
  -2  -6  11 4465.02 459.054   6
  -2  -6  10-18.3115 75.8532   6
  -2  -6   9 73.8718 80.6842   6
  -2  -6   8 893.718 203.287   6
  -2  -6   7 1262.77 120.650   1
  -2  -6   7 1359.86 239.368   6
  -2  -6   6 62.6549 32.6921   1
  -2  -6   6-91.7305 105.299   6
  -2  -6   5 4573.35 407.529   6
  -2  -6   5 4719.44 242.584   1
  -2  -6   4 42207.1 1179.31   6
  -2  -6   4 40996.5 731.278   1
  -2  -6   3 34443.6 678.745   1
  -2  -6   3 34748.4 1010.91   3
  -2  -6   2 2816.46 200.131   1
   2   6  -2 2769.67 280.212   2
  -2  -6   2 2543.51 269.519   3
   2   6  -1 3938.69 328.575   2
  -2  -6   1 4231.34 340.617   3
   2   6   0 9017.06 494.961   2
  -2  -6   0 8867.90 489.995   3
  -2  -6  -1 354.777 115.887   3
   2   6   1 261.380 97.3490   2
   2   6   2 122.652 57.7745   2
   2   6   2 252.644 69.9026   1
  -2  -6  -2 124.358 47.0870   3
   2   6   3 2353.86 257.294   2
   2   6   3 2339.13 208.866   1
  -2  -6  -3 2247.66 245.981   3
  -2  -6  -4 4301.39 337.402   3
   2   6   4 4575.86 295.215   1
   2   6   5 24266.8 692.263   1
  -2  -6  -5 24141.5 809.721   3
   2   6   6 17310.5 596.666   1
  -2  -6  -6 16460.4 681.174   3
   2   6   7 282.964 100.466   1
  -2  -6  -7 159.326 92.1789   3
  -2  -6  -8 9748.42 550.034   3
   2   6   8 10627.7 487.573   1
   2   6   9 26.6279 56.1744   1
  -2  -6  -9 44.8444 55.0922   3
  -2  -6 -10 3253.56 330.788   3
   2   6  10 3052.36 274.969   1
  -2  -6 -10 2623.99 129.884   5
  -2  -6 -11 170.411 90.7132   3
   2   6  11 80.2294 56.0710   1
  -2  -6 -11 135.488 38.2917   5
   2   6  12 1084.29 180.520   1
  -2  -6 -12 896.984 188.081   3
  -2  -6 -13 307.664 127.826   3
   2   6  13 97.2379 99.6559   1
   2   6  14 4841.73 386.878   1
   2   6  15 10386.1 578.554   1
   2   6  16 6939.24 480.669   1
   2   6  17 285.243 100.215   1
   2   6  18 72.8131 59.5910   1
   2   6  18 298.112 130.255   6
   2   6  19 1500.64 301.329   6
   2   6  19 1015.47 202.639   1
   2   6  20 278.262 111.284   1
   2   6  20 419.977 181.969   6
   2   6  21-50.9276 81.9470   1
   2   6  21-95.0511 107.506   6
   2   6  22 86.8059 79.5043   6
   2   6  22-35.3707 77.7561   1
   2   6  23 170.149 113.219   1
   2   6  23-29.7398 85.9978   6
   2   6  24 316.305 144.739   1
   2   6  24 222.903 190.263   6
  -2  -7  17 418.899 172.950   6
  -2  -7  16 437.466 170.974   6
  -2  -7  15 5417.49 582.982   6
  -2  -7  14 2403.79 380.169   6
  -2  -7  13 1176.19 259.147   6
  -2  -7  12 8707.33 687.693   6
  -2  -7  11 6751.22 581.354   6
  -2  -7  10 177.369 94.8226   6
  -2  -7   9 18.5126 109.556   6
  -2  -7   8 3187.70 382.974   6
  -2  -7   7 110.673 105.127   6
  -2  -7   6 175.358 111.174   6
  -2  -7   5 9744.36 615.166   6
  -2  -7   4 1815.48 267.620   6
  -2  -7   4 2031.04 270.629   3
  -2  -7   3 1067.79 201.722   3
  -2  -7   2 3709.00 356.927   3
   2   7  -2 4030.22 363.719   2
   2   7  -1 1462.04 212.239   2
  -2  -7   1 1591.24 231.818   3
  -2  -7   0 5050.94 403.261   3
   2   7   0 4962.41 395.297   2
   2   7   1 7536.59 481.615   2
  -2  -7  -1 6578.04 456.438   3
   2   7   2 21213.8 805.515   2
  -2  -7  -2 20924.8 813.668   3
   2   7   3 13027.5 526.520   1
   2   7   3 13291.4 636.672   2
  -2  -7  -3 13218.8 644.329   3
   2   7   4 20196.4 670.979   1
   2   7   4 19537.1 348.260   5
   2   7   4 20199.7 783.295   2
  -2  -7  -4 21005.2 818.373   3
  -2  -7  -5 184.874 89.3548   3
   2   7   5-9.51395 56.4274   1
  -2  -7  -6 1053.25 193.831   3
   2   7   6 848.362 143.279   1
  -2  -7  -7 3568.44 350.983   3
   2   7   7 4099.03 320.459   1
  -2  -7  -8 11195.3 631.115   3
   2   7   8 10374.8 522.289   1
  -2  -7  -9 14860.8 734.853   3
   2   7   9 15077.4 636.872   1
   2   7  10 134.601 77.1393   1
  -2  -7 -10 134.889 83.0734   3
  -2  -7 -11 3141.76 353.996   3
   2   7  11 2717.64 284.525   1
  -2  -7 -12 1544.22 263.486   3
   2   7  12 1423.46 212.461   1
  -2  -7 -12 1163.38 87.3408   5
  -2  -7 -13 17133.3 869.061   3
   2   7  13 17416.4 745.494   1
  -2  -7 -13 16465.4 415.555   5
  -2  -7 -14 8499.30 632.729   3
   2   7  14 7981.40 516.740   1
   2   7  15 124.809 101.758   1
  -2  -7 -15 211.526 134.230   3
  -2  -7 -16 300.763 136.682   3
   2   7  16 323.983 133.839   1
  -2  -7 -17 978.402 256.054   3
   2   7  17 723.510 166.731   1
   2   7  18-32.8232 78.5794   1
   2   7  19 608.462 166.761   1
   2   7  20 284.253 129.017   1
   2   7  21 478.593 163.789   1
   2   7  22-11.0121 62.0502   1
   2   7  23 23.8432 55.5779   1
   2   7  24 115.260 98.2990   1
  -2  -8  16 260.157 166.958   6
  -2  -8  15-62.4871 117.505   6
  -2  -8  14 816.202 241.079   6
  -2  -8  13 1129.58 264.949   6
  -2  -8  12 1598.57 317.582   6
  -2  -8  11 13.0710 83.0052   6
  -2  -8  10 3073.89 409.731   6
  -2  -8   9 4498.84 482.445   6
  -2  -8   8 4309.11 469.396   6
  -2  -8   7 520.462 180.176   6
  -2  -8   6 2976.37 373.153   6
  -2  -8   5-14.8201 72.4070   6
  -2  -8   4 1348.97 241.284   3
  -2  -8   3 6226.49 492.972   3
  -2  -8   2 3367.12 358.581   3
   2   8  -1 430.143 131.874   2
  -2  -8   1 453.198 136.626   3
   2   8   0 3147.91 323.212   2
  -2  -8   0 3139.90 342.110   3
  -2  -8  -1 5748.69 460.202   3
   2   8   1 6167.08 460.156   2
  -2  -8  -2 12218.7 670.899   3
   2   8   2 11470.7 624.125   2
   2   8   3 96.5319 83.1260   2
  -2  -8  -3 4.03576 66.2209   3
   2   8   4 8676.84 276.988   5
   2   8   4 8751.47 546.758   2
  -2  -8  -4 8401.60 558.668   3
   2   8   5 11088.2 542.840   1
   2   8   5 11235.5 619.214   2
  -2  -8  -5 11102.7 648.779   3
   2   8   6 454.704 123.386   1
  -2  -8  -6 106.782 80.5407   3
  -2  -8  -7 768.120 180.891   3
   2   8   7 845.206 155.795   1
  -2  -8  -8 344.118 128.810   3
   2   8   8 455.485 122.554   1
   2   8   9 4704.60 376.950   1
  -2  -8  -9 4886.57 454.227   3
   2   8  10 2006.27 249.102   1
  -2  -8 -10 2115.11 306.859   3
   2   8  11 1940.35 256.847   1
  -2  -8 -11 1622.15 270.144   3
   2   8  12 1716.84 251.903   1
  -2  -8 -12 1596.14 267.581   3
   2   8  13 5452.08 441.376   1
  -2  -8 -13 5358.33 509.159   3
  -2  -8 -14 12523.1 803.788   3
   2   8  14 12064.7 669.171   1
   2   8  15 35.2602 59.5887   1
  -2  -8 -15-78.2302 68.7665   3
  -2  -8 -16 112.119 143.417   3
   2   8  16 106.939 94.6201   1
  -2  -8 -17-67.6535 92.5858   3
   2   8  17-6.72195 87.5816   1
  -2  -8 -18-34.5039 90.9587   3
   2   8  18-40.5232 71.8145   1
  -2  -8 -19 2323.87 386.982   3
   2   8  19 313.133 113.594   1
   2   8  20 535.966 177.115   1
  -2  -8 -20 595.184 223.461   3
   2   8  21 690.296 187.176   1
  -2  -8 -21 427.660 191.081   3
  -2  -8 -22-248.467 161.264   3
   2   8  22 32.9810 63.9447   1
   2   8  23-58.1107 63.7169   1
  -2  -8 -23-48.8592 103.463   3
   2   8  24 129.381 118.325   1
  -2  -9  14 48.9274 72.2673   6
  -2  -9  13-50.0779 116.264   6
  -2  -9  12-26.1040 68.4876   6
  -2  -9  11 1105.58 260.375   6
  -2  -9  10 708.618 215.952   6
  -2  -9   9 73.1855 107.703   6
  -2  -9   8 525.901 173.526   6
  -2  -9   7 202.629 116.594   6
  -2  -9   6 9765.70 703.915   6
  -2  -9   5 746.000 204.554   6
  -2  -9   4 868.604 209.793   3
  -2  -9   3 247.202 113.045   3
  -2  -9   2 3878.71 412.263   3
   2   9  -1 250.671 112.436   2
  -2  -9   1 210.133 102.671   3
   2   9   0 1625.95 251.245   2
  -2  -9   0 1439.48 253.175   3
   2   9   1 39.9811 62.2870   2
  -2  -9  -1 56.9185 70.6111   3
   2   9   2 6844.75 504.187   2
  -2  -9  -2 6934.95 536.802   3
   2   9   3 30201.8 1056.45   2
  -2  -9  -3 30259.8 1135.41   3
   2   9   3 31379.6 661.470   5
   2   9   4 9049.60 579.876   2
  -2  -9  -4 9189.74 623.955   3
   2   9   4 8783.83 318.700   5
  -2  -9  -5 2555.43 332.787   3
   2   9   5 1819.56 262.427   2
   2   9   6 8048.77 551.215   2
  -2  -9  -6 8242.96 603.186   3
   2   9   7 3767.05 350.507   1
   2   9   7 3870.50 387.829   2
  -2  -9  -7 4246.35 434.839   3
   2   9   8 448.841 125.809   1
  -2  -9  -8 394.778 151.759   3
   2   9   9 195.005 96.3745   1
  -2  -9  -9 134.868 101.550   3
   2   9  10 1122.55 208.517   1
  -2  -9 -10 1017.85 224.256   3
  -2  -9 -11 924.585 225.995   3
   2   9  11 919.212 182.761   1
   2   9  12 787.465 168.384   1
  -2  -9 -12 608.384 180.003   3
   2   9  13 1303.19 229.793   1
  -2  -9 -13 1578.91 289.860   3
  -2  -9 -14 1351.15 275.559   3
   2   9  14 1064.73 205.683   1
   2   9  15 76.4771 97.9762   1
  -2  -9 -15-41.5030 99.1895   3
   2   9  16-61.9306 97.0099   1
  -2  -9 -16 21.1744 87.6732   3
  -2  -9 -17 30.7214 97.7112   3
   2   9  17 163.480 98.8053   1
  -2  -9 -18 167.888 109.582   3
   2   9  18 356.915 140.827   1
  -2  -9 -19-126.988 104.678   3
   2   9  19-174.085 124.017   1
   2   9  20 29.3654 92.4625   1
  -2  -9 -20 186.336 139.749   3
  -2  -9 -21 166.901 180.175   3
   2   9  21-122.239 95.2057   1
  -2  -9 -22 241.095 175.365   3
   2   9  22 698.571 209.982   1
  -2  -9 -23 275.596 206.028   3
   2   9  23-82.7062 98.4727   1
  -2 -10  13 47.8671 100.689   6
  -2 -10  12 365.498 225.535   6
  -2 -10  11 63.3362 84.4753   6
  -2 -10  10 211.636 107.326   6
  -2 -10   9 1279.13 294.286   6
  -2 -10   8 3802.14 482.181   6
  -2 -10   7-47.8259 122.621   6
  -2 -10   6 589.887 176.714   6
  -2 -10   5 3791.36 472.251   6
  -2 -10   4 4588.86 489.589   3
  -2 -10   3 280.452 142.938   3
  -2 -10   2 892.667 220.556   3
  -2 -10   1 122.374 98.7818   3
   2  10   0 949.976 208.039   2
  -2 -10   0 913.917 221.869   3
   2  10   1 67.0168 70.2815   2
  -2 -10  -1 162.718 141.248   3
   2  10   2 14956.1 773.510   2
  -2 -10  -2 13825.5 807.984   3
   2  10   3 21229.1 603.381   5
   2  10   3 22806.4 955.060   2
  -2 -10  -3 21139.6 1000.20   3
   2  10   4 407.298 76.4968   5
   2  10   4 524.642 166.259   2
  -2 -10  -4 241.479 110.969   3
  -2 -10  -5 830.008 210.671   3
   2  10   5 1155.19 229.573   2
  -2 -10  -6 259.692 135.909   3
   2  10   6-2.32878 90.4967   2
  -2 -10  -7 1066.13 235.053   3
   2  10   7 1080.76 221.946   2
  -2 -10  -8 509.270 182.610   3
   2  10   8 572.161 171.872   2
  -2 -10  -9 529.307 171.081   3
   2  10   9 461.380 148.925   1
  -2 -10 -10 835.583 227.525   3
   2  10  10 839.069 187.581   1
  -2 -10 -11 10.5751 88.7666   3
   2  10  11-46.4155 83.9776   1
  -2 -10 -12 110.648 102.305   3
   2  10  12-49.0494 84.8852   1
   2  10  13 606.452 169.609   1
  -2 -10 -13 962.252 251.933   3
   2  10  14 415.516 146.502   1
  -2 -10 -14 56.7668 75.8229   3
   2  10  15 191.462 113.475   1
  -2 -10 -15 40.7217 72.5681   3
  -2 -10 -16 110.251 99.0121   3
   2  10  16 281.897 113.419   1
  -2 -10 -17-300.408 159.894   3
   2  10  17-46.5225 74.0412   1
   2  10  18 108.829 100.240   1
  -2 -10 -18-116.274 146.326   3
  -2 -10 -19 781.144 243.830   3
   2  10  19 355.959 151.746   1
  -2 -10 -20-23.3179 81.5553   3
   2  10  20-4.86125 96.7125   1
   2  10  21 105.582 105.608   1
  -2 -10 -21 375.372 195.062   3
  -2 -10 -22 210.546 174.952   3
  -2 -11  11 118.794 135.444   6
  -2 -11  10 25.2250 89.3365   6
  -2 -11   9 1433.92 325.781   6
  -2 -11   8 2211.43 391.152   6
  -2 -11   7 1079.45 276.006   6
  -2 -11   6 2439.75 389.271   6
  -2 -11   5 539.969 192.608   6
  -2 -11   4 134.754 128.799   3
  -2 -11   3 5013.81 524.691   3
  -2 -11   2 1934.75 333.961   3
  -2 -11   1 673.585 201.883   3
  -2 -11   0 5.12617 100.048   3
   2  11   1 3652.12 397.842   2
  -2 -11  -1 3765.37 449.884   3
   2  11   2 4769.30 330.908   5
  -2 -11  -2 4583.41 497.021   3
   2  11   2 4421.63 437.690   2
  -2 -11  -3 142.841 121.168   3
   2  11   3 132.947 108.744   2
  -2 -11  -4-59.6526 71.4610   3
   2  11   4 73.2891 62.4505   2
   2  11   5 1410.42 250.409   2
  -2 -11  -5 1795.64 315.671   3
  -2 -11  -6 368.276 154.893   3
   2  11   6 295.482 106.319   2
  -2 -11  -7 237.174 128.571   3
   2  11   7 357.657 135.069   2
   2  11   8 6176.75 528.377   2
  -2 -11  -8 5845.49 577.228   3
   2  11   9 267.133 140.675   2
  -2 -11  -9 111.050 101.941   3
  -2 -11 -10-71.0342 75.7057   3
   2  11  10 117.261 102.799   2
  -2 -11 -11 7.82207 95.5228   3
   2  11  12 67.9014 81.3450   1
  -2 -11 -12-42.9169 78.6849   3
   2  11  13 26.2037 104.396   1
  -2 -11 -13 166.356 135.025   3
   2  11  14 64.6003 73.7209   1
  -2 -11 -14 229.106 147.642   3
   2  11  15 73.8374 95.5820   1
  -2 -11 -15-212.902 138.007   3
   2  11  16-65.6462 95.1395   1
  -2 -11 -16 326.130 181.054   3
   2  11  17 1131.25 256.836   1
  -2 -11 -17 853.577 266.210   3
   2  11  18 305.295 131.660   1
  -2 -11 -18-203.868 145.737   3
  -2 -11 -19 1556.30 366.687   3
   2  11  19 476.341 186.566   1
  -2 -11 -20 51.7847 88.0618   3
   2  11  20 418.941 176.091   1
  -2 -11 -21-389.957 122.501   3
  -2 -12   9 183.767 132.050   6
  -2 -12   8 255.120 184.744   6
  -2 -12   7 799.916 236.181   6
  -2 -12   6-35.3060 108.818   6
  -2 -12   5 929.353 243.704   6
  -2 -12   4-88.2563 135.209   3
  -2 -12   3 1012.21 252.483   3
  -2 -12   2 561.986 201.708   3
  -2 -12   1 45.6324 91.9644   3
  -2 -12   0 167.925 125.887   3
  -2 -12  -1 1258.70 276.739   3
  -2 -12  -2 3630.72 461.796   3
   2  12   2 3757.05 417.586   2
  -2 -12  -3 1206.76 264.224   3
   2  12   3 1345.84 248.692   2
  -2 -12  -4-157.310 163.041   3
   2  12   4 4.93999 97.1043   2
  -2 -12  -5 482.605 174.667   3
   2  12   5 423.240 134.312   2
   2  12   6 22.9928 62.0718   2
  -2 -12  -6-126.835 150.917   3
  -2 -12  -7 394.643 165.709   3
   2  12   7 418.711 147.176   2
   2  12   8 636.728 176.815   2
  -2 -12  -8 629.649 210.181   3
   2  12   9 1418.73 264.063   2
  -2 -12  -9 1754.77 346.982   3
  -2 -12 -10 465.113 190.387   3
   2  12  10 628.695 184.603   2
  -2 -12 -11 39.8454 90.9727   3
   2  12  11 97.2267 117.139   2
  -2 -12 -12 132.251 118.537   3
   2  12  12 166.725 115.682   2
  -2 -12 -13 147.619 127.335   3
  -2 -12 -14 510.113 211.016   3
  -2 -12 -15 69.5300 83.0647   3
  -2 -12 -16-106.857 109.546   3
  -2 -12 -17 168.462 140.225   3
  -2 -12 -18 820.636 278.985   3
  -2 -12 -19-164.768 142.714   3
  -2 -12 -20 433.617 218.458   3
  -2 -13   7 1641.97 356.032   6
  -2 -13   6 542.256 221.274   6
  -2 -13   5 230.319 170.720   6
  -2 -13   4 874.268 257.848   6
  -2 -13   4 439.016 193.138   3
  -2 -13   3 21.5276 82.2815   3
  -2 -13   2 59.9988 123.682   3
  -2 -13   1 17.5713 73.3986   3
  -2 -13   0 1338.19 308.409   3
  -2 -13  -1 981.228 259.200   3
  -2 -13  -2-28.6784 92.5685   3
  -2 -13  -3 602.981 218.382   3
   2  13   3 796.674 200.341   2
  -2 -13  -4-107.306 138.615   3
   2  13   4 8.22275 77.1496   2
  -2 -13  -5 18.6878 91.7313   3
   2  13   5 89.7704 100.936   2
   2  13   6-14.6895 67.5502   2
  -2 -13  -6-16.5002 99.0081   3
   2  13   7 634.635 182.714   2
  -2 -13  -7 304.389 157.842   3
  -2 -13  -8-104.478 128.178   3
   2  13   8 163.175 115.102   2
   2  13   9 782.163 206.697   2
  -2 -13  -9 566.315 201.719   3
   2  13  10 80.5215 86.0818   2
  -2 -13 -10 259.401 154.580   3
   2  13  11-17.3801 60.3965   2
  -2 -13 -11 206.595 155.861   3
   2  13  12 31.2478 78.6304   2
  -2 -13 -12-45.8636 84.3407   3
  -2 -13 -13 724.305 251.728   3
   2  13  13 598.041 196.200   2
  -2 -13 -14 137.230 133.509   3
  -2 -13 -15 605.319 242.258   3
  -2 -13 -16 361.744 177.908   3
  -2 -13 -17-143.051 131.040   3
  -2 -13 -18 499.732 237.365   3
  -2 -13 -19 1186.42 341.107   3
  -2 -14   4 536.794 237.200   3
  -2 -14   4 591.051 229.230   6
  -2 -14   3-68.4060 96.2112   3
  -2 -14   2 23.3922 92.8429   3
  -2 -14   1-92.6782 146.501   3
  -2 -14   0 33.8694 86.8451   3
  -2 -14  -1-21.5982 98.4193   3
  -2 -14  -2 4.71786 106.114   3
  -2 -14  -3 38.7172 81.6975   3
  -2 -14  -4 665.901 235.853   3
  -2 -14  -5 998.066 267.353   3
   2  14   5 1071.15 243.387   2
   2  14   6 1151.69 246.556   2
  -2 -14  -6 1111.30 291.982   3
   2  14   7 299.524 139.300   2
  -2 -14  -7 52.7968 142.855   3
   2  14   8 55.4894 65.6394   2
  -2 -14  -8 166.500 116.746   3
  -2 -14  -9 577.159 214.026   3
   2  14   9 538.897 196.807   2
   2  14  10-158.220 114.658   2
  -2 -14 -10-196.374 129.136   3
  -2 -14 -11 1959.87 403.837   3
   2  14  11 1634.01 304.114   2
  -2 -14 -12-57.1289 103.738   3
  -2 -14 -13 215.223 170.015   3
  -2 -14 -14 641.525 267.202   3
  -2 -14 -15 269.027 166.455   3
  -2 -14 -16 78.0584 108.625   3
  -2 -14 -17 5.07765 121.629   3
  -2 -14 -18-81.9344 124.067   3
  -2 -15   2 1375.35 335.242   3
  -2 -15   1 389.541 189.540   3
  -2 -15   0 66.2620 83.2310   3
  -2 -15  -1 378.340 192.623   3
  -2 -15  -2 780.724 248.968   3
  -2 -15  -3 547.376 229.641   3
  -2 -15  -4-10.9194 95.7014   3
  -2 -15  -5 90.8289 135.751   3
   2  15   6 165.056 105.827   2
  -2 -15  -6-32.8502 121.762   3
   2  15   7 148.584 117.093   2
  -2 -15  -7-97.5022 147.120   3
  -2 -15  -8 130.888 91.4931   3
   2  15   8 4.87048 65.3340   2
  -2 -15  -9 226.643 146.389   3
  -2 -15 -10 216.488 129.597   3
  -2 -15 -11 43.4261 105.708   3
  -2 -15 -12-57.0525 116.951   3
  -2 -15 -13 346.315 204.511   3
  -2 -15 -14 103.549 117.605   3
  -2 -15 -15 92.7414 98.5991   3
  -2 -15 -16 226.747 158.798   3
  -2 -16  -3 32.8659 92.7618   3
  -2 -16  -4 698.769 249.857   3
  -2 -16  -5-15.6371 125.258   3
  -2 -16  -6 81.7713 130.535   3
  -2 -16  -7 274.701 167.104   3
  -2 -16  -8 390.073 199.989   3
  -2 -16  -9 546.715 244.252   3
  -2 -16 -10 359.522 216.625   3
  -2 -16 -11-151.100 142.613   3
  -2 -16 -12 319.515 206.861   3
   3 -15  -8-1.61496 126.449   3
   3 -15  -7 250.484 167.557   3
   3 -15  -6 279.163 196.340   3
   3 -15  -5 67.0656 113.888   3
   3 -15  -4-18.4522 99.8887   3
   3 -15  -3 763.880 276.826   3
   3 -15  -2-338.777 197.174   3
   3 -14 -13 116.997 128.566   3
   3 -14 -12 90.5697 135.289   3
   3 -14 -11 0.64099 101.200   3
   3 -14 -10 444.203 214.079   3
   3 -14  -9 112.863 126.827   3
   3 -14  -8 422.363 219.111   3
   3 -14  -7 1033.36 333.814   3
   3 -14  -6 881.951 263.020   3
   3 -14  -5 179.845 128.271   3
   3 -14  -4 1024.28 296.173   3
   3 -14  -3 119.211 140.074   3
   3 -14  -2-3.89458 120.932   3
   3 -14  -1 1721.16 391.133   3
   3 -14   0 716.055 256.770   3
   3 -14   1 115.750 125.009   3
   3 -14   2 812.693 246.641   3
  -3  14  -3 66.3334 82.3825   5
   3 -14   3 196.903 148.163   3
  -3  14  -4 267.105 159.699   5
  -3  14  -5 448.685 174.813   5
  -3  14  -6-25.0903 97.2530   5
  -3  14  -7-92.9950 147.542   5
   3 -13 -15 646.236 258.791   3
   3 -13 -14 212.301 159.528   3
   3 -13 -13 244.262 168.893   3
   3 -13 -12-51.5478 91.9071   3
   3 -13 -11 118.895 127.805   3
   3 -13 -10-53.9085 111.025   3
   3 -13  -9 493.604 220.417   3
   3 -13  -8 1343.46 332.156   3
   3 -13  -7-75.0460 120.702   3
   3 -13  -6 1240.47 314.223   3
   3 -13  -5 1200.84 331.543   3
   3 -13  -4 1305.66 334.182   3
   3 -13  -3 160.798 140.122   3
   3 -13  -2 681.198 229.876   3
   3 -13  -1 564.749 210.836   3
   3 -13   0 352.126 192.975   3
  -3  13  -1 279.722 120.031   5
   3 -13   1 172.720 116.981   3
   3 -13   2 258.239 187.864   3
  -3  13  -2-0.81405 104.441   5
  -3  13  -3 117.562 115.559   5
   3 -13   3 190.306 171.588   3
  -3  13  -4-83.4715 76.8749   5
   3 -13   4 7.86539 97.5805   3
  -3  13  -5 588.948 200.333   5
   3 -13   5 193.281 121.901   3
   3 -13   6 428.241 188.130   3
  -3  13  -6 239.787 166.993   5
  -3  13  -7-60.4463 133.858   5
   3 -13   7 50.9342 86.5796   3
   3 -13   7-41.1898 103.765   6
   3 -13   8 87.1877 142.078   6
  -3  13  -8 190.752 141.746   5
  -3  13  -9-79.0529 122.807   5
   3 -12 -17-95.0732 127.161   3
   3 -12 -16 291.032 183.449   3
   3 -12 -15 248.792 163.594   3
   3 -12 -14 88.6423 114.061   3
   3 -12 -13 2182.12 431.864   3
   3 -12 -12 407.580 207.220   3
   3 -12 -11-101.756 128.823   3
   3 -12 -10 62.8592 128.333   3
   3 -12  -9 1018.71 292.570   3
   3 -12  -8 259.806 175.201   3
   3 -12  -7-18.8396 87.8034   3
   3 -12  -6-14.9848 114.694   3
   3 -12  -5 306.652 187.222   3
   3 -12  -4 215.995 139.125   3
   3 -12  -3 1974.72 382.594   3
   3 -12  -2 454.594 162.533   3
   3 -12  -1-16.0729 93.4247   3
   3 -12   0 359.804 188.424   3
  -3  12  -1 2969.54 405.728   5
   3 -12   1 3589.21 499.642   3
  -3  12  -2 437.119 160.096   5
   3 -12   2 706.521 221.074   3
  -3  12  -3 321.421 143.980   5
   3 -12   3 389.206 165.114   3
  -3  12  -4 517.253 198.115   5
   3 -12   4 391.758 171.021   3
  -3  12  -5-51.0051 92.3892   5
   3 -12   5-124.351 139.039   3
  -3  12  -6 773.554 241.260   5
   3 -12   6 718.338 243.568   3
  -3  12  -7 1892.62 363.562   5
   3 -12   7 2585.06 432.078   3
   3 -12   8 1743.92 353.878   6
   3 -12   8 1511.43 337.367   3
  -3  12  -8 2055.95 389.256   5
   3 -12   9 102.606 101.231   6
  -3  12  -9 104.143 94.6685   5
   3 -12  10-27.2163 99.2226   6
  -3  12 -10 136.021 121.534   5
   3 -12  11 199.324 167.829   6
   3 -11 -18 56.2194 106.181   3
   3 -11 -17 10.6116 111.583   3
   3 -11 -16-47.8701 148.799   3
   3 -11 -15 622.729 198.682   3
   3 -11 -14 314.301 171.876   3
   3 -11 -13-73.4572 140.064   3
   3 -11 -12 122.468 127.957   3
   3 -11 -11 1000.07 283.348   3
   3 -11 -10 3044.13 475.338   3
   3 -11  -9 1282.17 316.753   3
   3 -11  -8 268.782 153.814   3
   3 -11  -7 732.608 234.831   3
   3 -11  -6-55.2867 92.3344   3
   3 -11  -5 167.438 174.659   3
   3 -11  -4 342.610 185.696   3
   3 -11  -3 1027.63 263.407   3
   3 -11  -2 2912.33 432.579   3
   3 -11  -1 617.053 206.456   3
   3 -11   0 402.731 173.060   3
  -3  11  -1 463.357 158.237   5
   3 -11   1 438.813 191.233   3
   3 -11   2 221.131 142.789   3
  -3  11  -2 206.802 111.135   5
   3 -11   3 2559.67 410.819   3
  -3  11  -3 2619.01 373.328   5
  -3  11  -4 261.699 129.727   5
   3 -11   4 320.058 155.483   3
  -3  11  -5 434.662 154.954   5
   3 -11   5 257.999 161.225   3
  -3  11  -6 430.792 190.374   5
   3 -11   6 34.0826 103.701   3
  -3  11  -7 205.689 123.810   5
   3 -11   7 320.591 162.393   3
   3 -11   8 308.348 164.149   6
   3 -11   8 486.191 206.395   3
   3 -11   9 162.373 94.5993   6
  -3  11  -9 963.813 263.814   5
   3 -11  10 669.792 220.164   6
  -3  11 -10 666.458 246.316   5
  -3  11 -11 449.814 191.516   5
   3 -11  11-26.0846 96.2819   6
   3 -11  12 268.651 151.991   6
  -3  11 -12 622.256 231.417   5
   3 -11  13 351.436 177.536   6
   3 -10 -19 199.624 217.249   3
   3 -10 -18 56.9686 69.9460   3
   3 -10 -17 2129.37 428.027   3
   3 -10 -16 110.628 114.742   3
   3 -10 -15 194.524 179.265   3
   3 -10 -14 348.078 152.994   3
   3 -10 -13 3601.83 520.720   3
   3 -10 -12 585.879 213.240   3
   3 -10 -11 362.503 168.847   3
   3 -10 -10 13.0904 94.2709   3
   3 -10  -9 128.275 87.7970   3
   3 -10  -8 1426.38 307.959   3
   3 -10  -7 480.652 190.343   3
   3 -10  -6 1250.50 286.199   3
   3 -10  -5 15119.0 960.809   3
   3 -10  -4 3631.56 480.570   3
   3 -10  -3 1473.12 310.279   3
   3 -10  -2-60.9354 107.691   3
   3 -10  -1 648.865 201.116   3
   3 -10   0 49.6204 105.283   3
  -3  10   0 110.624 62.4239   5
  -3  10  -1 2012.36 300.855   5
   3 -10   1 2456.28 377.586   3
   3 -10   2 2179.94 350.228   3
  -3  10  -2 2667.44 350.581   5
  -3  10  -3 1044.49 229.711   5
   3 -10   3 1332.77 288.422   3
   3 -10   4 773.266 217.596   3
  -3  10  -4 789.963 209.844   5
  -3  10  -5 937.155 221.089   5
   3 -10   5 1070.72 263.610   3
  -3  10  -6 134.844 116.198   5
   3 -10   6 94.4049 120.331   3
  -3  10  -7-44.9862 93.9380   5
   3 -10   7 42.9453 86.3031   3
   3 -10   8 190.893 154.320   3
  -3  10  -8 0.20804 80.7423   5
   3 -10   8-116.484 119.548   6
  -3  10  -9 429.336 174.799   5
   3 -10   9 261.127 131.221   6
  -3  10 -10 779.165 232.855   5
   3 -10  10 759.228 221.130   6
  -3  10 -11 336.747 199.558   5
   3 -10  11 445.187 185.099   6
   3 -10  12 41.9650 71.5837   6
  -3  10 -12 167.830 136.451   5
   3 -10  13 119.220 109.544   6
  -3  10 -13 42.9172 128.426   5
   3 -10  14 547.617 193.989   6
   3 -10  15 580.566 207.981   6
   3  -9 -20 126.369 151.318   3
   3  -9 -19 627.168 258.976   3
   3  -9 -18-3.92346 88.7535   3
   3  -9 -17-19.4714 113.453   3
   3  -9 -16 1450.14 351.271   3
   3  -9 -15 955.038 279.599   3
   3  -9 -14 601.198 218.807   3
   3  -9 -13 2192.11 385.611   3
   3  -9 -12 374.991 159.805   3
   3  -9 -11 498.722 189.006   3
   3  -9 -10 158.946 121.776   3
   3  -9  -9 2592.52 409.443   3
   3  -9  -8 419.181 155.975   3
   3  -9  -7-73.0355 116.458   3
   3  -9  -6 404.476 156.009   3
   3  -9  -5 694.052 209.739   3
   3  -9  -4 9445.69 721.232   3
   3  -9  -3 3812.47 452.879   3
   3  -9  -2 572.716 185.592   3
   3  -9  -1 444.597 174.729   3
  -3   9   0 196.357 105.091   5
   3  -9   0 138.890 128.349   3
  -3   9  -1 1118.19 224.394   5
   3  -9   1 772.257 206.155   3
  -3   9  -2 2411.39 323.336   5
   3  -9   2 2390.48 356.444   3
   3  -9   3 30.3536 85.4243   3
  -3   9  -3 33.3627 59.5479   5
  -3   9  -4 2606.58 343.377   5
   3  -9   4 2566.13 372.010   3
  -3   9  -5 611.583 181.754   5
   3  -9   5 471.617 182.164   3
  -3   9  -6 2756.08 375.008   5
   3  -9   6 2995.24 403.396   3
  -3   9  -7 2551.28 372.612   5
   3  -9   7 3102.22 414.164   3
  -3   9  -8-37.0823 86.5223   5
   3  -9   8-205.046 138.471   6
   3  -9   8 4.79298 90.4934   3
  -3   9  -9 202.480 126.591   5
   3  -9   9 458.323 169.397   6
   3  -9  10 208.900 128.441   6
  -3   9 -10 459.843 186.170   5
  -3   9 -11 886.210 257.595   5
   3  -9  11 777.714 213.929   6
   3  -9  12 181.197 122.906   6
  -3   9 -12 199.396 142.661   5
   3  -9  13 373.535 167.308   6
  -3   9 -13 722.228 249.259   5
  -3   9 -14 246.301 152.537   5
   3  -9  14 64.4022 81.5038   6
   3  -9  15 192.129 139.284   6
   3  -9  16 24.9431 69.8292   6
   3  -8 -21 616.351 269.704   3
   3  -8 -20 21.6785 114.859   3
   3  -8 -19 728.449 259.368   3
   3  -8 -18 1095.23 326.115   3
   3  -8 -17 193.139 125.872   3
   3  -8 -16 96.8356 95.8251   3
   3  -8 -15 211.130 159.233   3
   3  -8 -14-130.439 127.934   3
   3  -8 -13 37.1246 109.266   3
   3  -8 -12 1206.16 270.969   3
   3  -8 -11 13.1731 98.5215   3
   3  -8 -10 2511.42 379.866   3
   3  -8  -9 336.244 134.302   3
  -3   8   9 259.330 46.5364   2
   3  -8  -8 34.8917 134.296   3
   3  -8  -7 857.580 222.249   3
   3  -8  -6 3352.81 426.147   3
   3  -8  -5 6506.20 568.094   3
   3  -8  -4 2806.90 368.290   3
   3  -8  -3 1388.31 257.687   3
   3  -8  -2 1800.93 299.351   3
   3  -8  -1 1438.75 258.679   3
  -3   8   0 1265.48 219.241   5
   3  -8   0 1036.07 227.756   3
  -3   8  -1 836.395 182.680   5
   3  -8   1 1164.21 232.218   3
  -3   8  -2 188.310 92.7531   5
   3  -8   2 312.915 124.528   3
  -3   8  -3 1212.77 233.579   5
   3  -8   3 987.421 214.594   3
  -3   8  -4 261.862 112.631   5
   3  -8   4 303.294 136.714   3
   3  -8   5 1395.77 267.444   3
  -3   8  -5 1061.92 222.839   5
  -3   8  -6 1415.47 264.587   5
   3  -8   6 1598.85 286.086   3
  -3   8  -7 462.974 159.524   5
   3  -8   7 765.547 210.374   3
   3  -8   8 263.520 157.005   3
   3  -8   8-73.4302 119.949   6
  -3   8  -8 125.508 106.450   5
   3  -8   9 1232.54 242.858   6
  -3   8  -9 1972.54 340.068   5
  -3   8 -10 2219.33 380.986   5
   3  -8  10 1858.39 300.507   6
  -3   8 -11 630.094 218.796   5
   3  -8  11 291.663 137.359   6
   3  -8  12 82.4383 99.7605   6
  -3   8 -12 538.278 208.877   5
   3  -8  13 235.067 104.863   1
  -3   8 -13 415.696 212.945   5
   3  -8  13-82.3328 99.6861   6
  -3   8 -14 650.170 234.473   5
   3  -8  14 619.221 197.091   6
   3  -8  15 72.1497 83.1824   6
  -3   8 -15 91.3942 135.596   5
   3  -8  16 95.6827 123.972   6
  -3   8 -16 536.210 212.049   5
   3  -8  17 1119.59 269.262   6
   3  -8  18 15.9632 106.543   6
  -3   7  21 485.694 213.845   6
  -3   7  20 1405.95 334.378   6
  -3   7  19 399.121 183.804   6
  -3   7  18-20.7347 126.367   6
  -3   7  17-94.0705 151.863   6
  -3   7  16-392.757 176.039   6
   3  -7 -15 127.519 164.724   3
  -3   7  15 86.8113 81.5243   6
   3  -7 -14 412.540 160.418   3
   3  -7 -13 323.209 157.605   3
   3  -7 -12 388.729 154.842   3
   3  -7 -11 5209.57 530.376   3
   3  -7 -10 6031.13 558.742   3
  -3   7  10 5621.31 226.264   2
   3  -7  -9 1301.79 255.284   3
  -3   7   9 1184.71 92.2938   2
  -3   7   8 1806.65 104.501   2
   3  -7  -8 1697.24 287.916   3
   3  -7  -7 2805.56 362.146   3
   3  -7  -6 46.8832 81.7522   3
   3  -7  -5 388.528 130.792   3
   3  -7  -4 1977.25 296.796   3
   3  -7  -3 3290.31 370.987   3
   3  -7  -2 6924.38 360.269   2
   3  -7  -2 7687.71 571.275   3
   3  -7  -1 3222.51 257.244   2
   3  -7  -1 2865.01 349.201   3
  -3   7   0-10.8843 64.6650   5
   3  -7   0-33.6607 58.8072   3
  -3   7  -1 475.914 129.548   5
   3  -7   1 622.466 150.265   3
  -3   7  -2 59.1098 66.2443   5
   3  -7   2 80.2076 97.6580   3
  -3   7  -3 295.204 123.094   5
   3  -7   3 377.770 134.555   3
  -3   7  -4 2123.78 282.214   5
   3  -7   4 2157.32 306.193   3
  -3   7  -5-62.4827 91.0771   5
   3  -7   5-81.0763 105.077   3
  -3   7  -6 4046.80 415.217   5
   3  -7   6 5226.36 472.298   3
  -3   7  -7 78.9385 98.4952   5
   3  -7   7 193.133 119.894   3
   3  -7   8 2538.30 314.354   6
  -3   7  -8 2392.54 337.107   5
   3  -7   8 2580.69 347.653   3
  -3   7  -9 7256.47 608.274   5
   3  -7   9 6905.01 539.229   6
   3  -7  10 1180.88 233.841   6
  -3   7 -10 1245.93 273.466   5
   3  -7  11 509.559 155.034   6
   3  -7  12 2774.81 360.195   6
   3  -7  13 87.5959 80.7509   6
   3  -7  13 163.715 58.7519   1
   3  -7  14 908.859 217.107   6
   3  -7  14 247.721 99.8801   1
   3  -7  15 206.074 111.223   6
   3  -7  16 366.924 159.724   6
   3  -7  17 83.8461 84.5965   6
   3  -7  18 440.003 179.366   6
   3  -7  19 185.100 137.537   6
  -3   6  22 80.3610 118.649   6
  -3   6  21 1055.19 283.926   6
  -3   6  20 119.755 106.888   6
  -3   6  19 1297.32 321.634   6
  -3   6  18 1132.41 275.192   6
  -3   6  17 453.872 184.738   6
  -3   6  16 455.256 176.214   6
  -3   6  15 2203.37 380.252   6
  -3   6  14 400.568 159.187   6
  -3   6  13 60.2927 95.8066   6
  -3   6  12 723.548 211.130   6
   3  -6 -11 1154.43 252.219   3
  -3   6  11 1333.60 261.502   6
   3  -6 -10 3279.06 390.818   3
   3  -6  -9 5582.56 496.616   3
  -3   6   8 4053.63 140.523   2
   3  -6  -8 5155.03 464.847   3
   3  -6  -7 8822.82 603.201   3
   3  -6  -6 4681.98 438.674   3
   3  -6  -5-58.6993 93.3309   3
   3  -6  -4 10193.3 618.630   3
   3  -6  -3 2087.22 310.154   3
   3  -6  -2 13822.3 439.813   2
   3  -6  -2 12874.3 678.153   3
   3  -6  -1 5475.29 291.741   2
   3  -6  -1 5246.51 436.541   3
   3  -6   0 7473.91 356.725   2
  -3   6   0 7729.17 479.041   5
   3  -6   0 8067.96 542.306   3
   3  -6   1 20258.8 845.626   3
  -3   6  -1 20986.5 797.240   5
  -3   6  -2 14428.3 665.761   5
   3  -6   2 14099.7 712.365   3
  -3   6  -3 1629.89 248.059   5
   3  -6   3 1665.26 267.266   3
  -3   6  -4 2080.74 265.563   5
   3  -6   4 2689.55 312.534   3
  -3   6  -5 1047.11 201.051   5
   3  -6   5 1015.36 188.156   3
  -3   6  -6 308.974 123.170   5
   3  -6   6 271.530 111.068   3
  -3   6  -7 1094.30 205.040   5
   3  -6   7 1604.28 253.177   3
   3  -6   7 1191.62 198.989   6
  -3   6  -8 1041.04 226.570   5
   3  -6   8 487.779 143.594   6
   3  -6   9 228.004 103.340   6
  -3   6  -9 198.067 130.609   5
   3  -6  10 1768.66 257.476   6
   3  -6  11 3022.46 354.385   6
   3  -6  12 6505.57 522.579   6
   3  -6  12 6662.12 495.169   1
   3  -6  13 25.4952 76.1281   1
   3  -6  13 1.76106 65.5216   6
   3  -6  14 243.030 120.349   6
   3  -6  14 187.848 84.2512   1
   3  -6  15 1299.83 259.260   6
   3  -6  15 764.331 178.366   1
   3  -6  16 47.6339 93.4853   6
   3  -6  17 67.1653 82.7836   6
   3  -6  18 267.605 129.546   6
   3  -6  19 457.436 180.086   6
   3  -6  20 37.1339 99.4014   6
  -3   5  22-16.2834 106.412   6
  -3   5  21-41.4774 93.9453   6
  -3   5  20 111.759 131.183   6
  -3   5  19 870.828 263.555   6
  -3   5  18 2732.42 424.481   6
  -3   5  17 1293.81 283.884   6
  -3   5  16 12037.7 840.276   6
  -3   5  15 10878.3 776.772   6
  -3   5  14 239.211 166.491   6
  -3   5  13 1169.67 253.714   6
  -3   5  12 1804.16 300.837   6
  -3   5  11 1942.32 297.714   6
  -3   5  10 4568.77 442.498   6
  -3   5   9 3073.14 351.319   6
   3  -5  -8 708.392 175.671   3
  -3   5   8 758.900 167.278   6
   3  -5  -7 671.510 163.727   3
   3  -5  -6 13872.0 690.564   3
   3  -5  -5 3248.55 331.313   3
   3  -5  -4 21285.7 822.767   3
   3  -5  -3 4722.70 191.475   2
   3  -5  -3 5009.75 396.988   3
   3  -5  -2 5781.08 237.787   2
   3  -5  -2 5768.51 420.478   3
   3  -5  -1 952.135 104.686   2
   3  -5  -1 627.848 142.575   3
   3  -5   0 30064.4 959.682   3
  -3   5  -1 15.9021 60.8062   5
   3  -5   1-51.1930 88.4031   3
  -3   5  -2 14444.9 637.916   5
   3  -5   2 15048.9 672.771   3
  -3   5  -3 35106.2 994.826   5
   3  -5   3 35866.3 1044.79   3
  -3   5  -4 15209.8 673.434   5
   3  -5   4 16871.2 717.867   3
  -3   5  -5 2607.70 292.308   5
   3  -5   5 1901.49 244.631   3
  -3   5  -6 470.919 140.610   5
   3  -5   6 383.075 118.033   3
  -3   5  -7 23199.4 912.535   5
   3  -5   7 22044.7 803.768   6
   3  -5   7 22269.3 860.887   3
   3  -5   8 338.385 118.588   6
  -3   5  -8 476.901 156.581   5
   3  -5   9 3793.77 346.813   6
   3  -5  10 2984.56 321.535   6
   3  -5  11 7004.28 485.420   1
   3  -5  11 7611.22 517.491   6
   3  -5  12 6.05534 63.9666   1
   3  -5  12 115.930 88.9464   6
   3  -5  13 360.166 137.860   6
   3  -5  13 327.624 113.158   1
   3  -5  14-16.5310 52.3280   6
   3  -5  14-91.2565 84.5134   1
   3  -5  15 48.2074 62.9866   6
   3  -5  15 182.971 99.2521   1
   3  -5  16 515.327 153.464   6
   3  -5  16 849.533 183.720   1
   3  -5  17 1248.97 255.450   6
   3  -5  18 347.729 160.724   6
   3  -5  19 338.229 156.548   6
   3  -5  20 244.165 130.153   6
  -3   4  22-56.1216 123.318   6
  -3   4  21-44.3779 97.5185   6
  -3   4  20-54.9555 81.3122   6
  -3   4  19-31.8771 97.5967   6
  -3   4  18 884.140 240.731   6
  -3   4  17 3141.30 432.986   6
  -3   4  16 1560.25 296.265   6
  -3   4  15 2698.15 384.024   6
  -3   4  14 4602.10 484.746   6
  -3   4  13 1072.53 220.588   6
  -3   4  12 6378.68 526.696   6
  -3   4  11 186.082 87.3878   6
  -3   4  10 2170.85 288.457   6
  -3   4   9 3174.33 336.859   6
  -3   4   8 13127.0 659.281   6
  -3   4   7 28918.8 957.548   6
  -3   4   6 13015.1 615.250   6
   3  -4  -6 12508.2 622.881   3
   3  -4  -5 18303.0 723.118   3
   3  -4  -4 8797.99 491.168   3
   3  -4  -3 4299.64 335.958   3
   3  -4  -2 6313.62 192.813   2
   3  -4  -2 6232.36 397.146   3
   3  -4  -2 5994.67 355.383   5
   3  -4  -1 16431.9 649.729   3
   3  -4   0 2497.60 252.902   3
   3  -4   1 3794.90 311.780   3
  -3   4  -1 3657.71 299.543   5
  -3   4  -2 443.140 99.5315   5
   3  -4   2 529.510 124.140   3
   3  -4   3 216.084 93.2139   3
  -3   4  -3 311.008 108.025   5
  -3   4  -4 1612.29 211.870   5
   3  -4   4 1643.66 208.282   3
  -3   4  -5 9.13143 63.0333   5
   3  -4   5 16.9379 47.9552   3
   3  -4   6 15400.2 593.331   6
   3  -4   6 15652.8 649.028   3
  -3   4  -6 15816.4 689.660   5
  -3   4  -7 7506.23 498.312   5
   3  -4   7 8146.94 445.430   6
   3  -4   8 6249.84 398.051   6
   3  -4   9 4511.86 351.398   6
   3  -4  10 18670.7 740.624   1
   3  -4  10 18353.8 727.224   6
   3  -4  11 5292.91 406.708   6
   3  -4  11 5203.41 395.082   1
   3  -4  11 4669.53 195.903   4
   3  -4  12 7941.23 513.444   6
   3  -4  12 7513.62 481.990   1
   3  -4  13-16.3154 61.4497   1
   3  -4  13 167.128 97.6645   6
   3  -4  14 48.6059 55.9066   6
   3  -4  14 89.5778 68.3315   1
   3  -4  15 191.734 103.151   6
   3  -4  15 166.762 88.0591   1
   3  -4  16 2121.45 310.486   6
   3  -4  16 2198.95 280.813   1
   3  -4  17 971.297 190.684   1
   3  -4  17 872.299 204.308   6
   3  -4  18 73.8669 76.8867   6
   3  -4  19 765.430 202.783   6
   3  -4  20-132.986 109.711   6
   3  -4  21 154.841 121.772   6
  -3   3  22 241.068 170.830   6
  -3   3  21 1539.37 337.394   6
  -3   3  20 12.4027 107.187   6
  -3   3  19 306.250 167.495   6
  -3   3  18 320.623 159.165   6
  -3   3  17 6360.35 597.306   6
  -3   3  16 802.676 221.934   6
  -3   3  15 1936.86 328.870   6
  -3   3  14 1795.90 302.354   6
  -3   3  13 3689.18 401.953   6
  -3   3  12 438.016 152.195   6
  -3   3  11 3144.24 343.591   6
  -3   3  10 2413.15 293.182   6
  -3   3   9 94.5888 81.1409   6
  -3   3   8 4399.09 364.982   6
  -3   3   7 1338.59 197.478   6
  -3   3   6 15604.3 276.943   2
  -3   3   6 17527.2 670.724   6
   3  -3  -6 17143.5 498.197   1
  -3   3   5 1635.73 197.676   6
  -3   3   4 267.966 82.6511   6
   3  -3  -4 94.9873 42.1152   3
   3  -3  -3 11734.0 503.479   3
   3  -3  -2 34862.1 849.205   3
   3  -3  -2 35369.7 803.160   6
   3  -3  -1 108606. 1342.88   6
  -3   3   1 110889. 1472.72   3
   3  -3  -1 105410. 1452.50   3
   3  -3   0 110.150 54.7955   3
  -3   3   0 348.789 85.7281   3
   3  -3   1 19773.7 627.028   3
  -3   3  -1 20663.0 655.292   3
  -3   3  -2 970.222 149.236   5
  -3   3  -2 879.632 140.438   3
   3  -3   2 900.935 139.850   3
  -3   3  -3 156.294 84.3347   5
   3  -3   3 266.037 87.4663   3
  -3   3  -3 155.043 74.9179   3
  -3   3  -4 5314.55 357.503   5
   3  -3   4 4833.74 313.782   3
  -3   3  -4 4569.68 327.044   3
  -3   3  -5 2807.81 268.950   5
   3  -3   5 2662.62 239.941   3
   3  -3   6 7273.39 366.192   6
  -3   3  -6 7008.58 437.064   5
   3  -3   6 8043.05 424.246   3
  -3   3  -7 2011.92 246.568   5
   3  -3   7 2163.97 205.934   6
   3  -3   8 8488.11 425.802   6
   3  -3   9 12431.3 536.764   6
   3  -3   9 12004.3 557.363   1
   3  -3  10 3627.60 305.635   6
   3  -3  10 3028.16 288.498   1
   3  -3  11 8260.35 479.117   1
   3  -3  11 8315.43 476.645   6
   3  -3  12 3324.40 310.189   1
   3  -3  12 3728.73 335.253   6
   3  -3  13 590.108 142.209   6
   3  -3  13 601.176 128.322   1
   3  -3  14 880.745 175.691   1
   3  -3  14 1071.73 205.295   6
   3  -3  15 283.334 104.901   6
   3  -3  15 320.907 99.8400   1
   3  -3  16 69.4768 84.2985   6
   3  -3  16 19.5306 62.8388   1
   3  -3  17-15.8825 60.4542   1
   3  -3  17-40.0352 60.1284   6
   3  -3  18 1547.51 276.603   6
   3  -3  18 1320.94 222.103   1
   3  -3  19 2579.05 365.970   6
   3  -3  20 37.5170 77.4846   6
   3  -3  21 2548.10 394.215   6
  -3   2  22 604.292 234.305   6
  -3   2  21 1269.04 303.757   6
  -3   2  20 761.471 241.723   6
  -3   2  19 729.857 225.717   6
  -3   2  18 668.392 210.785   6
  -3   2  17-145.070 145.881   6
  -3   2  16 1437.43 279.752   6
  -3   2  15 2.69177 97.8700   6
  -3   2  14 494.771 141.689   6
  -3   2  13 1201.36 237.175   6
  -3   2  12 11576.9 667.670   6
  -3   2  11 65.7037 91.2298   6
  -3   2  10 354.569 112.838   6
   3  -2 -10 330.035 63.9617   1
   3  -2  -9 14242.4 404.051   1
  -3   2   9 14714.5 667.993   6
   3  -2  -8 1573.97 134.291   1
  -3   2   8 1289.79 190.571   6
   3  -2  -7 212.847 52.2520   1
  -3   2   7 85.3322 58.3024   6
  -3   2   7 157.640 41.9168   2
  -3   2   6 3027.89 159.705   2
   3  -2  -6 3001.04 185.665   1
  -3   2   6 3079.47 266.069   6
  -3   2   5 467.718 57.1268   2
  -3   2   5 422.480 96.4217   6
  -3   2   4 3849.82 270.225   6
  -3   2   3 10523.1 420.464   6
   3  -2  -2 1675.35 165.617   3
  -3   2   2 1795.06 166.179   6
   3  -2  -2 1865.11 162.684   6
   3  -2  -1 4615.95 244.289   6
   3  -2  -1 4387.85 261.136   3
  -3   2   0 35284.2 720.379   3
   3  -2   0 35677.0 647.906   6
   3  -2   0 36266.2 736.460   3
  -3   2  -1 126147. 1377.87   3
   3  -2   1 125344. 1368.50   3
   3  -2   2 1740.27 161.708   3
  -3   2  -2 1813.51 196.268   5
  -3   2  -2 1888.00 175.228   3
  -3   2  -3 3109.56 250.865   5
  -3   2  -3 3237.18 234.416   3
   3  -2   3 3069.52 215.219   3
  -3   2  -4-37.1155 57.1327   5
  -3   2  -4-26.6516 42.1854   3
   3  -2   4 32.9815 36.3025   3
  -3   2  -5 5360.08 346.633   5
  -3   2  -5 5440.66 325.168   3
   3  -2   5 4853.74 250.469   6
   3  -2   5 4995.87 289.497   3
   3  -2   6 11782.2 406.246   6
  -3   2  -6 11708.1 497.477   3
  -3   2  -6 11835.8 529.874   5
   3  -2   7 3954.81 249.833   6
  -3   2  -7 4180.52 331.508   5
   3  -2   7 3798.31 291.085   1
   3  -2   8 4454.89 279.772   6
   3  -2   8 4241.77 311.759   1
   3  -2   9 1969.82 196.781   6
   3  -2   9 1942.23 217.249   1
   3  -2  10 4188.71 322.134   1
   3  -2  10 4286.40 307.621   6
   3  -2  11 6017.91 379.897   6
   3  -2  11 5236.09 368.410   1
   3  -2  12-25.1393 61.1705   6
   3  -2  12 30.4638 54.4574   1
   3  -2  13 10190.6 551.917   6
   3  -2  13 10078.6 534.115   1
   3  -2  14 514.749 137.788   6
   3  -2  14 556.183 136.867   1
   3  -2  15 1285.81 214.610   6
   3  -2  15 1087.98 186.023   1
   3  -2  16 865.553 172.996   1
   3  -2  16 605.905 156.694   6
   3  -2  17 137.261 88.6759   6
   3  -2  17 17.1797 46.1662   1
   3  -2  18 1003.63 183.556   1
   3  -2  18 754.689 187.098   6
   3  -2  19 1201.67 207.190   1
   3  -2  19 1171.86 244.668   6
   3  -2  20 488.078 182.225   6
   3  -2  21 3775.69 462.905   6
   3  -2  22 154.682 120.488   6
  -3   1  22 125.694 123.326   6
  -3   1  21-57.9432 107.510   6
  -3   1  20 179.993 150.043   6
  -3   1  19-2.91298 84.4040   6
  -3   1  18 10.8683 73.4074   6
  -3   1  17 1022.19 242.158   6
   3  -1 -17 1407.62 202.281   4
  -3   1  16 390.434 153.346   6
   3  -1 -16 468.234 120.448   4
  -3   1  15 3530.50 416.300   6
  -3   1  14 368.691 138.578   6
  -3   1  13-57.3681 103.897   6
  -3   1  12-49.1925 67.3759   6
   3  -1 -12 72.4453 35.0541   1
  -3   1  11 2903.97 326.926   6
   3  -1 -11 2673.17 170.651   1
   3  -1 -10 4985.06 219.358   1
  -3   1  10 5356.51 416.676   6
   3  -1  -9 9289.45 283.629   1
  -3   1   9 8209.00 488.818   6
   3  -1  -8 1718.44 118.676   1
  -3   1   8 1353.48 187.042   6
  -3   1   7 22209.6 541.103   2
  -3   1   7 23001.1 735.354   6
   3  -1  -7 22770.1 428.176   1
  -3   1   6 574.597 84.9796   2
   3  -1  -6 453.209 63.1398   1
  -3   1   6 444.949 104.347   6
  -3   1   5 591.567 80.8228   2
  -3   1   5 763.551 121.026   6
  -3   1   4 110.822 54.3204   6
  -3   1   4 43.3473 18.9278   2
  -3   1   3 3380.70 217.865   6
   3  -1  -3 3297.30 151.187   2
   3  -1  -2 2271.22 162.219   6
  -3   1   2 2378.87 172.111   6
   3  -1  -1 3308.13 196.399   3
  -3   1   1 3422.57 188.635   6
   3  -1  -1 3857.05 193.050   6
   3  -1   0 1119.33 106.616   3
  -3   1   0 1069.81 94.6865   6
   3  -1   0 1064.10 91.6592   6
   3  -1   1 24039.2 412.422   6
   3  -1   1 24608.1 491.777   3
  -3   1  -1 23355.5 480.676   3
   3  -1   2 6464.11 250.395   3
  -3   1  -2 6424.86 260.410   3
   3  -1   3 26556.7 513.069   3
  -3   1  -3 25828.9 547.384   3
  -3   1  -3 25876.2 691.610   5
  -3   1  -4 52016.6 993.802   5
   3  -1   4 54043.9 768.237   3
  -3   1  -4 53153.3 825.642   3
   3  -1   4 52477.6 611.122   6
  -3   1  -5 10988.0 464.691   5
   3  -1   5 10568.1 432.341   1
   3  -1   5 11079.8 307.406   6
  -3   1  -5 10773.4 393.257   3
   3  -1   6 7248.40 277.023   6
   3  -1   6 7753.10 381.912   1
  -3   1  -6 7874.31 409.155   5
  -3   1  -6 8047.47 363.039   3
  -3   1  -7 339.701 100.369   5
   3  -1   7 196.497 55.4244   1
  -3   1  -7 266.650 78.5892   3
   3  -1   7 246.075 52.7507   6
   3  -1   8 68.9367 55.4499   1
   3  -1   8 30.8375 37.0295   6
   3  -1   9 118.184 57.6177   6
   3  -1   9 28.9622 45.2941   1
  -3   1  -9 127.863 55.6458   6
   3  -1  10 3171.88 276.017   1
   3  -1  10 3444.00 259.072   6
   3  -1  11 2647.90 241.348   6
   3  -1  11 3015.60 274.071   1
   3  -1  12 698.588 137.719   6
   3  -1  12 887.748 151.046   1
   3  -1  13 11856.0 562.886   1
   3  -1  13 11291.6 563.698   6
   3  -1  14 109.840 74.5782   1
   3  -1  14 92.7225 55.7769   6
   3  -1  15 1204.01 202.894   6
   3  -1  15 1255.34 194.832   1
   3  -1  16 275.355 107.096   6
   3  -1  16 355.547 107.400   1
   3  -1  17-10.6110 81.1932   6
   3  -1  17 154.637 83.3401   1
   3  -1  18 125.780 75.6363   1
   3  -1  18 293.299 134.198   6
   3  -1  19 89.3337 89.8437   6
   3  -1  19 192.361 95.2825   1
   3  -1  20 585.858 146.527   1
   3  -1  20 538.741 177.505   6
   3  -1  21 460.333 160.470   6
   3  -1  22-84.1158 98.9009   6
  -3   0  21 101.181 84.7373   6
  -3   0  20 197.621 127.553   6
  -3   0  19 760.072 229.461   6
  -3   0  18 429.823 173.775   6
  -3   0  17 2988.39 408.092   6
  -3   0  16 229.514 126.091   6
   3   0 -16 292.424 94.4716   4
  -3   0  15 225.853 119.272   6
  -3   0  14 1100.38 234.026   6
  -3   0  13 175.685 112.967   6
  -3   0  12 704.091 172.377   6
   3   0 -12 1026.56 104.344   1
  -3   0  11 430.864 125.168   6
   3   0 -11 575.933 72.7616   1
   3   0 -10 30.2012 18.5981   1
  -3   0  10-16.7276 64.7095   6
   3   0  -9 1541.24 101.127   1
  -3   0   9 1389.79 207.473   6
   3   0  -8 7342.22 201.923   1
  -3   0   8 7490.75 444.307   6
  -3   0   7 27097.1 672.060   2
   3   0  -7 27202.3 360.422   1
  -3   0   7 27176.4 792.930   6
  -3   0   6 2867.16 210.097   2
   3   0  -6 2621.61 112.404   1
  -3   0   6 2968.64 249.018   6
  -3   0   5 11531.1 456.777   6
  -3   0   5 12003.4 417.123   2
  -3   0   4 35161.1 681.773   2
  -3   0   4 35561.6 741.209   6
   3   0  -4 35718.4 618.221   2
   3   0  -3 20397.6 464.548   2
  -3   0   3 20335.0 521.068   6
   3   0  -2 38888.6 642.455   6
   3   0  -2 37622.8 632.959   2
  -3   0   2 37427.1 638.179   6
  -3   0   1 280076. 1540.24   6
   3   0  -1 281951. 1528.69   6
   3   0   0 88287.1 729.782   6
  -3   0   0 89190.4 746.819   6
  -3   0  -1 10879.3 208.842   6
   3   0   1 10810.7 236.720   3
   3   0   1 10891.3 198.447   6
  -3   0  -2 2008.01 99.5886   3
   3   0   2 1990.24 157.539   1
   3   0   2 2022.91 94.1420   3
  -3   0  -3 2587.72 132.246   3
   3   0   3 2598.17 198.285   1
   3   0   4 80.1965 19.1736   6
  -3   0  -4 29.8177 46.3266   5
   3   0   4 116.037 61.7996   1
  -3   0  -4 31.4185 22.2040   3
  -3   0  -5 11040.0 443.202   5
   3   0   5 10548.5 265.747   4
  -3   0  -5 10500.2 262.488   6
  -3   0  -5 10730.7 329.127   3
   3   0   5 10278.4 409.725   1
   3   0   5 10292.1 247.515   6
  -3   0  -6 611.945 73.8701   6
  -3   0  -6 795.178 125.148   5
  -3   0  -6 718.602 95.4468   3
   3   0   6 563.494 107.915   1
   3   0   6 736.418 80.0860   6
   3   0   6 731.831 63.9329   4
  -3   0  -7 272.469 59.4406   6
  -3   0  -7 206.499 75.9686   5
   3   0   7 234.455 51.2426   6
   3   0   7 200.114 79.3329   1
  -3   0  -8 4327.34 245.434   6
  -3   0  -8 4103.30 299.456   5
   3   0   8 4291.42 238.357   6
   3   0   8 4398.38 297.510   1
   3   0   9 2529.18 234.758   1
   3   0   9 2533.88 201.007   6
  -3   0  -9 2014.61 182.949   6
   3   0  10 511.739 96.7694   6
   3   0  10 426.100 102.563   1
   3   0  11 3899.62 289.302   6
   3   0  11 4114.14 312.034   1
   3   0  12 2995.10 269.742   6
   3   0  12 2900.73 273.925   1
   3   0  13 11775.5 548.940   1
   3   0  13 12336.2 575.275   6
   3   0  14 889.101 163.143   1
   3   0  14 997.259 182.268   6
   3   0  15 8600.77 488.834   1
   3   0  15 8704.66 532.914   6
   3   0  16 18.4520 57.1252   6
   3   0  16 168.040 77.0683   1
   3   0  17 1069.66 182.624   1
   3   0  17 1252.42 233.371   6
   3   0  18-1.85640 56.3073   6
   3   0  18 13.9365 59.2090   1
   3   0  19 54.4797 65.6787   6
   3   0  19-35.0727 45.7202   1
   3   0  20 801.932 172.630   1
   3   0  20 416.993 160.668   6
   3   0  21-16.1066 63.7308   6
   3   0  22-4.08190 81.3664   6
  -3  -1  21 15.9458 81.5678   6
  -3  -1  20-196.474 172.671   6
  -3  -1  19 174.371 132.403   6
  -3  -1  18 2038.50 352.936   6
  -3  -1  17 733.816 222.788   6
   3   1 -16 5189.78 364.141   4
  -3  -1  16 4722.58 498.880   6
  -3  -1  15 554.697 166.736   6
  -3  -1  14-45.2458 101.527   6
  -3  -1  13-67.5138 78.7882   6
  -3  -1  12-29.3065 87.3923   6
  -3  -1  11 32.4128 61.8853   6
  -3  -1  10 5.48006 52.5678   6
  -3  -1   9 913.129 169.601   6
   3   1  -9 861.022 134.387   4
  -3  -1   8 1363.77 192.202   6
   3   1  -8 973.276 142.950   4
  -3  -1   7 7613.48 427.590   6
   3   1  -7 7471.80 377.662   4
   3   1  -6 15113.5 527.501   4
  -3  -1   6 14392.7 553.334   6
  -3  -1   5 24441.6 668.185   2
  -3  -1   5 24660.0 676.439   6
   3   1  -5 23976.3 642.961   4
   3   1  -4 27805.6 624.223   2
  -3  -1   4 27193.5 668.066   6
  -3  -1   4 26737.4 676.977   2
  -3  -1   3 29.7002 32.5017   6
   3   1  -3-1.62016 26.0445   2
   3   1  -3 47.9227 20.0203   1
  -3  -1   3-9.12636 26.8985   2
  -3  -1   2 2232.07 162.387   6
   3   1  -2 2276.58 116.558   1
   3   1  -2 2224.24 165.420   6
   3   1  -2 2303.29 184.020   2
  -3  -1   1 95248.5 937.645   6
   3   1  -1 95856.6 976.026   6
   3   1  -1 95627.1 824.768   1
   3   1   0 195890. 1298.75   1
   3   1   0 196025. 1217.31   6
  -3  -1   0 196602. 1165.37   6
  -3  -1  -1 2184.72 102.637   6
   3   1   1 2150.46 150.225   1
   3   1   2 8843.79 315.231   1
   3   1   3 101.040 35.3855   5
   3   1   3 135.491 46.4681   4
   3   1   3 167.256 52.6301   1
   3   1   4 19144.8 502.560   5
   3   1   4 18505.2 393.987   4
   3   1   4 18547.3 502.772   1
  -3  -1  -5 31934.6 708.773   5
   3   1   5 31560.5 694.408   1
   3   1   5 31596.4 445.391   6
  -3  -1  -5 30361.7 399.372   6
  -3  -1  -6 15.4335 16.4842   6
   3   1   6 62.2275 51.6777   1
  -3  -1  -6-28.9035 43.9870   5
   3   1   6 3.53743 15.3240   6
  -3  -1  -7 14105.7 372.826   6
   3   1   7 14630.2 506.339   1
   3   1   7 13561.2 385.678   6
  -3  -1  -7 14243.3 501.590   5
  -3  -1  -8 65673.5 899.108   6
   3   1   8 65860.4 936.549   6
  -3  -1  -8 64511.3 1108.05   5
   3   1   8 68536.9 1135.79   1
  -3  -1  -9 921.299 117.492   6
   3   1   9 1023.41 130.498   6
   3   1   9 1016.15 144.058   1
  -3  -1 -10 804.365 119.662   6
   3   1  10 775.615 137.760   1
   3   1  10 970.569 138.225   6
   3   1  11 56.1866 35.4422   6
   3   1  11 112.820 46.9719   1
   3   1  12 2960.48 269.556   1
   3   1  12 2579.53 254.316   6
   3   1  13-11.3570 61.7721   6
   3   1  13 56.2089 76.4900   1
   3   1  14 368.271 100.935   1
   3   1  14 222.376 98.8109   6
   3   1  15 10617.7 538.272   1
   3   1  15 10455.7 585.217   6
   3   1  16 180.857 83.8130   6
   3   1  16 217.692 84.2894   1
   3   1  17-32.6292 76.1632   1
   3   1  17 54.8613 69.8116   6
   3   1  18 3972.61 413.647   6
   3   1  18 4106.88 358.890   1
   3   1  19 70.4072 45.0077   1
   3   1  19 35.6463 70.4952   6
   3   1  20 337.219 138.089   6
   3   1  20 140.607 62.1710   1
   3   1  21 160.815 116.331   6
   3   1  21 131.549 80.6236   1
   3   1  22-8.09738 86.0608   6
  -3  -2  20-54.3603 113.509   6
  -3  -2  19 500.189 176.457   6
  -3  -2  18 109.135 146.449   6
  -3  -2  17 562.227 204.352   6
  -3  -2  16 1271.21 263.852   6
  -3  -2  15 11.7241 90.8237   6
  -3  -2  14 128.710 81.6072   6
  -3  -2  13 1990.13 290.858   6
  -3  -2  12 16129.4 795.800   6
  -3  -2  11 901.789 187.242   6
  -3  -2  10 3201.47 337.393   6
  -3  -2   9 4451.23 378.876   6
  -3  -2   8 53.4997 70.6060   6
  -3  -2   7 4713.70 350.333   6
   3   2  -7 4079.00 280.616   4
   3   2  -6 11678.3 466.017   4
  -3  -2   6 11913.6 521.193   6
  -3  -2   5 450.696 95.2192   6
   3   2  -5 444.610 89.0051   4
  -3  -2   4 7579.25 374.556   6
   3   2  -4 7690.71 365.558   2
  -3  -2   3 5785.68 305.390   6
   3   2  -3 5929.56 322.871   2
   3   2  -3 5922.58 135.891   1
  -3  -2   2 8336.10 344.070   6
  -3  -2   2 8050.01 218.004   1
   3   2  -2 7820.63 345.055   6
  -3  -2   2 8030.75 358.678   4
   3   2  -2 7421.79 365.460   2
   3   2  -2 8470.43 198.893   1
  -3  -2   1 33426.5 495.378   1
   3   2  -1 33603.5 452.789   1
  -3  -2   1 33986.9 713.427   4
  -3  -2   1 33081.6 633.756   6
   3   2  -1 32638.2 758.779   2
   3   2  -1 34047.2 597.222   3
  -3  -2   0 3732.88 197.341   6
  -3  -2   0 4022.53 237.587   4
   3   2   0 3927.31 181.431   3
   3   2   0 4004.14 174.951   1
  -3  -2   0 3802.30 182.204   1
   3   2   1 7014.64 218.346   3
  -3  -2  -1 6892.51 245.119   6
  -3  -2  -1 7743.88 320.565   4
   3   2   1 7884.04 265.321   1
  -3  -2  -1 7889.44 281.148   1
  -3  -2  -2 714.166 96.4351   4
  -3  -2  -2 513.313 45.9021   3
   3   2   2 537.786 74.1099   1
   3   2   2 424.467 46.4192   3
  -3  -2  -3 5778.31 260.402   4
   3   2   3 5463.45 252.273   1
  -3  -2  -4 4747.05 169.637   3
   3   2   4 4720.50 235.439   5
  -3  -2  -4 4484.42 181.532   6
  -3  -2  -4 4592.86 224.063   4
   3   2   4 4198.25 234.854   1
   3   2   5 763.099 94.4854   5
  -3  -2  -5 833.383 94.1927   4
   3   2   5 696.599 106.971   1
  -3  -2  -5 862.335 82.2654   6
  -3  -2  -6 279.394 51.1075   6
  -3  -2  -6 283.194 67.3890   5
   3   2   6 294.778 71.4647   1
  -3  -2  -6 345.041 60.4040   4
  -3  -2  -7 2448.21 198.054   5
  -3  -2  -7 2130.31 140.972   4
   3   2   7 2348.83 201.723   1
  -3  -2  -7 2147.93 155.135   6
   3   2   7 2318.94 176.524   6
  -3  -2  -8 299.560 63.4040   6
  -3  -2  -8 578.771 105.509   5
  -3  -2  -8 328.568 55.4300   4
   3   2   8 270.405 71.2633   1
   3   2   8 312.692 74.1688   6
   3   2   9 251.668 73.1045   6
  -3  -2  -9 228.567 57.5782   6
  -3  -2  -9 224.470 45.0923   4
  -3  -2  -9 292.079 81.1577   5
   3   2   9 218.494 72.6696   1
  -3  -2 -10 3896.07 261.487   6
   3   2  10 3563.63 277.323   1
   3   2  10 3714.42 275.171   6
  -3  -2 -10 3559.55 158.147   4
   3   2  11 15639.6 584.548   1
  -3  -2 -11 14369.5 295.524   4
   3   2  11 14943.3 581.939   6
   3   2  12 8378.46 464.414   6
   3   2  12 9176.86 462.057   1
   3   2  13 90.6481 57.4885   1
   3   2  13-39.1924 49.0250   6
   3   2  14 276.022 104.680   1
   3   2  14 376.055 106.139   6
   3   2  15 1594.65 211.946   1
   3   2  15 1567.77 232.646   6
   3   2  16 1805.16 230.758   1
   3   2  16 1993.31 273.564   6
   3   2  17 1363.92 204.688   1
   3   2  17 1302.65 234.422   6
   3   2  18 1856.41 288.605   6
   3   2  18 2029.00 255.065   1
   3   2  19 264.695 106.493   1
   3   2  19 20.1280 76.4661   6
   3   2  20 6.67122 52.9048   1
   3   2  20 73.3869 57.2922   6
   3   2  21 623.350 158.698   1
   3   2  21 500.867 169.173   6
   3   2  22 201.595 111.658   6
   3   2  22 140.165 81.0718   1
  -3  -3  20 437.084 198.464   6
  -3  -3  19 1710.25 349.231   6
  -3  -3  18-99.2093 105.499   6
  -3  -3  17 113.616 121.208   6
  -3  -3  16 375.562 163.418   6
  -3  -3  15 831.310 206.949   6
  -3  -3  14 395.433 139.128   6
  -3  -3  13 114.567 70.5376   6
  -3  -3  12 977.277 201.447   6
  -3  -3  11 11497.2 671.060   6
  -3  -3  10 7569.81 520.861   6
  -3  -3   9 1596.17 235.618   6
  -3  -3   8 9957.43 549.337   6
  -3  -3   7 1577.32 215.586   6
  -3  -3   6 13285.1 588.350   6
  -3  -3   5 1932.87 216.805   6
  -3  -3   4-58.5427 60.6543   6
  -3  -3   4 9.32177 10.7218   1
   3   3  -4 49.0393 70.2220   2
   3   3  -3 71.3978 24.7514   1
  -3  -3   3 108.682 27.4142   1
   3   3  -3 78.0347 60.7128   2
   3   3  -3 80.9261 49.7988   3
  -3  -3   3 102.454 71.5252   6
  -3  -3   2 12849.1 480.604   6
   3   3  -2 14450.3 550.188   2
  -3  -3   2 13603.7 293.108   1
   3   3  -2 14090.4 483.845   3
   3   3  -2 13727.5 282.247   1
   3   3  -1 194.241 39.0345   1
  -3  -3   1 196.355 69.9929   6
   3   3  -1 164.441 77.1061   2
  -3  -3   1 220.414 39.9136   1
   3   3  -1 194.377 60.2630   3
  -3  -3   0 7636.24 345.710   4
   3   3   0 7838.48 406.946   2
   3   3   0 7819.34 251.304   1
  -3  -3   0 7859.40 263.503   1
   3   3   0 7547.73 317.977   3
   3   3   1 6568.84 249.147   1
  -3  -3  -1 6855.88 318.031   4
  -3  -3  -1 6866.30 266.114   1
  -3  -3  -1 6509.68 251.088   3
   3   3   1 6579.71 281.127   3
   3   3   2 1863.83 140.795   1
  -3  -3  -2 2201.65 180.803   4
  -3  -3  -2 1939.16 150.366   1
  -3  -3  -2 1906.46 132.445   3
   3   3   2 1828.08 139.460   3
   3   3   3 11414.0 329.251   3
   3   3   3 11299.6 365.905   1
  -3  -3  -3 11016.0 389.302   4
  -3  -3  -3 11575.0 330.474   3
   3   3   4 7314.70 273.508   5
   3   3   4 7540.30 313.520   1
  -3  -3  -4 7387.54 313.089   4
  -3  -3  -4 7488.34 274.455   3
   3   3   5 48.7009 36.8824   1
  -3  -3  -5 128.420 43.7080   3
   3   3   5 57.7379 22.9503   5
  -3  -3  -5 20.9110 18.0541   6
   3   3   6 234.539 76.8990   1
  -3  -3  -6 168.954 54.3934   3
  -3  -3  -6 128.645 45.1219   6
   3   3   7 32961.3 747.235   1
  -3  -3  -7 31769.7 661.800   5
  -3  -3  -7 30847.4 646.682   6
  -3  -3  -8 1448.39 149.874   5
   3   3   8 1336.09 165.113   1
  -3  -3  -8 1520.59 151.163   6
   3   3   9 7622.55 387.617   1
  -3  -3  -9 7372.74 348.464   5
  -3  -3  -9 8140.58 367.480   6
   3   3   9 7650.70 397.390   6
  -3  -3 -10 7755.12 378.738   5
   3   3  10 6930.18 386.603   1
   3   3  10 7461.06 410.741   6
   3   3  11-42.5820 52.7700   6
   3   3  11 37.9273 46.1935   1
   3   3  12 2643.82 273.652   6
   3   3  12 2684.98 256.372   1
  -3  -3 -13 1629.73 118.591   4
   3   3  13 1415.62 209.739   6
   3   3  13 1714.36 211.991   1
   3   3  14 1074.40 174.009   1
   3   3  14 1598.96 228.808   6
   3   3  15 2407.42 258.204   1
   3   3  15 2624.02 311.652   6
   3   3  16 1157.79 177.737   1
   3   3  16 1552.44 248.989   6
   3   3  17 96.6693 65.8701   6
   3   3  17 54.8190 54.0298   1
   3   3  18 88.9774 81.3289   6
   3   3  18 184.310 98.2796   1
   3   3  19 142.679 99.3576   6
   3   3  19 105.238 75.7033   1
   3   3  20 265.927 113.723   1
   3   3  20 301.124 136.171   6
   3   3  21 44.4604 60.9725   6
   3   3  21 33.8594 53.6069   1
   3   3  22 258.991 113.747   1
   3   3  22 118.145 109.962   6
   3   3  23 149.506 72.6903   1
  -3  -4  19-25.7318 79.4790   6
  -3  -4  18 1054.47 260.758   6
  -3  -4  17 862.029 229.531   6
  -3  -4  16 120.188 102.492   6
  -3  -4  15 1086.43 246.804   6
  -3  -4  14 693.006 193.071   6
  -3  -4  13 376.437 144.317   6
  -3  -4  12 543.355 185.428   6
  -3  -4  11 840.808 192.953   6
  -3  -4  10 235.530 101.844   6
  -3  -4   9 233.906 120.824   6
  -3  -4   8 3312.90 336.739   6
  -3  -4   7 2525.73 281.623   6
  -3  -4   6 3677.40 100.842   1
  -3  -4   6 4044.48 343.177   6
  -3  -4   5 16689.6 666.829   6
  -3  -4   5 15897.2 260.232   1
  -3  -4   4 475.609 52.6950   1
   3   4  -4 690.315 136.427   2
  -3  -4   4 607.084 130.619   6
  -3  -4   3 25718.9 413.832   1
  -3  -4   3 26364.4 778.617   6
   3   4  -3 25993.0 790.741   2
  -3  -4   2 3929.27 293.401   6
   3   4  -2 4556.25 333.786   2
  -3  -4   2 4248.75 181.261   1
   3   4  -2 3881.72 185.047   1
   3   4  -1 289.337 56.0523   1
  -3  -4   1 242.036 49.8114   1
  -3  -4   1 171.824 61.5807   3
   3   4  -1 171.910 79.1854   2
   3   4  -1 162.224 58.3450   3
  -3  -4   0 1275.04 113.444   1
  -3  -4   0 1161.02 137.057   3
   3   4   0 1320.85 158.391   3
   3   4   0 1237.28 177.318   2
   3   4   0 1201.44 109.953   1
  -3  -4  -1 2099.52 153.623   1
   3   4   1 2188.99 155.436   1
  -3  -4  -1 2023.57 171.388   3
   3   4   1 2288.32 200.656   3
   3   4   2 31484.3 611.981   1
  -3  -4  -2 32202.0 631.698   1
  -3  -4  -2 30959.5 662.845   3
   3   4   2 31529.5 710.998   3
  -3  -4  -3 616.187 94.5411   3
   3   4   3 478.144 84.1260   1
   3   4   3 614.244 99.2448   3
   3   4   4 5159.40 271.389   3
   3   4   4 5391.82 276.146   1
  -3  -4  -4 4968.66 273.334   3
   3   4   5 7703.80 239.982   5
  -3  -4  -5 7627.71 342.625   3
   3   4   5 7680.92 344.249   1
   3   4   6 3705.21 246.834   1
  -3  -4  -6 3528.34 243.239   3
  -3  -4  -6 3512.76 243.801   6
  -3  -4  -7 6261.18 336.480   3
   3   4   7 6699.74 344.701   1
  -3  -4  -7 6209.54 328.472   6
  -3  -4  -8 923.555 129.772   6
  -3  -4  -8 866.347 103.878   5
  -3  -4  -8 986.711 142.521   3
   3   4   8 691.738 118.138   1
  -3  -4  -9 121.767 48.0849   5
   3   4   9 140.049 67.3296   1
   3   4  10 244.502 90.6220   1
  -3  -4 -10 267.612 69.8420   5
   3   4  11 3263.40 278.609   1
  -3  -4 -11 3615.49 255.668   5
  -3  -4 -12 5228.71 321.904   5
   3   4  12 4938.15 386.754   6
   3   4  12 5155.53 355.413   1
   3   4  13 1099.68 202.971   6
   3   4  13 913.336 160.753   1
   3   4  14 20.0149 53.6046   6
   3   4  14-106.681 115.594   1
   3   4  15 155.780 79.2247   6
   3   4  15 99.5038 73.0834   1
   3   4  16 1755.99 268.387   6
   3   4  16 1583.56 223.566   1
   3   4  17 982.956 183.826   1
   3   4  17 587.902 170.199   6
   3   4  18 688.742 180.061   6
   3   4  18 1003.85 186.800   1
   3   4  19-63.9734 70.7999   1
   3   4  19 123.910 103.606   6
   3   4  20-82.8380 116.627   6
   3   4  20-66.0787 66.7085   1
   3   4  21 13.1664 79.4989   6
   3   4  21-13.3072 72.9603   1
   3   4  22 52.9610 76.6977   6
   3   4  22-15.1872 64.2499   1
   3   4  23-110.082 84.4416   1
  -3  -5  18 484.531 165.053   6
  -3  -5  17-84.8697 132.248   6
  -3  -5  16 2324.76 375.858   6
  -3  -5  15 1345.35 283.533   6
  -3  -5  14 756.909 218.818   6
  -3  -5  13 3190.93 402.734   6
  -3  -5  12 1272.87 246.827   6
  -3  -5  11 238.423 141.154   6
  -3  -5  10 1770.39 274.747   6
  -3  -5   9 35.7199 66.4711   6
  -3  -5   8-40.8857 78.0457   6
  -3  -5   8 0.98208 6.78816   1
  -3  -5   8-6.53276 8.68502   1
  -3  -5   7 373.146 43.2972   1
  -3  -5   7 391.069 142.091   6
  -3  -5   6 5430.15 422.628   6
  -3  -5   6 4787.96 168.252   1
  -3  -5   5 4.25433 66.8694   6
  -3  -5   5 16.1393 18.0209   1
  -3  -5   4 8185.41 254.793   1
  -3  -5   4 7880.51 478.605   6
  -3  -5   3 5850.51 228.628   1
   3   5  -3 5886.34 406.360   2
  -3  -5   3 6688.74 428.029   6
  -3  -5   2 1956.62 144.375   1
   3   5  -2 1825.87 225.416   2
  -3  -5   2 1740.69 215.309   6
  -3  -5   1 3313.02 190.389   1
  -3  -5   1 3084.14 256.069   3
   3   5  -1 3005.99 191.690   1
   3   5  -1 3419.71 308.218   2
  -3  -5   0 13557.7 398.936   1
   3   5   0 13298.9 605.667   2
  -3  -5   0 13161.6 515.174   3
   3   5   0 13713.9 420.938   1
  -3  -5  -1 502.225 80.9316   1
   3   5   1 627.017 97.0169   1
   3   5   1 455.822 116.990   2
  -3  -5  -1 607.205 114.260   3
   3   5   1 618.239 122.832   3
   3   5   2 252.408 79.4483   3
   3   5   2 276.807 58.9279   1
  -3  -5  -2 355.606 91.0296   3
   3   5   3 25309.6 721.249   3
  -3  -5  -3 25521.9 701.435   3
   3   5   3 25815.2 623.683   1
  -3  -5  -4 2885.64 238.291   3
   3   5   4 2992.17 221.049   1
   3   5   4 2751.98 231.343   3
  -3  -5  -5 159.820 66.9040   3
   3   5   5 91.9312 46.7009   3
   3   5   5 80.8348 25.0600   5
   3   5   5 145.563 55.6909   1
   3   5   6 1520.33 167.847   1
  -3  -5  -6 1350.76 168.717   3
   3   5   7 6871.74 370.935   1
  -3  -5  -7 6786.34 387.402   3
  -3  -5  -8 9090.91 465.064   3
   3   5   8 9135.98 434.192   1
  -3  -5  -9 1193.83 178.151   3
   3   5   9 1502.26 190.497   1
  -3  -5 -10 105.506 41.5535   5
  -3  -5 -10 51.8511 40.6888   3
   3   5  10 94.3847 72.4541   1
   3   5  11 4293.91 329.461   1
  -3  -5 -11 4274.90 256.185   5
   3   5  12 5364.93 375.463   1
  -3  -5 -12 5912.60 323.057   5
  -3  -5 -13 3373.61 258.959   5
   3   5  13 3074.13 298.682   1
  -3  -5 -14 7406.21 405.498   5
   3   5  14 6900.51 447.262   1
  -3  -5 -15 166.592 76.1689   5
   3   5  15 61.0373 73.4629   1
   3   5  15-32.0764 66.7202   6
   3   5  16 203.729 75.1169   1
   3   5  16 232.685 105.433   6
   3   5  17 1232.23 246.674   6
   3   5  17 1686.33 243.679   1
   3   5  18 2199.67 281.241   1
   3   5  18 2400.03 349.929   6
   3   5  19 515.198 148.563   1
   3   5  19 343.279 132.198   6
   3   5  20 130.207 94.0385   6
   3   5  20 8.36881 74.0054   1
   3   5  21 231.947 100.219   1
   3   5  21 258.706 134.093   6
   3   5  22-18.2892 75.8471   6
   3   5  22 33.7980 83.8642   1
   3   5  23 529.220 167.723   1
   3   5  24 15.9829 55.1921   1
  -3  -6  17 10.4367 88.3982   6
  -3  -6  16 48.9676 76.6109   6
  -3  -6  15 210.729 134.315   6
  -3  -6  14 175.398 110.258   6
  -3  -6  13 81.4879 80.1972   6
  -3  -6  12 1979.57 323.816   6
  -3  -6  11 173.756 99.8771   6
  -3  -6  10 20.4898 90.6453   6
  -3  -6   9 687.603 179.379   6
  -3  -6   8 3106.32 358.010   6
  -3  -6   7 525.526 145.123   6
  -3  -6   7 614.154 70.3676   1
  -3  -6   6 2863.42 335.804   6
  -3  -6   6 2031.32 133.956   1
  -3  -6   5 5434.21 437.959   6
  -3  -6   5 5193.08 225.797   1
  -3  -6   4 7177.69 490.292   6
  -3  -6   4 7239.47 278.484   1
  -3  -6   3 140.217 79.8107   6
   3   6  -3 81.9561 91.7730   2
  -3  -6   3 97.5033 38.2006   1
   3   6  -2 419.653 118.364   2
  -3  -6   2 370.379 121.052   3
  -3  -6   2 385.559 70.8279   1
  -3  -6   1 1985.20 161.918   1
   3   6  -1 2041.95 253.057   2
  -3  -6   1 1933.38 224.106   3
   3   6   0 3173.00 226.357   1
  -3  -6   0 2744.98 267.336   3
   3   6   0 3210.92 323.596   2
   3   6   1 8001.82 498.740   2
   3   6   1 6944.50 342.228   1
  -3  -6  -1 6712.19 403.299   3
   3   6   2 3743.73 255.195   1
   3   6   2 3692.36 338.082   2
  -3  -6  -2 3477.39 294.200   3
   3   6   3 1678.57 178.001   1
  -3  -6  -3 1761.90 209.371   3
  -3  -6  -4 3951.69 311.515   3
   3   6   4 3927.92 273.282   1
   3   6   5 2324.79 224.979   1
  -3  -6  -5 2337.33 242.342   3
  -3  -6  -6 1854.79 217.557   3
   3   6   6 1771.28 196.395   1
  -3  -6  -7 75.0299 56.0395   3
   3   6   7 54.5932 67.6726   1
  -3  -6  -8 3771.39 325.646   3
   3   6   8 3422.78 283.049   1
  -3  -6  -9 1551.07 217.727   3
   3   6   9 1394.91 187.713   1
  -3  -6 -10 1205.30 197.006   3
   3   6  10 1546.82 202.538   1
  -3  -6 -11 53.9882 51.1992   3
   3   6  11 89.9596 63.3912   1
  -3  -6 -12 2850.78 201.139   5
  -3  -6 -12 2566.27 309.511   3
   3   6  12 2677.99 281.364   1
   3   6  13 6516.90 442.468   1
  -3  -6 -13 6719.97 513.704   3
  -3  -6 -13 6745.00 335.466   5
   3   6  14 4363.94 374.570   1
  -3  -6 -14 5315.70 476.827   3
  -3  -6 -14 5518.32 325.270   5
  -3  -6 -15 2302.38 222.565   5
   3   6  15 2569.98 299.525   1
   3   6  16 507.619 150.343   1
   3   6  17 379.225 117.730   1
   3   6  18 247.911 122.523   1
   3   6  19 34.7105 61.1451   1
   3   6  20 2152.04 299.546   1
   3   6  21 129.948 102.035   1
   3   6  22 780.424 195.248   1
   3   6  23 1338.80 258.349   1
   3   6  24 84.6020 100.088   1
  -3  -7  16 58.6466 133.082   6
  -3  -7  15 276.543 150.423   6
  -3  -7  14 365.199 168.414   6
  -3  -7  13 4470.45 511.872   6
  -3  -7  12 1548.85 305.212   6
  -3  -7  11 363.792 156.710   6
  -3  -7  10 1311.48 256.854   6
  -3  -7   9-24.6870 85.8266   6
  -3  -7   8 543.964 171.363   6
  -3  -7   7 17602.5 874.226   6
  -3  -7   6 80.3063 106.974   6
  -3  -7   5 3485.68 377.343   6
  -3  -7   4 841.258 184.657   6
  -3  -7   4 875.219 109.568   1
  -3  -7   3 95.5834 61.9966   6
   3   7  -3 237.041 114.427   2
  -3  -7   3 119.687 83.0575   3
   3   7  -2 2145.11 272.160   2
  -3  -7   2 1892.72 245.570   3
  -3  -7   1 3911.72 347.593   3
   3   7  -1 3664.04 359.683   2
   3   7   0 1802.80 259.754   2
  -3  -7   0 1569.30 217.495   3
   3   7   1 489.470 100.334   1
   3   7   1 354.562 117.163   2
  -3  -7  -1 729.534 146.057   3
   3   7   2 46.5584 36.1703   1
  -3  -7  -2 94.2139 68.0353   3
   3   7   2 17.0685 80.8303   2
  -3  -7  -3 1711.00 224.394   3
   3   7   3 1516.08 182.151   1
   3   7   3 1276.63 204.310   2
  -3  -7  -4 5540.56 404.459   3
   3   7   4 5520.35 353.874   1
  -3  -7  -5 997.895 178.357   3
   3   7   5 1151.47 164.160   1
   3   7   6 60.9685 47.3039   1
  -3  -7  -6-4.12033 42.2532   3
  -3  -7  -7 95.5791 69.1691   3
   3   7   7 40.5432 48.7819   1
  -3  -7  -8 1066.15 199.295   3
   3   7   8 1057.00 174.883   1
   3   7   9 8071.93 467.057   1
  -3  -7  -9 8400.83 539.503   3
   3   7  10 3732.73 325.886   1
  -3  -7 -10 3915.05 373.878   3
  -3  -7 -11 1581.78 249.195   3
   3   7  11 1563.55 227.219   1
   3   7  12 7392.13 479.089   1
  -3  -7 -12 7381.90 541.065   3
   3   7  13 324.660 128.451   1
  -3  -7 -13 105.098 95.0275   3
  -3  -7 -14 1020.90 218.783   3
   3   7  14 1246.47 219.056   1
  -3  -7 -15 473.162 153.653   3
   3   7  15 474.218 165.944   1
  -3  -7 -16 1578.25 295.281   3
   3   7  16 1359.82 226.847   1
  -3  -7 -17 168.403 69.0922   3
   3   7  17 76.1142 63.7075   1
  -3  -7 -18 543.536 185.327   3
   3   7  18 192.640 97.4796   1
  -3  -7 -19 658.325 229.362   3
   3   7  19 702.913 174.754   1
   3   7  20 107.043 70.4174   1
   3   7  21 793.601 199.161   1
   3   7  22 155.992 93.1424   1
   3   7  23 74.3010 71.8890   1
   3   7  24 115.456 111.555   1
  -3  -8  15 384.172 185.704   6
  -3  -8  14 1482.51 319.293   6
  -3  -8  13 315.285 166.856   6
  -3  -8  12-4.97383 93.1759   6
  -3  -8  11 850.437 222.345   6
  -3  -8  10 288.757 137.522   6
  -3  -8   9 1753.95 312.179   6
  -3  -8   8 65.9284 88.1467   6
  -3  -8   7 2253.97 335.974   6
  -3  -8   6 7627.37 591.502   6
  -3  -8   5 5067.54 473.059   6
  -3  -8   4-16.1926 95.8203   6
  -3  -8   3 650.882 164.221   3
   3   8  -2-18.0257 56.4532   2
  -3  -8   2 39.6697 60.7479   3
   3   8  -1 963.632 203.078   2
  -3  -8   1 942.737 187.289   3
   3   8   0 1721.92 260.320   2
  -3  -8   0 2292.83 286.829   3
   3   8   1 6470.91 495.171   2
  -3  -8  -1 6162.82 458.187   3
  -3  -8  -2 16244.1 748.462   3
   3   8   2 16081.4 778.463   2
  -3  -8  -3 8170.24 530.288   3
   3   8   3 8156.72 449.051   1
   3   8   3 7507.09 538.461   2
   3   8   4 122.895 83.0973   1
   3   8   4-70.3744 94.3612   2
  -3  -8  -4 17.8158 54.1653   3
   3   8   5 52.8410 46.5476   1
   3   8   5 116.474 23.7047   5
   3   8   5 41.1130 62.6289   2
  -3  -8  -5 89.8881 61.3486   3
  -3  -8  -6 2397.82 291.797   3
   3   8   6 1909.79 235.598   1
  -3  -8  -7-60.1727 73.8147   3
   3   8   7-39.1468 50.9959   1
  -3  -8  -8 279.092 119.990   3
   3   8   8 174.216 81.5777   1
  -3  -8  -9 313.136 116.835   3
   3   8   9 130.556 86.6692   1
  -3  -8 -10-107.038 93.8796   3
   3   8  10 21.0116 60.3095   1
  -3  -8 -11 373.771 125.682   3
   3   8  11 185.025 83.3070   1
   3   8  12 777.708 172.866   1
  -3  -8 -12 763.043 187.637   3
  -3  -8 -13 1864.84 298.797   3
   3   8  13 1234.02 213.015   1
  -3  -8 -14 2347.60 344.918   3
   3   8  14 1971.70 284.073   1
  -3  -8 -15 787.571 209.429   3
   3   8  15 1398.45 233.638   1
  -3  -8 -16 9.91886 85.2265   3
   3   8  16 14.8930 78.9201   1
  -3  -8 -17 221.202 121.883   3
   3   8  17-106.187 124.868   1
   3   8  18 50.5725 69.0241   1
  -3  -8 -18 243.622 138.206   3
   3   8  19-24.3411 76.7013   1
  -3  -8 -19 218.144 149.478   3
   3   8  20 221.185 117.822   1
  -3  -8 -20 363.947 178.334   3
   3   8  21 672.987 197.721   1
  -3  -8 -21 296.195 141.615   3
   3   8  22 4.59853 58.9163   1
  -3  -8 -22 19.9493 104.261   3
   3   8  23 470.251 163.987   1
  -3  -9  14 224.026 115.047   6
  -3  -9  13-137.932 125.924   6
  -3  -9  12 126.399 103.052   6
  -3  -9  11 165.670 102.595   6
  -3  -9  10 589.325 204.305   6
  -3  -9   9 923.370 243.215   6
  -3  -9   8 497.164 179.420   6
  -3  -9   7 6.57231 104.997   6
  -3  -9   6 1098.22 258.869   6
  -3  -9   5 2130.29 333.225   6
  -3  -9   4 1137.51 243.066   6
  -3  -9   3-27.3490 84.7544   3
   3   9  -2-56.9709 93.1317   2
  -3  -9   2-17.7429 66.4805   3
   3   9  -1 4000.23 413.309   2
  -3  -9   1 3899.19 399.501   3
   3   9   0 2267.05 312.345   2
  -3  -9   0 2048.00 293.142   3
   3   9   1 2226.09 317.628   2
  -3  -9  -1 1814.11 273.997   3
   3   9   2 2898.23 350.805   2
  -3  -9  -2 2711.16 330.092   3
   3   9   3 14678.4 779.314   2
  -3  -9  -3 13853.1 743.834   3
   3   9   4 24367.5 1001.62   2
  -3  -9  -4 23654.0 970.190   3
   3   9   4 22872.9 814.991   1
   3   9   5 699.639 154.574   1
   3   9   5 460.682 53.8701   5
   3   9   5 525.219 136.539   2
  -3  -9  -5 457.445 160.105   3
   3   9   6 2946.03 309.027   1
  -3  -9  -6 2717.08 336.297   3
   3   9   6 2610.95 338.152   2
   3   9   7 8287.87 515.198   1
  -3  -9  -7 7714.68 568.886   3
   3   9   8 119.462 85.2943   1
  -3  -9  -8 76.3948 76.7180   3
   3   9   9 4477.00 390.769   1
  -3  -9  -9 5184.57 485.131   3
  -3  -9 -10 204.338 89.4724   3
   3   9  10-22.9497 69.6386   1
   3   9  11 5655.84 455.664   1
  -3  -9 -11 4591.37 468.948   3
  -3  -9 -12 3926.78 451.252   3
   3   9  12 3464.08 368.331   1
   3   9  13-38.5139 90.5552   1
  -3  -9 -13-90.0281 98.1982   3
   3   9  14 950.105 202.323   1
  -3  -9 -14 549.308 166.011   3
  -3  -9 -15 3527.28 447.519   3
   3   9  15 2814.09 349.544   1
  -3  -9 -16 240.176 127.678   3
   3   9  16 151.969 92.4203   1
   3   9  17 83.2147 88.6006   1
  -3  -9 -17-175.277 117.922   3
   3   9  18 23.0933 71.8454   1
  -3  -9 -18 156.015 132.293   3
   3   9  19 203.958 119.767   1
  -3  -9 -19 53.9158 86.7663   3
   3   9  20 137.620 107.598   1
  -3  -9 -20 125.361 92.6406   3
   3   9  21-310.651 144.923   1
  -3  -9 -21 10.1922 86.5031   3
   3   9  22 68.0093 92.9471   1
  -3 -10  12 1137.89 275.040   6
  -3 -10  11 2831.73 440.290   6
  -3 -10  10 780.111 232.434   6
  -3 -10   9 377.953 155.818   6
  -3 -10   8 1630.72 321.776   6
  -3 -10   7 1345.11 276.980   6
  -3 -10   6 226.629 136.834   6
  -3 -10   5 288.883 111.270   6
  -3 -10   4 8676.96 683.410   6
  -3 -10   3 2410.67 344.946   3
  -3 -10   2 69.4703 76.1540   3
   3  10  -1 21.8059 69.3632   2
  -3 -10   1-44.8549 72.7955   3
   3  10   0 3007.90 372.618   2
  -3 -10   0 2526.73 336.072   3
   3  10   1 2168.22 310.547   2
  -3 -10  -1 3123.19 378.171   3
   3  10   2 170.260 118.505   2
  -3 -10  -2 167.582 116.475   3
   3  10   3 2325.24 329.673   2
  -3 -10  -3 2020.68 304.670   3
  -3 -10  -4 1309.52 253.481   3
   3  10   4 1355.18 253.615   2
  -3 -10  -5 198.337 108.236   3
   3  10   5-131.416 118.542   2
   3  10   6 600.823 161.582   2
  -3 -10  -6 415.652 147.198   3
   3  10   6 430.612 124.143   1
   3  10   7 3922.13 433.611   2
   3  10   7 3995.90 379.281   1
  -3 -10  -7 4170.31 449.230   3
   3  10   8 42.5434 97.1078   1
  -3 -10  -8 178.018 122.055   3
   3  10   8-61.5118 103.411   2
  -3 -10  -9 830.618 211.291   3
   3  10   9 657.319 162.095   1
  -3 -10 -10 2598.40 383.215   3
   3  10  10 2814.86 336.310   1
   3  10  11 3467.69 380.673   1
  -3 -10 -11 4413.44 482.194   3
   3  10  12 330.401 119.460   1
  -3 -10 -12 188.634 111.995   3
   3  10  13 145.960 102.986   1
  -3 -10 -13-8.78420 77.2743   3
  -3 -10 -14 234.000 131.991   3
   3  10  14 249.531 125.706   1
   3  10  15-48.3747 78.8843   1
  -3 -10 -15 32.3123 79.8690   3
   3  10  16 108.953 95.0928   1
  -3 -10 -16 73.6473 84.7201   3
   3  10  17 1169.73 246.012   1
  -3 -10 -17 722.582 225.671   3
  -3 -10 -18 36.3334 80.4653   3
   3  10  18 433.847 161.667   1
   3  10  19 696.565 202.224   1
  -3 -10 -19 491.611 187.862   3
   3  10  20 53.6491 79.0075   1
  -3 -10 -20-141.902 125.880   3
   3  10  21-36.5783 80.7404   1
  -3 -11  11 324.765 157.379   6
  -3 -11  10 441.428 227.606   6
  -3 -11   9 278.255 145.367   6
  -3 -11   8 110.469 102.235   6
  -3 -11   7 47.9689 113.375   6
  -3 -11   6 528.523 191.125   6
  -3 -11   5-153.678 109.692   6
  -3 -11   4 512.802 176.696   6
  -3 -11   3 5.20045 92.4530   3
  -3 -11   2 3004.69 401.053   3
  -3 -11   1 6631.45 582.130   3
   3  11   0 1948.09 309.164   2
  -3 -11   0 1975.31 328.070   3
   3  11   1 2300.28 337.867   2
  -3 -11  -1 2021.17 326.037   3
   3  11   2 8411.13 633.774   2
  -3 -11  -2 10741.3 735.230   3
   3  11   3 813.033 232.894   2
  -3 -11  -3 1055.46 239.485   3
   3  11   4 741.994 190.652   2
  -3 -11  -4 508.421 167.750   3
  -3 -11  -5 2011.94 325.444   3
   3  11   5 2000.49 312.727   2
  -3 -11  -6 88.3806 79.5540   3
   3  11   6 114.475 73.9303   2
  -3 -11  -7 1679.91 302.243   3
   3  11   7 1867.87 313.284   2
  -3 -11  -8 3287.30 428.066   3
   3  11   8 2225.66 340.810   2
   3  11   9 6847.59 591.333   2
  -3 -11  -9 6913.79 615.480   3
   3  11   9 6419.91 524.316   1
   3  11  10-90.4804 81.4393   1
  -3 -11 -10 39.6098 73.0529   3
   3  11  11 1314.77 246.067   1
  -3 -11 -11 1420.20 301.109   3
  -3 -11 -12 5729.22 586.910   3
   3  11  12 4507.32 456.678   1
   3  11  13 1066.02 243.733   1
  -3 -11 -13 1404.19 309.673   3
  -3 -11 -14 719.143 220.278   3
   3  11  14 521.768 174.089   1
  -3 -11 -15 69.9309 108.852   3
   3  11  15 164.513 119.087   1
  -3 -11 -16 135.075 101.597   3
   3  11  16 99.6332 99.4209   1
  -3 -11 -17 31.0165 90.7988   3
   3  11  17 9.83691 80.0533   1
   3  11  18 385.205 155.792   1
  -3 -11 -18 570.435 221.037   3
  -3 -11 -19-11.8848 107.372   3
   3  11  19-47.4202 112.403   1
  -3 -12   9 29.5245 121.674   6
  -3 -12   8 490.245 202.587   6
  -3 -12   7-34.3369 122.619   6
  -3 -12   6 160.800 122.127   6
  -3 -12   5 136.692 108.953   6
  -3 -12   4 149.000 154.392   6
  -3 -12   3 80.5508 129.505   3
  -3 -12   2 2776.80 401.771   3
  -3 -12   1-105.450 135.448   3
  -3 -12   0 5783.84 569.303   3
   3  12   1 7312.26 614.352   2
  -3 -12  -1 5856.92 572.226   3
   3  12   2 400.265 146.422   2
  -3 -12  -2 475.727 181.595   3
   3  12   3 1034.97 237.527   2
  -3 -12  -3 1262.25 273.267   3
   3  12   4 445.023 153.998   2
  -3 -12  -4 283.199 142.393   3
  -3 -12  -5 969.963 244.966   3
   3  12   5 1135.40 242.842   2
   3  12   6 175.803 81.9777   2
  -3 -12  -6 127.085 69.4779   3
  -3 -12  -7 24.6042 92.4818   3
   3  12   7-105.438 65.0429   2
   3  12   8 481.922 168.937   2
  -3 -12  -8 773.682 230.888   3
   3  12   9 137.856 100.157   2
  -3 -12  -9 104.736 109.609   3
   3  12  10 7728.92 660.832   2
  -3 -12 -10 8436.35 725.758   3
  -3 -12 -11 1708.16 332.819   3
   3  12  11 2235.58 362.997   2
   3  12  12 70.9507 90.9258   2
   3  12  12 230.228 133.339   1
  -3 -12 -12 33.7530 113.729   3
  -3 -12 -13 23.9008 82.3170   3
   3  12  13-47.9646 126.128   1
   3  12  14-43.9168 84.1874   1
  -3 -12 -14 228.888 123.449   3
   3  12  15 364.385 141.333   1
  -3 -12 -15 76.8279 98.3777   3
  -3 -12 -16-131.422 119.151   3
   3  12  16 84.1366 117.857   1
   3  12  17 557.285 198.719   1
  -3 -12 -17 533.793 210.086   3
   3  12  18 364.729 166.992   1
  -3 -12 -18 80.0767 99.1174   3
  -3 -13   6 326.848 202.943   6
  -3 -13   5-47.5222 92.0723   6
  -3 -13   4 456.622 211.460   6
  -3 -13   3 359.310 180.463   6
  -3 -13   3 418.527 172.941   3
  -3 -13   2 44.1679 94.5788   3
  -3 -13   1 688.331 210.486   3
  -3 -13   0-64.4357 78.6299   3
  -3 -13  -1 203.830 105.929   3
   3  13   2 868.609 232.470   2
  -3 -13  -2 969.480 254.946   3
   3  13   3 276.339 145.997   2
  -3 -13  -3 234.095 132.084   3
   3  13   4 227.282 128.770   2
  -3 -13  -4 495.286 199.804   3
   3  13   5 329.268 140.770   2
  -3 -13  -5 51.7286 83.7030   3
   3  13   6 32.2761 81.2111   2
  -3 -13  -6-120.013 103.495   3
   3  13   7 463.939 176.432   2
  -3 -13  -7 322.404 141.497   3
   3  13   8 1170.05 258.868   2
  -3 -13  -8 427.663 186.974   3
  -3 -13  -9-50.5051 88.5604   3
   3  13   9-17.4947 86.6220   2
   3  13  10 530.970 183.319   2
  -3 -13 -10 451.537 195.866   3
  -3 -13 -11-74.1340 114.825   3
   3  13  11 81.9074 108.036   2
  -3 -13 -12 247.501 142.583   3
   3  13  12 440.084 168.937   2
  -3 -13 -13-54.7396 76.6135   3
   3  13  13 247.908 147.160   2
  -3 -13 -14-170.461 133.935   3
   3  13  14 121.559 73.6149   2
  -3 -13 -15 64.7066 133.101   3
  -3 -13 -16 695.812 248.494   3
  -3 -13 -17 676.221 265.585   3
  -3 -14   4-216.378 147.685   6
  -3 -14   3 621.376 227.584   6
  -3 -14   3 606.755 216.479   3
  -3 -14   2 150.942 123.531   3
  -3 -14   1 172.663 130.639   3
  -3 -14   0 93.2289 108.304   3
  -3 -14  -1 612.691 204.900   3
  -3 -14  -2-182.877 136.535   3
   3  14   3 399.006 173.349   2
  -3 -14  -3 40.8817 100.984   3
   3  14   4 412.356 147.885   2
  -3 -14  -4 853.090 255.094   3
   3  14   5 757.532 206.553   2
  -3 -14  -5 1003.40 267.777   3
   3  14   6 1028.42 248.187   2
  -3 -14  -6 826.097 249.932   3
  -3 -14  -7 563.427 202.089   3
   3  14   7 828.124 230.956   2
  -3 -14  -8 172.694 100.206   3
   3  14   8 58.6494 99.6147   2
  -3 -14  -9 1235.99 305.459   3
   3  14   9 1238.94 271.342   2
   3  14  10 61.6486 84.4442   2
  -3 -14 -10 63.9574 79.1232   3
   3  14  11-55.4325 95.6865   2
  -3 -14 -11-15.9445 97.7236   3
  -3 -14 -12 981.930 281.925   3
   3  14  12 757.823 229.522   2
  -3 -14 -13 10.5991 93.4848   3
   3  14  13 309.672 140.471   2
  -3 -14 -14 367.937 203.322   3
  -3 -14 -15 1141.62 322.182   3
  -3 -14 -16 606.734 238.235   3
  -3 -15   2 142.059 125.589   3
  -3 -15   1 1524.21 341.656   3
  -3 -15   0 249.150 146.551   3
  -3 -15  -1 98.5372 98.8502   3
  -3 -15  -2 39.2037 66.3246   3
  -3 -15  -3 605.838 224.961   3
  -3 -15  -4 1489.41 335.390   3
   3  15   5 480.318 165.088   2
  -3 -15  -5-11.3222 91.0592   3
   3  15   6 13.9260 99.0851   2
  -3 -15  -6 258.506 148.655   3
   3  15   7-77.0263 99.0857   2
  -3 -15  -7-46.8761 98.4422   3
   3  15   8 260.009 159.658   2
  -3 -15  -8 156.911 128.722   3
  -3 -15  -9 657.414 242.436   3
   3  15   9 528.376 202.537   2
  -3 -15 -10 268.898 124.824   3
   3  15  10 154.732 109.357   2
  -3 -15 -11 123.186 120.768   3
  -3 -15 -12 154.867 159.440   3
  -3 -15 -13 87.4477 131.173   3
  -3 -15 -14 311.857 202.730   3
  -3 -16  -2-0.80416 92.0006   3
  -3 -16  -3 655.529 237.788   3
  -3 -16  -4-67.4197 92.8097   3
  -3 -16  -5 192.315 177.866   3
   3  16   6 896.379 248.688   2
  -3 -16  -6 615.491 241.585   3
   3  16   7 138.603 103.719   2
  -3 -16  -7 566.692 236.664   3
   3  16   8 67.5544 83.6145   2
  -3 -16  -8-279.462 172.022   3
  -3 -16  -9 352.349 210.676   3
  -3 -16 -10 195.384 162.148   3
  -3 -16 -11 726.124 267.569   3
   4 -14 -11 669.070 289.682   3
   4 -14 -10 47.2529 125.119   3
   4 -14  -9 159.236 156.328   3
   4 -14  -8 209.671 147.167   3
   4 -14  -7 438.444 210.364   3
   4 -14  -6 254.284 169.993   3
   4 -14  -5 154.956 130.550   3
   4 -14  -4 504.045 220.298   3
   4 -14  -3 1327.17 360.548   3
   4 -14  -2 37.5276 97.0806   3
   4 -14  -1 341.865 196.894   3
   4 -14   0 383.193 185.704   3
   4 -14   1-45.5847 145.462   3
   4 -14   2 30.9942 85.5542   3
   4 -14   3 383.905 195.632   3
  -4  14  -4 143.741 127.389   5
  -4  14  -5 61.5099 86.8067   5
  -4  14  -6 1172.00 320.440   5
  -4  14  -7 1441.02 360.656   5
   4 -13 -14 269.048 153.876   3
   4 -13 -13-126.307 116.613   3
   4 -13 -12 185.344 188.626   3
   4 -13 -11 494.514 228.033   3
   4 -13 -10 307.022 164.999   3
   4 -13  -9 247.274 154.001   3
   4 -13  -8 60.6958 134.218   3
   4 -13  -7 143.184 186.272   3
   4 -13  -6 224.315 140.444   3
   4 -13  -5 559.280 205.764   3
   4 -13  -4 296.809 170.674   3
   4 -13  -3 68.6563 110.900   3
   4 -13  -2 1590.36 356.975   3
   4 -13  -1 1888.05 389.077   3
   4 -13   0 484.527 209.827   3
   4 -13   1 243.241 157.559   3
   4 -13   2 111.945 147.973   3
  -4  13  -3 87.9228 132.782   5
   4 -13   3 83.3601 162.344   3
  -4  13  -4-61.6140 95.5463   5
   4 -13   4 110.886 118.149   3
  -4  13  -5-11.2193 131.703   5
   4 -13   5-25.0844 81.5895   3
  -4  13  -6-83.3774 144.142   5
   4 -13   6 132.259 86.2597   3
  -4  13  -7 171.007 129.220   5
   4 -13   8 1369.91 327.462   6
  -4  13  -8 814.686 265.752   5
   4 -12 -16 58.0788 80.2234   3
   4 -12 -15 63.8186 104.447   3
   4 -12 -14-134.199 126.737   3
   4 -12 -13 150.100 199.814   3
   4 -12 -12 2266.63 443.840   3
   4 -12 -11 2102.64 430.773   3
   4 -12 -10 270.601 187.346   3
   4 -12  -9 661.084 227.844   3
   4 -12  -8 588.685 227.993   3
   4 -12  -7 10.9669 92.4029   3
   4 -12  -6 1293.01 315.984   3
   4 -12  -5 346.078 208.229   3
   4 -12  -4 760.473 254.646   3
   4 -12  -3 467.703 199.246   3
   4 -12  -2 1691.31 367.594   3
   4 -12  -1 1081.90 288.557   3
   4 -12   0-30.6215 70.6093   3
   4 -12   1 840.204 252.678   3
   4 -12   2 1414.35 313.849   3
  -4  12  -3-132.146 136.768   5
   4 -12   3 53.1863 109.617   3
  -4  12  -4 264.107 122.125   5
   4 -12   4 404.905 184.580   3
  -4  12  -5 318.499 150.954   5
   4 -12   5 366.656 180.228   3
  -4  12  -6-2.64432 135.255   5
   4 -12   6 102.591 107.376   3
  -4  12  -7 1106.25 297.138   5
   4 -12   7 1047.47 284.808   3
   4 -12   8 741.354 236.126   6
  -4  12  -8 1286.81 327.395   5
   4 -12   8 967.847 267.331   3
   4 -12   9 248.109 157.377   6
  -4  12  -9 215.839 150.972   5
   4 -12  10 469.962 196.189   6
  -4  12 -10 684.870 272.870   5
   4 -12  11 461.842 192.358   6
   4 -11 -17 394.480 203.954   3
   4 -11 -16 1096.01 315.905   3
   4 -11 -15 310.984 204.167   3
   4 -11 -14 164.982 165.670   3
   4 -11 -13 104.406 123.240   3
   4 -11 -12 951.881 301.409   3
   4 -11 -11 670.087 247.485   3
   4 -11 -10 909.282 260.367   3
   4 -11  -9 2480.23 446.525   3
   4 -11  -8 167.901 138.714   3
   4 -11  -7 1038.03 277.567   3
   4 -11  -6 3139.66 471.444   3
   4 -11  -5 163.703 147.389   3
   4 -11  -4 2164.42 390.698   3
   4 -11  -3 4215.93 535.460   3
   4 -11  -2 295.519 156.303   3
   4 -11  -1 265.879 131.115   3
   4 -11   0 240.161 132.557   3
   4 -11   1 647.141 227.752   3
  -4  11  -2 1918.21 330.001   5
   4 -11   2 1766.09 348.793   3
  -4  11  -3-84.3922 88.5870   5
   4 -11   3 133.616 94.8154   3
  -4  11  -4-145.446 109.642   5
   4 -11   4 100.949 117.279   3
  -4  11  -5-298.592 154.099   5
   4 -11   5 130.901 120.384   3
   4 -11   6 1218.35 298.271   3
  -4  11  -6 1000.85 269.971   5
  -4  11  -7 1492.21 322.791   5
   4 -11   7 1414.84 316.968   3
   4 -11   8-17.9837 86.1178   6
  -4  11  -8-148.364 136.990   5
   4 -11   8-123.710 128.229   3
   4 -11   9-4.42355 112.574   6
  -4  11  -9 58.8944 137.975   5
   4 -11  10 314.795 163.162   6
  -4  11 -10 223.158 158.025   5
  -4  11 -11 159.409 128.751   5
   4 -11  11 83.8899 82.6023   6
   4 -11  12 519.640 199.355   6
   4 -11  13 735.594 232.296   6
   4 -10 -19 395.615 224.381   3
   4 -10 -18 133.055 131.236   3
   4 -10 -17 776.511 285.660   3
   4 -10 -16 52.1538 117.055   3
   4 -10 -15-14.3742 100.075   3
   4 -10 -14 511.930 200.267   3
   4 -10 -13 584.466 216.200   3
   4 -10 -12-8.43530 102.233   3
   4 -10 -11 276.069 133.537   3
   4 -10 -10 585.519 211.903   3
   4 -10  -9-55.2755 117.794   3
   4 -10  -8 460.363 200.941   3
   4 -10  -7 1039.76 266.352   3
   4 -10  -6 3782.86 494.997   3
   4 -10  -5 7984.04 711.147   3
   4 -10  -4-94.2067 84.5886   3
   4 -10  -3 2235.17 380.296   3
   4 -10  -2 5804.28 591.673   3
   4 -10  -1 179.018 142.024   3
   4 -10   0 2395.70 383.805   3
   4 -10   1 785.985 233.859   3
  -4  10  -2 925.267 234.558   5
   4 -10   2 804.820 226.286   3
   4 -10   3 608.498 213.478   3
  -4  10  -3 760.455 211.763   5
  -4  10  -4 3021.21 405.137   5
   4 -10   4 3911.26 486.697   3
  -4  10  -5 121.664 134.506   5
   4 -10   5-53.4885 128.972   3
  -4  10  -6 1393.35 294.740   5
   4 -10   6 1279.72 277.435   3
  -4  10  -7 494.436 175.774   5
   4 -10   7 747.741 239.270   3
   4 -10   8 970.091 246.331   6
  -4  10  -8 1035.31 268.716   5
   4 -10   8 1075.92 261.495   3
   4 -10   9 429.070 159.934   6
  -4  10  -9 74.0949 98.6555   5
   4 -10  10 298.834 149.785   6
  -4  10 -10 458.911 204.265   5
   4 -10  11 134.221 95.4040   6
  -4  10 -11-72.8242 123.530   5
  -4  10 -12 1003.85 290.010   5
   4 -10  12 1237.42 291.212   6
   4 -10  13 891.772 247.183   6
  -4  10 -13 773.049 276.552   5
   4 -10  14 630.169 216.342   6
   4 -10  15 100.216 118.596   6
   4  -9 -19 338.831 192.779   3
   4  -9 -18-38.8594 112.013   3
   4  -9 -17 231.329 162.247   3
   4  -9 -16 192.028 144.710   3
   4  -9 -15 2467.05 440.445   3
   4  -9 -14 2035.83 390.527   3
   4  -9 -13 442.507 190.804   3
   4  -9 -12 1319.46 309.781   3
   4  -9 -11 1050.35 258.070   3
   4  -9 -10 938.667 253.803   3
   4  -9  -9 134.354 104.083   3
   4  -9  -8-16.4955 157.135   3
   4  -9  -7 464.269 150.981   3
   4  -9  -6 237.001 162.510   3
   4  -9  -5 12071.8 824.951   3
   4  -9  -4 60467.1 1845.40   3
   4  -9  -3 5163.34 537.181   3
   4  -9  -2-8.50473 82.1729   3
   4  -9  -1 67.9543 79.1897   3
   4  -9   0 845.352 224.575   3
   4  -9   1 168.570 142.818   3
  -4   9  -2 578.114 163.794   5
   4  -9   2 412.762 144.870   3
  -4   9  -3-17.3637 67.1072   5
   4  -9   3-23.9879 118.363   3
  -4   9  -4 2220.18 327.849   5
   4  -9   4 2283.66 349.994   3
  -4   9  -5 455.310 168.840   5
   4  -9   5 513.497 173.174   3
  -4   9  -6 522.617 170.062   5
   4  -9   6 432.666 133.817   3
   4  -9   7 116.985 76.0320   3
  -4   9  -7 123.465 122.138   5
   4  -9   8 1438.11 273.669   6
  -4   9  -8 1352.14 298.564   5
   4  -9   8 1296.57 277.305   3
   4  -9   9 750.487 200.320   6
  -4   9  -9 809.730 235.956   5
   4  -9  10-43.7100 73.0595   6
  -4   9 -10 17.8310 75.4442   5
  -4   9 -11 209.531 148.030   5
   4  -9  11 76.9031 73.9276   6
  -4   9 -12 188.158 147.812   5
   4  -9  12 57.4060 79.5170   6
   4  -9  13 362.511 150.339   6
  -4   9 -13 254.892 189.097   5
   4  -9  13 112.035 99.7004   1
  -4   9 -14 1187.99 339.704   5
   4  -9  14 633.559 212.797   6
   4  -9  15 793.402 231.943   6
   4  -9  16 251.934 135.080   6
   4  -8 -20 524.435 243.148   3
   4  -8 -19 536.803 233.106   3
   4  -8 -18 304.562 210.103   3
   4  -8 -17 29.3789 113.470   3
   4  -8 -16 347.757 198.424   3
   4  -8 -15 1406.33 330.850   3
   4  -8 -14 345.726 192.309   3
   4  -8 -13 316.034 143.569   3
   4  -8 -12 2146.01 373.630   3
   4  -8 -11 101.171 84.1290   3
   4  -8 -10 204.350 157.402   3
   4  -8  -9 3583.74 461.113   3
   4  -8  -8 2762.33 398.081   3
   4  -8  -7-60.5941 117.084   3
   4  -8  -6 258.124 105.973   3
   4  -8  -5 126.731 74.0722   3
   4  -8  -4 1783.20 317.474   3
   4  -8  -3 14036.8 502.488   2
   4  -8  -3 14585.2 854.114   3
   4  -8  -2 730.436 187.777   3
   4  -8  -2 1033.39 149.407   2
   4  -8  -1 4575.12 476.940   3
   4  -8   0 5045.73 501.211   3
  -4   8  -1 1126.61 231.033   5
   4  -8   1 1110.20 240.352   3
   4  -8   2 1652.26 289.988   3
  -4   8  -2 1056.55 208.914   5
  -4   8  -3 1296.32 242.064   5
   4  -8   3 1586.80 289.781   3
  -4   8  -4 1110.25 236.020   5
   4  -8   4 1458.12 281.529   3
  -4   8  -5 850.699 213.840   5
   4  -8   5 893.073 217.722   3
  -4   8  -6 774.058 206.050   5
   4  -8   6 824.837 211.647   3
   4  -8   7 1951.57 317.169   3
  -4   8  -7 1104.60 247.271   5
   4  -8   8 1507.89 270.027   6
  -4   8  -8 1596.35 326.884   5
   4  -8   8 1713.00 306.006   3
   4  -8   9 314.147 127.451   6
  -4   8  -9 300.480 134.979   5
   4  -8  10 171.780 114.223   6
  -4   8 -10 452.065 197.498   5
   4  -8  11 2261.12 328.759   6
  -4   8 -11 1899.23 365.385   5
   4  -8  12 1676.66 293.314   6
  -4   8 -12 1644.47 349.430   5
   4  -8  13-64.5983 89.7950   6
  -4   8 -13-47.0207 93.8252   5
   4  -8  13 16.2359 58.0409   1
  -4   8 -14 143.153 133.757   5
   4  -8  14 88.9280 108.028   6
   4  -8  14-45.6116 72.0761   1
  -4   8 -15-121.928 143.729   5
   4  -8  15 210.008 130.829   6
   4  -8  16 182.065 115.830   6
   4  -8  17 12.0632 67.9301   6
  -4   7  20 105.662 93.8992   6
  -4   7  19 1265.29 322.184   6
  -4   7  18 788.468 277.193   6
  -4   7  17 1861.20 371.790   6
   4  -7 -16 739.585 251.734   3
  -4   7  16 552.771 215.731   6
  -4   7  15 27.4883 90.6459   6
   4  -7 -15-43.0775 130.179   3
   4  -7 -14 49.2896 111.398   3
  -4   7  14-105.444 100.001   6
   4  -7 -13 340.318 180.004   3
   4  -7 -12 102.438 120.706   3
   4  -7 -11 2826.82 407.589   3
   4  -7 -10 3711.45 455.913   3
   4  -7  -9 1578.28 290.625   3
   4  -7  -8-7.92622 91.2783   3
   4  -7  -7 255.879 106.563   3
   4  -7  -6 800.213 205.568   3
   4  -7  -5 2712.80 351.321   3
   4  -7  -4 2007.59 302.964   3
   4  -7  -3 4387.79 245.989   2
   4  -7  -3 4437.95 451.716   3
   4  -7  -2 1885.68 287.251   3
   4  -7  -2 2066.34 187.482   2
   4  -7  -1 3676.48 265.017   2
   4  -7  -1 3570.35 397.642   3
   4  -7   0 4731.06 451.148   3
   4  -7   1 721.424 188.043   3
  -4   7  -2 67.8310 69.4767   5
   4  -7   2 77.8457 71.1511   3
  -4   7  -3 300.955 82.4278   5
   4  -7   3 373.887 132.901   3
  -4   7  -4 278.596 120.318   5
   4  -7   4 47.1162 67.2593   3
  -4   7  -5 78.3381 83.9117   5
   4  -7   5 201.310 145.514   3
  -4   7  -6 195.132 110.315   5
   4  -7   6 214.541 122.890   3
  -4   7  -7 682.490 187.506   5
   4  -7   7 870.402 204.625   3
   4  -7   8 105.264 65.2502   6
  -4   7  -8 162.280 143.282   5
   4  -7   8 178.855 76.5814   3
   4  -7   9 182.919 83.4195   6
  -4   7  -9 76.8334 123.725   5
   4  -7  10 1196.37 228.335   6
  -4   7 -10 1130.32 257.184   5
   4  -7  11 52.1243 85.4663   6
  -4   7 -11-79.6104 115.008   5
  -4   7 -12 15.0104 90.6243   5
   4  -7  12 54.9349 64.7578   1
   4  -7  12-67.6365 70.1365   6
   4  -7  13 1025.95 228.591   1
  -4   7 -13 766.334 252.100   5
   4  -7  13 1007.37 219.171   6
   4  -7  14 2008.84 312.483   6
  -4   7 -14 2729.66 462.265   5
   4  -7  14 1943.16 298.032   1
   4  -7  15-71.9601 92.2679   6
   4  -7  15 65.3092 76.8049   1
  -4   7 -15-156.345 164.160   5
  -4   7 -16-46.0860 98.9279   5
   4  -7  16 216.810 115.126   6
   4  -7  17 150.991 114.233   6
   4  -7  18 558.275 190.956   6
  -4   6  21-90.7916 112.017   6
  -4   6  20-63.6333 118.818   6
  -4   6  19-66.1048 141.465   6
  -4   6  18 575.600 230.996   6
  -4   6  17 700.869 224.366   6
  -4   6  16-59.3898 137.850   6
  -4   6  15 737.795 216.401   6
  -4   6  14 2312.81 374.067   6
  -4   6  13 694.093 203.367   6
   4  -6 -12 173.702 133.300   3
  -4   6  12 2.43484 78.9358   6
   4  -6 -11-50.0072 112.090   3
  -4   6  11-106.817 89.1424   6
   4  -6 -10-42.7130 86.2552   3
  -4   6  10 17.8749 69.5372   6
   4  -6  -9 5645.41 517.020   3
   4  -6  -8 1838.83 288.687   3
   4  -6  -7 407.518 154.897   3
   4  -6  -6 424.217 137.008   3
   4  -6  -5 231.301 142.316   3
   4  -6  -4 261.078 104.228   3
   4  -6  -3 1589.77 258.641   3
   4  -6  -3 1643.51 126.277   2
   4  -6  -2 7828.23 310.490   2
   4  -6  -2 7669.38 542.930   3
   4  -6  -1 5982.70 289.483   2
   4  -6  -1 5812.02 474.073   3
   4  -6   0 158.114 115.373   3
   4  -6   1 3055.68 340.552   3
  -4   6  -2 9083.89 574.098   5
   4  -6   2 10338.1 617.992   3
  -4   6  -3 6916.77 509.360   5
   4  -6   3 6165.11 478.328   3
  -4   6  -4 882.698 193.445   5
   4  -6   4 692.165 171.348   3
  -4   6  -5 3562.92 379.654   5
   4  -6   5 3162.55 344.732   3
   4  -6   6 7196.52 526.023   3
  -4   6  -6 8367.08 590.944   5
  -4   6  -7 356.509 140.515   5
   4  -6   7 167.960 101.991   3
   4  -6   8-10.5067 70.7439   6
  -4   6  -8 10.0661 75.9919   5
   4  -6   8-101.503 110.191   3
  -4   6  -9 780.173 207.985   5
   4  -6   9 548.245 148.108   6
   4  -6  10 3966.01 388.501   6
  -4   6 -10 3916.67 473.218   5
   4  -6  11 1195.66 222.678   6
  -4   6 -11 975.241 256.437   5
   4  -6  12 1269.60 235.444   6
   4  -6  12 726.172 186.297   1
  -4   6 -12 725.207 207.429   5
   4  -6  13 164.125 88.2353   6
   4  -6  13-1.68054 84.8936   1
  -4   6 -13 66.1943 106.874   5
   4  -6  14 215.520 101.541   6
   4  -6  14 197.353 85.9105   1
   4  -6  15 201.933 100.673   1
   4  -6  15 128.010 85.8811   6
   4  -6  16 408.153 151.398   6
   4  -6  16 504.025 145.483   1
  -4   6 -16 769.852 259.319   5
   4  -6  17 167.796 111.642   6
  -4   6 -17 671.807 265.503   5
   4  -6  18 1071.05 255.662   6
  -4   6 -18 1622.44 375.976   5
  -4   5  21 96.7907 103.623   6
  -4   5  20-68.5602 124.136   6
  -4   5  19 447.892 202.135   6
  -4   5  18-0.22855 88.8282   6
  -4   5  17 620.538 222.673   6
  -4   5  16 2660.43 412.669   6
  -4   5  15 4.03339 82.7483   6
  -4   5  14 3301.86 433.061   6
  -4   5  13 266.641 130.593   6
  -4   5  12 2890.29 383.964   6
  -4   5  11 5854.45 523.639   6
  -4   5  10 34.5029 17.5525   2
  -4   5  10 113.118 126.656   6
   4  -5  -9 301.594 146.580   3
  -4   5   9 106.252 63.9286   6
  -4   5   8 312.829 105.442   6
   4  -5  -8 260.498 129.819   3
   4  -5  -7 3993.54 393.824   3
   4  -5  -6 109.320 80.5535   3
   4  -5  -5 75.6314 94.7728   3
   4  -5  -4 402.716 123.100   3
   4  -5  -3 950.050 197.145   3
   4  -5  -3 866.519 73.2494   2
   4  -5  -2 22384.4 856.804   3
   4  -5  -1 3591.42 339.711   3
   4  -5   0 260.812 93.6696   3
   4  -5   1 6867.82 468.958   3
  -4   5  -2 4035.12 365.833   5
   4  -5   2 4389.18 376.952   3
   4  -5   3 1482.61 221.343   3
  -4   5  -3 1215.98 205.798   5
  -4   5  -4 2908.08 318.337   5
   4  -5   4 3022.58 314.359   3
  -4   5  -5 9007.86 572.177   5
   4  -5   5 9370.43 546.637   3
   4  -5   6 1720.78 241.305   3
  -4   5  -6 1779.60 265.349   5
   4  -5   7 759.521 148.585   6
  -4   5  -7 624.427 160.325   5
   4  -5   7 539.239 150.614   3
  -4   5  -8 3324.16 384.999   5
   4  -5   8 3520.46 320.889   6
   4  -5   9-6.36074 61.0401   6
  -4   5  -9 185.623 138.853   5
  -4   5 -10 9208.53 676.664   5
   4  -5  10 9016.59 541.913   6
   4  -5  11-19.6611 81.9057   1
   4  -5  11-34.6740 62.7143   6
  -4   5 -11 189.001 172.702   5
   4  -5  12 7676.79 527.106   6
  -4   5 -12 7868.13 659.751   5
   4  -5  12 6960.12 516.813   1
   4  -5  13 842.892 189.728   6
  -4   5 -13 780.891 252.248   5
   4  -5  13 1022.85 197.048   1
   4  -5  14 42.7257 62.9048   1
  -4   5 -14 40.9513 81.5808   5
   4  -5  14 30.3805 56.8838   6
   4  -5  15-10.3725 55.6422   1
  -4   5 -15 50.0980 110.196   5
   4  -5  15 136.551 99.5683   6
   4  -5  16 469.768 156.128   6
  -4   5 -16 205.720 157.960   5
   4  -5  16 393.500 133.228   1
   4  -5  17 128.553 100.975   6
   4  -5  17 28.6462 56.4778   1
  -4   5 -17 81.2141 138.823   5
  -4   5 -18 875.318 282.651   5
   4  -5  18 574.399 179.642   6
  -4   5 -19-40.1467 78.7886   5
  -4   4  21 205.668 182.260   6
  -4   4  20 671.607 231.692   6
  -4   4  19 502.579 198.673   6
  -4   4  18-83.0760 126.335   6
  -4   4  17 821.797 237.604   6
  -4   4  16 844.136 250.330   6
  -4   4  15 1982.89 341.491   6
  -4   4  14 6.67724 95.5460   6
  -4   4  13 3385.69 409.806   6
  -4   4  12 1902.85 293.354   6
  -4   4  11 5171.62 254.470   2
  -4   4  11 5713.40 496.872   6
  -4   4  10 1503.07 125.299   2
  -4   4  10 1547.18 253.540   6
  -4   4   9 256.598 46.6225   2
  -4   4   9 255.958 126.385   6
  -4   4   8 1140.82 213.350   6
  -4   4   7-22.6724 82.9070   6
   4  -4  -6 1353.36 214.678   3
  -4   4   6 1247.93 205.004   6
   4  -4  -5 56.1681 72.6177   3
  -4   4   5 136.965 80.6103   6
   4  -4  -4 17161.1 715.526   3
   4  -4  -3 9142.79 511.818   3
   4  -4  -2 22699.7 790.831   3
   4  -4  -1 5933.38 401.988   3
   4  -4   0 4115.20 334.861   3
   4  -4   1 38050.8 1006.76   3
  -4   4  -2 8597.38 509.018   5
   4  -4   2 9039.20 493.506   3
   4  -4   3 2196.87 243.650   3
  -4   4  -3 1922.75 249.565   5
  -4   4  -4 80.1853 66.0819   5
   4  -4   4 71.5280 64.8698   3
  -4   4  -5 30.6427 54.5943   5
   4  -4   5 38.9307 51.2206   3
  -4   4  -6 1849.69 245.788   5
   4  -4   6 1593.62 215.863   3
   4  -4   7 277.755 88.0467   6
  -4   4  -7 302.058 127.337   5
   4  -4   7 343.958 110.727   3
   4  -4   8 1447.04 188.489   6
  -4   4  -8 1517.34 254.678   5
  -4   4  -9 1.48900 104.633   5
   4  -4   9 17.7422 42.2561   6
  -4   4 -10 1318.18 261.479   5
   4  -4  10 1345.89 194.516   6
   4  -4  10 999.163 194.495   1
   4  -4  11 157.253 92.8132   1
   4  -4  11 170.922 86.3921   6
  -4   4 -11 209.799 118.727   5
   4  -4  12 5701.90 428.624   6
   4  -4  12 5086.14 424.704   1
  -4   4 -12 5358.04 525.612   5
   4  -4  13 1487.72 230.661   6
   4  -4  13 1650.84 246.387   1
  -4   4 -13 1913.14 341.807   5
   4  -4  14-27.0265 50.7142   6
   4  -4  14-13.4720 59.5533   1
   4  -4  15 895.599 196.397   6
  -4   4 -15 1277.50 290.293   5
   4  -4  15 906.792 195.011   1
   4  -4  16 167.735 100.811   6
   4  -4  16 195.572 109.791   1
  -4   4 -16 38.2140 112.652   5
   4  -4  17 514.732 154.359   1
   4  -4  17 703.077 184.701   6
  -4   4 -17 861.767 254.535   5
   4  -4  18 151.946 93.3200   6
  -4   4 -18 150.901 132.357   5
   4  -4  18 175.599 106.145   1
   4  -4  19 41.0221 60.2553   6
  -4   4 -19 154.344 145.544   5
  -4   4 -20 1172.50 338.855   5
  -4   3  21 779.910 249.923   6
  -4   3  20 4561.19 561.824   6
  -4   3  19 927.770 269.696   6
  -4   3  18-8.07884 80.1455   6
  -4   3  17 1827.79 335.893   6
  -4   3  16-97.7880 119.164   6
  -4   3  15 32.0741 81.8696   6
  -4   3  14 1263.35 258.797   6
  -4   3  13 558.103 176.619   6
  -4   3  12 53.9625 104.112   6
  -4   3  11 713.163 106.418   2
  -4   3  11 788.345 196.766   6
  -4   3  10 4638.89 256.943   2
  -4   3  10 5213.12 439.183   6
  -4   3   9-7.56033 17.8621   2
  -4   3   9-27.2509 58.4734   6
  -4   3   8 2541.17 159.126   2
  -4   3   8 2398.05 285.410   6
  -4   3   7 1060.18 185.444   6
  -4   3   6 161.259 89.8886   6
  -4   3   5 4939.95 362.209   6
   4  -3  -4 8029.13 455.819   3
  -4   3   4 7529.69 427.267   6
  -4   3   3 15789.1 588.455   6
   4  -3  -3 15245.0 606.329   3
   4  -3  -2 9153.97 420.795   6
   4  -3  -2 8556.18 440.473   3
  -4   3   1 11874.2 505.181   3
   4  -3  -1 12069.8 464.369   6
   4  -3  -1 10860.9 491.616   3
  -4   3   0 25611.3 738.066   3
   4  -3   0 24681.6 646.465   6
   4  -3   0 25442.1 745.382   3
   4  -3   1 1284.00 169.819   3
  -4   3  -1 1116.47 158.550   3
   4  -3   2 16056.9 586.852   3
  -4   3  -2 16661.7 613.159   3
  -4   3  -3 6112.89 418.532   5
   4  -3   3 6129.09 360.564   3
  -4   3  -3 6391.53 387.867   3
  -4   3  -4 19.5175 58.4573   5
   4  -3   4 11.2847 45.9291   3
  -4   3  -5 1599.71 228.237   5
   4  -3   5 1540.26 185.920   3
   4  -3   6 2000.73 188.494   6
  -4   3  -6 2036.02 252.867   5
   4  -3   6 2454.58 237.666   3
   4  -3   7 26.7811 41.9952   6
  -4   3  -7 114.182 81.7266   5
   4  -3   8-38.2509 47.5740   6
  -4   3  -8 24.7515 56.4325   5
   4  -3   9 155.308 91.4711   1
   4  -3   9 104.596 50.9791   6
  -4   3  -9 211.517 114.904   5
   4  -3  10-0.51585 59.1400   1
   4  -3  10 8.26373 43.0021   6
   4  -3  11 5294.41 370.833   6
   4  -3  11 5142.97 406.582   1
  -4   3 -11 5506.05 494.622   5
   4  -3  12 3595.00 324.375   6
   4  -3  12 3367.16 336.313   1
  -4   3 -12 3221.58 388.054   5
   4  -3  13 206.808 100.243   6
  -4   3 -13 39.2852 96.7913   5
   4  -3  13 21.3551 60.6685   1
   4  -3  14 30.4609 50.5883   6
  -4   3 -14 230.052 178.882   5
   4  -3  14 33.1322 75.9013   1
   4  -3  15 224.419 117.474   6
   4  -3  15 148.304 101.703   1
   4  -3  16-84.0535 77.6462   6
   4  -3  16 34.2792 74.5078   1
   4  -3  17 28.4355 61.5226   6
   4  -3  17-76.3637 77.1854   1
   4  -3  18 10.6635 60.0712   6
   4  -3  18-54.5327 74.7886   1
  -4   3 -18-58.0104 144.618   5
   4  -3  19 111.373 89.0362   6
  -4   3 -19 187.485 162.443   5
   4  -3  19 196.543 113.806   1
  -4   3 -20 758.355 264.672   5
  -4   3 -21 8.95678 104.332   5
  -4   2  21 823.161 249.049   6
  -4   2  20 1533.58 329.623   6
  -4   2  19 194.790 151.754   6
  -4   2  18 253.431 124.477   6
  -4   2  17-9.72952 119.734   6
  -4   2  16 4663.85 512.893   6
  -4   2  15 781.500 205.222   6
  -4   2  14 1294.81 258.553   6
  -4   2  13 940.318 219.676   6
  -4   2  12 2277.37 307.991   6
  -4   2  11 2978.01 343.732   6
  -4   2  10 934.332 184.747   6
  -4   2  10 969.619 133.999   2
   4  -2 -10 989.508 111.579   1
   4  -2  -9 84.2909 34.3826   1
  -4   2   9 148.514 54.7581   2
  -4   2   9 106.164 100.782   6
  -4   2   8 5189.36 273.153   2
  -4   2   8 4865.41 384.075   6
   4  -2  -8 5026.20 255.225   1
  -4   2   7 3995.34 335.095   6
  -4   2   7 3852.32 217.154   2
   4  -2  -7 3491.54 212.287   1
  -4   2   6 864.829 147.359   6
  -4   2   5 2909.14 258.956   6
   4  -2  -4 6965.54 209.816   2
  -4   2   4 7018.37 381.822   6
   4  -2  -3 16357.0 344.645   2
  -4   2   3 16944.8 564.247   6
   4  -2  -3 16813.2 540.432   6
   4  -2  -2 602.274 108.774   3
   4  -2  -2 773.115 112.933   6
  -4   2   2 652.200 112.805   6
   4  -2  -1 100.127 57.5588   3
   4  -2  -1 96.4195 39.9846   6
  -4   2   0 4606.66 276.153   3
   4  -2   0 4521.05 276.692   3
   4  -2   0 4409.56 242.314   6
   4  -2   1 80.7870 48.1629   3
  -4   2  -1 61.5970 23.6333   3
   4  -2   1 79.5110 36.4946   6
  -4   2  -2 5116.85 292.380   3
   4  -2   2 5147.89 289.376   3
  -4   2  -3 27873.3 847.448   5
   4  -2   3 29085.8 682.653   3
  -4   2  -3 29672.7 728.626   3
  -4   2  -4 628.008 110.612   3
  -4   2  -4 551.425 128.569   5
   4  -2   4 712.824 110.888   3
   4  -2   5 2965.57 189.431   6
  -4   2  -5 3268.32 299.466   5
   4  -2   5 3028.63 228.269   3
  -4   2  -5 3173.99 254.535   3
   4  -2   6 11552.4 388.656   6
  -4   2  -6 11706.6 574.175   5
  -4   2  -6 11961.5 511.403   3
   4  -2   7 2428.62 186.815   6
  -4   2  -7 2377.22 275.438   5
   4  -2   7 2364.63 249.381   1
   4  -2   8-32.3513 42.1090   6
  -4   2  -8 30.1138 65.1770   5
   4  -2   8 51.3860 56.5505   1
  -4   2  -9 892.229 180.540   5
   4  -2   9 1151.03 147.320   6
   4  -2   9 1137.88 183.662   1
   4  -2  10 162.490 68.6853   6
   4  -2  10 90.3147 71.8291   1
  -4   2 -10 184.384 109.163   5
   4  -2  11 474.498 130.492   1
   4  -2  11 625.088 124.545   6
  -4   2 -11 689.777 179.180   5
   4  -2  12 10511.2 514.179   6
  -4   2 -12 11418.8 700.649   5
   4  -2  12 11452.1 596.068   1
  -4   2 -13 870.290 207.388   5
   4  -2  13 711.982 166.118   1
   4  -2  13 870.174 159.608   6
   4  -2  14 4737.50 398.619   1
   4  -2  14 4454.67 373.144   6
   4  -2  15 344.210 106.707   6
   4  -2  15 238.131 99.0184   1
   4  -2  16 14.6771 55.2394   6
   4  -2  16 208.618 100.371   1
   4  -2  17 13.6258 54.9692   6
   4  -2  17-8.28680 63.1442   1
   4  -2  18-14.4811 64.5976   6
   4  -2  18 132.908 81.5101   1
   4  -2  19 202.969 96.4541   1
   4  -2  19 331.578 136.829   6
  -4   2 -20 103.972 116.861   5
   4  -2  20-42.2471 55.0442   1
  -4   2 -21 367.211 188.425   5
  -4   1  21 99.4153 144.580   6
  -4   1  20 251.693 160.580   6
  -4   1  19 1509.72 323.375   6
  -4   1  18 3788.06 497.038   6
  -4   1  17-75.0703 113.437   6
   4  -1 -17 109.101 68.2785   4
  -4   1  16 245.634 133.520   6
   4  -1 -16 37.8855 50.9302   4
  -4   1  15 1595.15 289.570   6
  -4   1  14 297.928 123.897   6
  -4   1  13-117.016 106.643   6
  -4   1  12 2380.16 313.733   6
   4  -1 -12 2513.09 163.401   1
  -4   1  11 504.617 145.396   6
   4  -1 -11 707.972 84.4098   1
  -4   1  10 1548.67 234.324   6
   4  -1 -10 1501.26 116.078   1
  -4   1   9 213.960 101.197   6
   4  -1  -9 173.010 42.0649   1
  -4   1   8 7484.64 371.651   2
   4  -1  -8 7459.24 263.428   1
  -4   1   8 7284.31 453.467   6
  -4   1   7 401.246 116.014   6
   4  -1  -7 461.430 69.8774   1
  -4   1   7 488.773 88.3421   2
  -4   1   6 34508.0 720.118   2
  -4   1   6 32921.2 875.080   6
  -4   1   5 12563.5 511.386   6
   4  -1  -4 1438.42 121.493   2
  -4   1   4 1587.79 174.397   6
  -4   1   3 15104.8 497.261   6
   4  -1  -3 14885.6 394.810   2
   4  -1  -3 14927.0 482.900   6
  -4   1   2 32827.8 692.917   6
   4  -1  -2 33697.2 664.666   6
   4  -1  -1 2413.77 182.473   3
   4  -1  -1 2211.03 157.515   6
  -4   1   1 2043.97 161.541   6
   4  -1   0 534.107 72.2571   6
   4  -1   0 678.036 93.2386   3
  -4   1   0 630.235 82.4460   6
  -4   1  -1 4360.39 221.174   3
   4  -1   1 4393.47 183.328   6
   4  -1   1 4381.32 226.826   3
   4  -1   2 4677.54 229.632   3
  -4   1  -2 4288.98 221.130   3
   4  -1   2 4054.15 165.322   6
   4  -1   3 4666.47 225.595   3
  -4   1  -3 5070.46 248.252   3
   4  -1   4 32334.9 443.574   6
  -4   1  -4 32406.9 887.476   5
   4  -1   4 32894.6 608.904   3
  -4   1  -4 32461.4 668.716   3
  -4   1  -5 5595.69 378.640   5
   4  -1   5 5701.84 349.839   1
  -4   1  -5 5684.25 293.479   3
   4  -1   5 5676.47 198.764   6
  -4   1  -6 174.731 80.2397   5
   4  -1   6 184.050 50.9232   1
  -4   1  -6 190.503 60.6672   3
   4  -1   6 205.452 46.3804   6
   4  -1   7 91.7285 41.7825   6
  -4   1  -7 103.227 69.3966   5
   4  -1   7-19.5000 50.1631   1
  -4   1  -7 139.973 57.7460   3
   4  -1   8 14242.1 594.730   1
  -4   1  -8 13653.1 625.365   5
   4  -1   8 13435.6 415.991   6
   4  -1   8 13366.9 299.105   4
   4  -1   9 8761.57 481.275   1
  -4   1  -9 9028.25 527.883   5
   4  -1   9 7808.06 180.908   4
   4  -1   9 8506.03 360.871   6
  -4   1 -10 1409.75 220.736   5
   4  -1  10 1665.74 211.570   1
   4  -1  10 1603.38 170.064   6
  -4   1 -11 1118.00 213.602   5
   4  -1  11 1045.34 148.451   6
   4  -1  11 1304.91 198.537   1
   4  -1  12 149.915 67.9616   6
   4  -1  12 71.7759 53.1952   1
   4  -1  13 706.007 142.736   6
  -4   1 -13 970.676 212.915   5
   4  -1  13 926.915 175.595   1
   4  -1  14 10810.4 587.760   1
   4  -1  14 11222.5 569.255   6
   4  -1  15 1253.80 204.277   6
   4  -1  15 1645.88 233.955   1
   4  -1  16-4.36298 51.8459   6
   4  -1  16 99.7448 85.9306   1
   4  -1  17 720.548 164.556   1
   4  -1  17 994.865 192.836   6
   4  -1  18 170.442 91.9682   6
   4  -1  18 334.326 125.321   1
   4  -1  19 66.1110 75.0558   6
   4  -1  19 103.972 94.8284   1
   4  -1  20 167.862 103.691   1
   4  -1  21 50.6361 57.8133   1
  -4   1 -21-19.4298 129.636   5
  -4   1 -22 675.979 254.624   5
  -4   0  21-19.8316 100.991   6
  -4   0  20 531.161 198.713   6
  -4   0  19-41.6400 102.885   6
  -4   0  18 90.2452 108.501   6
  -4   0  17 994.910 255.347   6
   4   0 -17 884.760 174.150   4
  -4   0  16 2398.55 364.119   6
   4   0 -16 2371.74 278.926   4
  -4   0  15 369.114 145.693   6
   4   0 -15 249.774 99.1854   4
  -4   0  14 2559.30 353.923   6
   4   0 -14 2499.19 278.198   4
   4   0 -13 6331.09 434.854   4
  -4   0  13 5821.12 504.560   6
  -4   0  12-3.83219 88.1481   6
   4   0 -12-76.6978 92.1951   4
   4   0 -11 3147.61 147.596   1
  -4   0  11 3417.80 367.100   6
  -4   0  10 554.970 145.446   6
   4   0 -10 487.526 55.7648   1
   4   0  -9 1717.52 97.5818   1
  -4   0   9 2043.31 253.317   6
  -4   0   8 40.4508 53.6942   6
   4   0  -8 177.450 31.8858   1
  -4   0   7 2501.21 229.172   2
  -4   0   7 2473.24 255.634   6
   4   0  -7 2641.90 127.288   1
  -4   0   6 24882.6 690.858   2
  -4   0   6 24087.3 742.103   6
  -4   0   5 11760.8 491.234   6
  -4   0   5 11766.2 457.770   2
   4   0  -4 2505.48 187.308   2
  -4   0   4 1993.49 192.136   6
   4   0  -3 32562.3 697.999   6
   4   0  -3 31885.6 668.425   2
  -4   0   3 31666.3 697.410   6
   4   0  -2 4821.92 247.507   6
  -4   0   2 4998.65 257.354   6
  -4   0   1 80098.0 924.873   6
   4   0  -1 80253.7 904.396   6
   4   0   0 28764.2 475.436   6
  -4   0   0 28991.4 495.435   6
   4   0   1 21153.0 336.170   6
  -4   0  -1 20741.9 353.895   6
   4   0   1 21425.3 393.662   3
   4   0   2 11957.9 437.348   1
   4   0   2 11830.0 263.200   3
   4   0   3 558.253 97.7606   1
   4   0   3 551.784 54.8644   3
  -4   0  -3 588.065 63.8503   3
   4   0   4 2186.82 208.596   5
   4   0   4 2060.02 200.838   1
  -4   0  -4 2130.95 136.717   3
  -4   0  -5 1317.07 172.908   5
   4   0   5 1211.42 117.048   4
  -4   0  -5 1110.46 107.365   3
   4   0   5 1309.79 165.564   1
   4   0   6 30005.8 792.347   1
  -4   0  -6 31342.2 870.787   5
   4   0   6 30105.4 529.969   4
  -4   0  -6 30198.4 605.553   3
   4   0   6 30071.5 428.203   6
   4   0   7 4631.74 321.525   1
   4   0   7 4946.65 206.677   6
  -4   0  -7 5249.88 364.975   5
   4   0   7 4288.33 185.395   4
  -4   0  -7 4770.06 262.967   3
  -4   0  -8 978.861 160.017   5
  -4   0  -8 916.628 105.797   6
   4   0   8 941.646 154.407   1
  -4   0  -8 973.014 128.873   3
   4   0   8 1100.94 110.962   6
   4   0   9-40.8630 37.2561   6
  -4   0  -9 39.5518 61.6853   5
   4   0   9 52.5420 75.4319   1
  -4   0  -9 22.2767 23.7677   6
  -4   0 -10 2749.85 218.970   6
  -4   0 -10 2739.42 285.199   5
   4   0  10 2613.70 262.686   1
   4   0  10 2702.16 211.886   6
  -4   0 -11 9677.09 552.168   5
   4   0  11 10168.7 523.742   1
   4   0  11 9868.89 434.992   6
  -4   0 -12 854.040 175.347   5
   4   0  12 794.196 151.941   1
   4   0  12 800.461 132.761   6
   4   0  13 489.315 109.238   6
  -4   0 -13 436.184 135.250   5
   4   0  13 350.590 116.567   1
  -4   0 -14 3781.23 391.935   5
   4   0  14 3512.49 329.355   1
   4   0  14 3582.17 316.691   6
   4   0  15 1059.49 182.005   6
   4   0  15 870.681 175.954   1
   4   0  16 539.336 144.211   6
   4   0  16 410.649 125.330   1
   4   0  17 1172.72 211.537   6
   4   0  17 1277.94 216.236   1
   4   0  18 468.844 144.973   6
   4   0  18 189.615 85.6161   1
   4   0  19 1350.58 225.298   1
   4   0  19 1431.38 254.444   6
   4   0  20 520.849 160.511   6
   4   0  20 394.460 134.721   1
   4   0  21-25.3358 59.6659   1
  -4   0 -21 97.1898 102.546   5
  -4   0 -22 533.374 226.440   5
  -4   0 -23 152.116 152.090   5
  -4  -1  20 845.216 258.724   6
  -4  -1  19-40.9528 79.8537   6
  -4  -1  18 883.554 266.181   6
  -4  -1  17-182.022 126.339   6
   4   1 -16 11.0183 63.3414   4
  -4  -1  16-10.1302 128.140   6
  -4  -1  15 2055.64 333.373   6
   4   1 -15 2416.12 274.445   4
  -4  -1  14 2022.54 316.741   6
   4   1 -14 2138.16 255.503   4
  -4  -1  13 2007.51 306.589   6
   4   1 -13 2242.55 260.969   4
  -4  -1  12 3257.50 365.869   6
   4   1 -12 3320.52 306.139   4
  -4  -1  11 259.002 89.6285   6
   4   1 -11 147.645 79.2663   4
  -4  -1  10 636.158 161.411   6
  -4  -1   9 2510.03 287.235   6
  -4  -1   8 183.393 91.8012   6
  -4  -1   7 4917.14 357.578   6
  -4  -1   6-6.99936 51.6988   6
   4   1  -5 12225.2 245.131   1
   4   1  -5 13361.8 480.879   2
  -4  -1   5 12409.5 507.131   6
  -4  -1   4 23717.7 659.734   6
   4   1  -4 23570.0 385.687   1
   4   1  -4 24164.9 646.087   2
  -4  -1   3 386.252 81.4169   6
   4   1  -3 489.304 90.7386   6
   4   1  -3 596.761 70.3048   1
   4   1  -3 560.098 100.682   2
   4   1  -2 6467.17 242.311   1
   4   1  -2 6588.16 340.657   2
   4   1  -2 7135.98 315.693   6
  -4  -1   2 6631.40 296.568   6
   4   1  -1 5837.11 261.103   6
   4   1  -1 5577.45 241.415   1
  -4  -1   1 5712.14 252.445   6
   4   1   0 2103.60 140.193   6
   4   1   0 2181.68 162.120   1
  -4  -1   0 2277.33 139.718   6
  -4  -1  -1 4481.49 165.293   6
   4   1   1 3909.65 226.194   1
   4   1   1 4027.38 166.746   6
   4   1   2 16746.2 488.466   1
  -4  -1  -2 15793.7 243.285   6
   4   1   2 15719.2 479.437   4
   4   1   3 14201.5 433.786   4
   4   1   3 13400.9 498.085   5
   4   1   3 13781.1 463.211   1
   4   1   4 4697.75 291.929   5
   4   1   4 4293.13 229.800   4
   4   1   4 4647.20 282.879   1
   4   1   5 993.215 109.263   4
   4   1   5 842.427 126.559   1
   4   1   5 995.054 134.312   5
  -4  -1  -5 927.398 75.9357   3
  -4  -1  -6 3173.24 127.119   6
  -4  -1  -6 3678.60 284.780   5
   4   1   6 3386.66 185.450   4
  -4  -1  -6 3340.41 169.399   3
   4   1   6 3100.70 136.666   6
   4   1   6 3509.83 266.850   1
  -4  -1  -7 3681.88 166.738   6
  -4  -1  -7 3859.93 301.121   5
   4   1   7 4021.14 295.685   1
   4   1   7 3996.15 186.373   6
  -4  -1  -8 29800.4 543.215   6
  -4  -1  -8 30805.7 857.276   5
   4   1   8 30506.1 821.667   1
   4   1   8 30698.1 584.943   6
  -4  -1  -9 4188.88 229.155   6
  -4  -1  -9 3871.15 315.814   5
   4   1   9 4028.41 310.255   1
   4   1   9 4131.82 239.243   6
  -4  -1 -10 1061.19 127.973   6
   4   1  10 1090.11 168.717   1
  -4  -1 -10 689.738 141.462   5
   4   1  10 1042.80 138.331   6
   4   1  11 1168.88 151.675   6
  -4  -1 -11 1259.39 151.715   6
   4   1  11 1271.86 188.605   1
  -4  -1 -11 1249.22 196.221   5
  -4  -1 -12 7.82984 48.9043   5
   4   1  12 27.0953 57.1103   1
   4   1  12-21.6794 57.9918   6
   4   1  13 1077.55 167.171   6
  -4  -1 -13 1025.79 195.451   5
   4   1  13 887.837 160.507   1
   4   1  14-31.1878 61.3137   6
  -4  -1 -14 80.1564 73.0490   5
   4   1  14 74.0493 73.0819   1
  -4  -1 -15 558.334 154.309   5
   4   1  15 512.220 134.330   1
   4   1  15 517.866 130.020   6
   4   1  16 9.28982 58.8159   6
   4   1  16 130.465 78.0003   1
  -4  -1 -16 124.532 97.1010   5
   4   1  17 161.371 88.3569   6
   4   1  17 279.191 112.666   1
   4   1  18-40.4458 48.5811   1
   4   1  18-77.7356 96.4261   6
   4   1  19 1606.91 243.903   1
   4   1  19 1479.47 260.573   6
  -4  -1 -20 487.368 186.466   5
   4   1  20 261.485 105.640   1
   4   1  20 233.927 118.807   6
  -4  -1 -21 628.704 206.688   5
   4   1  21 460.544 146.802   1
  -4  -1 -22 8.64532 82.0079   5
   4   1  22 53.5877 72.7105   1
  -4  -1 -23 92.8755 145.502   5
  -4  -2  20 47.2651 94.8985   6
  -4  -2  19 717.830 227.882   6
  -4  -2  18 148.305 103.866   6
  -4  -2  17 239.398 139.114   6
  -4  -2  16-12.7880 82.7960   6
   4   2 -15 174.416 82.3765   4
  -4  -2  15-150.228 127.538   6
  -4  -2  14-138.042 115.970   6
   4   2 -14 44.2472 65.9279   4
  -4  -2  13 300.122 121.444   6
   4   2 -13 188.339 91.2688   4
  -4  -2  12 2327.14 322.517   6
   4   2 -12 2283.48 257.294   4
   4   2 -11 4807.79 362.072   4
  -4  -2  11 6476.92 505.392   6
   4   2 -10 2639.68 266.021   4
  -4  -2  10 2572.68 307.465   6
  -4  -2   9 4337.36 383.361   6
  -4  -2   8 10987.0 576.229   6
  -4  -2   7 4402.30 350.809   6
  -4  -2   6 2286.56 237.134   6
  -4  -2   5 1427.39 179.862   6
   4   2  -5 1590.55 183.308   2
  -4  -2   4 612.413 116.230   6
   4   2  -4 549.844 46.9245   1
   4   2  -4 707.587 127.840   2
  -4  -2   3 251.647 83.5777   6
   4   2  -3 129.078 28.9498   1
   4   2  -3 150.172 64.8206   2
   4   2  -2 39495.4 810.866   6
   4   2  -2 38744.0 899.340   2
   4   2  -2 38361.9 532.604   1
  -4  -2   2 39564.9 780.037   6
   4   2  -1 11884.4 416.163   6
  -4  -2   1 12338.7 403.446   6
   4   2  -1 11878.5 496.986   2
   4   2  -1 11964.9 325.956   1
  -4  -2   0 8130.97 312.870   1
  -4  -2   0 7852.53 297.252   6
   4   2   0 8065.12 267.232   3
   4   2   0 8006.49 289.146   1
  -4  -2  -1 15247.3 375.049   6
   4   2   1 14929.7 317.462   3
   4   2   1 15031.6 422.304   1
  -4  -2  -1 15472.3 455.814   1
  -4  -2  -2 29230.4 658.031   1
  -4  -2  -2 27782.5 454.189   6
  -4  -2  -2 26807.1 665.680   4
   4   2   2 28187.4 612.191   1
  -4  -2  -3 34.0127 25.8841   4
   4   2   3 56.9511 45.9712   4
   4   2   3 71.6603 39.1718   1
   4   2   4 1540.67 162.977   5
  -4  -2  -4 1421.06 145.542   4
   4   2   4 1367.90 151.504   1
  -4  -2  -5 12543.4 260.383   3
   4   2   5 13168.8 465.099   5
  -4  -2  -5 13043.9 426.575   4
   4   2   5 13327.1 480.045   1
  -4  -2  -5 12869.0 270.095   6
  -4  -2  -6-4.23175 15.0648   6
   4   2   6 41.7433 39.7075   5
  -4  -2  -6-2.23130 33.2094   4
   4   2   6-27.1060 53.0078   1
  -4  -2  -7 19.7810 18.5811   6
  -4  -2  -7-18.6163 53.0841   5
  -4  -2  -7 5.44838 24.0667   4
   4   2   7 11.2612 62.9280   1
  -4  -2  -8 1973.31 150.947   4
  -4  -2  -8 2162.63 220.519   5
   4   2   8 2246.82 222.121   1
   4   2   8 1930.94 157.848   6
  -4  -2  -8 2087.04 146.950   6
  -4  -2  -9 492.186 80.0120   6
  -4  -2  -9 364.679 98.4076   5
   4   2   9 521.988 115.513   1
   4   2   9 671.820 104.258   6
  -4  -2 -10 320.860 71.1198   6
   4   2  10 475.868 123.079   1
  -4  -2 -10 449.927 116.035   5
   4   2  10 362.400 85.9288   6
  -4  -2 -11 13190.8 476.142   6
  -4  -2 -11 13741.5 605.540   5
   4   2  11 13450.3 582.908   1
   4   2  11 15133.7 554.879   6
  -4  -2 -12 4989.02 378.281   5
   4   2  12 5107.61 373.785   1
   4   2  12 4831.46 333.225   6
   4   2  13 40.8140 66.9057   1
  -4  -2 -13 20.9713 47.6440   5
   4   2  13-64.6022 79.5974   6
   4   2  14 365.685 106.165   6
   4   2  14 394.444 120.885   1
  -4  -2 -14 262.039 108.883   5
   4   2  15 1014.66 183.646   1
  -4  -2 -15 1155.85 205.279   5
   4   2  15 790.614 165.391   6
   4   2  16 894.749 177.983   1
  -4  -2 -16 743.045 180.226   5
   4   2  16 543.826 134.118   6
   4   2  17 543.741 134.219   1
  -4  -2 -17 557.971 169.301   5
   4   2  17 289.036 99.2168   6
   4   2  18-84.3282 88.0843   1
   4   2  18-87.6347 100.570   6
  -4  -2 -18 140.171 116.229   5
  -4  -2 -19 162.182 118.049   5
   4   2  19 12.7644 56.4942   1
   4   2  19-25.5296 67.6200   6
  -4  -2 -20-79.4653 96.6587   5
   4   2  20 51.3771 78.5480   1
   4   2  20-19.5037 52.8774   6
  -4  -2 -21 449.250 171.266   5
   4   2  21 108.405 74.6154   1
  -4  -2 -22 876.766 247.438   5
   4   2  22 806.028 185.111   1
  -4  -2 -23 0.65420 70.0852   5
   4   2  23-169.580 97.4633   1
  -4  -3  19 411.657 178.168   6
  -4  -3  18 3.28845 89.0739   6
  -4  -3  17 3.29203 79.1234   6
  -4  -3  16 268.788 138.061   6
  -4  -3  15 472.343 197.872   6
  -4  -3  14 303.284 149.862   6
  -4  -3  13 656.203 197.494   6
  -4  -3  12 1880.75 292.264   6
   4   3 -11 4898.21 368.342   4
  -4  -3  11 4370.99 424.382   6
  -4  -3  10 109.875 93.1788   6
   4   3 -10 181.304 86.7283   4
  -4  -3   9 957.153 182.899   6
   4   3  -9 832.583 150.432   4
  -4  -3   8 1119.45 199.257   6
  -4  -3   7 5450.29 400.649   6
  -4  -3   6 8088.59 473.582   6
  -4  -3   5 1298.58 181.369   6
   4   3  -5 1311.01 184.809   2
  -4  -3   4 7886.54 425.973   6
   4   3  -4 7541.70 428.197   2
   4   3  -4 7404.35 179.608   1
  -4  -3   3 22968.2 685.325   6
  -4  -3   3 21631.5 397.587   1
   4   3  -3 21490.1 723.486   2
   4   3  -3 21986.2 351.371   1
  -4  -3   2 188.675 41.3641   1
  -4  -3   2 287.582 80.6419   6
   4   3  -2 221.252 79.5085   2
   4   3  -2 230.586 63.1627   3
   4   3  -2 188.378 36.6748   1
   4   3  -1 438.504 64.0587   1
  -4  -3   1 658.470 108.591   6
  -4  -3   1 335.351 60.6173   1
   4   3  -1 481.808 85.2389   3
   4   3  -1 399.376 105.093   2
   4   3   0 64.9874 33.9002   1
  -4  -3   0 35.6842 27.2952   1
  -4  -3   0 26.1214 32.6196   6
   4   3   0 72.2999 34.9128   3
  -4  -3  -1 56375.4 868.437   1
  -4  -3  -1 57329.3 874.364   6
   4   3   1 58405.1 810.341   1
   4   3   1 57312.4 809.685   3
   4   3   2 594.346 95.2206   1
  -4  -3  -2 472.391 86.7395   1
   4   3   2 496.672 71.8712   3
   4   3   3 3969.08 239.927   1
  -4  -3  -3 4184.04 160.085   3
   4   3   3 3769.68 167.379   3
   4   3   4 837.383 116.234   1
  -4  -3  -4 961.031 81.1932   3
   4   3   5 13755.5 451.596   5
   4   3   5 14008.8 485.402   1
  -4  -3  -5 13531.9 465.164   4
  -4  -3  -5 13539.3 334.777   3
  -4  -3  -5 13805.7 381.748   6
  -4  -3  -6 432.289 68.2824   3
   4   3   6 296.907 66.9945   5
   4   3   6 525.367 106.300   1
  -4  -3  -6 351.869 74.4875   4
  -4  -3  -6 394.416 67.6311   6
  -4  -3  -7 2551.81 180.795   3
   4   3   7 3043.48 246.826   1
  -4  -3  -7 2812.69 205.099   4
  -4  -3  -7 2703.81 175.509   6
  -4  -3  -8 5394.46 325.055   5
  -4  -3  -8 5263.87 271.325   4
   4   3   8 5607.01 346.287   1
  -4  -3  -8 5567.82 264.450   6
  -4  -3  -9 7.26247 28.0213   6
   4   3   9 10.5346 59.1154   1
  -4  -3  -9-34.5505 47.6658   5
  -4  -3  -9 56.6914 29.1989   4
  -4  -3 -10 821.699 116.632   6
   4   3  10 1106.96 167.705   1
  -4  -3 -10 866.106 105.235   4
  -4  -3 -10 842.511 143.880   5
  -4  -3 -11 6826.17 411.100   5
   4   3  11 6875.29 415.255   1
  -4  -3 -11 6702.89 281.777   4
   4   3  11 6779.51 394.677   6
   4   3  12 77.1658 66.8778   1
  -4  -3 -12 164.069 70.4044   5
  -4  -3 -12 101.281 40.8792   4
   4   3  12 150.927 65.2065   6
   4   3  13 5022.50 373.811   1
  -4  -3 -13 4842.58 375.886   5
  -4  -3 -13 4156.32 202.889   4
   4   3  13 4528.02 360.557   6
   4   3  14 3033.60 305.762   1
  -4  -3 -14 2920.88 303.504   5
   4   3  14 3396.46 328.068   6
   4   3  15 654.811 164.513   1
  -4  -3 -15 483.307 135.715   5
   4   3  15 504.787 138.417   6
   4   3  16 735.369 166.230   1
  -4  -3 -16 684.538 166.570   5
   4   3  16 959.393 188.005   6
  -4  -3 -17 134.707 94.8777   5
   4   3  17-64.4457 88.3208   6
   4   3  17-38.9692 56.7829   1
  -4  -3 -18 515.627 147.879   5
   4   3  18 517.438 154.261   6
   4   3  18 322.025 106.454   1
  -4  -3 -19 145.714 81.6252   5
   4   3  19 62.9185 69.0440   1
   4   3  19 39.7612 79.2392   6
   4   3  20 13.2968 96.0279   6
  -4  -3 -20-30.5369 62.7470   5
   4   3  20-49.3435 79.1835   1
  -4  -3 -21 105.376 90.4180   5
   4   3  21 188.806 106.177   1
   4   3  22 86.0993 87.2222   1
   4   3  23 75.7359 89.1449   1
  -4  -4  18 66.9702 99.8834   6
  -4  -4  17 677.026 221.062   6
  -4  -4  16 813.107 222.409   6
  -4  -4  15-68.9094 104.226   6
  -4  -4  14 522.977 177.555   6
  -4  -4  13 4227.35 460.090   6
  -4  -4  12 471.190 157.325   6
  -4  -4  11-62.6277 116.342   6
  -4  -4  10 367.856 139.206   6
  -4  -4   9 867.333 190.669   6
  -4  -4   8 1206.84 203.667   6
  -4  -4   7 5752.51 433.794   6
  -4  -4   6 5229.68 397.626   6
  -4  -4   5 2566.64 103.438   1
   4   4  -5 3158.05 301.982   2
  -4  -4   5 3175.41 305.724   6
  -4  -4   4 1690.26 219.686   6
   4   4  -4 1674.80 217.387   2
  -4  -4   4 1810.49 106.913   1
  -4  -4   3 28869.8 829.369   6
   4   4  -3 28021.0 886.264   2
  -4  -4   3 27456.6 472.964   1
   4   4  -3 27642.1 463.579   1
  -4  -4   2 348.721 101.928   6
   4   4  -2 297.896 51.2798   1
   4   4  -2 286.597 105.128   2
  -4  -4   2 256.053 51.9501   1
  -4  -4   1 9072.67 429.459   6
   4   4  -1 10055.2 531.166   2
   4   4  -1 8849.73 294.895   1
   4   4  -1 9206.99 430.442   3
  -4  -4   1 9063.37 315.350   1
   4   4   0 4639.80 226.857   1
   4   4   0 4837.06 368.177   2
   4   4   0 4345.83 283.496   3
  -4  -4   0 4547.04 236.245   1
  -4  -4   0 4151.27 281.007   6
  -4  -4  -1 628.691 93.7636   3
   4   4   1 606.456 89.1212   1
  -4  -4  -1 559.200 90.0838   1
   4   4   1 436.394 86.7407   3
   4   4   2 34527.9 674.733   1
  -4  -4  -2 33960.2 627.595   3
   4   4   2 32614.0 698.232   3
   4   4   3 17110.8 498.466   1
  -4  -4  -3 17144.4 442.854   3
   4   4   3 17255.5 478.613   3
   4   4   4 218.897 68.9604   1
   4   4   4 467.454 81.8195   3
  -4  -4  -4 623.926 95.3634   3
   4   4   5 5608.48 310.775   1
   4   4   5 5772.84 276.878   5
  -4  -4  -5 5478.03 265.039   3
   4   4   6 4033.68 221.994   5
   4   4   6 4024.65 275.090   1
  -4  -4  -6 3765.53 230.088   3
  -4  -4  -6 3519.63 233.704   6
   4   4   7 2398.69 221.714   1
  -4  -4  -7 2049.06 178.016   6
  -4  -4  -7 2099.07 183.902   3
  -4  -4  -8 74.2575 45.5090   3
   4   4   8-24.2891 54.4175   1
  -4  -4  -8 28.7358 28.9966   6
   4   4   9 1589.82 193.686   1
  -4  -4  -9 1194.62 142.276   6
  -4  -4  -9 1775.51 193.182   3
   4   4  10 538.468 114.738   1
  -4  -4 -10 468.135 97.8286   5
  -4  -4 -10 557.530 97.5095   4
  -4  -4 -11 29.6753 46.5040   5
   4   4  11-91.1959 87.3520   1
  -4  -4 -11 23.4335 34.3167   4
   4   4  12-19.9119 71.3365   1
  -4  -4 -12 161.504 71.2938   5
  -4  -4 -12 98.3015 45.0224   4
  -4  -4 -13 1241.64 186.682   5
   4   4  13 1080.22 173.189   1
   4   4  14 79.5672 68.8572   6
  -4  -4 -14 81.2104 68.3811   5
   4   4  14-92.3546 107.939   1
  -4  -4 -15 631.799 146.567   5
   4   4  15 267.853 105.214   6
   4   4  15 654.928 153.983   1
  -4  -4 -16 5628.34 434.785   5
   4   4  16 5459.86 467.247   6
   4   4  16 6097.85 450.211   1
  -4  -4 -17 1879.45 261.143   5
   4   4  17 2010.15 269.796   1
   4   4  17 2142.16 311.888   6
  -4  -4 -18 566.949 153.016   5
   4   4  18 491.942 144.564   1
   4   4  18 524.205 165.623   6
  -4  -4 -19 952.709 199.608   5
   4   4  19 1316.08 226.784   1
   4   4  19 814.284 199.695   6
   4   4  20 813.749 187.886   1
   4   4  20 864.268 207.190   6
   4   4  21 252.249 101.383   1
   4   4  22 100.822 73.6939   1
   4   4  23 56.9455 93.6984   1
   4   4  24 236.728 102.972   1
  -4  -5  18 215.569 165.969   6
  -4  -5  17 711.227 219.469   6
  -4  -5  16 988.954 257.586   6
  -4  -5  15 221.617 133.829   6
  -4  -5  14 593.228 202.884   6
  -4  -5  13-9.42179 79.2274   6
  -4  -5  12 4089.28 453.384   6
  -4  -5  11 897.253 219.402   6
  -4  -5  10 19.6098 64.7894   6
  -4  -5   9 2318.40 313.237   6
  -4  -5   8 5396.46 459.424   6
  -4  -5   7 64.7840 64.6859   6
  -4  -5   6 65.9355 17.1074   1
  -4  -5   6 59.2340 60.2540   6
  -4  -5   5 803.188 159.765   6
  -4  -5   5 787.040 72.0122   1
  -4  -5   4 1596.91 114.114   1
   4   5  -4 1551.03 220.692   2
  -4  -5   4 1739.32 228.781   6
  -4  -5   3 85.2063 86.9613   6
   4   5  -3 282.703 92.0765   2
  -4  -5   3 194.894 44.5089   1
  -4  -5   2 947.012 158.165   6
  -4  -5   2 1115.65 111.600   1
   4   5  -2 1250.73 199.766   2
   4   5  -2 887.916 102.565   1
  -4  -5   1 2133.70 231.627   6
  -4  -5   1 1824.27 150.507   1
   4   5  -1 2141.61 265.334   2
   4   5  -1 1998.19 157.233   1
   4   5   0 34465.5 674.688   1
  -4  -5   0 34780.2 685.572   1
   4   5   0 34627.0 1037.08   2
  -4  -5   0 34973.9 803.723   3
   4   5   1 3124.75 209.025   1
   4   5   1 3283.31 325.015   2
  -4  -5  -1 2795.34 221.555   3
   4   5   1 2908.83 255.348   3
   4   5   2 15.7367 21.4963   3
   4   5   2 6.39820 37.3296   1
  -4  -5  -2 85.0026 49.5623   3
   4   5   3 689.250 113.969   3
   4   5   3 709.736 110.275   1
  -4  -5  -3 498.140 90.4455   3
  -4  -5  -4 11754.1 444.244   3
   4   5   4 12277.2 458.194   1
   4   5   4 11603.4 453.113   3
   4   5   5 5854.22 317.587   3
   4   5   5 5361.07 315.652   1
  -4  -5  -5 5845.45 318.108   3
  -4  -5  -6 414.539 96.5127   3
   4   5   6 524.290 72.6885   5
   4   5   6 491.152 108.861   1
  -4  -5  -7 777.289 127.127   3
  -4  -5  -7 851.559 133.590   6
   4   5   7 981.456 149.754   1
   4   5   8 6929.30 391.392   1
  -4  -5  -8 6220.35 368.803   3
   4   5   9 4819.76 340.375   1
  -4  -5  -9 5476.86 361.336   3
  -4  -5 -10 200.759 63.1790   3
   4   5  10 220.654 80.5935   1
  -4  -5 -11 1234.04 186.772   3
   4   5  11 1475.25 207.145   1
  -4  -5 -12 161.950 62.0138   5
  -4  -5 -12 162.338 73.0898   3
   4   5  12 269.577 86.4757   1
  -4  -5 -13 2402.73 243.448   5
   4   5  13 1955.04 248.787   1
  -4  -5 -14 119.174 67.0785   5
   4   5  14 169.241 76.8232   1
  -4  -5 -15 3431.52 315.474   5
   4   5  15 3620.16 346.407   1
  -4  -5 -16 1360.93 202.357   5
   4   5  16 963.761 183.012   1
  -4  -5 -17-0.87882 37.7587   5
   4   5  17-29.5979 66.6301   1
   4   5  18 796.736 183.348   1
   4   5  19 1726.42 264.666   1
   4   5  20-57.4110 98.9076   1
   4   5  20 167.657 106.991   6
   4   5  21 28.9268 63.5133   1
   4   5  22 41.3469 78.4774   1
   4   5  23 477.847 165.357   1
   4   5  24 95.2699 85.5012   1
  -4  -6  17 182.522 103.087   6
  -4  -6  16 516.317 186.537   6
  -4  -6  15 175.799 122.453   6
  -4  -6  14 411.300 157.349   6
  -4  -6  13 190.340 111.100   6
  -4  -6  12 554.575 191.852   6
  -4  -6  11 581.571 193.594   6
  -4  -6  10-42.0337 65.8186   6
  -4  -6   9-27.2947 73.0620   6
  -4  -6   8 11802.5 708.668   6
  -4  -6   7 191.257 127.024   6
  -4  -6   6 2666.82 321.194   6
  -4  -6   5 32.5907 82.1895   6
  -4  -6   5 267.128 51.1328   1
  -4  -6   4 10699.4 604.693   6
  -4  -6   4 10916.4 333.474   1
   4   6  -4 11092.2 618.195   2
  -4  -6   3 8174.75 513.149   6
  -4  -6   3 8260.54 308.837   1
   4   6  -3 8210.82 536.169   2
  -4  -6   2 4462.68 373.691   6
  -4  -6   2 4608.59 244.164   1
   4   6  -2 4539.01 399.130   2
   4   6  -1 695.413 102.438   1
   4   6  -1 659.076 151.593   2
  -4  -6   1 1078.79 163.431   3
   4   6   0 767.374 114.700   1
   4   6   0 587.415 139.345   2
  -4  -6   0 575.179 124.945   3
   4   6   1 1384.12 153.626   1
  -4  -6  -1 1443.49 181.165   3
   4   6   1 1428.17 228.686   2
   4   6   2 236.608 73.1792   1
  -4  -6  -2 300.704 91.0832   3
   4   6   2 289.864 100.094   2
  -4  -6  -3 4628.49 316.470   3
   4   6   3 4840.86 301.488   1
  -4  -6  -4 8629.77 437.378   3
   4   6   4 8678.28 450.544   3
   4   6   4 9203.58 422.650   1
   4   6   5 9482.32 461.669   3
  -4  -6  -5 9332.61 455.262   3
   4   6   5 10297.6 458.213   1
   4   6   6 3148.43 158.526   5
   4   6   6 3102.26 263.559   1
  -4  -6  -6 2975.11 263.422   3
   4   6   7 5839.59 365.991   1
  -4  -6  -7 5639.70 371.490   3
   4   6   8 5986.64 380.967   1
  -4  -6  -8 6080.34 397.378   3
   4   6   9 2995.86 279.010   1
  -4  -6  -9 3041.89 291.677   3
  -4  -6 -10 649.383 138.512   3
   4   6  10 651.069 135.094   1
   4   6  11 1925.25 237.705   1
  -4  -6 -11 1806.29 238.021   3
  -4  -6 -12 6338.96 468.312   3
   4   6  12 5662.78 412.289   1
  -4  -6 -13 163.775 84.0444   3
   4   6  13 115.569 93.9102   1
   4   6  14 6588.84 463.728   1
  -4  -6 -14 6083.01 495.022   3
  -4  -6 -14 6513.02 382.894   5
   4   6  15 25.8338 62.8442   1
  -4  -6 -15-87.9814 118.090   3
   4   6  16 135.611 77.3257   1
   4   6  17 962.991 193.958   1
   4   6  18 465.460 130.774   1
   4   6  19-8.72269 86.5332   1
   4   6  20 329.544 139.879   1
   4   6  21 335.837 137.180   1
   4   6  22 552.842 163.969   1
   4   6  23 751.771 201.290   1
   4   6  24 118.649 102.718   1
  -4  -7  16 1527.63 340.806   6
  -4  -7  15 116.199 106.869   6
  -4  -7  14 2517.70 401.227   6
  -4  -7  13 3851.48 483.517   6
  -4  -7  12 418.519 188.119   6
  -4  -7  11 227.095 150.259   6
  -4  -7  10 2078.44 327.682   6
  -4  -7   9 457.770 174.881   6
  -4  -7   8 268.034 134.655   6
  -4  -7   7 1072.68 222.078   6
  -4  -7   6 24932.9 1034.24   6
  -4  -7   5 105.427 80.2549   6
  -4  -7   4 1583.18 257.027   6
   4   7  -4 1778.26 266.949   2
  -4  -7   3 665.841 165.917   6
   4   7  -3 659.831 169.251   2
   4   7  -2 1510.43 246.431   2
  -4  -7   2 1045.29 198.202   6
   4   7  -1 1030.81 215.117   2
  -4  -7   1 998.338 173.414   3
   4   7   0 915.371 133.020   1
   4   7   0 1422.91 235.365   2
  -4  -7   0 1152.43 181.953   3
   4   7   1 1688.27 264.854   2
  -4  -7  -1 1646.49 209.408   3
   4   7   1 1665.64 184.712   1
   4   7   2 535.440 115.774   1
   4   7   2 499.439 150.807   2
  -4  -7  -2 530.537 121.317   3
   4   7   3 1394.94 239.834   2
  -4  -7  -3 1434.82 198.755   3
   4   7   3 1839.83 204.321   1
  -4  -7  -4 2859.54 279.375   3
   4   7   4 3131.47 266.271   1
  -4  -7  -5 8576.52 484.350   3
   4   7   5 8875.00 457.739   1
   4   7   6 4060.32 151.089   5
  -4  -7  -6 4338.72 346.735   3
   4   7   6 4329.99 324.718   1
  -4  -7  -7 83.8348 66.6331   3
   4   7   7 34.4506 53.8588   1
   4   7   8 3114.68 291.640   1
  -4  -7  -8 2824.76 292.387   3
  -4  -7  -9 616.244 151.165   3
   4   7   9 693.306 145.887   1
  -4  -7 -10 1907.76 260.381   3
   4   7  10 1815.72 230.991   1
  -4  -7 -11 172.677 98.9154   3
   4   7  11 84.4677 77.7202   1
  -4  -7 -12 516.213 141.279   3
   4   7  12 829.637 174.494   1
  -4  -7 -13 14346.0 760.467   3
   4   7  13 13951.3 680.316   1
   4   7  14 10654.2 608.366   1
  -4  -7 -14 11597.6 709.154   3
  -4  -7 -15 189.082 107.978   3
   4   7  15 70.1005 80.4092   1
  -4  -7 -16-101.421 85.8828   3
   4   7  16 3.67507 69.0300   1
  -4  -7 -17 635.351 188.193   3
   4   7  17 825.459 189.861   1
  -4  -7 -18 254.462 136.884   3
   4   7  18 124.236 82.5021   1
  -4  -7 -19-19.3569 71.4666   3
   4   7  19-5.55905 80.8687   1
  -4  -7 -20 469.855 176.719   3
   4   7  20 641.444 180.439   1
   4   7  21 116.629 88.9127   1
   4   7  22 136.160 95.3640   1
   4   7  23-47.9125 71.4149   1
  -4  -8  15 2702.05 438.376   6
  -4  -8  14 8680.68 769.992   6
  -4  -8  13 206.597 136.743   6
  -4  -8  12 398.074 172.930   6
  -4  -8  11 782.044 227.316   6
  -4  -8  10 247.273 111.847   6
  -4  -8   9 495.911 187.097   6
  -4  -8   8 440.771 166.567   6
  -4  -8   7 777.546 197.781   6
  -4  -8   6 83.3114 74.0012   6
  -4  -8   5 9522.31 655.905   6
  -4  -8   4 15418.2 818.476   6
   4   8  -3 1114.78 226.598   2
  -4  -8   3 783.238 198.329   6
   4   8  -2-23.9888 72.3624   2
  -4  -8   2-24.5997 76.5427   3
   4   8  -1 335.583 140.245   2
  -4  -8   1 183.618 83.8462   3
   4   8   0 112.233 97.9741   2
  -4  -8   0 141.698 83.1039   3
   4   8   1 889.497 144.853   1
   4   8   1 1226.48 234.301   2
  -4  -8  -1 736.509 158.582   3
  -4  -8  -2 2612.79 288.286   3
   4   8   2 2320.00 316.514   2
   4   8   2 2970.46 269.605   1
   4   8   3 2319.04 246.086   1
  -4  -8  -3 2987.72 306.947   3
   4   8   3 2325.07 320.513   2
   4   8   4 199.938 72.5439   1
  -4  -8  -4 175.507 80.9151   3
   4   8   4 124.055 86.5290   2
  -4  -8  -5 525.716 140.569   3
   4   8   5 342.089 96.0077   1
  -4  -8  -6 4582.38 388.090   3
   4   8   6 5403.47 386.287   1
  -4  -8  -7 1293.09 217.450   3
   4   8   7 1153.97 190.127   1
  -4  -8  -8 599.865 142.014   3
   4   8   8 460.049 130.986   1
   4   8   9 2168.06 260.241   1
  -4  -8  -9 2018.98 276.200   3
  -4  -8 -10-21.9701 75.2301   3
   4   8  10 17.4311 63.9082   1
  -4  -8 -11 2048.51 291.981   3
   4   8  11 1737.60 248.869   1
  -4  -8 -12 372.611 117.432   3
   4   8  12 206.605 103.291   1
   4   8  13 2636.07 315.666   1
  -4  -8 -13 2342.62 325.930   3
  -4  -8 -14 303.515 128.477   3
   4   8  14 346.212 108.320   1
  -4  -8 -15 54.2787 88.7905   3
   4   8  15-2.86373 91.5374   1
  -4  -8 -16 587.660 182.301   3
   4   8  16 285.867 128.877   1
  -4  -8 -17 105.049 59.4015   3
   4   8  17 87.6663 84.4799   1
   4   8  18 999.131 212.801   1
  -4  -8 -18 1034.30 260.741   3
  -4  -8 -19 40.1881 76.2786   3
   4   8  19 17.5879 87.7742   1
   4   8  20 482.436 167.717   1
   4   8  21 22.2125 84.6271   1
   4   8  22 719.948 198.458   1
  -4  -9  13 1801.11 361.248   6
  -4  -9  12 2653.60 427.823   6
  -4  -9  11 1654.67 323.383   6
  -4  -9  10 184.117 141.458   6
  -4  -9   9 290.041 127.351   6
  -4  -9   8 1963.04 333.705   6
  -4  -9   7 427.523 146.809   6
  -4  -9   6-1.21595 98.4968   6
  -4  -9   5 4042.02 453.118   6
  -4  -9   4 1493.33 280.210   6
  -4  -9   3 123.076 83.6480   6
   4   9  -2-22.3850 86.7460   2
  -4  -9   2 88.7243 88.6081   3
   4   9  -1 286.620 142.821   2
  -4  -9   1 374.967 130.382   3
   4   9   0 1747.83 288.634   2
  -4  -9   0 1896.44 274.957   3
  -4  -9  -1 2418.95 302.714   3
   4   9   1 2741.78 373.064   2
  -4  -9  -2 2689.85 323.111   3
   4   9   2 2418.61 334.456   2
   4   9   3 829.463 164.777   1
   4   9   3 716.808 184.875   2
  -4  -9  -3 1001.65 198.758   3
   4   9   4 82.2470 62.4208   1
   4   9   4-4.07962 98.1622   2
  -4  -9  -4 170.601 99.9009   3
   4   9   5-16.6427 57.2578   1
  -4  -9  -5-34.1923 104.823   3
   4   9   6 2457.22 284.943   1
  -4  -9  -6 2527.88 313.810   3
   4   9   6 2301.17 335.114   2
   4   9   7 576.860 134.389   1
  -4  -9  -7 571.919 152.923   3
  -4  -9  -8 12458.4 703.354   3
   4   9   8 11427.3 621.258   1
  -4  -9  -9 122.054 110.483   3
   4   9   9 124.451 72.5378   1
   4   9  10 147.878 92.2476   1
  -4  -9 -10 119.276 98.8688   3
   4   9  11 1192.42 209.767   1
  -4  -9 -11 1101.28 235.939   3
  -4  -9 -12 4513.92 463.210   3
   4   9  12 3971.31 389.900   1
  -4  -9 -13 858.541 217.896   3
   4   9  13 819.709 175.283   1
  -4  -9 -14-82.3079 104.090   3
   4   9  14-211.869 147.119   1
  -4  -9 -15 41.3180 73.1928   3
   4   9  15 88.4277 83.4657   1
  -4  -9 -16 890.913 227.462   3
   4   9  16 1088.40 224.497   1
  -4  -9 -17 64.6978 67.4912   3
   4   9  17-39.4603 106.703   1
  -4  -9 -18 408.551 180.207   3
   4   9  18 163.025 101.283   1
   4   9  19 101.315 92.9957   1
   4   9  20-30.9683 68.2133   1
   4   9  21 111.478 118.420   1
  -4 -10  12-25.7127 105.707   6
  -4 -10  11 185.079 128.143   6
  -4 -10  10 1390.02 307.342   6
  -4 -10   9 931.841 242.543   6
  -4 -10   8-133.835 149.711   6
  -4 -10   7 125.729 108.937   6
  -4 -10   6-6.15705 76.0240   6
  -4 -10   5 37.1268 83.5876   6
  -4 -10   4 168.516 76.6499   6
  -4 -10   3 4766.00 502.202   6
   4  10  -2 684.128 187.345   2
  -4 -10   2 339.766 125.718   3
   4  10  -1 434.811 150.872   2
  -4 -10   1 317.285 138.817   3
   4  10   0 6147.26 546.496   2
  -4 -10   0 6344.03 526.309   3
   4  10   1 4861.10 490.488   2
  -4 -10  -1 4676.30 445.607   3
   4  10   2 2775.12 367.727   2
  -4 -10  -2 3127.03 364.055   3
   4  10   3-1.94660 90.2616   2
  -4 -10  -3 82.5875 104.496   3
  -4 -10  -4 2127.72 299.794   3
   4  10   4 2291.94 338.553   2
   4  10   5-76.9114 100.040   1
   4  10   5 14.4899 83.6358   2
  -4 -10  -5-22.9177 76.0141   3
   4  10   6 718.452 162.633   1
   4  10   6 860.375 210.925   2
  -4 -10  -6 934.482 214.100   3
   4  10   7 766.744 178.255   1
   4  10   7 483.119 148.836   2
  -4 -10  -7 604.219 170.154   3
  -4 -10  -8 7499.55 580.790   3
   4  10   8 7469.08 527.185   1
  -4 -10  -9 280.226 133.795   3
   4  10   9 70.9549 94.7097   1
  -4 -10 -10-51.9268 96.3458   3
   4  10  10 86.8872 100.135   1
  -4 -10 -11 104.799 115.593   3
   4  10  11-62.0103 91.4427   1
  -4 -10 -12 210.157 102.433   3
   4  10  12 116.212 80.4165   1
  -4 -10 -13 171.100 90.4796   3
   4  10  13 104.817 94.6669   1
  -4 -10 -14 444.688 158.847   3
   4  10  14 350.056 141.160   1
  -4 -10 -15-58.8936 98.8536   3
   4  10  15 50.2077 89.9834   1
  -4 -10 -16 113.763 87.7344   3
   4  10  16 173.513 139.738   1
   4  10  17 113.125 79.5456   1
  -4 -10 -17 233.218 131.980   3
   4  10  18 13.4111 84.5769   1
   4  10  19 377.190 168.433   1
   4  10  20 197.862 121.085   1
  -4 -11  10 221.518 115.805   6
  -4 -11   9 40.8380 115.702   6
  -4 -11   8 616.972 208.651   6
  -4 -11   7 2580.12 408.473   6
  -4 -11   6 786.894 235.703   6
  -4 -11   5 450.173 177.524   6
  -4 -11   4 146.577 115.337   6
  -4 -11   3 877.943 232.161   6
  -4 -11   2 78.2167 71.0085   3
   4  11  -1 676.446 199.859   2
  -4 -11   1 424.173 153.077   3
   4  11   0 5658.66 542.767   2
  -4 -11   0 5189.91 500.528   3
   4  11   1 118.791 113.453   2
  -4 -11  -1 117.426 110.622   3
   4  11   2 1657.51 303.788   2
  -4 -11  -2 1630.26 286.582   3
   4  11   3 1689.60 302.848   2
  -4 -11  -3 1929.20 309.957   3
   4  11   4-0.87713 78.2604   2
  -4 -11  -4 104.892 99.1452   3
   4  11   5-29.3459 96.0752   2
  -4 -11  -5 10.3900 66.3502   3
  -4 -11  -6 183.590 99.4228   3
   4  11   6 300.745 152.920   2
   4  11   7 134.931 83.3602   1
   4  11   7 694.773 212.665   2
  -4 -11  -7 699.234 195.598   3
   4  11   8 121.423 85.6205   1
   4  11   8 175.468 111.302   2
  -4 -11  -8 280.589 137.273   3
   4  11   9 704.061 192.283   1
   4  11   9 739.989 228.215   2
  -4 -11  -9 523.256 173.855   3
   4  11  10 645.470 183.595   1
  -4 -11 -10 947.750 238.651   3
  -4 -11 -11 178.390 76.7431   3
   4  11  11 162.404 123.861   1
  -4 -11 -12 189.514 133.199   3
   4  11  12 188.385 129.187   1
  -4 -11 -13 228.759 137.808   3
   4  11  13 633.252 189.199   1
  -4 -11 -14 210.230 137.148   3
   4  11  14 155.960 125.406   1
   4  11  15 11.6546 56.7069   1
  -4 -11 -15-82.4342 111.529   3
   4  11  16-72.2799 84.9535   1
  -4 -11 -16-212.761 135.669   3
   4  11  17 153.224 114.845   1
   4  11  18 125.927 79.2002   1
   4  11  19 1019.46 248.657   1
  -4 -12   8 1800.32 360.586   6
  -4 -12   7 293.313 165.596   6
  -4 -12   6 788.927 240.899   6
  -4 -12   5 1129.43 278.254   6
  -4 -12   4 878.760 244.915   6
  -4 -12   3-42.0364 70.7023   6
  -4 -12   2 234.409 87.2270   6
  -4 -12   2 359.833 162.632   3
  -4 -12   1 84.7404 59.4711   3
   4  12   0 363.163 187.931   2
  -4 -12   0 32.3095 83.6904   3
   4  12   1 9363.82 716.901   2
  -4 -12  -1 8566.30 674.216   3
   4  12   2 11375.7 792.891   2
  -4 -12  -2 11830.7 789.639   3
   4  12   3 1674.27 306.650   2
  -4 -12  -3 2442.75 362.158   3
   4  12   4 1518.80 304.467   2
  -4 -12  -4 604.981 195.108   3
   4  12   5 28.6744 75.1363   2
  -4 -12  -5 64.6650 71.2365   3
  -4 -12  -6 65.3458 78.1675   3
   4  12   6 231.113 112.403   2
   4  12   7 1359.88 275.809   2
  -4 -12  -7 1606.66 300.052   3
  -4 -12  -8 132.784 110.161   3
   4  12   8 220.359 128.330   2
   4  12   9 365.389 164.480   2
   4  12   9 189.352 127.620   1
  -4 -12  -9 214.351 155.726   3
   4  12  10 61.2361 73.4081   1
   4  12  10 322.206 154.631   2
  -4 -12 -10 251.118 146.384   3
   4  12  11 834.974 217.139   1
   4  12  11 798.119 221.820   2
  -4 -12 -11 1017.89 260.203   3
  -4 -12 -12 1035.88 262.610   3
   4  12  12 1225.87 253.103   1
   4  12  13 806.010 207.929   1
  -4 -12 -13 579.745 208.897   3
  -4 -12 -14 323.515 157.259   3
   4  12  14 99.8386 112.704   1
   4  12  15 420.544 153.563   1
  -4 -12 -15 204.073 120.294   3
   4  12  16 352.625 157.093   1
   4  12  17 185.832 125.103   1
  -4 -13   6 1001.63 289.839   6
  -4 -13   5 739.509 256.509   6
  -4 -13   4 56.8106 105.879   6
  -4 -13   3 52.7155 102.792   6
  -4 -13   2 1498.07 323.221   6
  -4 -13   2 1237.17 283.744   3
  -4 -13   1 1523.64 299.179   3
  -4 -13   0 2482.35 389.396   3
   4  13   1 1524.55 303.267   2
  -4 -13  -1 1437.57 296.194   3
   4  13   2 139.653 139.622   2
  -4 -13  -2-34.8970 84.2377   3
   4  13   3 300.289 143.234   2
  -4 -13  -3 83.0146 89.0397   3
   4  13   4 873.325 240.356   2
  -4 -13  -4 716.200 214.287   3
   4  13   5 710.032 207.840   2
  -4 -13  -5 648.530 186.893   3
   4  13   6 53.4225 74.0182   2
  -4 -13  -6 50.4197 93.4383   3
   4  13   7 918.219 251.101   2
  -4 -13  -7 852.204 233.100   3
   4  13   8 1226.26 283.383   2
  -4 -13  -8 1654.35 319.396   3
   4  13   9 590.304 206.235   2
  -4 -13  -9 254.307 137.165   3
   4  13  10 25.0010 86.8430   2
  -4 -13 -10-127.946 142.718   3
  -4 -13 -11 273.478 127.791   3
   4  13  11 494.102 184.295   2
  -4 -13 -12 99.7436 102.656   3
   4  13  12-128.989 82.4007   2
  -4 -13 -13 68.9991 115.758   3
   4  13  13 54.5379 108.087   2
   4  13  13-211.251 118.829   1
   4  13  14 300.262 136.925   1
   4  13  15-47.6394 115.675   1
  -4 -14   3 261.811 144.053   6
  -4 -14   2 979.787 271.075   6
  -4 -14   1 245.647 146.749   3
  -4 -14   0 877.598 242.543   3
  -4 -14  -1 2086.72 371.262   3
  -4 -14  -2 172.091 118.599   3
   4  14   2 156.493 81.3769   2
   4  14   3 469.164 179.748   2
  -4 -14  -3 343.502 170.696   3
   4  14   4 224.359 139.938   2
  -4 -14  -4 70.7863 75.4396   3
   4  14   5 29.4360 67.5653   2
  -4 -14  -5 127.983 129.351   3
   4  14   6 1214.14 286.000   2
  -4 -14  -6 626.385 201.428   3
   4  14   7 204.495 140.842   2
  -4 -14  -7 118.829 99.1463   3
  -4 -14  -8 190.061 123.101   3
   4  14   8 257.520 155.116   2
   4  14   9 98.0677 112.381   2
  -4 -14  -9-8.13146 88.0888   3
   4  14  10 802.659 246.486   2
  -4 -14 -10 1656.41 344.430   3
   4  14  11 98.0455 105.780   2
  -4 -14 -11 376.130 166.950   3
  -4 -14 -12 21.9560 84.6882   3
   4  14  12 166.546 134.512   2
   4  14  13 57.1932 92.0088   2
   4  14  14-385.992 179.068   2
  -4 -15   1 503.368 208.081   3
  -4 -15   0 980.890 273.424   3
  -4 -15  -1 254.831 142.394   3
  -4 -15  -2 520.016 204.459   3
  -4 -15  -3 275.243 153.245   3
   4  15   4 541.794 204.046   2
  -4 -15  -4 445.440 188.992   3
   4  15   5 126.965 105.024   2
  -4 -15  -5 642.151 211.835   3
   4  15   6 171.326 144.297   2
  -4 -15  -6 139.752 132.927   3
   4  15   7-130.727 108.279   2
  -4 -15  -7-13.6440 85.6773   3
   4  15   8 994.411 267.873   2
  -4 -15  -8 235.698 137.627   3
   4  15   9 273.621 157.508   2
  -4 -15  -9 87.9287 89.7356   3
  -4 -15 -10 273.284 163.588   3
   4  15  10 103.492 109.065   2
   4  15  11 63.5794 88.9735   2
   4  15  12 170.325 133.238   2
  -4 -16  -2 176.423 121.812   3
  -4 -16  -3 3.33603 88.7571   3
  -4 -16  -4 1022.97 295.345   3
   4  16   5 765.068 233.862   2
  -4 -16  -5 1105.67 294.942   3
   4  16   6 200.858 128.127   2
  -4 -16  -6 94.9565 95.8968   3
   4  16   7 4.73948 61.7742   2
  -4 -16  -7 150.799 141.754   3
   4  16   8 890.409 256.369   2
  -4 -16  -8 393.274 183.317   3
   4  16   9 24.0654 69.4546   2
   5 -14  -9-125.461 153.678   3
   5 -14  -8-236.706 141.066   3
   5 -14  -7 414.925 228.934   3
   5 -14  -6 2916.41 520.237   3
   5 -14  -5 620.170 255.071   3
   5 -14  -4 111.600 134.028   3
   5 -14  -3 211.409 182.419   3
   5 -14  -2 407.858 228.781   3
   5 -14  -1 352.391 194.330   3
   5 -14   0 337.190 188.887   3
   5 -14   1 802.975 280.235   3
  -5  14  -6-159.170 151.900   5
   5 -13 -13 257.857 176.266   3
   5 -13 -12-146.083 182.366   3
   5 -13 -11 24.6499 114.438   3
   5 -13 -10 911.544 314.326   3
   5 -13  -9 990.931 323.961   3
   5 -13  -8 103.219 120.388   3
   5 -13  -7 224.064 138.761   3
   5 -13  -6-22.0638 75.0335   3
   5 -13  -5-61.8295 128.138   3
   5 -13  -4 1344.54 357.850   3
   5 -13  -3 1019.67 307.720   3
   5 -13  -2-122.402 170.669   3
   5 -13  -1 865.506 262.738   3
   5 -13   0 466.943 214.785   3
   5 -13   1 354.902 179.313   3
   5 -13   2 60.5575 112.522   3
   5 -13   3 254.303 159.064   3
   5 -13   4 589.065 222.549   3
  -5  13  -5 115.638 124.523   5
   5 -13   5 177.771 149.242   3
  -5  13  -6 60.3992 108.692   5
  -5  13  -7 3.80710 102.482   5
   5 -13   8 85.4293 98.0664   6
   5 -12 -15-183.652 167.703   3
   5 -12 -14-77.7323 123.416   3
   5 -12 -13-168.818 203.548   3
   5 -12 -12 152.632 140.389   3
   5 -12 -11 1317.88 348.833   3
   5 -12 -10 756.603 262.200   3
   5 -12  -9 175.604 144.033   3
   5 -12  -8 777.849 260.073   3
   5 -12  -7 2333.59 446.979   3
   5 -12  -6-165.483 139.385   3
   5 -12  -5 2440.58 445.702   3
   5 -12  -4 824.218 281.263   3
   5 -12  -3 2540.32 444.450   3
   5 -12  -2 1901.94 396.883   3
   5 -12  -1 1151.40 299.031   3
   5 -12   0-17.5945 105.227   3
   5 -12   1 571.957 225.660   3
   5 -12   2 200.115 159.275   3
   5 -12   3 982.118 267.821   3
  -5  12  -4 220.730 156.394   5
   5 -12   4 144.113 125.644   3
  -5  12  -5-314.960 168.833   5
   5 -12   5 2.45531 90.7818   3
  -5  12  -6-132.200 146.148   5
   5 -12   6 71.9608 87.5075   3
  -5  12  -7-7.61850 100.146   5
   5 -12   7 379.950 201.045   3
  -5  12  -8 256.213 163.758   5
   5 -12   8 311.392 139.414   6
   5 -12   9-7.83417 84.7244   6
  -5  12  -9-8.41077 116.777   5
   5 -12  10 67.0409 122.644   6
   5 -12  11 609.975 225.794   6
   5 -11 -16 385.576 210.047   3
   5 -11 -15 7872.91 862.536   3
   5 -11 -14 286.773 177.110   3
   5 -11 -13 156.619 104.987   3
   5 -11 -12-75.8252 159.417   3
   5 -11 -11 95.2147 104.253   3
   5 -11 -10 455.084 187.782   3
   5 -11  -9 729.527 244.143   3
   5 -11  -8 1008.16 280.773   3
   5 -11  -7 341.432 196.407   3
   5 -11  -6-59.8903 76.1295   3
   5 -11  -5 3513.72 514.772   3
   5 -11  -4 330.113 171.610   3
   5 -11  -3 685.167 218.551   3
   5 -11  -2 530.310 211.265   3
   5 -11  -1 3145.60 454.467   3
   5 -11   0 605.211 208.282   3
   5 -11   1 85.7822 100.538   3
   5 -11   2 195.159 129.966   3
   5 -11   3 115.596 121.264   3
  -5  11  -4 1153.26 273.630   5
   5 -11   4 1396.45 305.383   3
  -5  11  -5 3442.68 492.032   5
   5 -11   5 3491.39 486.107   3
  -5  11  -6 58.2519 96.3535   5
   5 -11   6 377.882 182.510   3
  -5  11  -7-41.6667 132.144   5
   5 -11   7 213.867 163.373   3
   5 -11   8 111.036 91.2482   6
  -5  11  -8-40.6938 144.984   5
   5 -11   8 188.256 169.191   3
   5 -11   9-49.2315 86.3259   6
  -5  11  -9 153.682 144.440   5
   5 -11   9 12.1289 95.5981   3
   5 -11  10 1297.41 310.487   6
  -5  11 -10-58.6064 137.816   5
  -5  11 -11 121.789 137.371   5
   5 -11  11-117.948 108.734   6
   5 -11  12 251.579 160.856   6
   5 -10 -18-125.076 151.317   3
   5 -10 -17 209.659 130.000   3
   5 -10 -16 1275.39 343.970   3
   5 -10 -15 35.8536 155.365   3
   5 -10 -14 334.649 193.340   3
   5 -10 -13 2061.05 416.333   3
   5 -10 -12 988.950 278.819   3
   5 -10 -11 63.1347 110.039   3
   5 -10 -10 47.4406 127.303   3
   5 -10  -9 63.1903 118.950   3
   5 -10  -8 1190.84 296.777   3
   5 -10  -7 2110.79 387.456   3
   5 -10  -6 87.9426 79.1707   3
   5 -10  -5 2558.06 412.919   3
   5 -10  -4 321.784 167.514   3
   5 -10  -3 848.516 240.530   3
   5 -10  -2 140.972 147.173   3
   5 -10  -1 11.6146 96.9350   3
   5 -10   0 350.401 120.239   3
   5 -10   1 938.880 240.444   3
   5 -10   2 1173.61 279.727   3
  -5  10  -3-21.3218 99.3179   5
   5 -10   3 80.9722 83.3543   3
  -5  10  -4 50.5258 78.8784   5
   5 -10   4 201.486 143.712   3
   5 -10   5 633.160 198.732   3
  -5  10  -5 857.632 224.440   5
  -5  10  -6 5610.19 606.170   5
   5 -10   6 6448.64 627.975   3
  -5  10  -7 4992.03 597.235   5
   5 -10   7 6111.09 614.942   3
  -5  10  -8 1537.86 338.248   5
   5 -10   8 1617.97 296.067   6
   5 -10   8 1578.53 317.570   3
   5 -10   9 241.749 127.646   6
  -5  10  -9 512.246 213.685   5
   5 -10   9 261.865 147.479   3
   5 -10  10 56.7907 78.5780   6
  -5  10 -10 384.084 205.920   5
   5 -10  11-6.87677 62.8362   6
  -5  10 -11 44.9009 124.283   5
   5 -10  12 576.333 198.295   6
  -5  10 -12 715.300 279.933   5
   5 -10  13 118.735 107.925   6
   5 -10  14 466.169 177.694   6
   5  -9 -18 163.998 145.583   3
   5  -9 -17-118.713 153.142   3
   5  -9 -16-298.987 197.010   3
   5  -9 -15-154.474 175.825   3
   5  -9 -14 898.736 286.211   3
   5  -9 -13 2559.32 441.822   3
   5  -9 -12-13.6202 119.429   3
   5  -9 -11 3592.03 509.823   3
   5  -9 -10 2504.17 424.350   3
   5  -9  -9-206.165 132.995   3
   5  -9  -8-21.6701 114.385   3
   5  -9  -7 523.876 159.514   3
   5  -9  -6 273.119 157.774   3
   5  -9  -5 181.203 166.879   3
   5  -9  -4 3933.41 488.733   3
   5  -9  -3 28713.4 1292.43   3
   5  -9  -2 1685.27 304.044   3
   5  -9  -1 3613.97 452.228   3
   5  -9   0 308.338 161.021   3
   5  -9   1-86.5247 121.185   3
   5  -9   2 22.1509 84.6632   3
   5  -9   3 117.797 113.825   3
  -5   9  -3-59.9178 88.9354   5
  -5   9  -4 481.921 166.068   5
   5  -9   4 814.327 215.830   3
  -5   9  -5-70.6066 107.753   5
   5  -9   5 29.3498 69.0109   3
  -5   9  -6-83.3294 141.092   5
   5  -9   6-24.3226 73.1620   3
  -5   9  -7 1156.16 277.418   5
   5  -9   7 1114.13 256.084   3
   5  -9   8 44.7135 95.3144   6
  -5   9  -8 133.041 140.263   5
   5  -9   8 59.4139 70.8970   3
   5  -9   9 417.631 170.673   3
  -5   9  -9 226.289 137.675   5
   5  -9  10-3.45363 82.4015   6
  -5   9 -10 228.180 142.340   5
  -5   9 -11-74.6236 126.044   5
   5  -9  11-85.6908 117.558   6
   5  -9  12 545.031 190.408   6
  -5   9 -12 646.484 252.057   5
   5  -9  13 49.8142 84.7643   6
  -5   9 -13-2.66431 121.507   5
   5  -9  13-10.1672 76.4284   1
   5  -9  14-265.329 133.992   6
   5  -9  14-59.4381 80.2516   1
   5  -8 -19 605.515 234.163   3
   5  -8 -18 1261.42 349.766   3
   5  -8 -17 632.694 241.229   3
   5  -8 -16-42.1136 104.415   3
   5  -8 -15 1231.45 341.079   3
   5  -8 -14 9774.16 847.816   3
   5  -8 -13 2715.64 444.980   3
   5  -8 -12 1338.62 308.211   3
   5  -8 -11 6279.62 648.296   3
   5  -8 -10 163.236 128.466   3
   5  -8  -9-68.0285 117.335   3
   5  -8  -8 311.225 156.316   3
   5  -8  -7 66.6955 118.831   3
   5  -8  -6 364.143 162.949   3
   5  -8  -5 25.8139 105.403   3
   5  -8  -4 2592.44 374.982   3
   5  -8  -3 1977.45 333.190   3
   5  -8  -2 3165.41 414.530   3
   5  -8  -1 1345.10 250.260   3
   5  -8   0 633.994 188.255   3
   5  -8   1 3694.08 440.964   3
   5  -8   2 3325.97 415.560   3
  -5   8  -3 195.740 119.544   5
   5  -8   3 130.222 89.9706   3
  -5   8  -4 147.675 94.5554   5
   5  -8   4 285.620 156.515   3
  -5   8  -5 111.497 73.4923   5
   5  -8   5 230.030 135.201   3
  -5   8  -6 198.561 133.066   5
   5  -8   6 329.959 144.554   3
  -5   8  -7 41.7068 108.895   5
   5  -8   7 11.0579 101.171   3
   5  -8   8 302.501 133.076   6
  -5   8  -8 518.899 202.686   5
   5  -8   8 295.555 140.732   3
   5  -8   9 2431.74 332.253   6
  -5   8  -9 2371.03 395.540   5
   5  -8   9 2012.04 337.474   3
   5  -8  10 430.762 144.745   6
  -5   8 -10 547.261 197.650   5
   5  -8  11 333.137 141.733   6
  -5   8 -11 256.765 150.354   5
  -5   8 -12 472.102 193.745   5
   5  -8  12 239.701 118.190   6
   5  -8  13 660.908 183.850   6
  -5   8 -13 910.829 284.661   5
   5  -8  13 794.475 220.862   1
   5  -8  14 18.3993 66.1544   6
   5  -8  14-23.7513 90.6791   1
  -5   8 -14 21.1232 73.5356   5
   5  -8  15 567.079 184.417   6
  -5   8 -15 662.522 266.376   5
   5  -8  15 244.430 136.763   1
  -5   7  20 10.5463 114.386   6
  -5   7  19 99.9549 146.374   6
  -5   7  18 223.976 169.846   6
  -5   7  17-63.0614 151.062   6
   5  -7 -17 54.9826 125.230   3
   5  -7 -16-34.6666 119.393   3
  -5   7  16-90.3445 82.8207   6
   5  -7 -15 37.0449 118.973   3
  -5   7  15 122.166 142.017   6
   5  -7 -14 504.532 220.501   3
  -5   7  14 339.324 163.704   6
   5  -7 -13 841.898 245.269   3
   5  -7 -12-37.1336 112.270   3
   5  -7 -11-1.00046 98.2144   3
   5  -7 -10 3610.43 460.391   3
   5  -7  -9 2817.70 403.382   3
   5  -7  -8 1455.09 275.385   3
   5  -7  -7-28.6385 73.9928   3
   5  -7  -6 455.541 163.801   3
   5  -7  -5 352.375 128.376   3
   5  -7  -4 7385.01 590.982   3
   5  -7  -3 444.884 153.093   3
   5  -7  -3 578.551 84.3299   2
   5  -7  -2 720.033 184.917   3
   5  -7  -2 596.193 97.0551   2
   5  -7  -1 2305.40 331.980   3
   5  -7  -1 2336.61 202.617   2
   5  -7   0-3.86384 63.2609   3
   5  -7   1 2071.31 308.442   3
   5  -7   2 6051.76 514.149   3
  -5   7  -3 150.203 69.7704   5
   5  -7   3 179.291 97.9188   3
  -5   7  -4 1309.57 255.952   5
   5  -7   4 1250.81 243.850   3
  -5   7  -5 1766.73 299.309   5
   5  -7   5 1831.30 283.238   3
  -5   7  -6-63.2905 115.034   5
   5  -7   6 86.3971 71.9400   3
  -5   7  -7 375.878 189.909   5
   5  -7   7 228.467 122.487   3
   5  -7   8 252.066 107.333   6
  -5   7  -8 382.740 174.384   5
   5  -7   8 3.64969 79.1632   3
   5  -7   9 47.6711 61.9373   6
  -5   7  -9 42.9609 87.6652   5
   5  -7  10 183.029 119.022   6
  -5   7 -10 302.219 166.394   5
   5  -7  11 1307.70 243.535   6
  -5   7 -11 1482.28 318.975   5
  -5   7 -12 230.655 148.761   5
   5  -7  12 175.915 97.0269   6
   5  -7  12 115.794 87.8504   1
   5  -7  13 119.729 86.7593   6
  -5   7 -13-54.5552 119.028   5
   5  -7  13 175.574 116.679   1
   5  -7  14 348.369 140.901   6
  -5   7 -14 595.748 229.515   5
   5  -7  14 353.870 135.062   1
  -5   7 -15 1884.92 405.856   5
   5  -7  15 1182.37 245.415   1
   5  -7  15 1913.77 312.973   6
   5  -7  16 114.073 88.4383   1
  -5   7 -16 245.751 142.860   5
  -5   6  20 75.9551 96.8607   6
  -5   6  19-128.476 127.642   6
  -5   6  18 56.5500 105.611   6
  -5   6  17 310.452 178.156   6
  -5   6  16 2862.23 442.110   6
  -5   6  15 1587.07 337.965   6
  -5   6  14 165.974 129.237   6
  -5   6  13 2000.90 345.882   6
   5  -6 -12 3792.90 483.012   3
  -5   6  12 3005.41 413.640   6
   5  -6 -11 1875.97 338.768   3
  -5   6  11 1837.84 318.226   6
   5  -6 -10 807.996 205.094   3
  -5   6  10 915.691 226.666   6
   5  -6  -9 511.159 150.905   3
   5  -6  -8-133.978 135.536   3
   5  -6  -7 2964.50 376.191   3
   5  -6  -6 1295.61 243.625   3
   5  -6  -5 70.8217 90.8259   3
   5  -6  -4 1507.34 254.258   3
   5  -6  -3 6.24461 65.0324   3
   5  -6  -3 75.8604 28.8230   2
   5  -6  -2-54.6615 97.0192   3
   5  -6  -2 91.5787 35.4808   2
   5  -6  -1 1444.54 245.229   3
   5  -6   0 2626.45 322.362   3
   5  -6   1-34.3371 100.153   3
   5  -6   2 2454.76 319.473   3
  -5   6  -3 7881.06 580.971   5
   5  -6   3 8059.21 558.151   3
  -5   6  -4 13402.4 769.154   5
   5  -6   4 14649.4 746.492   3
  -5   6  -5 1269.64 247.926   5
   5  -6   5 1343.65 233.105   3
  -5   6  -6 931.791 215.559   5
   5  -6   6 715.990 169.182   3
  -5   6  -7 3756.21 437.141   5
   5  -6   7 4027.30 399.654   3
   5  -6   8 92.4799 65.9320   6
  -5   6  -8 244.261 123.286   5
   5  -6   8 179.727 121.669   3
   5  -6   9 2645.25 303.444   6
  -5   6  -9 3195.90 419.449   5
   5  -6  10 8086.53 540.829   6
  -5   6 -10 9317.23 740.326   5
   5  -6  11 15.3069 63.0237   6
  -5   6 -11-52.8727 122.218   5
  -5   6 -12 2910.34 446.554   5
   5  -6  12 2669.58 356.988   1
   5  -6  12 2182.13 294.838   6
   5  -6  13 972.800 202.536   6
   5  -6  13 864.254 204.232   1
  -5   6 -13 796.609 259.710   5
   5  -6  14 575.623 167.084   6
  -5   6 -14 387.403 165.571   5
   5  -6  14 480.464 149.108   1
   5  -6  15 223.803 124.276   6
   5  -6  15 213.828 114.726   1
  -5   6 -15 573.295 228.986   5
  -5   6 -16 1002.21 301.813   5
   5  -6  16 688.727 179.582   6
   5  -6  16 838.244 207.724   1
  -5   6 -17 1293.70 351.688   5
   5  -6  17 557.378 173.555   1
  -5   5  20 20.5533 92.7208   6
  -5   5  19 200.762 181.603   6
  -5   5  18 153.213 155.758   6
  -5   5  17 236.186 144.217   6
  -5   5  16 169.719 94.3458   6
  -5   5  15-393.408 171.077   6
  -5   5  14 320.251 132.055   6
  -5   5  13 119.290 134.969   6
  -5   5  12-41.7179 112.404   6
  -5   5  11 4153.33 464.771   6
  -5   5  10 5028.77 490.116   6
   5  -5  -9-39.5036 104.571   3
  -5   5   9-101.419 125.789   6
   5  -5  -8 2945.24 363.602   3
  -5   5   8 3225.05 369.087   6
   5  -5  -7 1212.39 232.944   3
   5  -5  -6 253.417 123.188   3
   5  -5  -5 1346.38 229.852   3
   5  -5  -4 1671.04 252.405   3
   5  -5  -3 43.9909 65.4054   3
   5  -5  -2 190.451 77.2351   3
   5  -5  -1 14627.3 717.164   3
   5  -5   0 2457.85 292.973   3
   5  -5   1 194.573 90.9880   3
   5  -5   2 3618.67 348.898   3
   5  -5   3 307.420 122.065   3
  -5   5  -4 405.429 125.431   5
   5  -5   4 430.583 127.079   3
  -5   5  -5 2450.32 322.914   5
   5  -5   5 2411.28 280.819   3
  -5   5  -6 2609.31 345.747   5
   5  -5   6 2625.32 300.548   3
   5  -5   7-21.0544 68.4714   6
  -5   5  -7 109.659 88.6054   5
   5  -5   7-32.9337 53.2094   3
   5  -5   8 4249.73 350.729   6
  -5   5  -8 4431.78 470.065   5
   5  -5   8 4156.88 386.015   3
   5  -5   9 7807.06 485.340   6
  -5   5  -9 6139.29 553.734   5
   5  -5  10 12880.2 636.666   6
  -5   5 -10 12231.3 801.399   5
   5  -5  11 1106.21 194.591   6
  -5   5 -11 1082.13 268.061   5
   5  -5  11 1121.53 222.251   1
   5  -5  12 401.435 127.956   6
   5  -5  12 292.492 121.699   1
  -5   5 -12 199.653 154.405   5
   5  -5  13 128.281 90.9479   6
  -5   5 -13 90.7996 83.9739   5
   5  -5  13 30.9649 70.4423   1
   5  -5  14 523.216 153.893   6
  -5   5 -14 642.348 220.994   5
   5  -5  14 263.684 111.492   1
   5  -5  15 106.705 86.2856   6
  -5   5 -15 26.6130 103.873   5
   5  -5  15-200.631 124.479   1
  -5   5 -16 353.735 191.321   5
   5  -5  16 452.515 162.452   1
   5  -5  16 444.055 144.590   6
  -5   5 -17 79.2814 108.100   5
   5  -5  17 192.026 116.659   1
  -5   5 -18-137.183 118.363   5
   5  -5  18 62.3006 85.0991   1
  -5   4  20-411.685 190.826   6
  -5   4  19 2109.04 406.358   6
  -5   4  18 1587.87 334.711   6
  -5   4  17 326.457 143.280   6
  -5   4  16 4251.53 514.660   6
  -5   4  15 1257.56 268.903   6
  -5   4  14 247.020 135.684   6
  -5   4  13-71.9447 120.741   6
  -5   4  12 859.511 209.087   6
  -5   4  11-35.0520 67.5184   6
  -5   4  10 404.798 139.193   6
  -5   4   9 7567.62 556.152   6
  -5   4   8 11946.0 676.015   6
   5  -4  -7 7696.72 550.604   3
  -5   4   7 7948.71 538.570   6
  -5   4   6 1086.40 198.111   6
   5  -4  -6 1326.32 226.950   3
   5  -4  -5 25.2103 47.5771   3
  -5   4   5 6.02530 81.7498   6
   5  -4  -4 657.845 152.122   3
   5  -4  -3 7030.70 464.036   3
   5  -4  -2 13928.9 646.765   3
   5  -4  -1 4584.80 370.680   3
   5  -4   0 6154.83 424.782   3
   5  -4   1 5900.01 411.849   3
   5  -4   2 2470.08 264.849   3
   5  -4   3 2244.70 254.106   3
  -5   4  -4 338.022 125.025   5
   5  -4   4 510.912 128.601   3
  -5   4  -5-29.1703 71.8177   5
   5  -4   5-24.5329 44.1098   3
  -5   4  -6 205.668 108.872   5
   5  -4   6 123.454 73.9461   3
   5  -4   7 190.814 65.6127   6
  -5   4  -7 124.517 91.3442   5
   5  -4   7 21.4649 44.5020   3
   5  -4   8 211.913 74.1256   6
  -5   4  -8 284.413 141.701   5
   5  -4   9 472.643 111.548   6
  -5   4  -9 286.253 115.681   5
   5  -4  10 80.0277 73.0258   6
  -5   4 -10 223.302 148.879   5
   5  -4  10 90.5288 86.5473   1
  -5   4 -11 11298.1 764.374   5
   5  -4  11 10992.8 561.858   6
   5  -4  11 10465.9 643.895   1
   5  -4  12 99.8614 69.3572   6
  -5   4 -12-0.36089 107.526   5
   5  -4  12 53.6422 87.8429   1
   5  -4  13 183.959 99.4143   6
   5  -4  13 202.682 98.4633   1
   5  -4  14 85.2258 66.0833   6
  -5   4 -14 277.184 143.808   5
   5  -4  14 215.374 117.243   1
  -5   4 -15 737.859 228.175   5
   5  -4  15 874.196 185.541   6
   5  -4  15 1227.06 228.652   1
   5  -4  16 191.679 98.3784   6
  -5   4 -16 307.745 160.238   5
   5  -4  16 232.056 114.916   1
  -5   4 -17-81.9436 106.664   5
   5  -4  17 122.926 96.3850   1
   5  -4  18 807.965 190.432   1
  -5   4 -18 1020.02 280.701   5
  -5   4 -19 666.382 246.358   5
   5  -4  19 849.559 208.107   1
  -5   3  20 347.325 186.672   6
  -5   3  19 2274.79 407.382   6
  -5   3  18 577.812 220.903   6
  -5   3  17 7944.42 709.978   6
  -5   3  16 4370.49 508.413   6
  -5   3  15 142.276 108.737   6
  -5   3  14 38.2641 120.846   6
  -5   3  13 272.296 147.240   6
  -5   3  12 5.64065 90.3745   6
  -5   3  11 816.663 186.202   6
  -5   3  10 177.009 95.1962   6
  -5   3  10 260.980 65.6247   2
  -5   3   9 12231.3 677.246   6
  -5   3   8 694.574 163.013   6
  -5   3   7 10350.6 583.354   6
  -5   3   6 4921.00 385.011   6
   5  -3  -5 830.783 168.733   3
  -5   3   5 787.078 149.986   6
   5  -3  -4 3658.58 324.389   3
   5  -3  -4 3200.84 138.685   2
  -5   3   4 3301.34 297.269   6
   5  -3  -3 871.945 158.852   3
  -5   3   3 1056.68 161.132   6
   5  -3  -2 268.969 89.4872   3
   5  -3  -1 1401.45 184.875   3
   5  -3  -1 1446.26 168.375   6
  -5   3   0 17102.0 622.478   3
   5  -3   0 16338.7 627.632   3
   5  -3   0 16955.0 553.769   6
  -5   3  -1 13400.2 550.245   3
   5  -3   1 14664.7 592.215   3
   5  -3   1 13606.3 482.522   6
  -5   3  -2 99.6045 55.9266   3
   5  -3   2 66.9832 38.1523   3
   5  -3   3 1515.95 187.377   3
  -5   3  -3 1498.12 191.266   3
  -5   3  -4 20056.4 833.800   5
   5  -3   4 19172.0 659.501   3
  -5   3  -5 1723.90 254.622   5
   5  -3   5 1499.62 187.405   3
  -5   3  -6 443.672 136.218   5
   5  -3   6 298.788 73.7457   6
   5  -3   6 341.191 94.0791   3
   5  -3   7 2427.43 207.421   6
  -5   3  -7 2306.65 297.963   5
   5  -3   8 6825.33 361.122   6
  -5   3  -8 6639.63 516.728   5
   5  -3   8 6811.34 479.644   1
   5  -3   9 2902.24 246.414   6
  -5   3  -9 3058.79 360.318   5
   5  -3   9 2954.44 322.014   1
   5  -3  10 4445.36 316.823   6
  -5   3 -10 4277.55 436.498   5
   5  -3  10 4111.25 383.277   1
   5  -3  11 3848.76 307.165   6
   5  -3  11 4240.46 400.584   1
  -5   3 -11 4669.14 476.849   5
   5  -3  12 3367.29 304.696   6
   5  -3  12 3248.21 355.112   1
  -5   3 -12 3125.30 399.984   5
   5  -3  13 1140.93 188.331   6
  -5   3 -13 1260.72 270.310   5
   5  -3  13 1469.47 240.450   1
   5  -3  14 1234.32 201.967   6
   5  -3  14 1060.85 211.956   1
   5  -3  15 35.8494 49.8844   6
  -5   3 -15 152.840 124.793   5
   5  -3  15 77.4926 101.825   1
   5  -3  16-21.9140 57.2297   6
   5  -3  16 149.111 107.703   1
  -5   3 -16 112.212 117.543   5
   5  -3  17 215.641 111.621   1
  -5   3 -17 305.941 152.629   5
  -5   3 -18 443.721 189.753   5
   5  -3  18 418.188 147.566   1
  -5   3 -19 29.2492 106.784   5
   5  -3  19-30.6989 74.0796   1
  -5   3 -20 49.7880 142.786   5
   5  -3  20 260.697 126.968   1
  -5   2  20-379.153 182.108   6
  -5   2  19-12.0109 103.078   6
   5  -2 -18 896.244 197.471   4
  -5   2  18 831.924 263.317   6
  -5   2  17 436.175 179.220   6
  -5   2  16 528.412 178.498   6
  -5   2  15-146.228 127.977   6
  -5   2  14 2193.51 335.278   6
  -5   2  13 2105.44 323.434   6
  -5   2  12-81.2035 110.650   6
  -5   2  11 154.370 101.875   6
  -5   2  10 533.165 144.552   6
  -5   2  10 658.017 118.806   2
  -5   2   9 527.751 152.646   6
  -5   2   9 604.543 106.055   2
  -5   2   8 3933.70 362.478   6
  -5   2   7 11087.7 575.550   6
  -5   2   6 2316.17 260.249   6
  -5   2   5 537.171 122.652   6
   5  -2  -4 35076.5 590.041   2
  -5   2   4 35217.0 908.830   6
   5  -2  -3 33501.9 890.958   3
  -5   2   3 32214.9 834.279   6
   5  -2  -2 2490.80 208.628   6
  -5   2   2 2320.40 214.233   6
   5  -2  -2 2707.89 243.120   3
   5  -2  -1 7.31842 22.7368   6
   5  -2  -1 115.156 60.9894   3
   5  -2   0 15571.2 546.881   3
   5  -2   0 15681.4 467.759   6
  -5   2  -1 37433.8 813.613   3
   5  -2   1 37511.8 836.301   3
   5  -2   1 37773.7 691.241   6
   5  -2   2 19192.2 582.941   3
   5  -2   2 19047.5 478.655   6
  -5   2  -2 19543.8 584.015   3
  -5   2  -3 82.3512 29.7883   3
   5  -2   3 137.125 47.5257   3
   5  -2   4 29531.6 713.226   3
  -5   2  -4 29845.8 767.084   3
  -5   2  -5 4488.74 387.330   5
   5  -2   5 4722.73 288.972   3
  -5   2  -5 4784.92 320.814   3
   5  -2   6 46.0307 31.2556   6
  -5   2  -6 117.582 85.7660   5
  -5   2  -6-37.4463 46.9217   3
   5  -2   6 74.7694 51.5018   3
   5  -2   7 22.5372 22.5448   6
   5  -2   7 146.962 82.0552   1
  -5   2  -7 19.6976 78.7532   5
   5  -2   8 102.606 40.4175   6
  -5   2  -8 99.6796 102.510   5
   5  -2   8 183.810 96.2417   1
   5  -2   9 7743.07 353.867   6
  -5   2  -9 6922.59 511.725   5
   5  -2   9 7770.18 506.739   1
   5  -2  10 2223.18 205.322   6
   5  -2  10 2170.19 265.740   1
  -5   2 -10 2223.93 307.474   5
   5  -2  10 2269.39 133.767   4
   5  -2  11 696.906 127.095   6
  -5   2 -11 534.285 147.876   5
   5  -2  11 582.769 46.4585   4
   5  -2  11 730.828 176.401   1
   5  -2  12 943.794 149.150   6
  -5   2 -12 862.053 215.789   5
   5  -2  12 975.444 190.264   1
   5  -2  13 3005.15 276.273   6
  -5   2 -13 2965.27 391.175   5
   5  -2  13 2593.72 310.659   1
   5  -2  14 518.844 164.657   1
   5  -2  14 618.583 129.782   6
   5  -2  15 1005.12 180.749   6
   5  -2  15 1066.26 206.332   1
  -5   2 -15 1458.76 286.621   5
   5  -2  16 1331.87 215.964   6
   5  -2  16 1189.62 222.782   1
  -5   2 -16 1535.01 311.133   5
   5  -2  17 453.896 132.606   6
  -5   2 -17 360.606 147.609   5
   5  -2  17 649.794 157.492   1
  -5   2 -18 8.79409 70.8283   5
   5  -2  18 173.052 98.4822   1
  -5   2 -19-132.644 110.530   5
   5  -2  19 53.2155 66.5834   1
  -5   2 -20 142.744 141.826   5
   5  -2  20 114.751 87.4723   1
  -5   2 -21-144.745 139.435   5
   5  -2  21 43.4016 59.2296   1
  -5   1  20-90.4471 129.915   6
  -5   1  19 125.858 127.053   6
  -5   1  18 151.067 96.2157   6
  -5   1  17 32.2708 97.9473   6
   5  -1 -17 96.9292 90.6127   4
  -5   1  16 1651.10 307.192   6
   5  -1 -16 1672.06 256.415   4
  -5   1  15 2352.37 368.529   6
  -5   1  14 11881.0 780.541   6
  -5   1  13-14.8909 89.4807   6
  -5   1  12 990.831 209.939   6
  -5   1  11 135.845 98.0361   6
   5  -1 -11 170.286 42.3664   1
  -5   1  10 124.367 57.8448   6
   5  -1 -10 165.786 40.7161   1
  -5   1   9 254.064 91.7779   6
   5  -1  -9 171.082 43.4172   1
  -5   1   8-42.7191 75.2922   6
   5  -1  -8 31.3063 25.9676   1
  -5   1   8 8.43723 31.9674   2
  -5   1   7 1693.75 227.137   6
  -5   1   6 1541.45 209.269   6
   5  -1  -5 1693.08 152.970   2
  -5   1   5 1719.77 201.385   6
   5  -1  -4 5230.33 267.904   2
  -5   1   4 4860.31 322.450   6
  -5   1   3 2509.84 219.832   6
   5  -1  -3 2319.87 185.321   2
   5  -1  -3 2516.88 209.921   6
  -5   1   2 37938.1 799.024   6
   5  -1  -2 37363.9 753.242   6
   5  -1  -1 15022.7 495.174   3
   5  -1  -1 15412.0 449.520   6
  -5   1   1 15231.5 472.500   6
  -5   1   0 5739.49 265.292   6
   5  -1   0 6156.71 256.735   6
   5  -1   0 5633.02 290.634   3
   5  -1   1 3248.42 169.455   6
   5  -1   1 3072.58 207.457   3
   5  -1   2 596.346 88.0058   3
  -5   1  -2 707.195 95.7957   3
   5  -1   2 537.232 63.4383   6
  -5   1  -3 6745.36 292.561   3
   5  -1   3 6856.61 284.190   3
   5  -1   3 6650.80 200.296   6
   5  -1   4 8520.34 314.880   3
   5  -1   4 8528.24 453.564   1
  -5   1  -4 8833.86 350.385   3
   5  -1   4 7999.61 216.281   6
   5  -1   5 14287.2 277.516   6
   5  -1   5 15885.3 640.967   1
  -5   1  -5 15330.4 493.937   3
   5  -1   6 35.2250 61.0003   1
  -5   1  -6 225.874 88.3941   5
   5  -1   6 197.278 37.5463   6
  -5   1  -6 104.085 38.9427   3
  -5   1  -7 2618.10 296.677   5
   5  -1   7 2873.45 281.647   1
  -5   1  -7 2710.95 228.576   3
   5  -1   7 2985.78 159.566   6
  -5   1  -8 615.584 144.623   5
  -5   1  -8 805.830 131.698   3
   5  -1   8 811.531 162.459   1
   5  -1   8 718.353 90.4616   4
   5  -1   8 898.175 97.8742   6
   5  -1   9 244.269 99.5640   1
   5  -1   9 327.829 68.1896   6
  -5   1  -9 296.361 118.345   5
   5  -1   9 233.217 45.9961   4
   5  -1  10 813.696 112.572   6
  -5   1 -10 1038.81 201.562   5
   5  -1  10 799.456 71.3545   4
   5  -1  10 1077.83 187.365   1
  -5   1 -11 2196.47 289.923   5
   5  -1  11 1918.36 257.322   1
   5  -1  11 2301.65 208.203   6
   5  -1  12 387.882 96.7977   6
  -5   1 -12 216.034 119.369   5
   5  -1  12 193.775 95.3618   1
   5  -1  13 503.468 119.299   6
   5  -1  13 505.513 141.101   1
  -5   1 -13 459.858 149.233   5
   5  -1  14 251.420 115.953   1
  -5   1 -14 261.792 119.510   5
   5  -1  14 433.137 116.246   6
   5  -1  15 843.834 186.845   1
   5  -1  15 1137.32 183.121   6
  -5   1 -15 781.230 215.375   5
   5  -1  16 419.174 121.242   6
  -5   1 -16 288.452 131.914   5
   5  -1  16 356.111 131.700   1
   5  -1  17 57.8110 77.5800   6
  -5   1 -17-34.5830 84.6074   5
   5  -1  17 29.3472 66.9146   1
  -5   1 -18 2210.02 376.985   5
   5  -1  18 1993.28 286.867   1
  -5   1 -19 298.875 187.469   5
   5  -1  19 109.785 92.6722   1
  -5   1 -20 617.266 230.736   5
   5  -1  20 360.968 144.691   1
   5  -1  21 324.042 131.952   1
  -5   1 -21 394.732 195.035   5
  -5   1 -22 343.008 173.303   5
  -5   0  20 140.694 114.487   6
  -5   0  19 1328.98 308.123   6
  -5   0  18-188.431 129.741   6
  -5   0  17 108.349 78.1561   6
   5   0 -17 31.0986 59.0821   4
   5   0 -16 886.249 181.597   4
  -5   0  16 1467.98 301.503   6
  -5   0  15-88.7874 90.2803   6
   5   0 -15 135.837 95.1941   4
  -5   0  14-83.4624 81.3500   6
   5   0 -14 9.39790 56.1181   4
  -5   0  13 6220.72 537.831   6
   5   0 -13 6177.09 465.395   4
  -5   0  12 4201.64 430.509   6
   5   0 -12 4126.35 380.505   4
  -5   0  11 191.839 82.6318   6
   5   0 -10 6946.17 196.103   1
  -5   0  10 7221.65 511.813   6
   5   0  -9 4841.48 170.181   1
  -5   0   9 5873.53 447.492   6
  -5   0   8 82.5020 58.3045   6
   5   0  -8 136.742 32.9015   1
  -5   0   7 130.978 78.2639   6
  -5   0   6 2041.33 227.930   6
  -5   0   5 141.393 61.2766   6
   5   0  -5 280.598 71.8748   2
  -5   0   4 52.5393 52.8094   6
   5   0  -4 32.3693 29.9376   2
  -5   0   3 707.639 114.116   6
   5   0  -3 588.187 102.798   6
   5   0  -3 446.293 91.2020   2
   5   0  -2 24213.9 597.014   6
  -5   0   2 23558.9 602.319   6
   5   0  -1 25385.3 557.359   6
  -5   0   1 25229.6 574.829   6
   5   0   0 5921.08 259.596   3
   5   0   0 5964.93 240.298   6
  -5   0   0 6055.36 257.315   6
   5   0   1 22392.8 397.509   6
   5   0   1 22582.6 643.417   1
  -5   0  -1 22148.8 422.981   6
   5   0   1 21971.0 453.843   3
   5   0   2 27726.1 353.644   6
   5   0   2 29690.0 759.774   1
   5   0   2 28910.1 466.489   3
   5   0   3 603.508 121.282   1
   5   0   3 541.132 58.2729   3
   5   0   4 7360.09 407.446   1
  -5   0  -4 6709.95 230.981   3
  -5   0  -5 39.4970 27.9177   3
   5   0   5-9.16851 58.6618   1
   5   0   5 5.30924 34.5965   4
   5   0   6 512.826 120.363   1
   5   0   6 436.337 81.1969   4
  -5   0  -6 425.221 72.6606   3
   5   0   7 2339.13 248.698   1
   5   0   7 2568.81 176.784   4
  -5   0  -7 2271.61 264.340   5
  -5   0  -7 2345.30 183.229   3
   5   0   7 2286.59 115.283   6
  -5   0  -8 704.225 149.902   5
   5   0   8 806.459 93.2572   4
   5   0   8 652.566 74.8050   6
   5   0   8 747.296 153.738   1
  -5   0  -8 586.512 99.7735   3
  -5   0  -9 2578.61 300.719   5
   5   0   9 2618.74 171.998   6
  -5   0  -9 2277.35 209.686   3
   5   0   9 1921.14 235.929   1
   5   0  10 78.7132 41.6212   6
  -5   0 -10 155.574 87.1918   5
   5   0  10 15.0706 68.4876   1
   5   0  11 336.991 79.3327   6
   5   0  11 429.681 125.675   1
  -5   0 -11 498.989 150.388   5
   5   0  12 65.4985 49.2953   6
   5   0  12-7.12350 81.8242   1
  -5   0 -12 126.293 90.9029   5
   5   0  13 171.310 72.1790   6
   5   0  13 93.7697 78.9255   1
  -5   0 -13 150.763 104.969   5
  -5   0 -14 120.019 100.760   5
   5   0  14 30.1556 42.9840   6
   5   0  14-112.760 91.0184   1
  -5   0 -15 37.3267 67.5614   5
   5   0  15 88.8209 59.0829   6
   5   0  15 137.826 91.2190   1
   5   0  16 1117.84 188.397   6
  -5   0 -16 1251.94 255.843   5
   5   0  16 1068.42 205.023   1
  -5   0 -17 442.100 165.200   5
   5   0  17 780.794 183.492   1
   5   0  17 635.963 154.284   6
  -5   0 -18 2968.38 408.535   5
   5   0  18 2677.64 326.974   1
   5   0  19 4.70859 68.2848   1
  -5   0 -19-68.7473 111.423   5
   5   0  20 213.856 102.596   1
  -5   0 -20 111.436 117.784   5
   5   0  21 616.448 173.213   1
  -5   0 -21 848.957 252.579   5
   5   0  22 156.236 101.459   1
  -5   0 -22 240.321 176.044   5
  -5   0 -23 535.404 238.175   5
  -5  -1  20 595.710 229.401   6
  -5  -1  19 1553.67 341.525   6
  -5  -1  18 2.42758 79.2147   6
  -5  -1  17 78.8777 101.658   6
  -5  -1  16 994.860 258.301   6
   5   1 -16 805.940 171.878   4
  -5  -1  15 111.824 107.391   6
   5   1 -15 116.125 85.6403   4
  -5  -1  14-89.8767 105.421   6
   5   1 -14 159.407 91.7483   4
  -5  -1  13 84.3053 88.2558   6
   5   1 -13 575.254 147.719   4
  -5  -1  12 153.439 116.121   6
   5   1 -12 2.22408 62.9669   4
   5   1 -11 4116.49 367.688   4
  -5  -1  11 3469.74 375.700   6
   5   1 -10 12457.4 627.008   4
  -5  -1  10 11891.2 667.573   6
   5   1  -9 5308.47 399.031   4
  -5  -1   9 6289.85 467.293   6
  -5  -1   8 1856.43 238.519   6
   5   1  -8 1611.00 210.093   4
   5   1  -7 3553.68 126.776   1
   5   1  -7 4079.70 342.525   4
   5   1  -7 3168.61 114.298   1
  -5  -1   7 3878.44 340.027   6
   5   1  -6 5185.87 184.322   1
  -5  -1   6 5362.52 368.619   6
  -5  -1   5 1583.14 194.362   6
   5   1  -5 1802.53 120.725   1
   5   1  -5 2035.95 208.673   2
   5   1  -4 3581.19 185.997   1
   5   1  -4 3775.97 278.880   2
  -5  -1   4 3880.66 280.601   6
   5   1  -3 7712.69 292.749   1
   5   1  -3 7598.88 398.875   2
  -5  -1   3 7877.46 370.574   6
  -5  -1   2-6.36331 50.5919   6
   5   1  -2 34.2714 37.8233   1
   5   1  -2 27.7896 49.0970   2
   5   1  -2 13.4105 22.8184   6
  -5  -1   1 29.8740 34.0089   6
   5   1  -1 34.0652 33.9823   6
   5   1  -1 62.1415 54.9641   1
   5   1   0 43272.7 688.583   6
   5   1   0 43714.6 814.457   1
  -5  -1   0 42809.9 669.042   6
   5   1   1 4538.45 197.448   6
   5   1   1 4238.25 264.530   1
  -5  -1  -1 4808.29 195.555   6
   5   1   2 4244.65 282.972   1
   5   1   2 4293.13 281.977   4
  -5  -1  -2 4003.51 146.817   6
   5   1   3 17076.0 567.849   1
   5   1   3 17370.9 545.820   4
   5   1   4 38984.4 791.132   4
   5   1   4 38272.2 878.440   1
   5   1   5 2165.17 183.574   4
   5   1   5 2239.25 223.700   1
  -5  -1  -6 443.277 58.1178   3
   5   1   6 587.287 118.924   1
   5   1   6 583.014 92.3153   4
   5   1   7 16296.3 448.851   4
  -5  -1  -7 15357.8 393.444   3
   5   1   7 16738.3 638.805   1
   5   1   8 149.571 90.3828   1
  -5  -1  -8 116.824 75.4072   5
  -5  -1  -8 165.623 47.3007   3
   5   1   8 112.537 32.0143   6
  -5  -1  -9 2166.96 145.967   6
   5   1   9 1832.02 224.238   1
  -5  -1  -9 2327.77 269.832   5
  -5  -1  -9 1883.98 170.864   3
   5   1   9 2168.08 155.235   6
  -5  -1 -10 4331.29 232.607   6
  -5  -1 -10 5092.11 411.144   5
  -5  -1 -10 4695.12 294.812   3
   5   1  10 4625.25 361.224   1
   5   1  10 4396.63 247.311   6
  -5  -1 -11 125.187 45.5974   6
   5   1  11 192.481 55.3552   6
   5   1  11 113.008 77.5068   1
   5   1  12 1615.02 177.920   6
  -5  -1 -12 1707.27 254.482   5
   5   1  12 1560.39 222.856   1
  -5  -1 -13 1721.08 256.639   5
   5   1  13 1747.43 242.346   1
   5   1  13 1798.86 201.813   6
  -5  -1 -14 1584.59 260.867   5
   5   1  14 1764.93 248.345   1
   5   1  14 1816.71 214.396   6
  -5  -1 -15 120.177 94.0870   5
   5   1  15 200.905 88.0066   1
   5   1  15 144.486 68.8491   6
   5   1  16 8.20433 61.2610   1
   5   1  16-48.3992 70.2779   6
  -5  -1 -17 201.707 108.692   5
   5   1  17 521.595 157.129   1
   5   1  17 533.003 131.473   6
   5   1  18 143.015 85.6218   1
  -5  -1 -18 253.838 139.487   5
   5   1  19 626.417 167.070   1
  -5  -1 -19 428.360 179.705   5
   5   1  20-53.5347 60.5353   1
  -5  -1 -20 75.7578 116.238   5
   5   1  21 716.779 180.647   1
  -5  -1 -21 519.526 200.859   5
   5   1  22 55.9663 73.6881   1
  -5  -1 -22 68.7368 135.273   5
  -5  -1 -23 769.355 257.060   5
   5   1  23 1448.06 260.924   1
  -5  -2  19-94.1044 101.432   6
  -5  -2  18 1994.20 375.427   6
  -5  -2  17 276.986 157.579   6
  -5  -2  16 61.4968 103.090   6
   5   2 -16 296.315 111.427   4
  -5  -2  15-30.2184 69.0233   6
   5   2 -15 74.0840 66.6924   4
  -5  -2  14 22.9617 101.093   6
   5   2 -14 49.9461 61.8005   4
  -5  -2  13 25.0867 77.5989   6
   5   2 -13 197.458 106.196   4
  -5  -2  12 24.3726 65.6817   6
   5   2 -12-29.9607 72.3579   4
   5   2 -11 268.192 83.0118   4
  -5  -2  11 251.611 125.029   6
  -5  -2  10 729.728 172.728   6
   5   2 -10 1036.30 180.715   4
  -5  -2   9 586.124 151.063   6
   5   2  -9 630.691 144.893   4
   5   2  -8 24535.5 842.782   4
  -5  -2   8 24772.1 895.528   6
   5   2  -7 18286.1 716.993   4
  -5  -2   7 19218.1 758.431   6
  -5  -2   6 1218.20 182.675   6
   5   2  -6 1081.54 171.409   4
   5   2  -5 13655.1 254.781   1
   5   2  -5 13965.0 576.323   2
  -5  -2   5 15760.9 618.210   6
   5   2  -4 21263.3 719.137   2
   5   2  -4 21787.4 385.467   1
  -5  -2   4 22133.3 698.636   6
  -5  -2   3 67371.2 1139.24   6
   5   2  -3 69567.7 1304.78   2
   5   2  -3 66889.3 762.271   1
  -5  -2   2 122348. 1434.97   6
   5   2  -2 121043. 1500.32   6
   5   2  -2 120768. 1728.49   2
   5   2  -2 118260. 1123.84   1
  -5  -2   1 962.061 121.916   6
   5   2  -1 884.032 122.174   6
   5   2  -1 1056.29 117.969   1
  -5  -2   0 950.418 110.679   6
   5   2   0 766.711 102.212   1
   5   2   0 868.671 92.7019   3
  -5  -2  -1 924.508 95.9427   6
   5   2   1 893.086 120.448   1
   5   2   1 939.237 81.7699   3
  -5  -2  -2 4209.96 179.729   6
   5   2   2 4075.99 280.178   4
   5   2   2 4100.68 256.946   1
  -5  -2  -3 6440.04 190.097   6
   5   2   3 6429.07 342.115   4
   5   2   3 6667.94 343.054   1
  -5  -2  -4 288.199 34.7262   6
   5   2   4 361.269 90.5899   1
   5   2   4 460.888 93.9235   4
   5   2   5 47.5978 63.0587   1
   5   2   5 103.563 53.2814   4
   5   2   6 3571.75 284.397   1
  -5  -2  -7 2332.11 107.856   6
  -5  -2  -7 2616.75 138.764   3
   5   2   7 2691.32 256.404   1
  -5  -2  -8 3193.65 151.229   6
   5   2   8 3219.88 282.210   1
  -5  -2  -9 165.987 41.6619   6
  -5  -2  -9 197.646 84.5529   5
   5   2   9 219.051 96.2567   1
  -5  -2 -10 98.3453 34.1037   6
  -5  -2 -10 82.7044 63.6122   5
   5   2  10 181.716 89.8776   1
  -5  -2 -11 915.605 114.320   6
  -5  -2 -11 1046.03 183.700   5
   5   2  11 964.671 132.357   6
   5   2  11 964.954 173.448   1
  -5  -2 -12 10027.0 582.556   5
   5   2  12 9574.83 534.528   1
   5   2  12 9195.17 441.393   6
  -5  -2 -13 3080.96 336.055   5
   5   2  13 3597.08 337.968   1
   5   2  13 3679.90 297.107   6
  -5  -2 -14 124.567 84.6512   5
   5   2  14-16.5872 51.4179   6
   5   2  14 51.8070 61.5600   1
  -5  -2 -15 3043.34 359.130   5
   5   2  15 3045.67 328.859   1
   5   2  15 2655.82 279.294   6
  -5  -2 -16 3752.78 403.501   5
   5   2  16 3438.18 351.303   1
   5   2  16 3831.22 349.176   6
   5   2  17-71.4791 89.7303   1
  -5  -2 -17-39.9455 60.9178   5
   5   2  17-45.7976 64.7258   6
   5   2  18 31.4336 76.8506   1
  -5  -2 -18 196.686 110.282   5
   5   2  19 27.8811 68.9677   1
  -5  -2 -19 82.0226 96.6175   5
   5   2  20 14.8404 72.8817   1
  -5  -2 -20 105.588 102.097   5
   5   2  21 47.5077 79.1226   1
  -5  -2 -21 88.5238 93.1087   5
  -5  -2 -22 7.86599 100.622   5
   5   2  22-81.2627 63.4515   1
   5   2  23 558.051 173.040   1
  -5  -3  18 914.953 255.482   6
  -5  -3  17 192.554 158.288   6
  -5  -3  16 248.869 137.442   6
  -5  -3  15 2789.54 404.541   6
  -5  -3  14 2261.11 352.805   6
  -5  -3  13-90.7761 100.379   6
   5   3 -13 64.3667 82.0207   4
  -5  -3  12 2272.55 334.987   6
   5   3 -12 2140.21 265.368   4
   5   3 -11 4388.01 380.644   4
  -5  -3  11 4614.01 454.773   6
  -5  -3  10 1550.64 253.866   6
   5   3 -10 1287.88 215.521   4
  -5  -3   9 1262.11 217.051   6
   5   3  -9 1737.21 225.021   4
   5   3  -8 5657.98 406.433   4
  -5  -3   8 5017.89 419.611   6
  -5  -3   7 769.787 159.768   6
   5   3  -7 970.025 175.527   4
  -5  -3   6 5411.07 395.902   6
   5   3  -6 6246.28 414.356   4
  -5  -3   5 15486.1 637.698   6
   5   3  -5 16672.2 675.896   2
   5   3  -5 16780.7 665.535   4
   5   3  -4 1319.96 88.6449   1
  -5  -3   4 1704.68 209.613   6
   5   3  -4 1465.91 206.764   2
  -5  -3   3 132.719 68.0736   6
   5   3  -3 108.465 91.2451   2
   5   3  -3 85.2702 32.2725   1
  -5  -3   2 39170.1 875.765   6
   5   3  -2 39360.0 606.796   1
   5   3  -2 40408.8 847.035   3
  -5  -3   1 68082.5 1085.61   6
   5   3  -1 69067.3 867.584   1
   5   3  -1 67728.7 1378.23   2
  -5  -3   1 66728.9 948.936   1
   5   3  -1 67842.5 1018.95   3
  -5  -3   0 2728.27 205.527   6
  -5  -3   0 2744.32 203.953   1
   5   3   0 2958.45 191.677   1
   5   3   0 2509.11 184.324   3
  -5  -3  -1 1919.62 162.251   6
   5   3   1 1835.80 163.758   1
   5   3   1 2200.35 157.056   3
  -5  -3  -2 7431.01 296.177   6
   5   3   2 6944.10 327.599   1
   5   3   2 6634.61 239.566   3
   5   3   3 2259.36 108.522   3
  -5  -3  -3 2799.10 172.379   6
   5   3   3 2444.64 203.613   1
   5   3   4 7890.99 379.155   1
   5   3   5 7831.28 397.224   5
   5   3   5 8517.01 409.903   1
   5   3   6 6472.38 354.820   5
   5   3   6 6318.15 366.142   1
  -5  -3  -6 5691.21 181.436   3
  -5  -3  -6 5773.05 221.427   6
  -5  -3  -7 142.044 38.4380   6
  -5  -3  -7 126.479 37.2813   3
   5   3   7 197.507 79.5636   1
  -5  -3  -8 4630.72 237.511   3
   5   3   8 4277.10 324.897   1
  -5  -3  -8 4249.34 204.096   6
   5   3   9 4391.70 333.419   1
  -5  -3  -9 4621.20 278.846   4
  -5  -3  -9 4909.55 234.853   6
  -5  -3 -10 139.868 42.4236   6
  -5  -3 -10 176.170 71.1205   5
  -5  -3 -10 60.2728 39.0118   4
   5   3  10 268.573 106.421   1
  -5  -3 -11 885.733 165.588   5
   5   3  11 1153.34 189.900   1
  -5  -3 -11 1081.12 126.385   6
   5   3  12 643.302 160.623   1
  -5  -3 -12 804.619 164.127   5
   5   3  13 353.686 118.224   1
  -5  -3 -13 442.697 124.916   5
   5   3  14 3214.61 327.089   1
  -5  -3 -14 3011.70 331.819   5
   5   3  14 2993.35 290.051   6
   5   3  15 1837.66 253.626   1
  -5  -3 -15 1930.65 271.227   5
   5   3  15 1770.29 231.394   6
   5   3  16 53.6775 81.9349   1
  -5  -3 -16 15.3069 57.6757   5
   5   3  16-84.8175 80.3063   6
  -5  -3 -17 1585.79 260.735   5
   5   3  17 1827.95 262.060   1
   5   3  17 1875.05 265.525   6
   5   3  18 359.244 134.104   1
  -5  -3 -18 490.308 146.678   5
  -5  -3 -19 72.4123 71.0186   5
   5   3  19 254.842 113.062   1
  -5  -3 -20 70.3434 106.585   5
   5   3  20-72.9457 98.1139   1
   5   3  21 141.290 87.0402   1
   5   3  22 186.992 107.760   1
   5   3  23 103.269 102.962   1
  -5  -4  18 144.699 105.894   6
  -5  -4  17-0.22572 100.017   6
  -5  -4  16 879.767 234.901   6
  -5  -4  15 2116.08 363.949   6
  -5  -4  14 1000.50 238.724   6
  -5  -4  13 11016.2 759.692   6
  -5  -4  12 5502.62 525.609   6
  -5  -4  11-38.5360 90.9281   6
  -5  -4  10 415.600 165.075   6
  -5  -4   9 6858.46 520.750   6
  -5  -4   8 6349.94 486.148   6
  -5  -4   7 84.3678 70.3938   6
  -5  -4   6 8383.20 517.378   6
  -5  -4   5 1985.25 241.734   6
   5   4  -5 1747.30 235.019   2
  -5  -4   4 1140.70 182.619   6
   5   4  -4 1086.66 192.274   2
   5   4  -4 891.079 79.6285   1
  -5  -4   3 5496.85 370.122   6
  -5  -4   3 4906.64 226.180   1
   5   4  -3 5238.31 409.104   2
   5   4  -3 5028.96 204.858   1
   5   4  -2 5916.49 242.731   1
  -5  -4   2 6327.15 381.571   6
  -5  -4   2 5626.25 262.181   1
   5   4  -2 5733.65 430.292   2
   5   4  -1 2893.86 181.504   1
  -5  -4   1 2849.44 199.038   1
  -5  -4   1 2653.39 238.262   6
   5   4  -1 2660.41 294.454   2
   5   4  -1 2658.12 233.731   3
   5   4   0 26.6598 29.2500   1
  -5  -4   0 183.641 73.0769   6
  -5  -4   0 56.0670 32.1098   1
   5   4   0-74.6176 95.8369   2
   5   4   0 102.184 46.3040   3
   5   4   1 1037.89 121.876   1
  -5  -4  -1 851.289 122.249   6
   5   4   1 813.173 117.487   3
   5   4   2 1210.80 142.685   1
  -5  -4  -2 1195.91 141.276   6
   5   4   2 1284.57 135.521   3
   5   4   3 3743.31 251.678   1
   5   4   3 3596.16 203.667   3
   5   4   4 3208.41 240.186   1
   5   4   4 3195.90 175.671   3
  -5  -4  -4 3306.65 161.104   3
   5   4   5 763.065 134.010   1
   5   4   5 802.997 124.807   5
  -5  -4  -5 761.374 81.2603   3
   5   4   6 4083.37 292.609   1
   5   4   6 4398.49 279.309   5
  -5  -4  -6 3913.27 196.661   3
  -5  -4  -6 3781.17 229.349   6
   5   4   7 7911.08 419.606   1
   5   4   7 8169.92 370.238   5
  -5  -4  -7 8139.05 312.247   3
  -5  -4  -7 8137.76 330.877   6
  -5  -4  -8 692.855 101.515   3
   5   4   8 652.630 134.889   1
  -5  -4  -8 723.045 99.8425   6
   5   4   9 4103.86 327.828   1
  -5  -4  -9 4148.09 266.380   3
  -5  -4  -9 3833.98 235.511   6
  -5  -4 -10 6081.42 348.263   3
   5   4  10 6113.20 403.618   1
  -5  -4 -10 5692.63 298.853   6
   5   4  11 6845.43 439.642   1
   5   4  12 1559.69 221.483   1
  -5  -4 -12 1609.89 219.782   5
   5   4  13 899.803 183.883   1
  -5  -4 -13 1013.48 186.666   5
   5   4  14 120.238 75.0090   1
  -5  -4 -14-8.79492 79.1464   5
   5   4  15 595.772 151.670   1
  -5  -4 -15 473.573 135.371   5
   5   4  16 69.2041 97.0568   1
  -5  -4 -16 197.588 86.9796   5
  -5  -4 -17 544.964 157.571   5
   5   4  17 707.674 175.281   1
   5   4  18 291.802 111.487   1
  -5  -4 -18 529.940 154.219   5
   5   4  19 65.8432 78.6277   1
   5   4  20 546.094 160.008   1
   5   4  21 55.1268 80.8041   1
   5   4  22-56.2858 71.8801   1
   5   4  23 72.7961 96.7663   1
   5   4  24 214.770 125.752   1
  -5  -5  17 211.166 125.652   6
  -5  -5  16 3.97224 104.706   6
  -5  -5  15 1705.29 328.873   6
  -5  -5  14 974.430 254.390   6
  -5  -5  13 1990.27 336.210   6
  -5  -5  12-160.828 139.088   6
  -5  -5  11 2837.75 376.706   6
  -5  -5  10 763.459 199.437   6
  -5  -5   9 2269.14 316.068   6
  -5  -5   8 2636.34 330.930   6
  -5  -5   7 14124.1 727.015   6
  -5  -5   6 3752.67 365.915   6
  -5  -5   5 183.041 104.296   6
  -5  -5   5 105.959 29.1282   1
   5   5  -5 113.938 85.6250   2
  -5  -5   4 762.274 84.5582   1
  -5  -5   4 980.699 176.926   6
   5   5  -4 807.713 176.671   2
   5   5  -3 272.926 60.7837   1
  -5  -5   3 202.702 100.479   6
  -5  -5   3 152.702 44.2338   1
   5   5  -3 225.068 85.3130   2
  -5  -5   2 139.303 70.2362   6
   5   5  -2 56.8428 31.1706   1
  -5  -5   2 87.7167 40.3288   1
   5   5  -2 148.697 81.2807   2
  -5  -5   1 7444.05 432.350   6
   5   5  -1 7404.72 510.319   2
  -5  -5   1 6858.44 320.047   1
   5   5  -1 7081.82 302.145   1
  -5  -5   0 8029.34 434.743   6
   5   5   0 7231.10 506.198   2
   5   5   0 8041.16 335.996   1
   5   5   1 8765.66 365.787   1
  -5  -5  -1 7498.38 406.480   6
   5   5   1 7736.51 523.602   2
   5   5   1 7604.49 405.165   3
   5   5   2 1764.91 175.240   1
  -5  -5  -2 1672.95 156.608   3
   5   5   2 1595.15 179.390   3
   5   5   3 2101.23 194.145   1
  -5  -5  -3 2404.77 181.400   3
   5   5   3 2325.03 202.610   3
   5   5   4 3817.09 267.994   1
  -5  -5  -4 3416.90 213.142   3
   5   5   4 3766.02 241.327   3
  -5  -5  -5 336.075 67.0383   3
   5   5   5 254.448 70.3601   1
   5   5   6 4864.95 323.322   1
   5   5   6 4756.54 277.004   5
  -5  -5  -6 5002.49 269.119   3
   5   5   7 1038.19 153.509   1
   5   5   7 1054.57 123.689   5
  -5  -5  -7 985.026 137.058   6
  -5  -5  -7 1033.86 129.719   3
  -5  -5  -8 244.226 71.3712   3
  -5  -5  -8 232.008 67.5837   6
   5   5   8 400.292 108.929   1
   5   5   9 7989.77 455.857   1
  -5  -5  -9 8177.43 389.131   6
  -5  -5  -9 8851.72 424.889   3
   5   5  10 5044.03 374.530   1
  -5  -5 -10 4958.12 337.186   3
  -5  -5 -11 699.760 133.642   3
   5   5  11 1045.39 177.319   1
  -5  -5 -12 243.613 96.3748   3
   5   5  12-30.2960 109.402   1
  -5  -5 -13 401.826 106.320   3
   5   5  13 114.136 89.6704   1
  -5  -5 -14 193.048 100.522   5
   5   5  14 39.2277 90.4291   1
  -5  -5 -15 953.153 180.201   5
   5   5  15 1164.53 207.157   1
  -5  -5 -16 84.2451 64.4527   5
   5   5  16 5.45114 57.0427   1
   5   5  17 16.5328 55.4614   1
   5   5  18 44.6755 75.7548   1
   5   5  19 630.043 161.930   1
   5   5  20 521.260 153.070   1
   5   5  21 157.837 103.680   1
   5   5  22 66.1665 75.5350   1
   5   5  23 15.8052 92.9390   1
  -5  -6  16-74.8555 99.8098   6
  -5  -6  15 948.892 257.956   6
  -5  -6  14 618.961 203.404   6
  -5  -6  13 648.862 213.306   6
  -5  -6  12 100.415 77.4672   6
  -5  -6  11 2594.24 372.043   6
  -5  -6  10 31.5496 69.1486   6
  -5  -6   9 21.2722 66.5608   6
  -5  -6   8 1317.43 255.739   6
  -5  -6   7 14396.1 773.631   6
  -5  -6   6 365.327 142.782   6
  -5  -6   5 134.705 79.2771   6
   5   6  -5 303.648 113.445   2
  -5  -6   4 2138.99 282.586   6
   5   6  -4 2339.99 304.364   2
  -5  -6   4 2286.39 158.365   1
  -5  -6   3 13.1378 23.1047   1
  -5  -6   3 39.9387 57.3205   6
   5   6  -3 10.8482 84.0444   2
  -5  -6   2 3090.02 308.656   6
   5   6  -2 3154.15 215.057   1
   5   6  -2 2720.27 327.331   2
  -5  -6   2 3092.77 211.970   1
  -5  -6   1 3511.36 323.490   6
   5   6  -1 2929.30 342.136   2
   5   6  -1 3274.22 227.606   1
  -5  -6   0 2636.74 270.577   6
   5   6   0 2670.25 325.541   2
   5   6   0 2476.50 200.752   1
   5   6   1 9796.49 618.219   2
  -5  -6  -1 9695.16 448.037   3
   5   6   1 10623.3 430.501   1
   5   6   2 5861.95 328.356   1
   5   6   2 4803.65 433.994   2
  -5  -6  -2 4864.24 308.285   3
  -5  -6  -3 1477.94 166.804   3
   5   6   3 1476.17 186.411   3
   5   6   3 1645.88 180.622   1
   5   6   4 55.9548 45.6665   1
   5   6   4 30.8232 34.9438   3
  -5  -6  -4 93.1584 42.3142   3
   5   6   5 3790.37 285.310   1
   5   6   5 3577.30 269.292   3
  -5  -6  -5 3416.17 254.691   3
   5   6   6 843.374 110.331   5
   5   6   6 899.936 146.504   1
  -5  -6  -6 783.796 125.667   3
  -5  -6  -7 53.3602 35.2305   3
   5   6   7 13.2520 19.1381   5
   5   6   7-60.5865 65.7439   1
  -5  -6  -8 2815.49 250.163   3
   5   6   8 3189.75 287.959   1
   5   6   9 2952.70 284.660   1
  -5  -6  -9 3231.94 280.291   3
  -5  -6 -10 110.932 67.2012   3
   5   6  10 81.9439 68.4315   1
  -5  -6 -11 58.2456 47.4008   3
   5   6  11 147.938 96.2074   1
  -5  -6 -12 450.330 119.226   3
   5   6  12 507.167 137.090   1
   5   6  13 3788.30 352.037   1
  -5  -6 -13 4410.57 388.656   3
  -5  -6 -14 960.732 192.139   3
   5   6  14 798.050 162.037   1
  -5  -6 -15 232.307 104.940   3
   5   6  15 481.307 142.771   1
  -5  -6 -16 50.8685 61.3733   3
   5   6  16 108.010 111.278   1
  -5  -6 -17 107.295 102.819   3
   5   6  17 61.8786 77.7809   1
   5   6  18 11.4164 56.4827   1
   5   6  19 42.7703 64.0083   1
   5   6  20-59.0427 96.4657   1
   5   6  21 125.386 99.5073   1
   5   6  22 20.8123 55.5220   1
   5   6  23 76.0594 104.354   1
  -5  -7  15 2000.92 375.022   6
  -5  -7  14 285.633 169.285   6
  -5  -7  13 47.3900 96.8335   6
  -5  -7  12 501.335 186.495   6
  -5  -7  11 1044.20 250.909   6
  -5  -7  10 497.553 172.950   6
  -5  -7   9 1775.15 300.631   6
  -5  -7   8-60.5803 120.503   6
  -5  -7   7 110.759 95.2935   6
  -5  -7   6 446.445 144.570   6
  -5  -7   5-54.5853 91.6783   6
  -5  -7   4 1337.82 234.625   6
   5   7  -4 1154.95 227.642   2
  -5  -7   3-16.6756 79.9512   6
   5   7  -3 55.2504 78.6289   2
  -5  -7   2 1863.65 259.031   6
   5   7  -2 1990.72 292.679   2
   5   7  -1 133.299 51.9135   1
  -5  -7   1 215.267 79.7437   6
   5   7  -1 4.57288 77.8110   2
   5   7   0 736.952 124.352   1
  -5  -7   0 771.479 171.013   6
   5   7   0 1097.69 221.457   2
   5   7   1 421.773 94.5432   1
  -5  -7  -1 183.962 71.0155   3
   5   7   1 389.441 157.886   2
  -5  -7  -2 1986.53 224.097   3
   5   7   2 1747.13 276.626   2
   5   7   2 2175.82 218.777   1
   5   7   3 58.4410 46.1792   1
  -5  -7  -3 143.950 72.5168   3
   5   7   3 130.016 64.8710   2
  -5  -7  -4 4117.35 312.453   3
   5   7   4 4477.07 321.389   1
  -5  -7  -5 6235.03 386.238   3
   5   7   5 7105.62 414.477   1
   5   7   6 2313.08 171.486   5
  -5  -7  -6 2457.44 247.226   3
   5   7   6 2126.16 238.568   1
   5   7   7 4530.93 205.495   5
  -5  -7  -7 4548.12 340.048   3
   5   7   7 4489.62 350.919   1
  -5  -7  -8 644.183 136.419   3
   5   7   8 362.356 101.048   1
   5   7   9 3517.57 322.018   1
  -5  -7  -9 4033.05 339.539   3
   5   7  10 2844.92 300.816   1
  -5  -7 -10 3053.06 306.836   3
  -5  -7 -11 226.340 100.053   3
   5   7  11 255.085 111.727   1
   5   7  12 6072.49 450.959   1
  -5  -7 -12 6871.64 493.687   3
   5   7  13 4993.31 421.339   1
  -5  -7 -13 4304.15 407.029   3
  -5  -7 -14-2.70448 56.0427   3
   5   7  14 76.3133 73.9855   1
   5   7  15 3920.31 389.660   1
  -5  -7 -15 4311.06 437.315   3
  -5  -7 -16 121.280 84.4063   3
   5   7  16 103.364 82.1773   1
   5   7  17 647.540 174.711   1
   5   7  18 1209.34 231.749   1
   5   7  19 107.619 94.1194   1
   5   7  20 63.3968 103.165   1
   5   7  21 339.900 139.579   1
   5   7  22 994.305 235.091   1
  -5  -8  14 252.791 174.163   6
  -5  -8  13 3386.37 477.519   6
  -5  -8  12 657.519 209.597   6
  -5  -8  11-10.4402 99.0067   6
  -5  -8  10-65.4583 143.329   6
  -5  -8   9-6.54441 83.5215   6
  -5  -8   8 156.669 121.606   6
  -5  -8   7 54.6423 71.5175   6
  -5  -8   6 176.499 111.261   6
  -5  -8   5 801.408 205.542   6
  -5  -8   4 1284.41 240.564   6
   5   8  -4 1161.56 240.751   2
  -5  -8   3 2580.69 332.304   6
   5   8  -3 2192.03 321.514   2
  -5  -8   2 1182.40 222.725   6
   5   8  -2 1389.20 262.651   2
  -5  -8   1 366.664 131.393   6
   5   8  -1 452.904 134.744   2
   5   8   0 227.640 80.6754   1
  -5  -8   0 183.108 86.5828   3
   5   8   0 237.547 135.796   2
   5   8   1 367.599 100.900   1
   5   8   1 335.513 149.440   2
  -5  -8  -1 377.313 113.282   3
   5   8   2 43.9569 47.3056   1
   5   8   2 16.6636 78.9420   2
  -5  -8  -2 109.410 63.4152   3
   5   8   3 6243.14 537.709   2
  -5  -8  -3 6618.72 438.463   3
   5   8   3 5919.51 388.334   1
   5   8   4 7244.03 582.820   2
  -5  -8  -4 7196.12 456.871   3
   5   8   4 7075.59 435.373   1
   5   8   5 1343.31 191.427   1
  -5  -8  -5 1546.39 215.843   3
   5   8   6 608.538 132.421   1
  -5  -8  -6 529.802 121.726   3
  -5  -8  -7 18602.1 747.118   3
   5   8   7 18788.6 740.317   1
   5   8   8 513.674 139.585   1
  -5  -8  -8 520.685 133.686   3
  -5  -8  -9 39.6222 57.0593   3
   5   8   9-23.8223 61.0161   1
  -5  -8 -10 153.234 87.9323   3
   5   8  10 23.9342 77.4519   1
  -5  -8 -11 17.4774 53.9499   3
   5   8  11 7.26796 79.5646   1
  -5  -8 -12 167.834 92.6326   3
   5   8  12 1.89268 81.5604   1
  -5  -8 -13 5327.53 472.228   3
   5   8  13 4625.09 424.098   1
  -5  -8 -14 1724.01 284.813   3
   5   8  14 1723.01 267.480   1
  -5  -8 -15 15.8882 68.6023   3
   5   8  15 21.3474 64.2820   1
   5   8  16 218.560 117.952   1
   5   8  17 211.655 104.790   1
   5   8  18-26.4753 78.8828   1
   5   8  19 6.15912 59.6571   1
   5   8  20 178.789 98.6356   1
   5   8  21 86.5518 110.517   1
  -5  -9  13 3094.31 467.188   6
  -5  -9  12 237.539 171.518   6
  -5  -9  11 921.909 247.307   6
  -5  -9  10 540.587 191.706   6
  -5  -9   9 128.103 130.825   6
  -5  -9   8 751.936 218.912   6
  -5  -9   7 508.119 170.861   6
  -5  -9   6-81.8877 85.0591   6
  -5  -9   5-2.19324 67.8594   6
  -5  -9   4 4916.41 493.330   6
   5   9  -3 603.101 187.231   2
  -5  -9   3 1155.25 241.749   6
  -5  -9   2 412.362 155.654   6
   5   9  -2 264.967 123.536   2
  -5  -9   1 3068.37 367.328   6
   5   9  -1 2759.26 374.763   2
   5   9   0 1326.01 262.532   2
  -5  -9   0 1495.79 233.449   3
   5   9   1 3210.87 399.582   2
  -5  -9  -1 3373.57 347.195   3
   5   9   2 1248.79 189.500   1
   5   9   2 1037.84 232.093   2
  -5  -9  -2 887.256 182.669   3
   5   9   3 53.1230 66.1327   1
   5   9   3 7.34887 88.2704   2
  -5  -9  -3 152.467 76.6297   3
  -5  -9  -4 2917.55 312.631   3
   5   9   4 2949.39 385.566   2
   5   9   4 3386.73 318.866   1
   5   9   5 40.6390 75.9353   1
   5   9   5-70.0182 121.827   2
  -5  -9  -5 87.8500 47.7513   3
   5   9   6 306.889 109.551   1
  -5  -9  -6 316.988 114.634   3
  -5  -9  -7 6481.84 476.583   3
   5   9   7 6211.29 453.293   1
   5   9   8 909.817 179.407   1
  -5  -9  -8 1386.11 223.409   3
  -5  -9  -9 1491.72 242.281   3
   5   9   9 1235.44 217.384   1
  -5  -9 -10-38.3275 48.4294   3
   5   9  10-86.8141 103.720   1
  -5  -9 -11 370.615 134.090   3
   5   9  11 246.656 108.290   1
  -5  -9 -12 99.9809 84.5143   3
   5   9  12-65.6820 106.906   1
  -5  -9 -13 17.7038 91.0433   3
   5   9  13 43.4213 84.8397   1
  -5  -9 -14 1718.38 295.095   3
   5   9  14 1120.64 217.320   1
   5   9  15 760.858 208.570   1
   5   9  16-171.589 133.690   1
   5   9  17-105.467 104.940   1
   5   9  18 553.487 171.452   1
   5   9  19 228.177 130.940   1
   5   9  20 35.2736 81.0088   1
  -5 -10  11 145.158 129.963   6
  -5 -10  10 191.526 133.386   6
  -5 -10   9 229.365 110.111   6
  -5 -10   8 304.204 148.763   6
  -5 -10   7 617.259 209.969   6
  -5 -10   6-126.233 138.297   6
  -5 -10   5-35.0672 74.9304   6
  -5 -10   4-136.734 112.404   6
  -5 -10   3 746.714 223.032   6
  -5 -10   2 1035.43 233.407   6
   5  10  -2 726.448 192.647   2
  -5 -10   1 698.142 198.948   6
   5  10  -1 614.621 176.715   2
   5  10   0 499.847 181.647   2
  -5 -10   0 486.906 140.839   3
   5  10   1 9124.63 692.011   2
  -5 -10  -1 9158.53 605.238   3
  -5 -10  -2 2878.22 338.818   3
   5  10   2 2604.45 370.943   2
   5  10   3 735.042 192.024   2
  -5 -10  -3 364.639 121.843   3
   5  10   3 756.832 161.851   1
   5  10   4-6.09867 60.3249   1
   5  10   4 45.6123 73.0606   2
  -5 -10  -4 75.8559 87.8860   3
   5  10   5 1705.79 247.910   1
   5  10   5 1448.58 284.205   2
  -5 -10  -5 1645.72 254.746   3
   5  10   6 1361.73 229.363   1
   5  10   6 1440.59 284.751   2
  -5 -10  -6 1769.68 266.286   3
   5  10   7 85.8992 86.4933   1
   5  10   7 135.439 123.494   2
  -5 -10  -7 27.4639 71.2269   3
   5  10   8 330.992 128.709   1
  -5 -10  -8 43.3096 61.1885   3
   5  10   9 966.315 202.773   1
  -5 -10  -9 1136.76 225.765   3
  -5 -10 -10 52.6435 55.8652   3
   5  10  10-43.0879 89.4109   1
  -5 -10 -11 97.4560 97.7634   3
   5  10  11 89.5515 81.2062   1
  -5 -10 -12 288.517 133.947   3
   5  10  12 499.930 138.283   1
  -5 -10 -13 175.227 117.208   3
   5  10  13 224.268 93.6380   1
   5  10  14 157.727 95.3600   1
   5  10  15 68.2928 83.6482   1
   5  10  16-78.8083 114.684   1
   5  10  17 191.953 123.118   1
   5  10  18 51.6805 76.5581   1
   5  10  19 226.480 133.500   1
  -5 -11   9 511.851 213.129   6
  -5 -11   8 113.032 90.1712   6
  -5 -11   7 332.798 173.216   6
  -5 -11   6 1847.39 344.951   6
  -5 -11   5 604.597 190.940   6
  -5 -11   4 120.455 119.683   6
  -5 -11   3 345.820 158.952   6
  -5 -11   2 74.5012 94.7634   6
   5  11  -2 337.024 144.266   2
  -5 -11   1 1216.16 266.620   6
   5  11  -1 1066.15 245.947   2
   5  11   0 724.625 215.234   2
  -5 -11   0 506.632 164.829   3
   5  11   1 263.013 158.078   2
  -5 -11  -1 114.683 94.9931   3
   5  11   2 372.909 160.258   2
  -5 -11  -2 237.731 114.892   3
   5  11   3 293.798 123.810   2
  -5 -11  -3 276.210 112.749   3
   5  11   4-8.93486 79.6403   2
  -5 -11  -4 12.7955 52.2852   3
   5  11   5-44.5643 90.8300   1
   5  11   5-72.1084 99.9209   2
  -5 -11  -5 35.7029 84.9872   3
   5  11   6 56.6290 61.3814   1
   5  11   6-37.8870 103.060   2
  -5 -11  -6 165.408 106.120   3
   5  11   7 149.954 105.853   1
   5  11   7-50.5783 124.788   2
  -5 -11  -7 41.2481 57.4598   3
   5  11   8 1532.51 256.565   1
   5  11   8 1755.59 335.216   2
  -5 -11  -8 1635.26 277.272   3
   5  11   9 463.883 163.549   1
   5  11   9 122.058 103.294   2
  -5 -11  -9 276.322 119.656   3
   5  11  10-67.8352 85.2682   1
  -5 -11 -10 105.336 84.4838   3
  -5 -11 -11 819.573 208.002   3
   5  11  11 612.300 176.809   1
  -5 -11 -12 239.099 124.726   3
   5  11  12-97.5782 113.975   1
   5  11  13 506.689 165.261   1
   5  11  14 1561.45 284.994   1
   5  11  15 658.708 206.142   1
   5  11  16 119.652 75.6101   1
   5  11  17 303.471 141.692   1
   5  11  18 101.369 70.4852   1
  -5 -12   7 288.746 175.176   6
  -5 -12   6 135.288 142.922   6
  -5 -12   5 582.457 195.793   6
  -5 -12   4 717.197 230.027   6
  -5 -12   3 1688.57 325.931   6
  -5 -12   2 136.036 120.921   6
  -5 -12   1 1125.97 264.162   6
   5  12  -1 1141.91 263.390   2
   5  12   0 1555.89 307.205   2
  -5 -12   0 1783.71 304.743   3
   5  12   1 2408.50 383.579   2
  -5 -12  -1 2159.66 335.930   3
   5  12   2 2042.53 361.239   2
  -5 -12  -2 1641.55 284.703   3
   5  12   3-45.5339 90.5716   2
  -5 -12  -3 182.246 104.390   3
   5  12   4 191.887 119.434   2
  -5 -12  -4 414.653 146.814   3
   5  12   5 196.943 155.623   2
  -5 -12  -5 193.451 110.968   3
   5  12   6 1239.56 280.591   2
  -5 -12  -6 733.743 196.561   3
   5  12   7 794.585 234.957   2
   5  12   7 738.094 188.488   1
  -5 -12  -7 1048.14 237.419   3
   5  12   8 369.499 138.425   1
   5  12   8 311.990 137.370   2
  -5 -12  -8 611.924 168.853   3
   5  12   9 2614.49 359.139   1
   5  12   9 2450.91 401.252   2
  -5 -12  -9 2531.52 367.822   3
   5  12  10 219.480 131.150   1
   5  12  10 603.271 201.624   2
  -5 -12 -10 299.309 116.846   3
   5  12  11 31.8838 79.2098   1
   5  12  12 420.997 161.814   1
   5  12  13 218.930 110.692   1
   5  12  14 393.853 182.026   1
   5  12  15 112.783 111.565   1
   5  12  16 356.758 173.293   1
  -5 -13   5 82.9275 79.4068   6
  -5 -13   4 375.900 171.838   6
  -5 -13   3 132.258 160.002   6
  -5 -13   2 1494.33 314.319   6
  -5 -13   1 1209.27 302.756   6
   5  13   0 648.963 208.501   2
  -5 -13   0 390.945 146.660   3
   5  13   1 1712.08 331.710   2
  -5 -13  -1 1320.80 278.258   3
   5  13   2 27.0482 103.304   2
  -5 -13  -2 126.693 89.7063   3
   5  13   3 191.164 144.368   2
  -5 -13  -3 275.696 135.102   3
   5  13   4 120.316 108.530   2
  -5 -13  -4 5.69454 60.4091   3
   5  13   5 1099.87 277.463   2
  -5 -13  -5 1000.58 240.633   3
   5  13   6 611.193 207.724   2
  -5 -13  -6 304.602 156.734   3
   5  13   7 119.027 125.655   2
  -5 -13  -7 693.534 207.003   3
   5  13   8 1937.77 365.748   2
  -5 -13  -8 1720.98 316.394   3
   5  13   9 409.213 197.419   2
  -5 -13  -9 657.986 201.477   3
   5  13  10 95.7565 138.448   2
   5  13  10 32.4399 82.9288   1
   5  13  11 577.504 210.597   2
   5  13  11 395.944 163.092   1
   5  13  12-41.3287 99.3281   1
   5  13  12-64.5551 88.0100   2
   5  13  13 68.2812 82.6923   1
   5  13  13-158.906 162.149   2
   5  13  14 152.683 109.500   1
  -5 -14   2-94.7661 134.558   6
  -5 -14   1 210.777 141.647   6
  -5 -14   0 62.5623 84.6989   6
  -5 -14   0-23.2144 78.7812   3
   5  14   1 181.180 161.191   2
  -5 -14  -1-16.6818 82.9907   3
   5  14   2 275.316 165.420   2
  -5 -14  -2 68.1228 65.7603   3
   5  14   3-47.1453 74.8951   2
  -5 -14  -3-60.6595 99.9361   3
   5  14   4-67.2467 108.071   2
  -5 -14  -4 73.2714 97.0181   3
   5  14   5 209.472 120.285   2
  -5 -14  -5 148.894 116.894   3
   5  14   6 341.978 162.380   2
  -5 -14  -6 133.018 103.979   3
   5  14   7 124.054 102.760   2
  -5 -14  -7 116.186 105.256   3
   5  14   8-153.909 130.441   2
   5  14   9 603.008 212.739   2
   5  14  10 508.024 193.746   2
   5  14  11 558.099 205.209   2
   5  14  12 282.860 140.364   2
   5  14  13 15.1629 110.210   2
   5  14  14-75.5648 115.392   2
   5  14  15-214.808 148.992   2
   5  14  16 22.2733 89.1318   2
  -5 -15  -1-186.919 127.474   3
  -5 -15  -2-14.7163 89.5237   3
   5  15   3 1126.37 297.563   2
  -5 -15  -3 967.791 260.077   3
   5  15   4 858.273 263.575   2
  -5 -15  -4 428.447 178.085   3
   5  15   5 134.249 137.198   2
  -5 -15  -5 150.184 132.409   3
   5  15   6 96.4912 98.3618   2
   5  15   7 2.96583 77.2508   2
   5  15   8 326.446 181.506   2
   5  15   9-66.5252 97.2542   2
   5  15  10 352.871 168.644   2
   5  15  11 438.223 200.532   2
   5  15  12 50.1797 87.7125   2
   5  15  13-56.2522 115.561   2
   6 -14  -5 2009.81 444.610   3
   6 -14  -4 224.715 138.078   3
   6 -14  -3-72.5964 156.035   3
   6 -14  -2 124.212 131.588   3
   6 -13 -11 1155.01 345.957   3
   6 -13 -10 633.320 262.686   3
   6 -13  -9 614.778 279.917   3
   6 -13  -8 528.887 237.969   3
   6 -13  -7 326.914 204.898   3
   6 -13  -6 58.9637 104.994   3
   6 -13  -5-21.9764 136.731   3
   6 -13  -4 1237.04 326.899   3
   6 -13  -3 120.026 147.599   3
   6 -13  -2-44.7730 131.988   3
   6 -13  -1 110.332 141.204   3
   6 -13   0-97.9746 137.795   3
   6 -13   1 635.744 243.476   3
   6 -13   2 510.851 239.531   3
   6 -13   3-22.5454 91.2454   3
   6 -13   4 577.083 249.073   3
   6 -12 -13 18.4791 101.397   3
   6 -12 -12-75.0268 115.004   3
   6 -12 -11 867.475 288.350   3
   6 -12 -10-24.5593 124.246   3
   6 -12  -9 386.611 193.154   3
   6 -12  -8-167.510 143.470   3
   6 -12  -7 531.269 236.188   3
   6 -12  -6 1606.14 373.573   3
   6 -12  -5 138.746 113.954   3
   6 -12  -4 966.670 283.667   3
   6 -12  -3-65.7047 90.7883   3
   6 -12  -2 175.560 146.606   3
   6 -12  -1 134.586 102.847   3
   6 -12   0 922.446 274.309   3
   6 -12   1 532.856 206.756   3
   6 -12   2 2.28860 85.8225   3
   6 -12   3 266.776 161.467   3
   6 -12   4 324.836 162.836   3
   6 -12   5 93.8155 133.474   3
   6 -12   6 658.798 221.645   3
  -6  12  -7-351.408 188.983   5
   6 -12   7-197.365 137.714   3
   6 -12   8 945.490 262.823   6
  -6  12  -8 501.980 225.491   5
   6 -12   8 470.602 193.645   3
   6 -12   9 103.328 94.4738   6
   6 -11 -15 43.7327 86.7696   3
   6 -11 -14 2120.26 461.149   3
   6 -11 -13 226.819 165.212   3
   6 -11 -12 376.810 195.918   3
   6 -11 -11 569.687 238.589   3
   6 -11 -10 4.77560 128.341   3
   6 -11  -9 117.424 86.4526   3
   6 -11  -8 116.855 93.7636   3
   6 -11  -7 99.2970 89.3617   3
   6 -11  -6 236.782 146.227   3
   6 -11  -5 105.430 97.9653   3
   6 -11  -4 2785.26 456.897   3
   6 -11  -3 303.040 155.139   3
   6 -11  -2 1279.27 311.591   3
   6 -11  -1 699.558 239.131   3
   6 -11   0 660.403 234.133   3
   6 -11   1 1583.39 340.922   3
   6 -11   2 2147.11 393.667   3
   6 -11   3 186.172 158.542   3
   6 -11   4 181.122 128.111   3
   6 -11   5 696.972 229.435   3
  -6  11  -6 689.012 225.395   5
   6 -11   6 809.711 254.939   3
  -6  11  -7 156.078 131.169   5
   6 -11   7 456.458 195.012   3
   6 -11   8 792.553 231.569   6
  -6  11  -8 988.477 285.166   5
   6 -11   8 1523.19 326.766   3
   6 -11   9 3.51265 99.7706   6
  -6  11  -9 153.813 127.447   5
   6 -11   9 72.3851 112.098   3
   6 -11  10 410.160 182.212   6
  -6  11 -10 153.892 163.437   5
   6 -10 -16 186.026 187.139   3
   6 -10 -15 246.107 173.264   3
   6 -10 -14 353.939 235.139   3
   6 -10 -13 2344.08 448.518   3
   6 -10 -12 5096.24 646.343   3
   6 -10 -11 1949.60 381.247   3
   6 -10 -10-98.1957 117.965   3
   6 -10  -9 985.071 277.359   3
   6 -10  -8-63.4316 162.030   3
   6 -10  -7 186.639 191.967   3
   6 -10  -6 281.479 149.823   3
   6 -10  -5-16.5597 93.5341   3
   6 -10  -4 815.703 243.600   3
   6 -10  -3 1649.51 340.433   3
   6 -10  -2 1576.15 324.845   3
   6 -10  -1-94.9621 166.983   3
   6 -10   0 159.779 138.395   3
   6 -10   1 102.660 70.5665   3
   6 -10   2-166.087 136.200   3
   6 -10   3 1528.38 308.916   3
   6 -10   4 821.076 237.012   3
   6 -10   5 183.934 138.007   3
  -6  10  -6 768.168 233.832   5
   6 -10   6 957.736 249.583   3
  -6  10  -7 1478.55 337.725   5
   6 -10   7 2266.10 383.312   3
   6 -10   8 843.662 219.818   6
  -6  10  -8 721.858 243.215   5
   6 -10   8 1097.41 274.195   3
   6 -10   9 102.193 91.8955   6
  -6  10  -9-118.477 155.241   5
   6 -10   9 55.9196 63.5017   3
   6 -10  10 431.971 169.482   6
  -6  10 -10 564.656 272.540   5
   6 -10  11 284.330 127.734   6
  -6  10 -11 369.169 196.037   5
   6 -10  13-2.16450 74.7086   1
   6  -9 -17 409.304 206.502   3
   6  -9 -16 434.691 201.965   3
   6  -9 -15 483.473 205.556   3
   6  -9 -14-140.492 136.239   3
   6  -9 -13-47.7953 139.571   3
   6  -9 -12 1272.01 319.051   3
   6  -9 -11 20.6193 138.737   3
   6  -9 -10 2042.95 385.061   3
   6  -9  -9 730.817 240.540   3
   6  -9  -8 114.170 121.311   3
   6  -9  -7 1186.10 289.514   3
   6  -9  -6 4990.78 574.753   3
   6  -9  -5 23861.0 1222.87   3
   6  -9  -4 6708.48 642.754   3
   6  -9  -3 1457.88 306.985   3
   6  -9  -2-58.9087 136.077   3
   6  -9  -1 99.3236 85.9228   3
   6  -9   0 1691.02 312.351   3
   6  -9   1 5949.99 585.672   3
   6  -9   2 1462.94 296.632   3
   6  -9   3 238.585 152.456   3
   6  -9   4 1403.49 285.348   3
  -6   9  -5 988.381 272.674   5
   6  -9   5 897.984 232.488   3
  -6   9  -6 594.410 199.678   5
   6  -9   6 705.736 215.232   3
  -6   9  -7 206.385 148.589   5
   6  -9   7 450.662 161.190   3
   6  -9   8-33.7896 59.7231   6
  -6   9  -8 94.8702 83.6995   5
   6  -9   8 199.495 137.152   3
   6  -9   9-55.3467 103.884   6
   6  -9   9 48.8448 104.286   3
   6  -9  10 534.874 167.117   6
  -6   9 -10 639.366 232.942   5
   6  -9  11 19.3879 85.8566   6
  -6   9 -11-39.1796 95.9301   5
   6  -9  12-73.7116 86.9095   6
  -6   9 -12 39.2938 120.869   5
   6  -9  13 1894.51 349.258   1
   6  -9  14 995.406 255.826   1
   6  -9  15 147.151 137.129   1
   6  -8 -18 422.394 227.370   3
   6  -8 -17 1860.48 409.987   3
   6  -8 -16 240.121 151.136   3
   6  -8 -15 178.767 113.217   3
   6  -8 -14 568.955 227.272   3
   6  -8 -13 87.1358 92.0038   3
   6  -8 -12 268.961 140.473   3
   6  -8 -11 1083.44 286.584   3
   6  -8 -10 4258.36 533.334   3
   6  -8  -9 340.919 155.036   3
   6  -8  -8 3995.65 494.119   3
   6  -8  -7 11406.3 826.100   3
   6  -8  -6 13793.5 897.161   3
   6  -8  -5 1928.41 335.610   3
   6  -8  -4 8015.17 671.436   3
   6  -8  -3 8782.93 702.961   3
   6  -8  -2 2844.29 390.111   3
   6  -8  -1 194.582 96.7042   3
   6  -8   0 852.284 216.980   3
   6  -8   1 151.477 121.137   3
   6  -8   2 2692.14 385.338   3
   6  -8   3 9852.09 707.925   3
   6  -8   4 2489.52 361.436   3
  -6   8  -5 2576.38 383.813   5
   6  -8   5 2634.59 370.031   3
  -6   8  -6 6035.67 613.315   5
   6  -8   6 5474.36 531.397   3
  -6   8  -7 1236.32 291.289   5
   6  -8   7 1464.37 282.854   3
   6  -8   8 62.5443 77.7513   6
  -6   8  -8-92.2757 124.502   5
   6  -8   8-130.703 108.051   3
   6  -8   9 33.5526 61.7492   6
  -6   8  -9-148.798 113.103   5
   6  -8   9 159.749 125.033   3
   6  -8  10 1614.13 267.078   6
  -6   8 -10 1325.42 331.507   5
   6  -8  11 795.073 196.661   6
  -6   8 -11 875.378 263.658   5
   6  -8  12 474.149 152.046   6
  -6   8 -12 644.890 234.005   5
   6  -8  13 704.517 201.170   1
  -6   8 -13 841.191 269.616   5
   6  -8  14 140.840 99.3153   1
  -6   8 -14 561.685 255.107   5
   6  -8  15-158.052 115.474   1
   6  -8  16 240.109 130.771   1
   6  -7 -19-214.534 169.814   3
  -6   7  19 14.8859 84.3031   6
   6  -7 -18-171.271 187.798   3
  -6   7  18 97.4860 126.308   6
   6  -7 -17 186.142 128.189   3
  -6   7  17 253.847 175.930   6
   6  -7 -16 333.264 155.186   3
  -6   7  16-46.9622 136.940   6
  -6   7  15 2180.03 401.119   6
   6  -7 -15 2436.56 449.361   3
   6  -7 -14 1694.02 351.894   3
  -6   7  14 1692.27 343.371   6
   6  -7 -13-134.396 159.595   3
   6  -7 -12 321.148 182.269   3
   6  -7 -11 2157.24 383.127   3
   6  -7 -10 572.392 198.545   3
   6  -7  -9 26.7910 124.720   3
   6  -7  -8 4009.00 483.873   3
   6  -7  -7 218.716 134.995   3
   6  -7  -6 23011.3 1109.70   3
   6  -7  -5 54060.2 1660.85   3
   6  -7  -4 3440.74 419.293   3
   6  -7  -3 111.682 87.8639   3
   6  -7  -2 1449.96 271.992   3
   6  -7  -1 129.842 73.5679   3
   6  -7   0 723.867 181.598   3
   6  -7   1 227.456 126.484   3
   6  -7   2 5719.72 511.786   3
   6  -7   3 2521.24 336.097   3
   6  -7   4 539.067 178.710   3
  -6   7  -5 7447.50 641.023   5
   6  -7   5 7131.06 568.395   3
  -6   7  -6 6077.24 590.544   5
   6  -7   6 6096.98 527.385   3
  -6   7  -7-9.08589 96.7769   5
   6  -7   7 85.5353 82.7586   3
   6  -7   8 1209.31 220.509   6
  -6   7  -8 1599.57 323.919   5
   6  -7   8 1587.49 280.730   3
   6  -7   9 1514.06 241.787   6
  -6   7  -9 1197.58 290.553   5
   6  -7  10 1294.21 234.756   6
  -6   7 -10 848.058 252.078   5
   6  -7  11 69.4693 79.9573   6
  -6   7 -11-65.0531 119.303   5
   6  -7  12-196.733 134.835   1
   6  -7  12-76.2459 76.9861   6
  -6   7 -12-56.2026 119.813   5
  -6   7 -13 1126.83 329.273   5
   6  -7  13 642.721 189.331   1
  -6   7 -14-150.980 169.214   5
   6  -7  14 68.1146 85.5884   1
  -6   7 -15 31.1146 94.7317   5
   6  -7  15 300.046 148.682   1
   6  -7  16 517.911 169.937   1
   6  -7  17 23.2620 60.8505   1
  -6   6  19 92.0877 108.961   6
  -6   6  18 82.0126 100.974   6
  -6   6  17-17.7962 86.8915   6
  -6   6  16 1832.52 371.610   6
  -6   6  15 3336.35 484.996   6
   6  -6 -14 168.714 150.637   3
  -6   6  14 121.708 109.417   6
   6  -6 -13 1771.70 353.490   3
  -6   6  13 1300.25 298.959   6
   6  -6 -12 863.964 242.810   3
  -6   6  12 685.725 226.811   6
   6  -6 -11 1840.74 336.812   3
  -6   6  11 2105.15 349.426   6
   6  -6 -10 1852.62 330.602   3
   6  -6  -9-76.1350 96.2702   3
   6  -6  -8-100.411 119.168   3
   6  -6  -7 889.012 222.007   3
   6  -6  -6 5807.82 538.725   3
   6  -6  -5 5490.70 504.415   3
   6  -6  -4 709.939 187.465   3
   6  -6  -3 167.827 83.6915   3
   6  -6  -3 177.865 39.1537   2
   6  -6  -2 76.1218 82.2275   3
   6  -6  -1 3863.94 409.748   3
   6  -6   0 761.023 199.893   3
   6  -6   1 275.823 118.693   3
   6  -6   2-12.1834 86.6409   3
   6  -6   3 112.705 96.2240   3
   6  -6   4 3393.25 368.261   3
  -6   6  -5 2444.70 353.655   5
   6  -6   5 2583.52 325.175   3
  -6   6  -6 24.5281 92.3196   5
   6  -6   6 40.4518 78.5913   3
  -6   6  -7 5044.73 531.759   5
   6  -6   7 4382.35 418.044   3
   6  -6   8 7539.33 494.598   6
  -6   6  -8 7124.39 638.423   5
   6  -6   8 7202.42 545.243   3
   6  -6   9 1350.83 212.686   6
  -6   6  -9 1226.14 279.677   5
   6  -6  10 2935.83 319.972   6
  -6   6 -10 2690.98 424.266   5
   6  -6  11 2180.57 280.294   6
   6  -6  11 2624.88 372.001   1
  -6   6 -11 2449.99 407.653   5
   6  -6  12-26.3894 95.7959   1
   6  -6  12 219.733 103.235   6
  -6   6 -12-19.1490 117.541   5
   6  -6  13 604.371 187.722   1
   6  -6  13 475.907 141.497   6
  -6   6 -13 152.209 119.300   5
  -6   6 -14 131.030 122.334   5
   6  -6  14 36.3721 93.8185   1
   6  -6  15 341.961 134.137   1
  -6   6 -15 882.777 289.406   5
  -6   6 -16 587.865 247.295   5
   6  -6  16 720.605 198.346   1
   6  -6  17-108.392 96.7261   1
   6  -6  18 512.342 182.815   1
  -6   5  19 223.709 177.274   6
  -6   5  18-435.661 199.102   6
  -6   5  17 501.840 214.034   6
  -6   5  16 454.987 184.336   6
  -6   5  15 300.907 172.104   6
  -6   5  14 2119.05 362.978   6
  -6   5  13 208.521 143.132   6
  -6   5  12 391.550 166.554   6
  -6   5  11-0.70346 92.1041   6
   6  -5 -10 1118.84 249.101   3
  -6   5  10 743.733 204.880   6
   6  -5  -9 64.4949 84.6499   3
  -6   5   9 38.6691 66.5592   6
   6  -5  -8 818.493 186.317   3
  -6   5   8 1095.83 237.310   6
   6  -5  -7 2779.07 362.497   3
   6  -5  -6 1858.90 289.531   3
   6  -5  -5 1134.43 226.004   3
   6  -5  -4 435.555 140.161   3
   6  -5  -3 6296.39 490.835   3
   6  -5  -2 183.926 86.9859   3
   6  -5  -1 12166.3 669.844   3
   6  -5   0 28841.1 1030.06   3
   6  -5   1 8679.64 555.127   3
   6  -5   2 1235.84 217.125   3
   6  -5   3 315.419 110.720   3
   6  -5   4 582.915 145.966   3
  -6   5  -5 11.1227 78.0034   5
   6  -5   5 162.617 101.393   3
  -6   5  -6 245.707 97.1568   5
   6  -5   6 232.428 87.6726   3
  -6   5  -7 1082.65 257.808   5
   6  -5   7 1791.61 249.750   3
   6  -5   8 2538.92 270.183   6
  -6   5  -8 2449.01 357.721   5
   6  -5   8 3318.66 348.063   3
   6  -5   9 71.1250 70.9314   6
  -6   5  -9 51.1731 103.710   5
   6  -5  10 3119.72 308.188   6
  -6   5 -10 3198.73 436.357   5
   6  -5  10 3245.04 383.336   1
   6  -5  11 3912.26 349.816   6
  -6   5 -11 3913.89 493.098   5
   6  -5  11 3895.50 438.905   1
   6  -5  12 2345.68 279.017   6
   6  -5  12 2300.64 334.927   1
  -6   5 -12 1967.82 363.735   5
   6  -5  13 376.088 121.298   6
  -6   5 -13 403.191 198.245   5
   6  -5  13 481.143 170.979   1
   6  -5  14 924.696 222.953   1
  -6   5 -14 1015.98 295.116   5
   6  -5  15 61.6971 92.0747   1
  -6   5 -15 70.6489 115.973   5
  -6   5 -16 66.9278 132.119   5
   6  -5  16-41.9724 78.9236   1
  -6   5 -17 1214.11 335.104   5
   6  -5  17 859.086 223.628   1
   6  -5  18 473.198 177.647   1
   6  -5  19-1.97703 72.4171   1
  -6   4  20 1179.37 326.582   6
  -6   4  19-160.045 154.682   6
  -6   4  18 136.823 135.858   6
  -6   4  17 658.300 227.645   6
  -6   4  16 2747.79 427.994   6
  -6   4  15-75.0189 103.720   6
  -6   4  14 1008.39 253.473   6
  -6   4  13-59.2874 105.393   6
  -6   4  12 151.808 120.786   6
  -6   4  11 1317.21 258.193   6
  -6   4  10 1670.89 286.345   6
  -6   4   9 1787.19 280.097   6
  -6   4   8 397.419 119.162   6
   6  -4  -7 307.044 124.212   3
  -6   4   7 146.059 98.5014   6
   6  -4  -6 3474.64 383.152   3
  -6   4   6 3218.94 343.851   6
   6  -4  -5 711.095 163.525   3
  -6   4   5 821.990 176.528   6
   6  -4  -4 36.5581 50.9196   3
   6  -4  -4 25.1054 15.2454   2
   6  -4  -3 286.648 110.220   3
   6  -4  -2 5520.25 428.692   3
   6  -4  -1 9994.25 567.934   3
   6  -4   0 4782.87 388.895   3
   6  -4   1 6523.39 451.627   3
   6  -4   2 28275.5 913.482   3
   6  -4   3 26059.4 869.532   3
   6  -4   4 777.139 155.003   3
   6  -4   5-3.91706 46.1617   3
  -6   4  -6 138.044 87.0989   5
   6  -4   6 425.716 116.585   3
   6  -4   7 50.9301 59.5027   6
  -6   4  -7 93.4248 94.1971   5
   6  -4   7 82.3366 63.4518   3
   6  -4   8 340.319 91.6094   6
  -6   4  -8 308.566 126.817   5
   6  -4   9 15259.5 604.733   6
  -6   4  -9 14409.1 857.123   5
   6  -4   9 16511.8 830.621   1
   6  -4  10 18030.1 669.919   6
  -6   4 -10 17037.5 957.976   5
   6  -4  10 18290.6 886.119   1
   6  -4  11 5741.20 394.141   6
  -6   4 -11 5773.02 569.675   5
   6  -4  11 5131.90 479.404   1
   6  -4  12 7746.19 467.749   6
  -6   4 -12 7096.00 650.373   5
   6  -4  12 8257.96 606.759   1
   6  -4  13-47.0410 48.6296   6
   6  -4  13-112.189 119.046   1
  -6   4 -13 63.2476 110.746   5
   6  -4  14 465.792 164.690   1
  -6   4 -14 405.692 161.894   5
  -6   4 -15 199.406 157.991   5
   6  -4  15 199.195 112.289   1
  -6   4 -16-61.9313 154.137   5
   6  -4  16 392.115 173.114   1
   6  -4  17 464.342 159.876   1
  -6   4 -17 362.666 164.316   5
   6  -4  18 15.1980 68.4614   1
  -6   4 -18 97.1500 132.483   5
   6  -4  19 111.888 110.297   1
  -6   4 -19 46.7743 110.602   5
   6  -4  20 503.297 169.161   1
  -6   3  20 41.1074 78.8957   6
  -6   3  19 535.853 219.984   6
  -6   3  18 6876.22 700.198   6
  -6   3  17 4916.74 577.715   6
  -6   3  16 141.099 136.059   6
  -6   3  15 3931.60 485.082   6
  -6   3  14-50.1780 98.4195   6
  -6   3  13 365.498 142.951   6
  -6   3  12 412.456 162.284   6
  -6   3  11 934.785 210.845   6
  -6   3  10 44.7155 96.5483   6
  -6   3   9 2615.01 335.272   6
  -6   3   8 12773.4 703.239   6
  -6   3   7 10111.9 606.501   6
  -6   3   6 55.8571 65.8495   6
   6  -3  -5 4627.76 399.682   3
   6  -3  -5 4978.59 200.285   2
  -6   3   5 5046.08 394.054   6
   6  -3  -4 1784.98 241.828   3
   6  -3  -4 1199.65 108.671   2
  -6   3   4 1392.58 200.601   6
  -6   3   3 4713.97 351.064   6
   6  -3  -3 4429.74 365.387   3
   6  -3  -2 4552.24 359.227   3
   6  -3  -1 2496.86 263.017   3
   6  -3   0 845.068 158.191   3
   6  -3   0 342.803 86.9603   6
   6  -3   1 6651.35 413.985   3
   6  -3   1 5877.04 324.705   6
   6  -3   2 4371.47 326.525   3
   6  -3   2 4553.39 275.357   6
   6  -3   3 420.392 82.3448   6
   6  -3   3 527.832 118.914   3
   6  -3   4 16496.9 621.602   3
   6  -3   5 777.637 135.680   3
   6  -3   6 859.583 117.633   6
  -6   3  -6 603.008 174.668   5
   6  -3   6 856.708 147.825   3
   6  -3   7-0.86940 30.8565   6
  -6   3  -7-111.501 132.924   5
   6  -3   7 38.0080 35.8956   3
   6  -3   8 27.3977 37.6070   6
   6  -3   8-134.358 152.049   1
  -6   3  -8-68.4779 113.677   5
   6  -3   9 312.744 86.2704   6
  -6   3  -9 215.868 140.833   5
   6  -3   9 242.088 146.983   1
   6  -3  10 5039.95 319.651   6
  -6   3 -10 5507.51 529.579   5
   6  -3  10 5167.98 463.442   1
   6  -3  11 17393.9 616.754   6
  -6   3 -11 17294.5 948.700   5
   6  -3  11 17480.0 844.192   1
   6  -3  12 9282.10 630.875   1
  -6   3 -12 10674.5 759.337   5
   6  -3  12 9022.53 463.439   6
   6  -3  13 671.847 142.595   6
  -6   3 -13 386.289 158.577   5
   6  -3  13 599.358 169.685   1
  -6   3 -14 3022.72 432.373   5
   6  -3  14 3070.36 366.567   1
  -6   3 -15 774.199 240.395   5
   6  -3  15 687.626 185.218   1
   6  -3  16 29.5487 79.9364   1
  -6   3 -16 237.336 152.862   5
   6  -3  17 195.506 122.514   1
  -6   3 -17 433.857 185.480   5
   6  -3  18 279.284 137.791   1
  -6   3 -18-131.231 134.746   5
  -6   3 -19 23.5117 123.896   5
   6  -3  19 212.736 120.640   1
  -6   3 -20-128.523 143.560   5
   6  -3  20 3.01177 71.0198   1
  -6   2  20-1.86237 104.174   6
  -6   2  19 2132.56 401.958   6
   6  -2 -18 1583.81 279.179   4
  -6   2  18 1786.80 364.734   6
  -6   2  17 1144.46 274.964   6
  -6   2  16 2290.68 374.378   6
  -6   2  15 704.477 225.878   6
  -6   2  14 1289.70 277.726   6
  -6   2  13 2015.10 322.939   6
  -6   2  12 3432.82 410.139   6
  -6   2  11 490.298 155.822   6
  -6   2  10-2.60601 79.5146   6
  -6   2   9 2560.65 313.553   6
  -6   2   8 1503.98 229.841   6
  -6   2   7 2316.32 277.807   6
  -6   2   6 5239.85 402.589   6
   6  -2  -5 299.565 65.0195   2
  -6   2   5 212.162 71.1233   6
   6  -2  -4 8873.49 346.484   2
  -6   2   4 9819.88 503.906   6
   6  -2  -3 41347.3 1047.92   3
  -6   2   3 41155.0 982.823   6
   6  -2  -2 43859.7 1031.18   3
  -6   2   2 41302.0 951.711   6
   6  -2  -1 17688.6 547.142   6
   6  -2  -1 16718.2 618.423   3
   6  -2   0 33025.2 851.420   3
   6  -2   0 33150.3 710.777   6
   6  -2   1 4895.79 317.741   3
   6  -2   1 4887.71 257.620   6
  -6   2  -2 4415.72 288.264   3
   6  -2   2 3717.83 269.458   3
   6  -2   2 3858.75 215.485   6
  -6   2  -3 1145.44 148.621   3
   6  -2   3 1276.55 158.060   3
   6  -2   3 1217.59 116.924   6
   6  -2   4 11099.5 448.420   3
   6  -2   4 10983.8 341.349   6
  -6   2  -4 11002.6 467.859   3
  -6   2  -5 303.583 83.1233   3
   6  -2   5 177.489 59.9506   3
  -6   2  -6 137.011 66.3304   3
   6  -2   6 120.475 39.3171   6
   6  -2   6 99.9609 46.0985   3
   6  -2   6 117.890 70.2535   1
   6  -2   7 112.616 64.8419   1
   6  -2   7 145.014 43.4878   6
  -6   2  -7 34.0065 91.6231   5
   6  -2   8 3644.84 209.571   6
  -6   2  -8 2932.64 354.562   5
   6  -2   8 3248.71 340.145   1
   6  -2   9 10920.1 387.753   6
  -6   2  -9 11131.6 701.755   5
   6  -2   9 10481.7 614.551   1
  -6   2 -10 2179.30 319.771   5
   6  -2  10 2502.28 309.191   1
   6  -2  10 2194.87 163.115   4
   6  -2  10 3018.41 219.102   6
   6  -2  11 86.2180 91.5591   1
   6  -2  11 59.7655 35.5747   6
  -6   2 -11 89.5778 100.651   5
   6  -2  11 194.111 44.9923   4
   6  -2  12 182.710 61.1425   6
  -6   2 -12 70.0905 99.3405   5
   6  -2  12 196.915 96.6490   1
   6  -2  13-30.1449 53.6345   6
  -6   2 -13-72.2774 117.303   5
   6  -2  13-57.2793 79.8554   1
  -6   2 -14 1630.55 310.989   5
   6  -2  14 1177.16 231.543   1
   6  -2  15-32.9377 85.5961   1
  -6   2 -15 19.6678 77.6953   5
   6  -2  16 1085.37 235.763   1
  -6   2 -16 674.516 204.730   5
   6  -2  17 1391.77 257.647   1
  -6   2 -17 876.108 247.259   5
  -6   2 -18-119.973 129.454   5
   6  -2  18-148.599 107.931   1
  -6   2 -19 294.468 179.692   5
   6  -2  19-41.3935 98.8614   1
  -6   2 -20 195.201 127.998   5
   6  -2  20 119.869 94.3568   1
  -6   2 -21-509.413 224.094   5
   6  -2  21-3.47009 68.6837   1
  -6   1  19-93.0085 101.110   6
  -6   1  18 716.345 230.184   6
  -6   1  17 863.253 243.799   6
   6  -1 -17 952.167 223.367   4
  -6   1  16 11.0158 105.162   6
   6  -1 -16 123.068 89.2281   4
  -6   1  15 945.046 250.041   6
   6  -1 -15 1202.55 235.073   4
  -6   1  14 3863.85 460.470   6
  -6   1  13 7089.22 594.943   6
  -6   1  12 543.080 182.842   6
  -6   1  11 3245.31 382.896   6
  -6   1  10 922.145 195.062   6
  -6   1   9 2153.90 290.752   6
   6  -1  -9 2097.17 159.667   1
  -6   1   8 142.869 77.3262   6
  -6   1   7 124.615 57.0412   6
  -6   1   6 846.183 159.229   6
  -6   1   5-29.2558 55.7762   6
   6  -1  -5 72.2168 39.5174   2
  -6   1   4 252.626 85.9135   6
   6  -1  -4 160.960 55.5250   2
   6  -1  -3 1035.21 139.089   2
  -6   1   3 961.842 144.117   6
   6  -1  -2 11136.2 489.142   3
  -6   1   2 11118.7 463.703   6
   6  -1  -2 11208.0 436.233   6
   6  -1  -1 641.696 99.1541   6
  -6   1   1 532.148 91.1898   6
   6  -1  -1 667.865 112.386   3
   6  -1   0 24688.6 655.981   3
  -6   1   0 24342.5 591.315   6
   6  -1   0 24804.4 556.328   6
   6  -1   1 19810.0 559.241   3
   6  -1   1 19573.5 442.289   6
   6  -1   2 1944.99 164.893   3
   6  -1   2 1972.67 124.516   6
  -6   1  -3 7316.85 310.428   3
   6  -1   3 7453.50 308.254   3
   6  -1   3 6914.58 200.092   6
   6  -1   4 4630.18 238.574   3
   6  -1   4 4476.01 353.749   1
   6  -1   4 4165.46 129.302   6
  -6   1  -4 4785.57 255.313   3
   6  -1   5 59.7608 64.9801   1
  -6   1  -5 112.868 42.1754   3
   6  -1   5 31.8972 30.8045   3
   6  -1   6 1216.19 195.246   1
  -6   1  -6 1423.09 155.570   3
  -6   1  -7 18.5360 28.1591   3
   6  -1   7 2.78336 10.2332   6
   6  -1   7 26.6390 57.9386   1
  -6   1  -8 1060.29 201.311   5
   6  -1   8 1226.72 210.954   1
   6  -1   8 1014.38 128.845   4
   6  -1   8 1043.07 90.1361   6
  -6   1  -8 898.689 140.539   3
   6  -1   9 810.683 171.557   1
  -6   1  -9 893.309 209.409   5
   6  -1   9 846.733 106.335   4
   6  -1   9 951.797 98.9424   6
   6  -1  10 3971.57 379.156   1
  -6   1 -10 4752.41 457.874   5
   6  -1  10 3999.81 208.408   4
   6  -1  10 4545.06 238.701   6
   6  -1  11 98.6633 40.0038   6
  -6   1 -11-13.5190 87.2963   5
   6  -1  11-2.61092 85.5010   1
   6  -1  12 34.8370 39.5156   6
  -6   1 -12 159.111 99.1162   5
   6  -1  13 759.566 126.905   6
   6  -1  13 1035.55 208.639   1
  -6   1 -13 774.324 205.952   5
   6  -1  14 66.4088 78.3696   1
  -6   1 -14 156.209 111.326   5
   6  -1  15 69.9164 81.1880   1
  -6   1 -15 91.6291 77.8283   5
  -6   1 -16 1073.13 259.179   5
   6  -1  16 963.908 214.031   1
  -6   1 -17 1643.90 330.707   5
   6  -1  17 2039.01 298.645   1
  -6   1 -18 150.584 89.3347   5
   6  -1  18 327.431 132.382   1
  -6   1 -19 55.8823 88.0845   5
   6  -1  19 132.892 71.6263   1
  -6   1 -20 238.086 161.273   5
   6  -1  20 534.457 160.109   1
   6  -1  21-4.36645 69.3315   1
  -6   1 -21-165.584 134.168   5
   6  -1  22 545.528 173.284   1
  -6   1 -22 444.197 203.589   5
  -6   0  19 329.955 176.334   6
  -6   0  18 67.5292 86.4751   6
  -6   0  17-6.08232 97.0888   6
   6   0 -17-18.3022 57.5097   4
  -6   0  16 126.732 98.9408   6
   6   0 -16 41.4018 71.5015   4
  -6   0  15 200.220 137.706   6
   6   0 -15 251.404 124.893   4
  -6   0  14-35.3053 74.2770   6
   6   0 -14-15.2267 59.6009   4
  -6   0  13 68.0880 105.603   6
   6   0 -13 21.9933 71.8245   4
   6   0 -12 3039.58 348.075   4
  -6   0  12 3547.33 411.826   6
  -6   0  11 3391.60 380.508   6
   6   0 -11 3449.95 358.865   4
  -6   0  10 5505.47 469.050   6
   6   0  -9 5459.93 205.311   1
  -6   0   9 6249.22 480.290   6
   6   0  -8 10596.8 315.127   1
  -6   0   8 11149.8 610.158   6
  -6   0   7-11.1965 48.9150   6
   6   0  -6 2730.64 234.290   2
  -6   0   6 2350.48 259.767   6
  -6   0   5 1291.75 184.561   6
   6   0  -5 1114.06 152.739   2
  -6   0   4 921.563 147.111   6
   6   0  -4 856.744 137.819   2
   6   0  -3 2045.46 215.097   2
  -6   0   3 1563.73 182.564   6
   6   0  -2 8624.01 380.366   6
  -6   0   2 9492.39 409.890   6
  -6   0   1 1141.21 132.957   6
   6   0  -1 1080.66 124.596   6
   6   0   0 34831.9 693.652   3
   6   0   0 34320.2 631.540   6
   6   0   0 34564.5 847.403   1
  -6   0   0 34985.8 669.725   6
   6   0   1 1425.73 112.023   6
   6   0   1 1498.11 189.242   1
  -6   0  -1 1310.04 115.836   6
   6   0   1 1333.66 124.033   3
   6   0   2 45300.7 524.204   6
   6   0   2 45483.2 1030.26   1
   6   0   2 46856.5 654.685   3
   6   0   3 4153.99 323.440   1
   6   0   3 4052.06 166.670   3
   6   0   4 499.270 121.146   1
   6   0   5 8414.77 477.264   1
   6   0   5 8497.98 402.202   4
  -6   0  -5 8134.86 264.607   3
  -6   0  -6 414.823 69.3322   3
   6   0   6 323.584 111.647   1
   6   0   6 387.832 87.1034   4
  -6   0  -7 661.828 97.0488   3
   6   0   7 562.028 98.3810   4
   6   0   7 750.025 154.708   1
   6   0   8 309.905 69.4729   4
   6   0   8 431.419 129.461   1
  -6   0  -8 373.580 78.6871   3
  -6   0  -9 836.947 199.488   5
  -6   0  -9 584.579 108.331   3
   6   0   9 643.999 97.4573   4
   6   0   9 969.352 201.723   1
   6   0   9 565.552 66.1207   6
   6   0  10 242.758 102.405   1
   6   0  10 345.436 61.0785   6
  -6   0 -10 86.2355 66.3053   5
   6   0  11 2117.32 273.690   1
  -6   0 -11 1708.27 268.443   5
   6   0  11 1848.51 157.553   6
   6   0  12 357.191 77.0558   6
   6   0  12 291.795 123.592   1
  -6   0 -12 463.032 149.180   5
   6   0  13 1.87428 29.0638   6
   6   0  13-67.8807 96.5400   1
  -6   0 -13 72.7380 79.4018   5
   6   0  14-118.072 108.264   1
  -6   0 -14 1.63293 77.0862   5
  -6   0 -15 104.046 108.387   5
   6   0  15 108.739 70.4650   1
  -6   0 -16 405.586 155.098   5
   6   0  16 366.112 131.998   1
  -6   0 -17 272.144 145.860   5
   6   0  17 380.464 138.018   1
  -6   0 -18 729.821 215.352   5
   6   0  18 415.742 142.637   1
  -6   0 -19-140.595 157.139   5
   6   0  19 88.8533 86.5678   1
   6   0  20 111.015 91.7860   1
  -6   0 -20 120.585 126.833   5
   6   0  21 5.36307 68.2206   1
  -6   0 -21-137.366 130.454   5
   6   0  22 280.348 124.929   1
  -6   0 -22 320.415 168.780   5
  -6  -1  19 204.109 164.306   6
  -6  -1  18 696.834 229.174   6
  -6  -1  17 628.164 209.981   6
   6   1 -17 537.147 158.425   4
  -6  -1  16 1503.89 313.738   6
   6   1 -16 1150.01 222.259   4
  -6  -1  15-67.8716 140.344   6
   6   1 -15 85.1034 84.6773   4
  -6  -1  14-12.5539 73.7048   6
   6   1 -14-58.2096 71.6111   4
  -6  -1  13 441.074 153.334   6
   6   1 -13 632.106 156.901   4
  -6  -1  12 663.349 170.659   6
   6   1 -12 935.179 191.478   4
  -6  -1  11 962.751 211.811   6
   6   1 -11 899.918 195.855   4
   6   1 -10 3018.36 329.953   4
  -6  -1  10 2654.33 333.095   6
   6   1  -9 10725.7 614.635   4
  -6  -1   9 11013.8 636.120   6
   6   1  -8 10367.5 594.080   4
   6   1  -8 10021.8 224.300   1
  -6  -1   8 10824.1 608.508   6
   6   1  -7 4530.81 186.549   1
   6   1  -7 4695.01 393.290   4
  -6  -1   7 4574.41 375.729   6
   6   1  -6 19161.1 429.789   1
   6   1  -6 20960.1 700.960   2
   6   1  -6 19399.7 779.133   4
  -6  -1   6 19298.4 742.318   6
   6   1  -5 6591.93 274.462   1
   6   1  -5 6698.64 399.466   2
  -6  -1   5 7095.15 429.060   6
   6   1  -4 7651.10 316.478   1
   6   1  -4 7537.91 427.842   2
  -6  -1   4 7829.00 425.212   6
   6   1  -3 3317.70 221.092   1
   6   1  -3 2960.53 269.736   2
  -6  -1   3 3163.46 250.449   6
   6   1  -2 6503.74 323.364   1
   6   1  -2 6654.89 409.351   2
  -6  -1   2 6737.17 342.173   6
   6   1  -1 24510.5 615.680   6
   6   1  -1 25094.6 658.349   1
  -6  -1   1 25217.0 614.834   6
   6   1   0 12718.3 406.343   6
   6   1   0 12855.6 488.520   1
  -6  -1   0 12692.8 402.676   6
  -6  -1  -1 491.750 70.3656   6
   6   1   1 717.698 86.9125   6
   6   1   1 450.539 100.948   1
   6   1   1 536.819 67.0377   3
   6   1   1 542.153 116.946   4
   6   1   2 375.920 96.3065   1
   6   1   2 171.386 72.1498   4
  -6  -1  -2 389.091 54.1234   6
   6   1   3 2460.22 238.842   1
   6   1   3 2181.72 216.898   4
   6   1   4 6793.63 401.635   1
   6   1   4 6899.56 372.812   4
   6   1   5 3450.47 260.269   4
   6   1   5 3742.36 308.016   1
   6   1   6 3687.21 256.505   4
   6   1   6 3820.61 325.817   1
   6   1   7 7604.32 350.997   4
  -6  -1  -7 7154.35 241.647   3
   6   1   7 7737.28 463.898   1
   6   1   8 237.583 101.274   1
   6   1   8 195.921 63.1919   4
  -6  -1  -8 102.300 35.5720   3
   6   1   9 270.692 104.025   1
  -6  -1  -9 304.524 70.5165   3
   6   1  10 734.151 167.441   1
  -6  -1 -10 640.203 151.201   5
  -6  -1 -10 611.218 105.666   3
   6   1  11 1177.05 198.982   1
  -6  -1 -11 1262.46 234.866   5
   6   1  11 1245.09 127.264   6
  -6  -1 -12 1371.76 243.050   5
   6   1  12 2169.81 185.651   6
   6   1  12 1990.78 263.841   1
  -6  -1 -13 913.477 187.758   5
   6   1  13 845.752 184.552   1
   6   1  13 822.777 127.650   6
  -6  -1 -14 1362.46 251.963   5
   6   1  14 1878.09 265.806   1
  -6  -1 -15 1364.27 262.220   5
   6   1  15 1287.46 231.886   1
  -6  -1 -16 566.501 172.143   5
   6   1  16 735.079 176.142   1
  -6  -1 -17 37.0590 71.1480   5
   6   1  17 22.5869 81.0385   1
  -6  -1 -18 130.327 96.1257   5
   6   1  18-56.5160 91.4815   1
   6   1  19-44.9671 68.3664   1
  -6  -1 -19-31.2157 88.2671   5
   6   1  20-65.0832 87.6105   1
  -6  -1 -20-58.4540 92.5699   5
   6   1  21 88.9410 79.6897   1
  -6  -1 -21-2.97072 75.2279   5
   6   1  22 544.890 173.641   1
  -6  -1 -22 97.6609 108.734   5
   6   1  23-185.628 108.539   1
  -6  -2  18 68.1112 100.412   6
  -6  -2  17 2319.44 396.209   6
  -6  -2  16 2943.87 428.558   6
   6   2 -16 1801.96 277.395   4
  -6  -2  15 799.974 222.774   6
   6   2 -15 593.851 167.732   4
  -6  -2  14 2700.80 387.789   6
   6   2 -14 2224.05 306.163   4
  -6  -2  13 534.831 179.846   6
   6   2 -13 643.000 167.783   4
   6   2 -12 3374.49 359.368   4
  -6  -2  12 3920.17 429.333   6
  -6  -2  11 99.0254 80.5906   6
   6   2 -11 313.282 121.003   4
  -6  -2  10-19.6666 94.2493   6
   6   2 -10-28.8101 68.0134   4
  -6  -2   9 86.0803 67.4106   6
   6   2  -9 233.163 96.2429   4
  -6  -2   8 856.718 186.506   6
   6   2  -8 904.304 179.939   4
   6   2  -7 18302.2 775.068   4
  -6  -2   7 18143.5 762.269   6
   6   2  -6 17973.7 312.005   1
   6   2  -6 19823.3 731.162   2
   6   2  -6 18713.9 774.399   4
  -6  -2   6 19024.9 745.390   6
  -6  -2   5 143.950 71.8362   6
   6   2  -5 29.5972 64.5538   4
   6   2  -5 235.803 89.8952   2
   6   2  -5 112.856 34.5844   1
   6   2  -4 7428.14 453.806   2
   6   2  -4 8041.28 283.344   1
  -6  -2   4 7833.74 435.190   6
  -6  -2   3 7351.15 393.165   6
   6   2  -3 7320.37 455.317   2
   6   2  -3 8042.21 311.012   1
   6   2  -2 23912.0 824.059   2
   6   2  -2 24058.8 572.416   1
  -6  -2   2 24363.2 673.464   6
   6   2  -1 2450.21 212.120   6
   6   2  -1 2600.15 200.244   1
  -6  -2   1 2141.82 187.343   6
   6   2   0 4730.42 280.692   1
  -6  -2   0 4715.37 253.782   6
  -6  -2  -1 26.4869 26.9971   6
   6   2   1 15.0729 45.1783   1
   6   2   1 28.6434 51.1905   4
   6   2   1 46.0302 23.1496   3
  -6  -2  -2 4286.99 193.903   6
   6   2   2 4144.12 312.176   4
   6   2   2 4368.42 294.994   1
   6   2   3 1610.60 193.122   4
   6   2   3 1522.66 180.530   1
  -6  -2  -3 1788.65 104.894   6
   6   2   4 3063.66 257.363   4
   6   2   4 2768.70 249.877   1
   6   2   5 137.477 73.1211   1
   6   2   5 94.9019 59.1432   4
   6   2   6 5453.76 318.357   4
   6   2   6 5582.42 379.585   1
   6   2   7 1154.56 181.350   1
   6   2   8 1830.79 228.897   1
  -6  -2  -8 1616.25 110.118   3
  -6  -2  -9 1746.22 90.7077   6
   6   2   9 2134.07 254.316   1
  -6  -2  -9 2151.60 152.730   3
  -6  -2 -10 395.794 56.2614   6
   6   2  10 525.695 138.931   1
  -6  -2 -10 438.156 79.4765   3
  -6  -2 -11-68.0336 90.5360   5
   6   2  11-63.7857 101.688   1
  -6  -2 -12 76.3780 94.9269   5
   6   2  12 38.9894 78.5219   1
  -6  -2 -13 599.389 159.433   5
   6   2  13 451.535 135.226   1
  -6  -2 -14 4726.17 459.596   5
   6   2  14 4799.08 416.246   1
  -6  -2 -15 1494.97 265.928   5
   6   2  15 1685.50 261.645   1
  -6  -2 -16 393.848 153.011   5
   6   2  16 383.852 145.116   1
   6   2  17 129.843 86.8816   1
  -6  -2 -17-29.5732 95.4632   5
   6   2  18 37.7723 101.757   1
  -6  -2 -18-66.2936 59.8799   5
   6   2  19 942.985 204.478   1
  -6  -2 -19 1023.27 254.609   5
   6   2  20-84.6641 96.3370   1
  -6  -2 -20-10.6670 66.2820   5
   6   2  21-13.6142 78.7134   1
  -6  -2 -21 67.1726 103.851   5
   6   2  22 161.598 101.156   1
   6   2  23 308.225 149.041   1
  -6  -3  18 618.394 230.694   6
  -6  -3  17-52.7593 113.057   6
  -6  -3  16 174.920 133.554   6
  -6  -3  15 2797.83 414.166   6
   6   3 -14 3334.64 366.573   4
  -6  -3  14 3524.56 451.078   6
  -6  -3  13 393.902 155.512   6
   6   3 -13 662.101 176.868   4
  -6  -3  12 28.6263 92.7088   6
   6   3 -12 323.986 130.684   4
  -6  -3  11 72.1884 63.5000   6
   6   3 -11 107.901 96.1848   4
  -6  -3  10 480.590 155.906   6
   6   3 -10 462.228 143.668   4
   6   3  -9 4441.97 395.015   4
  -6  -3   9 5284.47 462.536   6
   6   3  -8 2746.00 308.412   4
  -6  -3   8 2780.51 325.228   6
  -6  -3   7 635.591 159.788   6
   6   3  -7 557.788 144.136   4
   6   3  -6 2881.81 310.999   2
   6   3  -6 2283.50 279.790   4
  -6  -3   6 2451.45 286.884   6
  -6  -3   5 2158.35 248.782   6
   6   3  -5 1769.48 102.947   1
   6   3  -5 2003.23 255.478   4
   6   3  -5 1503.16 219.961   2
   6   3  -4 64.8619 27.9397   1
  -6  -3   4 11.7391 52.5476   6
   6   3  -4 42.5834 50.4271   4
   6   3  -4 51.1888 47.8743   2
  -6  -3   3 492.387 119.840   6
   6   3  -3 420.468 71.7220   1
   6   3  -3 609.375 158.120   2
  -6  -3   2 274.115 70.3597   6
   6   3  -2 242.442 57.5614   1
   6   3  -2 224.631 74.2905   3
   6   3  -2 140.238 75.9158   2
  -6  -3   1 84.1658 48.2102   6
   6   3  -1 87.2702 44.4825   1
   6   3  -1 86.4431 40.7168   3
   6   3  -1 62.5408 56.9800   2
  -6  -3   0 7947.88 362.134   6
   6   3   0 8006.37 349.597   1
   6   3   0 7672.46 325.936   3
  -6  -3  -1 1564.39 151.118   6
   6   3   1 1448.97 155.726   1
   6   3   1 1404.04 125.768   3
   6   3   2 139.172 34.4390   3
  -6  -3  -2 126.297 44.2417   6
   6   3   2 223.794 85.6720   4
   6   3   2 210.479 68.9362   1
  -6  -3  -3 377.573 63.6079   6
   6   3   3 593.947 132.154   4
   6   3   3 372.213 101.977   1
  -6  -3  -4 1077.01 95.8603   6
   6   3   4 1169.84 161.625   1
  -6  -3  -5 4328.43 170.192   6
   6   3   5 4090.33 309.495   1
  -6  -3  -6 2531.35 121.329   6
   6   3   6 3056.02 274.713   1
  -6  -3  -6 2441.19 121.094   6
   6   3   7 896.038 158.938   1
  -6  -3  -7 575.997 55.8388   6
  -6  -3  -8 1242.44 82.0235   3
   6   3   8 1469.49 203.613   1
  -6  -3  -8 1185.12 87.2058   3
  -6  -3  -8 1339.80 89.3228   6
  -6  -3  -9 5804.50 205.418   6
  -6  -3  -9 5609.29 246.695   3
   6   3   9 6043.89 415.621   1
  -6  -3 -10 1621.01 121.812   6
   6   3  10 1165.91 194.213   1
   6   3  11 325.212 124.790   1
   6   3  12 393.080 134.898   1
  -6  -3 -13-17.4264 95.8011   5
   6   3  13 104.723 107.915   1
  -6  -3 -14 4519.93 440.407   5
   6   3  14 3980.99 382.302   1
   6   3  15 181.703 97.0746   1
  -6  -3 -15 25.9669 74.9256   5
   6   3  16 1699.23 263.181   1
  -6  -3 -16 1798.24 293.055   5
   6   3  17 901.675 199.989   1
  -6  -3 -17 1376.70 263.142   5
   6   3  18 103.079 80.7666   1
  -6  -3 -18-344.071 142.246   5
   6   3  19 2235.40 312.981   1
  -6  -3 -19 2749.98 386.627   5
   6   3  20-64.0817 81.9471   1
   6   3  21-1.41527 56.6347   1
   6   3  22 56.5913 68.0793   1
   6   3  23-278.568 132.161   1
  -6  -4  17-61.3052 116.510   6
  -6  -4  16 684.250 218.666   6
  -6  -4  15 610.509 209.048   6
  -6  -4  14 1031.25 258.115   6
  -6  -4  13 50.1921 76.0520   6
  -6  -4  12 8036.01 644.140   6
  -6  -4  11 2866.85 373.589   6
  -6  -4  10 99.3077 105.495   6
  -6  -4   9 430.418 133.947   6
  -6  -4   8 14842.9 764.389   6
   6   4  -8 15971.3 740.619   4
  -6  -4   7 600.805 156.703   6
   6   4  -7 609.154 169.742   4
  -6  -4   6 90.8482 77.9019   6
   6   4  -6 64.8657 53.0205   2
   6   4  -6 18.7046 91.7800   4
   6   4  -5 143.373 31.2266   1
  -6  -4   5 162.987 77.1958   6
   6   4  -5 58.6966 70.9217   2
   6   4  -5 252.576 110.767   4
   6   4  -4 915.060 87.4187   1
  -6  -4   4 1016.90 171.562   6
   6   4  -4 753.489 147.296   4
   6   4  -4 1074.39 201.313   2
   6   4  -3 2392.62 155.718   1
  -6  -4   3 2139.46 238.014   6
   6   4  -3 2305.01 269.045   4
   6   4  -3 2044.42 268.509   2
   6   4  -2 1213.64 121.863   1
  -6  -4   2 1080.94 170.245   6
   6   4  -2 1055.15 200.273   2
  -6  -4   1 4520.88 315.731   6
   6   4  -1 4411.55 242.816   1
   6   4  -1 4258.68 392.781   2
   6   4  -1 4605.90 307.230   3
  -6  -4   0 2247.62 213.044   6
   6   4   0 2284.78 186.143   1
   6   4   0 2314.51 297.027   2
   6   4   0 2399.99 208.654   3
  -6  -4  -1 6468.05 341.209   6
   6   4   1 6871.46 335.247   1
   6   4   1 6037.20 311.360   3
   6   4   2 403.269 73.7837   3
  -6  -4  -2 359.877 81.3544   6
   6   4   2 412.765 92.4531   1
  -6  -4  -3 698.414 101.066   6
   6   4   3 742.203 122.672   1
   6   4   3 599.508 75.3584   3
  -6  -4  -4 1892.43 158.648   6
   6   4   4 2171.79 213.927   1
   6   4   5 425.075 101.804   1
   6   4   6 733.661 131.690   1
  -6  -4  -6 846.918 101.853   6
   6   4   7 1548.61 206.147   1
  -6  -4  -7 1087.45 111.418   6
   6   4   8 8510.57 476.872   1
  -6  -4  -8 7088.68 244.108   3
  -6  -4  -8 8268.06 299.918   6
   6   4   9 3922.15 329.378   1
  -6  -4  -9 3385.51 202.484   3
  -6  -4  -9 3480.79 199.925   6
   6   4  10 3650.91 329.118   1
  -6  -4 -10 3713.88 241.449   3
  -6  -4 -11 6109.79 342.690   3
   6   4  11 5477.46 414.399   1
  -6  -4 -12 2839.03 256.916   3
   6   4  12 2923.27 316.686   1
   6   4  13 257.012 122.848   1
   6   4  14 2900.45 326.783   1
   6   4  15 1898.77 271.316   1
  -6  -4 -15 2278.01 311.961   5
   6   4  16 186.045 107.695   1
  -6  -4 -16 220.956 95.5649   5
   6   4  17-30.2505 81.9327   1
  -6  -4 -17 78.0331 66.0611   5
   6   4  18 142.348 98.0294   1
   6   4  19 616.261 175.506   1
   6   4  20 730.710 195.324   1
   6   4  21 962.558 211.628   1
   6   4  22 87.7230 81.0415   1
  -6  -5  16 3225.60 471.970   6
  -6  -5  15 787.819 241.710   6
  -6  -5  14 164.093 114.218   6
  -6  -5  13 1.73244 72.8777   6
  -6  -5  12 2563.18 378.122   6
  -6  -5  11-34.7730 91.3125   6
  -6  -5  10 1345.34 263.483   6
  -6  -5   9 558.873 171.588   6
  -6  -5   8 1936.31 282.901   6
  -6  -5   7 304.997 110.179   6
  -6  -5   6 4934.42 428.231   6
   6   5  -6 4220.26 404.591   2
  -6  -5   5 102.577 85.8365   6
   6   5  -5 52.3886 60.6370   2
   6   5  -4 33.7027 18.0384   1
  -6  -5   4 108.487 73.6644   6
   6   5  -4-9.61610 82.0585   2
  -6  -5   3 96.9251 77.9356   6
   6   5  -3 20.1339 24.3480   1
  -6  -5   3 16.1646 24.1356   1
   6   5  -3 104.328 74.7063   2
  -6  -5   2 191.237 93.2090   6
   6   5  -2 162.099 48.5548   1
  -6  -5   2 148.718 48.4545   1
   6   5  -2 232.798 100.351   2
   6   5  -1 4928.73 263.862   1
  -6  -5   1 4456.77 338.372   6
   6   5  -1 5054.18 444.320   2
   6   5   0 28062.7 661.886   1
  -6  -5   0 27412.9 809.585   6
   6   5   0 26498.3 1014.54   2
   6   5   1 8050.21 370.757   1
  -6  -5  -1 8436.32 432.712   6
   6   5   1 7505.17 398.759   3
   6   5   2 2863.78 231.755   1
  -6  -5  -2 3200.09 256.660   6
   6   5   2 2915.39 233.870   3
  -6  -5  -3 1345.32 162.041   6
   6   5   3 1130.82 134.127   3
   6   5   3 1158.18 153.100   1
   6   5   4 1880.13 156.170   3
   6   5   4 1762.44 194.980   1
   6   5   5 208.125 78.9884   1
  -6  -5  -5 312.408 54.5115   3
   6   5   6 3317.54 282.207   1
  -6  -5  -6 3328.17 173.648   3
   6   5   7 2573.99 250.987   1
  -6  -5  -7 2538.87 160.497   3
  -6  -5  -7 2420.18 203.846   6
   6   5   8 369.252 114.062   1
  -6  -5  -8 291.315 71.4500   6
  -6  -5  -8 363.514 67.9316   3
   6   5   9 27.4202 61.1775   1
  -6  -5  -9 44.0644 32.6778   3
   6   5  10 2769.12 286.378   1
  -6  -5 -10 2853.70 226.655   3
   6   5  11 194.063 95.1341   1
  -6  -5 -11 119.820 57.0000   3
   6   5  12 1165.28 200.155   1
  -6  -5 -12 999.310 162.861   3
  -6  -5 -13 5976.64 408.719   3
   6   5  13 5957.72 453.021   1
   6   5  14 4727.69 417.238   1
   6   5  15 306.421 143.929   1
   6   5  16-58.8642 99.7405   1
   6   5  17 27.3980 60.3632   1
   6   5  18 10.8472 63.9177   1
   6   5  19-13.1439 75.5497   1
   6   5  20 600.325 179.198   1
   6   5  21 543.833 171.250   1
   6   5  22 662.284 198.712   1
  -6  -6  15 272.882 149.819   6
  -6  -6  14 8106.94 720.049   6
  -6  -6  13 558.021 200.257   6
  -6  -6  12 59.3411 70.8861   6
  -6  -6  11 103.999 97.9683   6
  -6  -6  10 1573.09 282.967   6
  -6  -6   9 931.173 225.657   6
  -6  -6   8 495.779 155.677   6
  -6  -6   7 2384.00 318.087   6
  -6  -6   6 8363.39 578.849   6
  -6  -6   5 93.8384 92.0035   6
   6   6  -5 247.343 113.276   2
  -6  -6   4 993.701 189.560   6
   6   6  -4 874.685 195.791   2
  -6  -6   3 11234.0 623.950   6
   6   6  -3 9833.30 373.157   1
  -6  -6   2 1077.28 184.375   6
   6   6  -2 1059.48 226.003   2
   6   6  -2 1156.56 135.299   1
  -6  -6   1 1070.82 184.924   6
   6   6  -1 956.936 125.758   1
   6   6  -1 762.108 185.061   2
  -6  -6   0 400.246 117.999   6
   6   6   0 541.804 100.671   1
   6   6   0 522.824 174.601   2
  -6  -6  -1 3195.88 292.151   6
   6   6   1 2939.84 360.663   2
   6   6   1 3844.81 269.318   1
   6   6   2 6809.52 365.542   1
  -6  -6  -2 5785.86 380.814   6
   6   6   2 5482.07 366.425   3
   6   6   3 2998.66 255.723   1
   6   6   3 2953.04 252.551   3
   6   6   4 143.802 52.6823   3
  -6  -6  -4 376.320 77.0607   3
   6   6   4 224.014 79.5893   1
   6   6   5 2258.69 198.945   3
   6   6   5 2015.24 223.384   1
  -6  -6  -5 2305.35 183.222   3
   6   6   6 8876.88 470.163   1
  -6  -6  -6 9119.35 364.966   3
   6   6   7 474.032 116.524   1
  -6  -6  -7 467.625 85.7370   3
   6   6   8 11.2452 51.9274   1
  -6  -6  -8 3.06913 29.8262   3
  -6  -6  -9 1424.53 162.019   3
   6   6   9 1459.49 209.867   1
  -6  -6 -10-32.5470 35.1324   3
   6   6  10 93.5094 72.0479   1
  -6  -6 -11 69.9967 36.4488   3
   6   6  11 251.617 106.003   1
  -6  -6 -12 66.9254 62.4592   3
   6   6  12 46.9980 77.3740   1
   6   6  13-111.279 101.412   1
   6   6  14 1208.18 215.793   1
   6   6  15 3132.42 358.073   1
   6   6  16 2147.96 299.294   1
   6   6  17 769.032 195.379   1
   6   6  18 98.9961 99.0933   1
   6   6  19 368.770 147.229   1
   6   6  20 63.1947 109.518   1
   6   6  21-81.2040 101.306   1
  -6  -7  14 1060.86 278.233   6
  -6  -7  13 1097.58 264.153   6
  -6  -7  12 307.540 152.562   6
  -6  -7  11 514.276 173.723   6
  -6  -7  10 68.7388 72.7659   6
  -6  -7   9 50.6170 92.1152   6
  -6  -7   8 2173.66 328.552   6
  -6  -7   7 12.7831 75.3448   6
  -6  -7   6 984.916 233.468   6
  -6  -7   5 9437.12 624.675   6
   6   7  -5 8933.14 634.846   2
  -6  -7   4 2059.65 288.190   6
   6   7  -4 2308.03 323.306   2
  -6  -7   3 347.070 139.309   6
   6   7  -3 299.184 145.826   2
  -6  -7   2 3983.07 379.110   6
   6   7  -2 4643.08 467.033   2
   6   7  -2 4127.28 270.404   1
  -6  -7   1 2585.34 299.371   6
   6   7  -1 2073.38 310.209   2
   6   7  -1 2402.29 214.258   1
   6   7   0 780.266 129.817   1
  -6  -7   0 844.479 167.353   6
   6   7   0 978.657 212.479   2
  -6  -7  -1 242.433 104.610   6
   6   7   1 116.107 56.1337   1
   6   7   1 249.208 107.940   2
   6   7   2 2054.85 310.271   2
   6   7   2 1962.06 209.980   1
   6   7   3 448.768 107.107   1
  -6  -7  -3 546.890 103.899   3
   6   7   3 404.557 156.531   2
   6   7   4-36.2063 56.9144   1
  -6  -7  -4 4.00239 29.0449   3
   6   7   5-65.4347 64.5912   1
  -6  -7  -5 101.819 56.3545   3
   6   7   6 7430.24 448.245   1
  -6  -7  -6 8061.74 400.171   3
   6   7   7 463.903 127.402   1
  -6  -7  -7 561.194 111.393   3
   6   7   8 4397.57 359.497   1
  -6  -7  -8 3763.87 285.721   3
   6   7   9 157.763 81.0494   1
  -6  -7  -9 35.2339 37.6841   3
  -6  -7 -10 1502.21 194.941   3
   6   7  10 2019.54 254.208   1
  -6  -7 -11 424.777 107.555   3
   6   7  11 231.082 104.719   1
   6   7  12 5161.35 430.294   1
   6   7  13 1848.60 260.155   1
   6   7  14 1022.95 203.333   1
   6   7  15 654.348 175.816   1
   6   7  16 344.341 130.875   1
   6   7  17 637.824 182.148   1
   6   7  18 290.744 128.462   1
   6   7  19 80.7669 84.6478   1
   6   7  20 37.9980 62.3778   1
   6   7  21-53.0150 92.8821   1
  -6  -8  13 386.349 198.092   6
  -6  -8  12 958.265 254.697   6
  -6  -8  11 1190.50 277.855   6
  -6  -8  10 294.539 155.225   6
  -6  -8   9 2821.34 396.081   6
  -6  -8   8-43.6434 94.0194   6
  -6  -8   7 279.424 143.460   6
  -6  -8   6 382.575 157.640   6
  -6  -8   5 418.293 148.280   6
  -6  -8   4 322.069 149.412   6
   6   8  -4 162.415 110.549   2
  -6  -8   3 3737.58 401.125   6
   6   8  -3 4221.46 454.752   2
  -6  -8   2 6095.50 500.223   6
   6   8  -2 5742.70 531.331   2
  -6  -8   1 1619.82 255.551   6
   6   8  -1 1538.23 285.890   2
   6   8  -1 1412.78 177.515   1
   6   8   0 494.993 112.292   1
  -6  -8   0 369.500 126.998   6
   6   8   0 504.229 173.511   2
   6   8   1 424.513 108.363   1
  -6  -8  -1 608.571 150.427   6
   6   8   1 545.145 186.502   2
   6   8   2 858.216 154.691   1
  -6  -8  -2 822.347 164.791   3
   6   8   2 1012.70 230.865   2
   6   8   3 5247.59 518.513   2
  -6  -8  -3 6100.97 401.436   3
   6   8   3 5372.45 375.451   1
  -6  -8  -4 3324.35 291.680   3
   6   8   4 2807.95 397.647   2
   6   8   4 3135.55 291.086   1
   6   8   5 303.504 95.7784   1
  -6  -8  -5 341.822 94.3218   3
   6   8   6 185.421 76.9666   1
  -6  -8  -6 77.5361 40.3801   3
  -6  -8  -7 3628.38 305.214   3
   6   8   7 3730.55 339.830   1
  -6  -8  -8 12443.6 571.658   3
   6   8   8 11989.6 613.948   1
   6   8   9-10.9545 77.8272   1
  -6  -8  -9-18.0773 52.9402   3
  -6  -8 -10 250.917 85.7140   3
   6   8  10 422.347 131.909   1
   6   8  11 7851.89 528.521   1
   6   8  12 1205.55 220.637   1
   6   8  13 1080.14 210.957   1
   6   8  14 32.6547 73.0910   1
   6   8  15-59.0675 76.3191   1
   6   8  16 502.269 148.518   1
   6   8  17 983.696 224.058   1
   6   8  18 139.959 97.5738   1
   6   8  19 22.8594 85.5960   1
   6   8  20 420.573 158.867   1
  -6  -9  12-88.7162 113.510   6
  -6  -9  11 297.336 151.903   6
  -6  -9  10 951.463 243.008   6
  -6  -9   9 126.329 65.0037   6
  -6  -9   8 558.356 202.108   6
  -6  -9   7 4813.23 517.904   6
  -6  -9   6 2160.73 345.588   6
  -6  -9   5-6.80865 74.5687   6
  -6  -9   4 227.028 114.028   6
   6   9  -4 162.907 123.658   2
  -6  -9   3 1701.81 288.184   6
   6   9  -3 2415.05 360.602   2
  -6  -9   2 1150.46 239.002   6
   6   9  -2 667.552 202.430   2
  -6  -9   1 1498.60 256.460   6
   6   9  -1 1804.41 313.220   2
  -6  -9   0 12451.7 726.796   6
   6   9   0 12340.9 817.930   2
  -6  -9  -1 3058.61 357.451   6
   6   9   1 3070.77 413.456   2
   6   9   1 3324.70 306.436   1
   6   9   2 429.869 118.755   1
  -6  -9  -2 294.559 100.804   3
   6   9   2 75.9810 89.6687   2
   6   9   3 195.168 81.4381   1
  -6  -9  -3 356.619 110.500   3
   6   9   3 312.208 168.426   2
   6   9   4-4.21665 70.9710   1
  -6  -9  -4 58.7683 56.3055   3
   6   9   4 74.8038 95.0735   2
   6   9   5 264.308 113.700   1
  -6  -9  -5 295.009 107.735   3
   6   9   5 117.203 75.9455   2
   6   9   6-155.053 109.679   1
  -6  -9  -6 125.837 80.7115   3
   6   9   7 317.213 118.739   1
  -6  -9  -7 246.120 97.2486   3
   6   9   8 1028.63 189.220   1
  -6  -9  -8 995.447 179.618   3
   6   9   9 1902.56 268.850   1
  -6  -9  -9 1667.66 231.146   3
   6   9  10 641.275 164.947   1
   6   9  11-120.663 97.9227   1
   6   9  12 2525.35 322.605   1
   6   9  13 1667.33 275.895   1
   6   9  14 666.093 177.265   1
   6   9  15 323.949 120.044   1
   6   9  16-59.1082 63.2277   1
   6   9  17 305.912 140.595   1
   6   9  18 105.166 113.916   1
   6   9  19 315.323 140.549   1
  -6 -10  10 462.207 201.585   6
  -6 -10   9-26.2337 128.469   6
  -6 -10   8 398.776 168.830   6
  -6 -10   7 93.7171 79.0735   6
  -6 -10   6 48.6857 77.3143   6
  -6 -10   5 1188.37 265.334   6
  -6 -10   4 137.194 99.8226   6
  -6 -10   3 641.456 194.719   6
   6  10  -3 606.814 201.634   2
  -6 -10   2 196.740 113.326   6
   6  10  -2 231.739 140.897   2
  -6 -10   1 188.023 127.242   6
   6  10  -1 174.432 127.634   2
  -6 -10   0 873.077 214.603   6
   6  10   0 600.808 214.445   2
   6  10   1 3096.97 425.992   2
  -6 -10  -2 7835.97 538.098   3
   6  10   2 7124.74 478.590   1
   6  10   3 4288.20 504.121   2
  -6 -10  -3 4986.57 421.367   3
   6  10   3 4756.65 399.638   1
   6  10   4 717.429 162.559   1
   6  10   4 319.821 135.584   2
  -6 -10  -4 742.681 170.233   3
   6  10   5 891.517 185.545   1
  -6 -10  -5 643.749 156.437   3
   6  10   5 949.722 244.720   2
  -6 -10  -6 3023.92 325.932   3
   6  10   6 2025.85 355.256   2
   6  10   6 2466.89 305.119   1
  -6 -10  -7 2877.79 321.596   3
   6  10   7 3188.59 439.959   2
   6  10   7 3275.06 353.907   1
   6  10   8 110.519 73.7194   1
  -6 -10  -8 38.1864 41.3139   3
   6  10   9 472.798 151.432   1
   6  10  10 173.540 98.9534   1
   6  10  11-54.4361 86.1055   1
   6  10  12-166.727 128.162   1
   6  10  13 505.219 149.236   1
   6  10  14 1005.16 224.333   1
   6  10  15-0.81980 77.6337   1
   6  10  16 524.991 176.970   1
   6  10  17 115.135 82.2663   1
   6  10  18-75.6984 111.822   1
  -6 -11   9 1820.88 367.335   6
  -6 -11   8 492.357 216.909   6
  -6 -11   7 13.3707 85.9388   6
  -6 -11   6 1422.69 299.908   6
  -6 -11   5 2778.77 416.593   6
  -6 -11   4 1153.24 270.866   6
  -6 -11   3 506.369 170.707   6
  -6 -11   2-122.941 122.350   6
   6  11  -2-70.2273 132.928   2
  -6 -11   1 31.1586 75.9129   6
   6  11  -1-22.4213 70.7552   2
  -6 -11   0-54.6079 71.8961   6
   6  11   0-33.6562 81.2031   2
   6  11   1 1030.47 261.452   2
   6  11   2 40.2223 105.856   2
  -6 -11  -2 540.874 156.625   3
   6  11   3 263.870 153.367   2
  -6 -11  -3 211.566 115.580   3
   6  11   4 1184.00 220.924   1
   6  11   4 1059.15 269.999   2
  -6 -11  -4 1116.05 214.308   3
   6  11   5 1395.87 237.806   1
   6  11   5 1261.90 291.089   2
  -6 -11  -5 1347.97 235.227   3
   6  11   6 314.022 116.353   1
   6  11   6 143.594 133.308   2
  -6 -11  -6 233.717 118.047   3
   6  11   7-36.2375 109.171   2
  -6 -11  -7 148.415 89.6800   3
   6  11   8-9.85435 63.5297   1
   6  11   8-25.2304 95.1450   2
   6  11   9 63.1090 83.1766   1
   6  11  10-106.251 110.552   1
   6  11  11 1215.94 247.170   1
   6  11  12 156.586 94.4488   1
   6  11  13 126.342 109.835   1
   6  11  14 376.454 153.222   1
   6  11  15 262.249 151.518   1
   6  11  16 386.114 168.753   1
   6  11  17-20.2641 98.3136   1
  -6 -12   7 96.8611 115.672   6
  -6 -12   6 211.360 145.381   6
  -6 -12   5 727.782 230.202   6
  -6 -12   4 470.167 204.940   6
  -6 -12   3 131.763 102.479   6
  -6 -12   2 212.065 136.181   6
  -6 -12   1 190.055 112.196   6
   6  12  -1 379.882 184.312   2
  -6 -12   0 1380.98 297.793   6
   6  12   0 1235.41 286.812   2
  -6 -12  -1 3726.23 471.764   6
   6  12   1 4258.62 522.745   2
   6  12   2 141.838 112.821   2
  -6 -12  -2 220.911 115.694   3
   6  12   3 732.322 228.083   2
  -6 -12  -3 829.325 205.105   3
   6  12   4 663.516 216.605   2
  -6 -12  -4 326.883 133.413   3
   6  12   5 469.233 189.726   2
  -6 -12  -5 293.279 128.656   3
   6  12   6 518.871 201.506   2
   6  12   6 453.213 149.357   1
   6  12   7 897.229 204.327   1
   6  12   7 945.844 265.709   2
   6  12   8 1480.73 273.863   1
   6  12   8 1191.08 284.193   2
   6  12   9 283.993 113.095   1
   6  12   9 412.624 185.150   2
   6  12  10 56.0245 100.296   1
   6  12  10 81.1667 152.913   2
   6  12  11 10.5626 68.6956   1
   6  12  12 433.417 156.460   1
   6  12  13 486.331 173.517   1
   6  12  14 284.577 138.666   1
   6  12  15-41.1749 100.668   1
  -6 -13   4 202.935 124.472   6
  -6 -13   3 488.969 201.735   6
  -6 -13   2 361.297 183.661   6
  -6 -13   1 1635.30 331.823   6
  -6 -13   0 2651.83 419.281   6
   6  13   0 2481.78 411.180   2
  -6 -13  -1 670.332 211.686   6
   6  13   1 609.381 205.089   2
   6  13   2 229.170 161.973   2
  -6 -13  -2 183.382 107.470   3
   6  13   3 70.3903 141.698   2
  -6 -13  -3 21.5145 63.4197   3
   6  13   4 205.072 142.290   2
   6  13   5 838.227 245.731   2
   6  13   6-54.6322 93.0638   2
   6  13   7-45.4274 112.261   2
   6  13   8 30.9275 75.8320   2
   6  13   8 44.3220 76.7469   1
   6  13   9 669.787 209.273   1
   6  13   9 1030.01 281.422   2
   6  13  10 1922.79 325.306   1
   6  13  10 2322.00 425.880   2
   6  13  11 239.824 145.593   1
   6  13  11-14.8656 94.7039   2
   6  13  12-30.9865 105.867   1
   6  13  12 5.95874 79.8813   2
   6  13  13-93.7878 132.162   1
  -6 -14   1-315.650 162.669   6
  -6 -14   0 697.165 236.172   6
  -6 -14  -1 1158.63 290.130   6
   6  14   1 1370.43 312.972   2
   6  14   2 1942.56 381.659   2
   6  14   3 734.559 241.139   2
   6  14   4 106.741 98.6385   2
   6  14   5 26.5929 107.430   2
   6  14   6 99.0918 94.6805   2
   6  14   7 584.106 247.788   2
   6  14   8 125.312 76.7351   2
   6  14   9 182.203 144.194   2
   6  14  10-54.8326 118.757   2
   6  14  11 526.514 202.107   2
   6  14  12 404.708 194.040   2
   6  14  13-375.153 193.891   2
   6  14  14 83.4065 143.346   2
   6  14  15 71.0821 88.5090   2
   7 -13  -8 103.135 102.839   3
   7 -13  -7 533.343 241.880   3
   7 -13  -6 25.1931 81.5427   3
   7 -13  -5 2402.58 471.819   3
   7 -13  -4-32.1630 93.0415   3
   7 -13  -3-27.8893 142.281   3
   7 -13  -2-89.0825 138.294   3
   7 -13  -1 91.7929 135.408   3
   7 -13   0-153.477 154.437   3
   7 -13   1 622.639 261.367   3
   7 -13   2 1397.28 344.633   3
   7 -13   3 503.672 218.744   3
   7 -12 -12 111.448 165.737   3
   7 -12 -11-213.285 181.882   3
   7 -12 -10 179.350 187.951   3
   7 -12  -9 399.766 202.793   3
   7 -12  -8 307.945 183.521   3
   7 -12  -7 2257.31 459.205   3
   7 -12  -6 1920.68 397.339   3
   7 -12  -5 3071.32 510.373   3
   7 -12  -4 158.970 140.498   3
   7 -12  -3 765.226 260.744   3
   7 -12  -2 187.700 135.872   3
   7 -12  -1-52.4509 134.563   3
   7 -12   0 20.2531 89.5063   3
   7 -12   1 254.702 138.396   3
   7 -12   2 220.349 155.405   3
   7 -12   3 347.967 176.861   3
   7 -12   4 1377.75 334.492   3
   7 -12   5 1161.09 310.527   3
   7 -12   6 49.1957 99.7748   3
   7 -12   7 1059.16 293.954   3
   7 -11 -14 667.774 288.345   3
   7 -11 -13 1285.10 350.215   3
   7 -11 -12-348.871 205.414   3
   7 -11 -11 674.294 243.647   3
   7 -11 -10 261.997 167.118   3
   7 -11  -9 464.733 230.052   3
   7 -11  -8-33.9747 140.321   3
   7 -11  -7 183.398 135.115   3
   7 -11  -6-76.5249 137.463   3
   7 -11  -5 47.6528 97.6876   3
   7 -11  -4 242.153 162.265   3
   7 -11  -3 1505.06 351.880   3
   7 -11  -2-3.75297 122.105   3
   7 -11  -1 95.8168 113.300   3
   7 -11   0 63.4805 79.7833   3
   7 -11   1 165.348 106.643   3
   7 -11   2 240.230 157.337   3
   7 -11   3 807.412 233.889   3
   7 -11   4 457.188 175.619   3
   7 -11   5-27.0836 90.5356   3
   7 -11   6 409.595 178.222   3
   7 -11   7 150.651 110.323   3
   7 -11   8 416.347 187.972   3
   7 -11   9 1607.32 345.842   3
   7 -10 -15 122.716 133.331   3
   7 -10 -14 164.855 104.934   3
   7 -10 -13-479.269 224.227   3
   7 -10 -12 305.942 173.963   3
   7 -10 -11 2625.72 476.605   3
   7 -10 -10 1912.64 409.816   3
   7 -10  -9 141.899 123.064   3
   7 -10  -8 169.900 122.843   3
   7 -10  -7 325.051 163.404   3
   7 -10  -6 688.808 220.610   3
   7 -10  -5 860.330 255.524   3
   7 -10  -4 904.480 256.756   3
   7 -10  -3 689.447 228.476   3
   7 -10  -2 489.291 177.010   3
   7 -10  -1 930.897 280.626   3
   7 -10   0 221.586 142.261   3
   7 -10   1-168.271 148.782   3
   7 -10   2 25.1946 89.4946   3
   7 -10   3-44.4449 73.5296   3
   7 -10   4 738.516 217.884   3
   7 -10   5 144.111 131.127   3
   7 -10   6 213.880 109.611   3
   7 -10   7-33.5590 121.022   3
   7 -10   8 124.642 102.691   6
  -7  10  -8-118.486 132.642   5
  -7  10  -9 2140.52 436.524   5
   7 -10   9 2528.43 411.491   3
  -7  10 -10-161.974 161.157   5
   7  -9 -16 1381.69 374.267   3
   7  -9 -15 0.30689 124.742   3
   7  -9 -14 181.871 152.207   3
   7  -9 -13-37.9710 170.369   3
   7  -9 -12 27.7456 131.622   3
   7  -9 -11 818.724 256.550   3
   7  -9 -10 14.8437 104.209   3
   7  -9  -9 790.436 276.920   3
   7  -9  -8 1789.44 381.169   3
   7  -9  -7 69.2515 100.834   3
   7  -9  -6-93.6964 105.790   3
   7  -9  -5 3311.57 473.145   3
   7  -9  -4-100.305 126.751   3
   7  -9  -3 543.131 217.244   3
   7  -9  -2 343.353 171.578   3
   7  -9  -1-51.2349 118.942   3
   7  -9   0 12.6836 78.8853   3
   7  -9   1 1613.59 324.571   3
   7  -9   2 275.353 142.236   3
   7  -9   3 893.455 242.413   3
   7  -9   4 3239.34 439.382   3
   7  -9   5 738.766 212.455   3
   7  -9   6 401.097 175.493   3
   7  -9   7-87.4835 91.5158   3
   7  -9   8 283.479 112.275   6
  -7   9  -8 477.387 212.216   5
   7  -9   8 675.537 212.699   3
   7  -9   9 2036.99 320.038   6
  -7   9  -9 2441.35 447.270   5
   7  -9   9 2476.77 396.806   3
  -7   9 -10 97.6790 124.863   5
  -7   9 -11 2173.43 453.955   5
   7  -9  13 358.938 174.876   1
   7  -9  14 166.205 118.849   1
   7  -8 -17 495.068 235.661   3
   7  -8 -16 1424.24 366.194   3
   7  -8 -15-73.0175 141.733   3
   7  -8 -14-82.8482 152.554   3
   7  -8 -13 440.789 186.564   3
   7  -8 -12 1192.87 305.169   3
   7  -8 -11 188.012 111.238   3
   7  -8 -10 1152.57 292.945   3
   7  -8  -9 4559.91 555.935   3
   7  -8  -8 3028.87 456.264   3
   7  -8  -7-78.9586 94.3407   3
   7  -8  -6 3687.55 480.810   3
   7  -8  -5 1525.57 310.144   3
   7  -8  -4 131.523 128.907   3
   7  -8  -3 3725.75 469.871   3
   7  -8  -2 415.430 165.967   3
   7  -8  -1 47.8654 92.6051   3
   7  -8   0 186.637 80.5592   3
   7  -8   1 163.667 101.241   3
   7  -8   2 301.765 144.730   3
   7  -8   3 68.4312 95.2343   3
   7  -8   4 332.196 148.412   3
   7  -8   5 338.758 148.054   3
   7  -8   6 1795.95 307.977   3
  -7   8  -7 2565.04 426.718   5
   7  -8   7 2763.46 383.746   3
   7  -8   8 451.957 145.808   6
  -7   8  -8 220.133 114.609   5
   7  -8   8 612.956 190.195   3
   7  -8   9 121.264 80.4319   6
  -7   8  -9-73.1814 124.256   5
   7  -8   9 47.7772 93.2823   3
  -7   8 -10-255.875 174.773   5
  -7   8 -11 3072.68 510.687   5
  -7   8 -12-40.9486 160.523   5
   7  -8  12 561.029 197.584   1
   7  -8  13 252.981 129.382   1
  -7   8 -13 262.308 204.665   5
   7  -8  14 324.466 166.604   1
   7  -8  15-197.799 131.666   1
   7  -7 -18 58.8467 111.125   3
  -7   7  18 36.1587 97.0378   6
   7  -7 -17 814.973 288.054   3
  -7   7  17 432.102 218.112   6
   7  -7 -16 2229.90 446.406   3
  -7   7  16 1576.22 366.161   6
   7  -7 -15 367.296 194.525   3
  -7   7  15 351.170 180.654   6
   7  -7 -14 3156.36 503.619   3
   7  -7 -13 1185.82 305.075   3
   7  -7 -12 56.7069 104.874   3
   7  -7 -11 717.182 237.220   3
   7  -7 -10 71.9121 117.208   3
   7  -7  -9 125.346 97.7642   3
   7  -7  -8-91.9810 117.528   3
   7  -7  -7 1582.75 310.271   3
   7  -7  -6 258.007 144.720   3
   7  -7  -5 8736.61 691.938   3
   7  -7  -4 16756.4 948.388   3
   7  -7  -3 4048.75 467.296   3
   7  -7  -2 1969.93 318.122   3
   7  -7  -1 3131.55 405.124   3
   7  -7   0 775.767 214.809   3
   7  -7   1-18.8286 107.476   3
   7  -7   2 11.2743 72.8424   3
   7  -7   3 338.712 130.726   3
   7  -7   4-8.78498 60.9478   3
   7  -7   5 119.728 83.4789   3
   7  -7   6 4253.51 444.162   3
  -7   7  -7 4939.64 563.300   5
   7  -7   7 5611.89 514.226   3
   7  -7   8 615.223 156.983   6
  -7   7  -8 564.047 200.870   5
   7  -7   9 1251.62 221.963   6
  -7   7  -9 670.833 230.621   5
  -7   7 -10 732.411 218.893   5
  -7   7 -11 1516.43 347.954   5
  -7   7 -12 888.186 280.637   5
   7  -7  12 474.006 164.102   1
  -7   7 -13-30.6106 135.752   5
   7  -7  13-14.4635 119.145   1
  -7   7 -14 240.522 139.693   5
   7  -7  14-62.9766 99.1179   1
   7  -7  15 49.5628 84.1745   1
   7  -7  16-186.279 127.374   1
   7  -7  17-54.4972 80.0242   1
  -7   6  18-401.983 199.089   6
  -7   6  17 852.507 273.473   6
  -7   6  16 1662.42 370.321   6
   7  -6 -15 5404.09 655.412   3
  -7   6  15 5177.17 620.477   6
   7  -6 -14 1584.82 351.512   3
  -7   6  14 1914.93 361.713   6
   7  -6 -13 603.161 225.357   3
  -7   6  13 1094.72 273.979   6
   7  -6 -12 3296.48 474.709   3
  -7   6  12 3545.80 478.591   6
   7  -6 -11 188.796 88.5525   3
  -7   6  11 491.397 171.717   6
   7  -6 -10 1184.51 277.281   3
   7  -6  -9-66.6031 92.6597   3
   7  -6  -8-13.5140 72.7513   3
   7  -6  -7 623.451 196.132   3
   7  -6  -6 2095.74 328.872   3
   7  -6  -5 1050.03 242.654   3
   7  -6  -4 4072.62 449.554   3
   7  -6  -3 392.651 136.421   3
   7  -6  -2 1201.65 240.740   3
   7  -6  -1 4013.90 429.214   3
   7  -6   0 245.923 92.2398   3
   7  -6   1 6619.21 537.425   3
   7  -6   2 2696.49 337.767   3
   7  -6   3 1282.06 231.102   3
   7  -6   4 36.0190 69.7652   3
   7  -6   5 805.577 193.937   3
   7  -6   6 1051.08 210.121   3
   7  -6   7 725.285 183.978   3
   7  -6   8 683.078 151.925   6
  -7   6  -8 586.677 200.927   5
   7  -6   8 1055.85 215.798   3
   7  -6   9 1278.55 205.866   6
  -7   6  -9 1511.75 322.246   5
   7  -6  10 419.609 126.398   6
  -7   6 -10 67.0713 123.382   5
  -7   6 -11 6596.99 695.478   5
   7  -6  11 6476.35 595.032   1
  -7   6 -12 1519.27 346.529   5
   7  -6  12 2014.69 336.266   1
   7  -6  13 26.8724 107.935   1
  -7   6 -13-109.157 149.945   5
  -7   6 -14-10.2298 109.308   5
   7  -6  14-154.005 126.993   1
   7  -6  15 128.215 121.884   1
  -7   6 -15-128.159 195.429   5
   7  -6  16 104.099 84.8010   1
   7  -6  17 59.6290 77.2655   1
   7  -6  18 203.319 129.144   1
  -7   5  19 2436.72 468.732   6
  -7   5  18 941.764 277.921   6
  -7   5  17 208.208 160.692   6
  -7   5  16 257.352 135.352   6
  -7   5  15 1005.12 285.702   6
  -7   5  14 169.459 116.769   6
  -7   5  13 31.7295 97.9842   6
  -7   5  12 522.098 182.373   6
   7  -5 -11 344.274 166.332   3
  -7   5  11 218.434 126.446   6
   7  -5 -10 1251.30 275.883   3
  -7   5  10 1302.88 268.614   6
   7  -5  -9 7310.44 632.676   3
  -7   5   9 6129.76 557.497   6
   7  -5  -8 374.944 154.733   3
  -7   5   8 186.160 97.3390   6
   7  -5  -7 176.394 110.135   3
   7  -5  -6 584.853 179.974   3
   7  -5  -5 650.585 165.325   3
   7  -5  -4 61.1345 84.5348   3
   7  -5  -4 93.0089 22.3228   2
   7  -5  -3 2121.85 298.421   3
   7  -5  -2 14566.0 771.286   3
   7  -5  -1 1306.03 235.208   3
   7  -5   0 11403.9 667.477   3
   7  -5   1 14552.5 744.233   3
   7  -5   2 4812.48 426.941   3
   7  -5   3 4212.74 395.164   3
   7  -5   4 3845.53 372.931   3
   7  -5   5 159.508 97.0896   3
   7  -5   6 609.028 148.935   3
   7  -5   7 510.090 118.402   6
   7  -5   7 550.215 142.217   3
   7  -5   8-21.6294 54.0777   6
   7  -5   8 75.7717 57.3862   3
   7  -5   9-27.5602 43.9808   6
  -7   5  -9-243.829 181.296   5
   7  -5  10-20.3394 95.9808   1
   7  -5  10 126.896 69.6337   6
  -7   5 -10 100.547 113.113   5
  -7   5 -11 2417.72 409.822   5
   7  -5  11 2541.35 369.151   1
   7  -5  12-62.3356 131.354   1
  -7   5 -12 191.805 155.740   5
  -7   5 -13 2103.17 396.163   5
   7  -5  13 2277.32 358.555   1
   7  -5  14 324.317 144.514   1
  -7   5 -14 44.5128 117.882   5
  -7   5 -15-21.8584 105.882   5
   7  -5  15-205.102 126.343   1
  -7   5 -16 225.606 159.175   5
   7  -5  16 494.379 188.552   1
  -7   5 -17-51.0888 123.034   5
   7  -5  17 20.4415 77.5302   1
   7  -5  18 190.241 119.556   1
   7  -5  19-115.545 109.568   1
  -7   4  19 1111.03 314.267   6
  -7   4  18 216.330 116.578   6
  -7   4  17 974.773 264.709   6
  -7   4  16 834.498 257.575   6
  -7   4  15 534.090 209.394   6
  -7   4  14 259.182 131.342   6
  -7   4  13 231.289 140.423   6
  -7   4  12 844.167 218.707   6
  -7   4  11-78.0052 72.9620   6
  -7   4  10 2463.98 354.268   6
  -7   4   9 401.948 161.541   6
   7  -4  -8 8154.15 639.852   3
  -7   4   8 9196.68 637.742   6
   7  -4  -7 12073.7 743.016   3
  -7   4   7 11002.4 679.391   6
   7  -4  -6 1526.02 265.894   3
  -7   4   6 1532.80 247.139   6
   7  -4  -5 115.921 100.232   3
   7  -4  -5 15.8662 14.6146   2
   7  -4  -4 434.281 130.686   3
   7  -4  -4 329.778 57.5763   2
   7  -4  -3-9.07775 70.0952   3
   7  -4  -2 132.874 75.0640   3
   7  -4  -1 32.8351 58.2723   3
   7  -4   0 184.036 95.3425   3
   7  -4   1 233.744 104.000   3
   7  -4   2 10012.3 563.552   3
   7  -4   3 25658.9 888.296   3
   7  -4   4 7549.34 476.917   3
   7  -4   5 415.707 104.948   3
   7  -4   6 286.577 93.0598   3
   7  -4   7 24.8835 42.9781   6
   7  -4   7 80.4588 83.5729   3
   7  -4   8 2840.70 242.376   6
  -7   4  -8 1806.52 293.070   5
   7  -4   9 5577.85 346.362   6
  -7   4  -9 4968.59 531.228   5
   7  -4   9 4582.26 465.808   1
   7  -4  10 1708.73 194.696   6
  -7   4 -10 1434.05 292.904   5
   7  -4  11 326.754 143.661   1
  -7   4 -11 307.025 138.846   5
  -7   4 -12-44.9636 147.148   5
   7  -4  12 251.161 155.466   1
   7  -4  13 4715.24 495.665   1
  -7   4 -13 4566.83 560.377   5
   7  -4  14 429.534 166.090   1
  -7   4 -14-47.3186 149.601   5
  -7   4 -15 697.479 229.044   5
   7  -4  15 500.892 154.563   1
  -7   4 -16 1078.05 303.848   5
   7  -4  16 1209.30 266.246   1
  -7   4 -17 53.4397 86.3715   5
   7  -4  17 606.205 193.715   1
   7  -4  18 168.013 106.452   1
  -7   4 -18 53.0244 141.091   5
   7  -4  19 183.265 120.226   1
  -7   3  19 433.915 212.151   6
  -7   3  18 81.4238 121.251   6
  -7   3  17 505.659 187.331   6
  -7   3  16-62.3520 93.6777   6
  -7   3  15-78.6521 148.277   6
  -7   3  14 1413.41 302.429   6
  -7   3  13 6.38415 80.7928   6
  -7   3  12 235.192 129.305   6
  -7   3  11 1336.47 263.649   6
  -7   3  10 367.595 144.949   6
  -7   3   9 4885.72 464.840   6
  -7   3   8 4876.47 447.117   6
  -7   3   7 4864.10 437.042   6
   7  -3  -6 63.4959 75.5337   3
  -7   3   6 80.7567 47.3329   6
   7  -3  -5 3875.99 385.257   3
   7  -3  -5 3163.65 192.851   2
  -7   3   5 3485.71 345.200   6
   7  -3  -4 2760.33 313.496   3
   7  -3  -4 2461.76 181.418   2
  -7   3   4 2672.45 287.765   6
   7  -3  -3 823.945 165.000   3
   7  -3  -2 3671.39 342.974   3
   7  -3  -1 3309.44 315.687   3
   7  -3   0 651.045 137.873   3
   7  -3   1 5405.05 389.582   3
   7  -3   1 5973.12 334.025   6
   7  -3   2 95.7263 61.9748   3
   7  -3   2 111.192 49.1150   6
   7  -3   3 638.628 131.323   3
   7  -3   3 656.069 102.980   6
   7  -3   4 271.416 88.7642   3
   7  -3   4 147.342 49.0850   6
   7  -3   5 4361.65 325.925   3
   7  -3   5 4033.38 241.998   6
   7  -3   6 652.628 96.9158   6
   7  -3   6 727.380 134.449   3
   7  -3   7 1944.83 168.933   6
   7  -3   7 2424.63 249.126   3
   7  -3   7 1717.99 261.462   1
   7  -3   8 7456.95 331.364   6
   7  -3   8 8062.24 585.612   1
   7  -3   9 9102.53 376.007   6
  -7   3  -9 8785.72 683.624   5
   7  -3   9 9022.74 625.509   1
   7  -3  10 301.415 76.2431   6
  -7   3 -10 224.424 144.260   5
   7  -3  10 243.276 143.966   1
  -7   3 -11 68.5054 92.5266   5
   7  -3  11 356.060 131.863   1
   7  -3  12 441.190 156.474   1
  -7   3 -12-102.651 104.589   5
  -7   3 -13 1417.50 306.848   5
   7  -3  13 1688.32 290.552   1
  -7   3 -14-1.11616 98.8220   5
   7  -3  14-141.890 129.973   1
  -7   3 -15 2177.26 403.811   5
   7  -3  15 2871.70 384.194   1
  -7   3 -16 1398.51 330.754   5
   7  -3  16 1444.47 271.077   1
   7  -3  17 364.106 152.107   1
  -7   3 -17 149.545 140.522   5
   7  -3  18 2383.03 362.227   1
  -7   3 -18 1753.42 390.658   5
  -7   3 -19 675.124 267.705   5
   7  -3  19 1395.68 283.246   1
   7  -3  20 33.4119 81.4905   1
  -7   2  19 800.567 269.491   6
   7  -2 -18 1333.44 280.841   4
  -7   2  18 1744.96 362.965   6
   7  -2 -17 3983.49 463.272   4
  -7   2  17 3213.89 474.240   6
  -7   2  16-132.979 102.877   6
  -7   2  15 649.341 201.518   6
  -7   2  14 381.167 169.836   6
  -7   2  13 645.186 192.248   6
  -7   2  12 840.992 208.974   6
  -7   2  11 2468.48 351.028   6
  -7   2  10 2472.07 333.446   6
  -7   2   9 7476.60 563.954   6
  -7   2   8 331.692 117.712   6
  -7   2   7 416.269 137.600   6
   7  -2  -6 125.908 47.2556   2
  -7   2   6 204.997 94.6927   6
   7  -2  -5 3589.86 237.930   2
  -7   2   5 3676.62 339.084   6
   7  -2  -4 1275.27 215.723   3
   7  -2  -4 1312.99 152.119   2
  -7   2   4 1244.05 192.266   6
   7  -2  -3 4466.81 362.994   3
  -7   2   3 4113.64 333.240   6
  -7   2   2 5887.35 375.747   6
   7  -2  -2 5520.10 389.056   3
   7  -2  -1 7574.98 442.249   3
   7  -2   0 309.674 67.8200   6
   7  -2   0 222.126 75.2748   3
   7  -2   1 201.501 52.5216   6
   7  -2   1 260.039 82.7145   3
   7  -2   2 755.981 98.7337   6
   7  -2   2 765.117 126.114   3
  -7   2  -3 3678.49 272.410   3
   7  -2   3 3138.37 249.842   3
   7  -2   3 3547.58 194.179   6
   7  -2   4 72.2627 30.0582   6
  -7   2  -4 29.0007 37.7781   3
   7  -2   4 52.5739 53.6379   3
   7  -2   5 7545.67 250.518   6
   7  -2   5 7478.09 509.279   1
   7  -2   5 7945.22 381.312   3
   7  -2   5 7385.29 252.812   6
  -7   2  -5 7378.12 396.267   3
   7  -2   6 1575.09 110.975   6
   7  -2   6 1839.55 188.444   3
   7  -2   6 1732.32 253.760   1
   7  -2   6 1586.31 117.460   6
  -7   2  -6 1696.40 195.519   3
   7  -2   7 1689.93 115.786   6
   7  -2   7 1855.73 270.096   1
   7  -2   8 6016.17 229.030   6
   7  -2   8 5795.77 482.674   1
   7  -2   9 158.600 44.5647   6
  -7   2  -9 31.6855 87.8535   5
   7  -2   9 264.249 135.472   1
   7  -2  10 451.854 141.599   1
  -7   2 -10 349.005 154.897   5
   7  -2  10 326.864 78.4820   4
   7  -2  11 22.1436 91.5337   1
  -7   2 -11 42.2137 101.139   5
  -7   2 -12 91.8574 116.879   5
   7  -2  12-140.246 143.236   1
  -7   2 -13 764.039 225.927   5
   7  -2  13 1154.96 233.463   1
  -7   2 -14 11.8587 123.992   5
   7  -2  14-59.8388 91.0300   1
   7  -2  15 305.806 131.954   1
  -7   2 -15 482.778 171.410   5
   7  -2  16 248.010 125.035   1
  -7   2 -16-84.5834 127.086   5
   7  -2  17 1582.83 289.108   1
  -7   2 -17 1500.25 340.460   5
  -7   2 -18 1972.43 392.279   5
   7  -2  18 1605.67 289.073   1
  -7   2 -19-67.2383 113.129   5
   7  -2  19 11.8498 71.8528   1
  -7   2 -20 354.370 193.836   5
   7  -2  20 261.835 130.311   1
   7  -2  21 944.545 242.319   1
  -7   1  19 162.804 167.202   6
  -7   1  18 2683.26 452.936   6
   7  -1 -18 2328.15 352.163   4
  -7   1  17 241.833 131.841   6
   7  -1 -17 716.973 199.466   4
  -7   1  16 91.1671 90.7011   6
   7  -1 -16 120.524 73.2056   4
  -7   1  15-249.672 137.447   6
   7  -1 -15 81.9904 109.404   4
  -7   1  14 934.777 245.593   6
   7  -1 -14 634.762 179.348   4
  -7   1  13 6895.37 605.668   6
  -7   1  12 1355.48 267.741   6
  -7   1  11 50.0921 85.0946   6
  -7   1  10 9475.92 642.406   6
  -7   1   9 8806.65 593.590   6
  -7   1   8 270.364 71.2705   6
  -7   1   7 1125.07 201.783   6
  -7   1   6-13.0566 61.4114   6
   7  -1  -6-3.65311 38.6645   2
   7  -1  -5 5831.29 343.665   2
  -7   1   5 6215.93 425.412   6
   7  -1  -4 79.2197 47.4586   2
  -7   1   4 54.4785 55.7240   6
   7  -1  -3 4850.65 327.154   2
  -7   1   3 4870.19 345.610   6
   7  -1  -2 14238.9 587.807   3
  -7   1   2 14092.4 555.161   6
  -7   1   1 29915.0 767.571   6
   7  -1  -1 30444.6 818.737   3
   7  -1  -1 30223.3 704.348   6
   7  -1   0 266.485 64.3753   6
   7  -1   0 316.893 71.3119   3
  -7   1   0 206.337 40.8443   6
   7  -1   1 10080.9 423.008   3
   7  -1   1 9322.42 325.893   6
   7  -1   2 3811.24 244.257   3
   7  -1   2 4402.94 194.633   6
   7  -1   3 3851.26 148.841   6
   7  -1   3 3842.74 341.559   1
   7  -1   3 4010.05 235.172   3
   7  -1   4 4125.63 361.446   1
   7  -1   4 4150.69 227.223   3
  -7   1  -5 97.5910 44.1593   3
   7  -1   5 65.3274 85.6938   1
   7  -1   5 155.817 50.2543   3
  -7   1  -6 279.313 68.9806   3
   7  -1   6 171.925 85.9572   1
  -7   1  -7 846.761 123.566   3
   7  -1   7 963.301 145.331   4
   7  -1   7 1071.27 201.243   1
   7  -1   8 93.1657 98.3909   1
   7  -1   8-13.9245 53.0445   4
   7  -1   9 8566.79 573.224   1
   7  -1   9 8469.31 391.602   4
   7  -1  10 7713.67 550.280   1
  -7   1 -10 8439.08 644.156   5
   7  -1  10 7252.04 334.834   4
  -7   1 -11 2915.01 385.375   5
   7  -1  11 2398.16 174.596   4
   7  -1  11 3241.94 366.092   1
  -7   1 -12-114.116 119.605   5
   7  -1  12 43.2800 99.3917   1
  -7   1 -13 79.6842 81.7944   5
   7  -1  13 356.451 156.581   1
   7  -1  14-59.2532 105.758   1
  -7   1 -14 106.746 78.6009   5
   7  -1  15 275.015 132.575   1
  -7   1 -15 300.386 148.340   5
   7  -1  16-24.8606 89.8734   1
  -7   1 -16-94.5791 118.902   5
  -7   1 -17 1374.54 316.880   5
   7  -1  17 1441.68 268.212   1
  -7   1 -18 478.218 217.643   5
   7  -1  18 428.729 163.644   1
  -7   1 -19 148.956 141.911   5
   7  -1  19 244.683 118.915   1
  -7   1 -20-6.46719 91.3585   5
   7  -1  20 168.095 101.127   1
  -7   1 -21 647.374 245.855   5
   7  -1  21 800.895 218.365   1
  -7   0  18 333.279 147.290   6
  -7   0  17-24.7980 107.399   6
   7   0 -17 39.1304 57.8662   4
  -7   0  16 278.446 165.999   6
   7   0 -16-48.0880 89.4628   4
  -7   0  15 692.741 203.288   6
   7   0 -15 949.424 220.435   4
  -7   0  14 168.332 125.787   6
   7   0 -14 244.157 128.545   4
  -7   0  13 2167.20 348.323   6
   7   0 -13 1784.53 289.584   4
  -7   0  12 192.233 119.272   6
   7   0 -12 57.5215 71.4445   4
  -7   0  11 530.807 188.326   6
   7   0 -11 122.575 94.2485   4
  -7   0  10 2338.02 316.378   6
   7   0 -10 2780.55 344.219   4
  -7   0   9 3386.79 362.094   6
  -7   0   8 6053.31 467.969   6
  -7   0   7 11037.2 608.795   6
  -7   0   6 27.6895 47.3439   6
   7   0  -6 61.5335 64.0026   2
   7   0  -5 22511.2 730.070   2
  -7   0   5 22204.4 783.811   6
   7   0  -4 5714.57 372.232   2
  -7   0   4 6648.12 415.652   6
  -7   0   3 563.653 115.938   6
   7   0  -3 331.566 89.5456   2
   7   0  -2 9453.76 459.057   1
  -7   0   2 9915.55 452.405   6
   7   0  -1 21645.0 593.288   6
   7   0  -1 21166.5 636.305   3
   7   0  -1 21049.5 700.788   1
  -7   0   1 21537.2 623.356   6
   7   0   0 54482.9 856.754   6
   7   0   0 53859.9 1150.87   1
  -7   0   0 55204.5 918.884   6
   7   0   0 55181.2 948.913   3
   7   0   1 1078.44 106.722   6
   7   0   1 1102.14 179.877   1
   7   0   1 1050.70 120.170   3
  -7   0  -1 1110.59 117.507   6
   7   0   2 10107.6 274.506   6
   7   0   2 10906.4 540.288   1
   7   0   2 9700.75 317.611   3
   7   0   3 8514.90 491.919   1
   7   0   3 7939.86 241.017   3
   7   0   4 2529.04 277.015   1
   7   0   4 2464.86 245.389   4
   7   0   5 2300.36 268.761   1
   7   0   5 2147.70 224.198   4
   7   0   6 297.152 115.435   1
  -7   0  -6 341.292 54.7650   3
   7   0   6 191.375 62.0943   4
  -7   0  -7 118.784 39.9792   3
   7   0   7 140.133 53.7840   4
   7   0   7 144.769 108.319   1
  -7   0  -8 529.654 87.8385   3
   7   0   8 596.379 110.742   4
   7   0   8 783.591 174.428   1
   7   0   9 4773.13 290.381   4
   7   0   9 5003.47 423.643   1
   7   0  10 3973.19 245.339   4
   7   0  10 3978.63 384.388   1
  -7   0 -11 734.247 191.038   5
   7   0  11 536.118 151.500   1
   7   0  12 606.890 171.324   1
  -7   0 -12 842.683 227.787   5
   7   0  13 163.836 88.0396   1
  -7   0 -13 289.553 123.905   5
   7   0  14 257.966 112.114   1
  -7   0 -14 374.651 155.342   5
  -7   0 -15 1658.60 312.067   5
   7   0  15 1390.45 250.301   1
  -7   0 -16 42.6878 93.6599   5
   7   0  16 338.886 127.585   1
  -7   0 -17 115.125 110.929   5
   7   0  17 160.129 120.454   1
  -7   0 -18 58.8241 96.1268   5
   7   0  18 109.882 103.079   1
  -7   0 -19 850.646 253.124   5
   7   0  19 851.160 207.872   1
  -7   0 -20 43.4237 92.7304   5
   7   0  20 18.7441 69.9427   1
   7   0  21-46.4069 69.5375   1
  -7   0 -21 2.65585 91.9570   5
  -7   0 -22 312.777 173.572   5
  -7  -1  18 839.594 257.285   6
  -7  -1  17 211.889 122.295   6
   7   1 -17-13.5372 91.1274   4
  -7  -1  16 2876.37 439.406   6
   7   1 -16 2935.03 377.982   4
   7   1 -15 5204.58 493.373   4
  -7  -1  15 5519.86 579.960   6
  -7  -1  14 319.704 160.317   6
   7   1 -14 237.970 127.054   4
  -7  -1  13 613.481 183.426   6
   7   1 -13 613.492 171.095   4
  -7  -1  12 435.060 168.750   6
   7   1 -12 150.567 96.1224   4
   7   1 -11 2423.43 321.479   4
  -7  -1  11 3310.62 391.524   6
  -7  -1  10-49.5012 93.7427   6
   7   1 -10-119.082 113.372   4
  -7  -1   9-128.264 112.348   6
   7   1  -9 94.4687 91.6846   4
   7   1  -8 13065.7 708.315   4
   7   1  -8 11762.1 307.804   1
  -7  -1   8 12070.4 664.505   6
   7   1  -7 6795.01 512.811   4
  -7  -1   7 7100.88 491.164   6
   7   1  -7 6807.83 269.410   1
  -7  -1   6 153.058 102.338   6
   7   1  -6 237.705 113.686   4
   7   1  -6 262.549 90.2097   2
   7   1  -6 383.969 69.9606   1
   7   1  -5 7262.18 326.034   1
   7   1  -5 7038.73 437.401   2
   7   1  -5 7551.95 520.759   4
  -7  -1   5 7076.33 444.104   6
  -7  -1   4 879.477 149.831   6
   7   1  -4 912.080 124.774   1
   7   1  -4 882.056 185.857   4
   7   1  -4 722.476 159.562   2
  -7  -1   3 205.383 77.0374   6
   7   1  -3 182.678 70.7380   1
   7   1  -3 105.692 60.4363   2
  -7  -1   2-20.9376 34.9055   6
   7   1  -2 19.0100 37.9340   1
   7   1  -2 10.9311 45.4136   2
   7   1  -1 2249.17 199.989   6
   7   1  -1 2687.13 236.101   1
  -7  -1   1 2263.14 200.493   6
  -7  -1   0 836.164 114.798   6
   7   1   0 642.163 120.287   1
   7   1   0 532.799 88.8597   6
   7   1   0 798.962 165.720   4
  -7  -1  -1 75.6396 39.2650   6
   7   1   1 273.875 90.2882   1
   7   1   1 75.2743 28.0418   3
   7   1   1 98.1897 33.8157   6
   7   1   1 105.745 58.1041   4
   7   1   2 30.7711 67.5669   1
   7   1   2 138.897 28.2178   3
   7   1   2 153.819 71.6564   4
  -7  -1  -2 177.978 42.3062   6
   7   1   3 2800.61 268.683   1
   7   1   3 3063.35 281.541   4
   7   1   4 3807.75 324.305   1
   7   1   4 3878.89 307.917   4
   7   1   5 2859.44 258.941   4
   7   1   5 3344.12 309.565   1
   7   1   6 16714.9 604.782   4
   7   1   6 16127.7 698.154   1
   7   1   7 7186.68 383.328   4
   7   1   7 6931.70 470.902   1
  -7  -1  -8 186.693 38.9695   3
   7   1   8 185.681 128.555   1
   7   1   8 218.088 82.9909   4
   7   1   9 27.9420 90.5438   1
   7   1  10 707.561 170.507   1
   7   1  11 240.994 125.010   1
   7   1  12 677.622 172.488   1
  -7  -1 -13 365.428 134.838   5
   7   1  13 552.283 166.274   1
  -7  -1 -14 2077.37 336.484   5
   7   1  14 2659.34 333.180   1
  -7  -1 -15 4143.44 480.646   5
   7   1  15 3305.85 379.479   1
  -7  -1 -16 585.140 184.680   5
   7   1  16 606.879 176.045   1
  -7  -1 -17 117.076 134.092   5
   7   1  17 326.443 138.399   1
  -7  -1 -18 300.098 154.987   5
   7   1  18 231.878 94.3636   1
  -7  -1 -19-144.262 121.463   5
   7   1  19 58.3262 75.5356   1
   7   1  20 33.4052 75.3854   1
  -7  -1 -20-150.884 124.211   5
   7   1  21 57.5869 104.108   1
  -7  -1 -21-56.4974 90.8583   5
  -7  -1 -22-266.056 158.410   5
  -7  -2  17 129.359 106.029   6
  -7  -2  16 2101.25 380.440   6
   7   2 -16 1537.06 272.811   4
  -7  -2  15 2062.07 368.630   6
   7   2 -15 1981.54 309.284   4
  -7  -2  14 458.344 181.333   6
   7   2 -14 281.135 138.579   4
  -7  -2  13 2298.22 355.560   6
   7   2 -13 2280.51 327.969   4
  -7  -2  12 49.3756 66.5097   6
   7   2 -12 121.823 89.6372   4
   7   2 -11 4067.70 416.183   4
  -7  -2  11 4180.17 450.360   6
  -7  -2  10 520.970 154.615   6
   7   2 -10 542.090 153.742   4
  -7  -2   9-61.9071 100.203   6
   7   2  -9 86.4154 84.4574   4
  -7  -2   8-1.50031 59.0623   6
   7   2  -8-34.4284 98.0464   4
  -7  -2   7 5.41597 70.6403   6
   7   2  -7-3.00253 10.3084   1
   7   2  -7-60.8152 88.2355   4
  -7  -2   6 1479.35 219.670   6
   7   2  -6 1539.09 115.425   1
   7   2  -6 1529.05 232.838   4
   7   2  -6 1704.27 227.493   2
   7   2  -5 3913.76 347.155   2
   7   2  -5 4266.45 388.318   4
   7   2  -5 4370.23 219.692   1
  -7  -2   5 4756.70 369.693   6
   7   2  -4 67.7550 46.6291   1
  -7  -2   4 128.332 65.8644   6
   7   2  -4 230.213 94.9974   4
   7   2  -4 150.607 52.5962   2
   7   2  -3 16539.5 738.349   4
   7   2  -3 14389.7 681.849   2
   7   2  -3 15747.0 489.880   1
  -7  -2   3 16195.6 617.008   6
   7   2  -2 20731.9 821.129   2
   7   2  -2 20682.6 591.959   1
  -7  -2   2 20334.6 649.686   6
  -7  -2   1 529.355 103.738   6
   7   2  -1 530.260 106.371   1
   7   2  -1 608.447 152.969   4
   7   2   0 7324.50 468.250   4
   7   2   0 7616.57 388.578   1
  -7  -2   0 7179.75 334.328   6
   7   2   1 1859.61 234.208   4
   7   2   1 1881.69 123.977   3
   7   2   1 1889.15 201.261   1
  -7  -2  -1 1927.13 158.543   6
   7   2   2 778.663 135.067   1
   7   2   2 572.190 126.831   4
  -7  -2  -2 730.597 85.6246   6
  -7  -2  -3 63.4541 21.1731   6
   7   2   3 7.74335 57.3062   1
   7   2   3 66.2115 72.5142   4
   7   2   4 5454.35 368.229   4
   7   2   4 5966.67 390.184   1
   7   2   5 12520.6 545.036   4
   7   2   5 13930.5 614.183   1
   7   2   6 305.513 118.850   1
   7   2   6 130.603 65.2113   4
   7   2   7 9840.59 541.992   1
   7   2   8 9618.94 547.529   1
   7   2   9-11.8152 89.2271   1
   7   2  10 646.865 159.418   1
   7   2  11 899.418 176.192   1
   7   2  12 39.5904 77.2215   1
   7   2  13 960.867 202.259   1
  -7  -2 -14 651.972 185.245   5
   7   2  14 826.985 189.031   1
  -7  -2 -15-63.9786 107.388   5
   7   2  15-4.58349 75.3637   1
  -7  -2 -16 532.265 182.537   5
   7   2  16 492.241 153.777   1
  -7  -2 -17 1278.46 274.938   5
   7   2  17 1482.03 262.733   1
   7   2  18 1587.39 274.285   1
  -7  -2 -18 1575.03 307.504   5
   7   2  19 393.359 141.797   1
  -7  -2 -19 244.066 138.334   5
   7   2  20 702.347 195.124   1
  -7  -2 -20 501.798 177.292   5
   7   2  21 36.2257 83.0742   1
  -7  -3  17 359.769 177.831   6
  -7  -3  16 806.539 239.973   6
  -7  -3  15 224.156 129.015   6
   7   3 -15 633.824 181.808   4
  -7  -3  14 115.040 121.842   6
   7   3 -14 81.9289 95.0776   4
  -7  -3  13 430.133 153.418   6
   7   3 -13 919.120 205.298   4
  -7  -3  12 355.306 156.861   6
   7   3 -12 173.851 127.105   4
   7   3 -11 4551.48 437.292   4
  -7  -3  11 4820.66 483.738   6
  -7  -3  10 798.529 200.593   6
   7   3 -10 737.471 188.395   4
  -7  -3   9 2271.80 309.878   6
   7   3  -9 2309.11 317.792   4
  -7  -3   8-16.2822 76.6343   6
   7   3  -8-71.2943 92.9052   4
   7   3  -7 4088.69 396.096   4
  -7  -3   7 4568.49 410.854   6
   7   3  -6 635.695 60.7026   1
  -7  -3   6 961.306 188.755   6
   7   3  -6 628.461 145.606   2
   7   3  -6 809.471 185.898   4
   7   3  -5 2055.71 133.597   1
   7   3  -5 2117.85 276.088   4
   7   3  -5 1940.74 257.391   2
  -7  -3   5 1997.77 256.574   6
   7   3  -4 8036.43 296.592   1
   7   3  -4 7746.46 521.962   2
   7   3  -4 7937.76 525.823   4
  -7  -3   4 7804.50 468.353   6
  -7  -3   3 1037.72 166.711   6
   7   3  -3 930.455 113.455   1
   7   3  -3 1334.64 218.362   4
   7   3  -3 1166.01 212.251   2
  -7  -3   2 1450.88 179.718   6
   7   3  -2 1523.29 153.850   1
   7   3  -2 1652.65 234.070   4
   7   3  -2 1475.16 233.048   2
   7   3  -1 8866.40 526.079   4
   7   3  -1 8528.78 558.052   2
   7   3  -1 8830.87 386.167   1
   7   3  -1 8351.05 376.607   3
  -7  -3   1 9020.95 427.880   6
   7   3   0 3377.60 322.307   4
   7   3   0 4152.86 275.669   1
   7   3   0 3950.88 237.091   3
  -7  -3   0 4012.09 265.651   6
  -7  -3  -1 61.3065 28.3950   6
   7   3   1 94.7913 82.5253   4
   7   3   1 2.35038 49.1886   1
   7   3   1 0.03756 17.2840   3
  -7  -3  -2 5906.63 274.567   6
   7   3   2 5831.89 400.611   4
   7   3   2 5589.82 346.535   1
   7   3   2 4654.60 168.729   3
   7   3   3 1232.03 182.361   4
   7   3   3 1147.58 166.487   1
  -7  -3  -3 986.440 99.5422   6
  -7  -3  -4 191.324 38.2198   6
   7   3   4 279.984 101.916   4
   7   3   4 266.235 84.7704   1
  -7  -3  -5 106.492 23.7864   6
   7   3   5 107.400 71.2792   1
  -7  -3  -5 72.6735 22.3392   6
   7   3   6 24635.4 820.316   1
   7   3   7 11485.2 572.351   1
   7   3   8 595.257 155.193   1
   7   3   9 3995.21 359.766   1
   7   3  10 2999.49 319.109   1
   7   3  11 179.472 108.384   1
   7   3  12 556.654 138.145   1
   7   3  13 4251.53 401.921   1
   7   3  14-57.7286 88.3420   1
   7   3  15 874.755 197.663   1
  -7  -3 -16-140.902 118.375   5
   7   3  16-47.7870 78.8471   1
   7   3  17-22.7750 94.0221   1
  -7  -3 -17-71.1855 119.984   5
   7   3  18-48.4827 101.928   1
  -7  -3 -18-24.7783 90.6186   5
   7   3  19-57.8163 85.6506   1
   7   3  20 1534.39 276.667   1
   7   3  21-27.8151 90.3827   1
  -7  -4  16 197.479 146.709   6
  -7  -4  15 624.569 221.930   6
  -7  -4  14-63.9394 107.769   6
  -7  -4  13 294.569 136.512   6
  -7  -4  12 2024.42 338.572   6
  -7  -4  11 1489.92 284.213   6
  -7  -4  10 225.230 115.926   6
   7   4 -10 337.352 150.196   4
  -7  -4   9 2244.31 313.513   6
   7   4  -9 2431.33 317.231   4
   7   4  -8 2927.32 338.560   4
  -7  -4   8 3001.36 348.991   6
   7   4  -7 4937.14 433.476   4
  -7  -4   7 5170.83 445.284   6
  -7  -4   6 3319.79 343.149   6
   7   4  -6 2935.10 328.051   2
   7   4  -6 3115.23 344.310   4
  -7  -4   5 904.084 179.022   6
   7   4  -5 574.500 153.506   2
   7   4  -5 743.397 173.295   4
   7   4  -5 569.613 68.3522   1
   7   4  -4 5675.92 239.307   1
  -7  -4   4 5532.91 406.837   6
   7   4  -4 5769.93 473.865   2
   7   4  -4 5618.16 444.317   4
  -7  -4   3 4566.05 354.606   6
   7   4  -3 4637.13 237.090   1
   7   4  -3 3831.86 389.868   2
   7   4  -3 4809.63 410.309   4
  -7  -4   2 2149.48 237.867   6
   7   4  -2 1951.01 167.855   1
   7   4  -2 1803.88 248.259   4
   7   4  -2 1509.11 245.362   2
  -7  -4   1 2258.64 230.381   6
   7   4  -1 1920.13 176.710   1
   7   4  -1 2144.92 274.688   4
   7   4  -1 1698.37 263.647   2
  -7  -4   0 464.777 100.051   6
   7   4   0 308.790 75.7697   1
   7   4   0 525.978 131.652   4
   7   4   0 356.782 134.720   2
   7   4   0 339.075 78.4478   3
  -7  -4  -1 181.407 66.8967   6
   7   4   1 179.985 61.5227   1
   7   4   1 170.951 53.5683   3
  -7  -4  -2 5714.29 306.912   6
   7   4   2 5619.52 341.995   1
   7   4   2 5245.99 246.223   3
  -7  -4  -3 150.958 47.9406   6
   7   4   3 100.683 24.8485   3
   7   4   3 134.781 64.0147   1
  -7  -4  -4 102.814 43.0445   6
   7   4   4 38.1691 62.4854   1
  -7  -4  -5 3255.18 185.601   6
   7   4   5 3150.56 286.517   1
  -7  -4  -6 323.849 55.2712   6
   7   4   6 374.035 107.733   1
  -7  -4  -6 231.524 49.7090   6
  -7  -4  -7 1152.24 97.2370   6
   7   4   7 704.064 153.319   1
  -7  -4  -7 1194.15 99.6480   6
   7   4   8 621.715 141.930   1
   7   4   9 198.132 90.0573   1
   7   4  10-39.3450 75.5937   1
   7   4  11 2260.96 283.399   1
   7   4  12 8425.89 551.586   1
   7   4  13 4610.81 417.607   1
   7   4  14 192.187 89.9315   1
   7   4  15 538.221 144.718   1
   7   4  16 514.536 160.849   1
   7   4  17 80.3737 100.706   1
   7   4  18 194.070 118.649   1
   7   4  19 226.082 122.825   1
   7   4  20 698.204 185.681   1
   7   4  21-4.94125 80.7123   1
  -7  -5  15 2169.49 379.901   6
  -7  -5  14 32.4127 92.0684   6
  -7  -5  13 1007.90 250.203   6
  -7  -5  12 1085.30 251.066   6
  -7  -5  11 153.610 95.2125   6
  -7  -5  10 71.7814 76.2846   6
  -7  -5   9 1521.44 266.986   6
  -7  -5   8 721.713 172.097   6
  -7  -5   7 80.8400 61.5689   6
  -7  -5   6 3521.12 367.912   6
   7   5  -6 3740.83 395.854   2
  -7  -5   5 75.3126 59.0531   6
   7   5  -5-51.0170 109.090   2
  -7  -5   4 75.8774 85.3380   6
   7   5  -4-28.4788 33.7440   1
   7   5  -4 140.371 117.913   2
  -7  -5   3 4776.54 382.996   6
   7   5  -3 4580.92 440.039   2
   7   5  -3 4340.75 234.097   1
  -7  -5   2 493.280 115.752   6
   7   5  -2 460.203 85.8538   1
   7   5  -2 416.788 162.331   2
  -7  -5   1 38.1026 41.0844   6
   7   5  -1-3.38971 93.0960   2
   7   5  -1 22.2468 31.2210   1
  -7  -5   0 5413.25 364.168   6
   7   5   0 5909.62 323.176   1
   7   5   0 5386.17 484.812   2
  -7  -5  -1 7569.93 415.818   6
   7   5   1 7123.08 370.844   1
   7   5   1 7194.44 385.929   3
  -7  -5  -2 5367.57 332.583   6
   7   5   2 5167.01 326.421   1
   7   5   2 4822.82 287.105   3
   7   5   3 43.7499 51.5981   1
   7   5   3 32.0295 24.9415   3
  -7  -5  -3 58.9002 41.5845   6
   7   5   4 1459.59 116.892   3
   7   5   4 1550.30 195.891   1
  -7  -5  -4 1730.26 178.255   6
  -7  -5  -5 5476.31 302.297   6
   7   5   5 5738.13 381.064   1
   7   5   6 95.9313 72.4473   1
  -7  -5  -6 270.711 63.8564   6
   7   5   7 5926.46 407.821   1
   7   5   8 567.702 129.221   1
   7   5   9 15.5531 61.2909   1
   7   5  10 308.290 115.472   1
   7   5  11 937.458 191.829   1
   7   5  12 3722.32 371.408   1
   7   5  13 2078.65 289.267   1
   7   5  14 249.795 125.154   1
   7   5  15 821.029 194.270   1
   7   5  16 217.966 95.9196   1
   7   5  17 43.8626 71.9068   1
   7   5  18 253.736 108.995   1
   7   5  19 14.8233 60.1783   1
   7   5  20 123.784 82.6703   1
   7   5  21 243.859 135.419   1
  -7  -6  14 830.417 243.177   6
  -7  -6  13 3119.91 442.398   6
  -7  -6  12 941.565 237.075   6
  -7  -6  11-133.697 117.684   6
  -7  -6  10 12.0365 77.9230   6
  -7  -6   9-186.662 155.969   6
  -7  -6   8 70.0912 71.2848   6
  -7  -6   7 588.034 167.780   6
  -7  -6   6 2309.28 311.255   6
   7   6  -6 2192.59 314.774   2
  -7  -6   5 1513.09 243.435   6
   7   6  -5 1174.10 244.031   2
   7   6  -4 231.907 55.6652   1
  -7  -6   4 398.217 130.455   6
   7   6  -4 596.130 195.308   2
  -7  -6   3 3464.61 342.807   6
   7   6  -3 2710.62 359.764   2
   7   6  -3 2828.73 204.167   1
  -7  -6   2 435.860 127.215   6
   7   6  -2 268.892 68.0146   1
   7   6  -2 325.885 135.822   2
  -7  -6   1 593.980 139.815   6
   7   6  -1 454.111 89.4728   1
   7   6  -1 429.153 135.982   2
  -7  -6   0 109.716 74.5450   6
   7   6   0 111.889 43.3214   1
   7   6   0 45.2658 74.9893   2
  -7  -6  -1 47.6893 60.9374   6
   7   6   1 215.940 72.2869   1
   7   6   1 50.6946 105.372   2
  -7  -6  -2 16.4174 44.9698   6
   7   6   2 135.166 67.5387   1
   7   6   3 2635.40 247.342   1
  -7  -6  -3 2496.90 245.615   6
   7   6   4 2823.79 262.735   1
  -7  -6  -4 2743.76 249.974   6
   7   6   5 2823.98 270.033   1
   7   6   6 589.619 131.716   1
   7   6   7 8050.78 477.525   1
   7   6   8 1126.17 190.511   1
   7   6   9 212.600 88.8615   1
   7   6  10 735.592 158.753   1
   7   6  11 156.441 80.5435   1
   7   6  12 154.648 97.0964   1
   7   6  13 1616.88 261.335   1
   7   6  14 3070.56 349.660   1
   7   6  15 1173.71 238.557   1
   7   6  16 582.786 181.486   1
   7   6  17 1088.25 224.709   1
   7   6  18 227.199 134.812   1
   7   6  19 402.780 161.465   1
   7   6  20 3.58853 70.5748   1
  -7  -7  13 2691.40 428.487   6
  -7  -7  12 331.218 172.635   6
  -7  -7  11 715.121 204.338   6
  -7  -7  10 2379.37 367.801   6
  -7  -7   9 674.505 202.386   6
  -7  -7   8 57.8871 73.0874   6
  -7  -7   7 3080.76 398.444   6
  -7  -7   6 570.714 166.260   6
  -7  -7   5 13.2389 53.1910   6
   7   7  -5 15.7247 68.6214   2
  -7  -7   4 5980.72 495.581   6
   7   7  -4 5690.17 536.343   2
  -7  -7   3 3640.27 376.413   6
   7   7  -3 3638.73 457.075   2
   7   7  -3 3260.77 231.310   1
  -7  -7   2 1472.11 244.857   6
   7   7  -2 1734.56 306.010   2
   7   7  -2 1852.21 187.871   1
  -7  -7   1 7587.95 512.818   6
   7   7  -1 7042.76 594.825   2
   7   7  -1 7608.71 390.927   1
  -7  -7   0 1500.21 238.840   6
   7   7   0 1552.38 290.583   2
   7   7   0 1454.87 178.556   1
  -7  -7  -1 47.3044 82.6090   6
   7   7   1-19.0055 42.2140   1
   7   7   1 110.846 120.331   2
  -7  -7  -2 669.327 142.535   6
   7   7   2 543.482 117.924   1
   7   7   2 552.627 187.948   2
  -7  -7  -3 810.151 151.321   6
   7   7   3 756.013 137.220   1
   7   7   3 709.817 194.697   2
  -7  -7  -4 1482.45 207.304   6
   7   7   4 1590.12 205.876   1
   7   7   5 285.353 99.1865   1
   7   7   6 2235.99 254.999   1
  -7  -7  -6 2057.23 174.690   3
   7   7   7 11680.1 593.758   1
   7   7   8 3737.07 346.089   1
   7   7   9 2875.71 313.856   1
   7   7  10 1246.58 216.338   1
   7   7  11 714.815 178.891   1
   7   7  12 2322.85 300.204   1
   7   7  13 2457.75 319.527   1
   7   7  14 102.004 77.1510   1
   7   7  15 40.6195 72.7531   1
   7   7  16 237.692 109.283   1
   7   7  17 64.4570 95.1231   1
   7   7  18 648.823 192.052   1
   7   7  19 447.556 152.165   1
   7   7  20 30.0236 85.3621   1
  -7  -8  12 2345.92 398.592   6
  -7  -8  11 1180.56 288.128   6
  -7  -8  10-90.8514 71.8353   6
  -7  -8   9 1506.51 301.919   6
  -7  -8   8 2390.95 361.669   6
  -7  -8   7 605.019 192.680   6
  -7  -8   6 537.531 177.273   6
  -7  -8   5 636.297 184.383   6
   7   8  -5 641.827 199.362   2
  -7  -8   4 2178.92 312.495   6
   7   8  -4 1981.83 320.730   2
  -7  -8   3 10.7006 71.8771   6
   7   8  -3-54.8671 87.0044   2
  -7  -8   2 2484.26 318.769   6
   7   8  -2 2475.36 370.503   2
   7   8  -2 2332.50 221.016   1
  -7  -8   1 3572.02 381.240   6
   7   8  -1 4199.83 478.535   2
   7   8  -1 3087.21 265.189   1
   7   8   0 112.327 50.0551   1
  -7  -8   0 186.537 92.2422   6
   7   8   0 55.9682 113.798   2
  -7  -8  -1 2749.66 317.722   6
   7   8   1 2626.36 382.053   2
   7   8   1 3231.10 288.691   1
  -7  -8  -2 1066.32 191.215   6
   7   8   2 1306.69 189.670   1
   7   8   2 1229.81 270.287   2
  -7  -8  -3 81.3878 72.7968   6
   7   8   3 132.580 80.5918   1
   7   8   3 7.57526 118.140   2
   7   8   4 73.0374 50.2008   1
   7   8   4-138.200 166.520   2
   7   8   5 1159.65 190.959   1
  -7  -8  -5 849.368 138.204   3
   7   8   6 657.722 145.337   1
   7   8   7 453.588 136.239   1
   7   8   8 1388.65 221.237   1
   7   8   9 1062.29 204.470   1
   7   8  10 193.855 99.8582   1
   7   8  11 266.422 131.563   1
   7   8  12 2829.93 338.885   1
   7   8  13 1719.12 279.110   1
   7   8  14 117.745 111.068   1
   7   8  15 216.207 138.739   1
   7   8  16-52.8731 73.0781   1
   7   8  17 68.6886 88.7903   1
   7   8  18 664.272 185.963   1
   7   8  19 267.317 138.597   1
  -7  -9  11-33.8724 134.439   6
  -7  -9  10 1156.70 281.963   6
  -7  -9   9 945.499 250.180   6
  -7  -9   8 1.58587 82.1830   6
  -7  -9   7 120.773 96.2570   6
  -7  -9   6 1072.08 247.593   6
  -7  -9   5 728.117 204.366   6
  -7  -9   4 193.821 128.306   6
   7   9  -4 7.28543 87.6165   2
  -7  -9   3 16.8645 69.3952   6
   7   9  -3 106.024 103.098   2
  -7  -9   2 45.8201 67.0941   6
   7   9  -2-11.8470 100.862   2
  -7  -9   1 909.216 208.400   6
   7   9  -1 1009.19 240.903   2
  -7  -9   0 1816.96 287.927   6
   7   9   0 1892.54 331.097   2
   7   9   0 1848.18 222.308   1
  -7  -9  -1 7042.73 541.376   6
   7   9   1 7666.14 662.293   2
   7   9   1 7357.61 456.894   1
   7   9   2 1100.00 187.786   1
  -7  -9  -2 895.121 193.451   6
   7   9   2 707.481 217.665   2
   7   9   3 1232.63 202.788   1
  -7  -9  -3 1043.00 209.451   6
   7   9   3 1161.03 270.291   2
  -7  -9  -4 3630.73 318.378   3
   7   9   4 3568.44 463.435   2
   7   9   4 3559.88 337.119   1
   7   9   5 2398.54 383.904   2
   7   9   5 2653.44 296.562   1
   7   9   6 925.576 180.049   1
   7   9   7-20.1449 68.2917   1
   7   9   8 785.323 168.405   1
   7   9   9 62.7181 84.2873   1
   7   9  10 462.514 138.779   1
   7   9  11 2843.03 342.350   1
   7   9  12 859.190 202.908   1
   7   9  13 209.752 107.257   1
   7   9  14 1124.45 242.185   1
   7   9  15 107.775 84.9811   1
   7   9  16-85.5844 70.3395   1
   7   9  17 423.046 160.522   1
   7   9  18 175.920 118.343   1
  -7 -10   9 129.826 112.505   6
  -7 -10   8 555.183 190.458   6
  -7 -10   7 382.769 149.143   6
  -7 -10   6 2772.52 406.837   6
  -7 -10   5 117.806 128.143   6
  -7 -10   4 445.945 190.395   6
   7  10  -4 211.036 116.147   2
  -7 -10   3 242.607 130.635   6
   7  10  -3 170.661 92.5452   2
  -7 -10   2 477.785 170.652   6
   7  10  -2 414.783 183.688   2
  -7 -10   1 98.9626 105.069   6
   7  10  -1 44.1004 104.729   2
  -7 -10   0-19.3768 64.1366   6
   7  10   0 40.0794 99.5201   2
  -7 -10  -1 552.564 166.756   6
   7  10   1 715.865 217.585   2
   7  10   1 351.498 110.801   1
  -7 -10  -2 2955.75 369.487   6
   7  10   2 2320.51 380.197   2
   7  10   2 2921.46 309.465   1
   7  10   3 2884.65 415.008   2
   7  10   3 2457.26 295.945   1
   7  10   4 2997.83 441.675   2
   7  10   4 2847.21 320.099   1
   7  10   5 234.046 104.181   1
   7  10   5 227.970 133.872   2
   7  10   6 2450.62 386.510   2
   7  10   6 2452.31 309.556   1
   7  10   7 1696.59 260.802   1
   7  10   7 1634.11 338.236   2
   7  10   8 616.381 162.589   1
   7  10   9 709.346 184.834   1
   7  10  10 130.078 96.1695   1
   7  10  11 124.165 84.3642   1
   7  10  12 1874.09 288.879   1
   7  10  13 487.251 141.864   1
   7  10  14-80.7665 100.566   1
   7  10  15 174.800 101.090   1
   7  10  16 249.057 131.177   1
   7  10  17 517.101 172.925   1
  -7 -11   8 1152.28 295.818   6
  -7 -11   7-9.88823 90.3972   6
  -7 -11   6 63.3334 110.297   6
  -7 -11   5 2158.94 368.192   6
  -7 -11   4 2835.00 410.084   6
  -7 -11   3 460.114 168.805   6
   7  11  -3 362.253 182.385   2
  -7 -11   2 383.887 159.412   6
   7  11  -2 724.053 229.477   2
  -7 -11   1 2429.53 370.343   6
   7  11  -1 2554.37 401.482   2
  -7 -11   0 1716.33 302.497   6
   7  11   0 1751.40 343.896   2
  -7 -11  -1-53.7620 108.840   6
   7  11   1-32.7341 87.6552   2
  -7 -11  -2 24.5395 84.2787   6
   7  11   2 160.242 111.738   2
   7  11   3-47.5072 71.4485   1
   7  11   3-197.759 140.822   2
   7  11   4-79.9667 81.0356   1
   7  11   4 8.72450 82.7011   2
   7  11   5 1446.79 247.709   1
   7  11   5 960.050 263.751   2
   7  11   6 2146.12 298.051   1
   7  11   6 1601.51 336.955   2
   7  11   7 101.146 60.1584   1
   7  11   7 227.673 114.217   2
   7  11   8-98.6838 95.4914   1
   7  11   8-39.0783 122.798   2
   7  11   9 86.2466 80.8221   1
   7  11  10 101.609 72.8294   1
   7  11  11 200.829 102.490   1
   7  11  12-82.0888 114.491   1
   7  11  13 15.8147 76.2408   1
   7  11  14 113.345 83.3243   1
   7  11  15 918.619 225.687   1
   7  11  16-57.1520 83.4785   1
  -7 -12   6 468.040 176.456   6
  -7 -12   5 566.212 207.407   6
  -7 -12   4 166.555 117.780   6
  -7 -12   3 777.059 222.065   6
  -7 -12   2 418.934 174.259   6
   7  12  -2 1104.46 276.072   2
  -7 -12   1-64.7000 111.234   6
   7  12  -1 73.7033 84.5109   2
  -7 -12   0-73.4924 78.1115   6
   7  12   0 281.608 171.404   2
  -7 -12  -1-91.3309 78.7484   6
   7  12   1 257.639 174.954   2
  -7 -12  -2 2.09108 98.5597   6
   7  12   2 498.647 221.917   2
   7  12   3 114.480 127.611   2
   7  12   4 72.0858 134.758   2
   7  12   5 108.699 98.5639   2
   7  12   5-1.19363 72.7251   1
   7  12   6-15.4803 62.8317   1
   7  12   6 48.7962 114.856   2
   7  12   7 220.954 116.930   1
   7  12   7 570.235 230.365   2
   7  12   8 793.758 208.952   1
   7  12   8 348.759 166.867   2
   7  12   9 47.2078 70.7936   1
   7  12   9-21.5925 107.156   2
   7  12  10-146.213 121.750   1
   7  12  10 77.6510 119.856   2
   7  12  11 120.106 92.7354   1
   7  12  12 276.036 137.250   1
   7  12  13-32.5238 81.1801   1
   7  12  14-7.95411 59.6758   1
  -7 -13   3 508.299 197.097   6
  -7 -13   2 29.4785 99.8078   6
  -7 -13   1 145.137 98.8622   6
  -7 -13   0-187.442 127.222   6
   7  13   0 21.0541 91.5208   2
  -7 -13  -1 419.502 168.402   6
   7  13   1 399.254 171.197   2
  -7 -13  -2 1325.50 302.291   6
   7  13   2 1025.80 278.104   2
  -7 -13  -3-11.9306 122.341   6
   7  13   3 203.156 149.260   2
   7  13   4 25.6084 136.034   2
   7  13   5 411.055 206.798   2
   7  13   6 812.410 250.927   2
   7  13   7-40.9894 136.935   2
   7  13   7 131.146 107.571   1
   7  13   8 292.865 151.735   1
   7  13   8 275.076 172.675   2
   7  13   9 65.1876 78.6541   1
   7  13   9 168.815 134.204   2
   7  13  10 161.302 103.297   1
   7  13  10 153.587 165.274   2
   7  13  11 140.985 86.5106   1
   7  13  11 387.040 188.500   2
   7  13  12 205.573 119.773   1
   7  13  12 44.6362 89.8422   2
  -7 -14   0 1844.23 366.634   6
  -7 -14  -1 280.537 149.081   6
  -7 -14  -2-18.3628 119.466   6
  -7 -14  -3 85.8550 92.0138   6
   7  14   6 338.936 199.554   2
   7  14   7 526.237 222.676   2
   7  14   8-307.117 179.266   2
   7  14   9 431.226 229.919   2
   7  14  10 127.624 117.472   1
   8 -13  -4 151.250 163.043   3
   8 -13  -3 433.522 229.257   3
   8 -13  -2 194.654 138.084   3
   8 -13  -1 383.257 218.541   3
   8 -13   0-64.5575 152.391   3
   8 -12 -10-253.292 177.285   3
   8 -12  -9-128.456 160.598   3
   8 -12  -8 40.1224 98.6951   3
   8 -12  -7 550.896 223.525   3
   8 -12  -6 1357.19 354.419   3
   8 -12  -5 1128.04 318.365   3
   8 -12  -4 1630.43 383.375   3
   8 -12  -3-117.844 140.470   3
   8 -12  -2 7.40179 91.0524   3
   8 -12  -1-232.131 159.480   3
   8 -12   0 128.232 116.284   3
   8 -12   1 226.903 169.813   3
   8 -12   2 340.132 184.596   3
   8 -12   3 168.112 132.667   3
   8 -12   4 13.8952 110.726   3
   8 -12   5 513.827 232.853   3
   8 -12   6 204.782 128.701   3
   8 -11 -12 351.007 216.984   3
   8 -11 -11-457.632 225.747   3
   8 -11 -10 287.291 187.673   3
   8 -11  -9 741.581 264.362   3
   8 -11  -8 225.166 135.253   3
   8 -11  -7 38.7038 93.4446   3
   8 -11  -6 141.982 101.948   3
   8 -11  -5-66.7338 109.195   3
   8 -11  -4 229.680 157.314   3
   8 -11  -3 1808.78 380.266   3
   8 -11  -2 2207.15 425.913   3
   8 -11  -1-106.870 83.8958   3
   8 -11   0 1853.90 379.455   3
   8 -11   1 826.380 261.055   3
   8 -11   2 591.107 229.593   3
   8 -11   3 38.5591 89.9763   3
   8 -11   4 309.485 163.077   3
   8 -11   5 563.725 210.058   3
   8 -11   6 191.079 149.192   3
   8 -11   7 949.564 267.594   3
   8 -11   8 2784.29 455.589   3
   8 -11   9 319.090 169.419   3
   8 -10 -14 28.3543 115.012   3
   8 -10 -13-65.0391 82.7656   3
   8 -10 -12 128.809 162.325   3
   8 -10 -11 97.7939 97.3258   3
   8 -10 -10 1221.09 341.782   3
   8 -10  -9 40.3601 86.5086   3
   8 -10  -8 67.5661 121.704   3
   8 -10  -7 508.868 201.279   3
   8 -10  -6 218.905 141.330   3
   8 -10  -5 346.212 185.536   3
   8 -10  -4 61.2015 101.560   3
   8 -10  -3-21.5939 77.8575   3
   8 -10  -2 203.907 163.527   3
   8 -10  -1 2970.95 463.572   3
   8 -10   0 2599.41 436.061   3
   8 -10   1-37.0261 106.331   3
   8 -10   2 693.848 219.709   3
   8 -10   3 765.893 240.525   3
   8 -10   4 310.403 140.096   3
   8 -10   5 222.923 141.635   3
   8 -10   6 134.007 97.6718   3
   8 -10   7 640.909 209.607   3
   8 -10   8 488.771 180.984   3
   8 -10   9 283.464 161.521   3
   8  -9 -15 1689.13 415.619   3
   8  -9 -14 608.569 254.020   3
   8  -9 -13-66.1530 121.840   3
   8  -9 -12 193.106 142.259   3
   8  -9 -11-54.5480 116.483   3
   8  -9 -10 332.016 180.844   3
   8  -9  -9 14.5611 87.5193   3
   8  -9  -8 572.665 215.016   3
   8  -9  -7 894.895 258.628   3
   8  -9  -6 94.3682 114.078   3
   8  -9  -5 723.842 237.769   3
   8  -9  -4-155.235 120.711   3
   8  -9  -3 32.7214 82.0437   3
   8  -9  -2 154.332 120.318   3
   8  -9  -1 61.1315 80.8082   3
   8  -9   0 87.4611 108.627   3
   8  -9   1 2146.66 371.574   3
   8  -9   2 4213.53 516.759   3
   8  -9   3 76.2124 83.8802   3
   8  -9   4 290.558 125.795   3
   8  -9   5 322.149 143.991   3
   8  -9   6 110.479 113.700   3
   8  -9   7-74.2464 121.647   3
   8  -9   8 74.5786 78.5654   3
   8  -9   9-30.0498 76.2917   3
   8  -8 -16 60.4031 132.475   3
   8  -8 -15-118.713 146.747   3
   8  -8 -14 345.274 198.872   3
   8  -8 -13 398.870 201.840   3
   8  -8 -12 432.943 194.682   3
   8  -8 -11 305.731 188.194   3
   8  -8 -10 676.654 232.045   3
   8  -8  -9 13.2703 127.443   3
   8  -8  -8 79.1354 116.796   3
   8  -8  -7 1321.60 309.357   3
   8  -8  -6 1353.35 294.925   3
   8  -8  -5 1346.80 296.317   3
   8  -8  -4 419.993 162.005   3
   8  -8  -3 171.648 143.429   3
   8  -8  -2 390.409 147.316   3
   8  -8  -1 377.294 158.741   3
   8  -8   0 309.277 177.439   3
   8  -8   1 178.045 115.731   3
   8  -8   2 979.988 252.710   3
   8  -8   3 120.171 98.6215   3
   8  -8   4 634.280 183.569   3
   8  -8   5-41.6172 109.597   3
   8  -8   6 28.4647 63.4163   3
   8  -8   7 17.0878 70.0933   3
   8  -8   8 324.668 141.419   3
   8  -8   9 156.274 105.858   3
   8  -8  11 367.852 161.157   1
  -8   8 -11 697.331 279.205   5
  -8   8 -12 29.1072 98.1449   5
   8  -8  12 217.003 143.143   1
   8  -8  13 274.714 140.701   1
   8  -7 -17 115.608 79.8750   3
  -8   7  17 267.681 153.173   6
   8  -7 -16-139.800 103.764   3
  -8   7  16-85.6320 125.081   6
   8  -7 -15 775.779 269.803   3
   8  -7 -14-92.5774 87.0980   3
   8  -7 -13 1875.76 400.308   3
   8  -7 -12 308.877 173.385   3
   8  -7 -11 89.9156 98.1376   3
   8  -7 -10 354.864 159.847   3
   8  -7  -9 530.639 177.005   3
   8  -7  -8 554.627 188.893   3
   8  -7  -7 2721.14 419.698   3
   8  -7  -6 8780.12 730.919   3
   8  -7  -5 1700.59 329.357   3
   8  -7  -4 35.9726 68.6847   3
   8  -7  -3 2133.35 349.469   3
   8  -7  -2 2213.65 352.024   3
   8  -7  -1 2794.38 390.445   3
   8  -7   0 5260.61 523.409   3
   8  -7   1 2395.44 356.568   3
   8  -7   2 735.474 198.311   3
   8  -7   3 1534.76 284.080   3
   8  -7   4 180.906 99.4126   3
   8  -7   5 64.3542 75.7534   3
   8  -7   6 160.965 95.7784   3
   8  -7   7 1676.68 283.168   3
   8  -7   8 1398.21 262.888   3
  -8   7 -10 98.3027 132.058   5
  -8   7 -11 667.802 242.622   5
   8  -7  11 214.740 122.843   1
   8  -7  12 2274.63 386.945   1
  -8   7 -12 2031.74 436.001   5
   8  -7  13-72.9745 96.3222   1
  -8   7 -13-131.873 136.916   5
   8  -7  14-53.1159 96.0929   1
   8  -7  15-27.5259 83.7926   1
   8  -6 -17-125.110 140.914   3
  -8   6  17 184.598 122.490   6
   8  -6 -16 29.9609 106.201   3
  -8   6  16-453.675 207.489   6
   8  -6 -15 64.8855 133.134   3
  -8   6  15 33.1742 136.220   6
   8  -6 -14 291.146 174.471   3
  -8   6  14 372.559 188.482   6
   8  -6 -13 303.657 169.121   3
  -8   6  13 120.623 79.3468   6
   8  -6 -12 745.296 239.331   3
  -8   6  12 596.602 224.229   6
   8  -6 -11 3715.16 509.625   3
   8  -6 -10 1732.66 346.737   3
   8  -6  -9 1915.48 350.814   3
   8  -6  -8 8721.78 731.717   3
   8  -6  -7 4336.32 501.993   3
   8  -6  -6 771.144 213.340   3
   8  -6  -5 822.610 223.533   3
   8  -6  -4 176.388 121.222   3
   8  -6  -3 5540.17 530.650   3
   8  -6  -2 1632.47 280.551   3
   8  -6  -1 3962.99 442.998   3
   8  -6   0 2620.32 354.542   3
   8  -6   1 98.2792 65.8387   3
   8  -6   2 8376.94 615.472   3
   8  -6   3 1799.57 290.098   3
   8  -6   4 2791.31 349.232   3
   8  -6   5 1319.35 234.218   3
   8  -6   6 221.821 118.461   3
   8  -6   7 61.5969 77.3961   3
   8  -6   8 561.640 164.142   3
  -8   6 -10 813.452 249.481   5
   8  -6  10 777.027 228.334   1
   8  -6  11 686.893 216.030   1
  -8   6 -11 460.550 203.153   5
   8  -6  12 836.560 218.065   1
  -8   6 -12 1528.27 355.220   5
  -8   6 -13-389.550 238.467   5
   8  -6  13-117.849 119.730   1
  -8   6 -14-222.825 214.094   5
   8  -6  14 35.9789 83.1971   1
   8  -6  15-50.3307 72.2734   1
   8  -6  16 210.795 152.988   1
  -8   5  18 11.2381 114.148   6
  -8   5  17 33.0758 118.291   6
  -8   5  16 235.149 173.822   6
  -8   5  15 855.990 255.711   6
  -8   5  14 160.210 118.015   6
   8  -5 -13 212.452 144.694   3
  -8   5  13 66.2603 126.470   6
   8  -5 -12-54.8301 104.711   3
  -8   5  12 36.4776 94.9127   6
   8  -5 -11 1208.83 281.289   3
  -8   5  11 1863.14 338.289   6
   8  -5 -10 2.49659 89.0684   3
  -8   5  10 35.0285 79.0537   6
   8  -5  -9 2137.42 359.001   3
  -8   5   9 2142.05 344.219   6
   8  -5  -8 1575.24 310.464   3
   8  -5  -7 5721.78 550.270   3
   8  -5  -6 15437.7 894.973   3
   8  -5  -5 78.1940 78.7985   3
   8  -5  -4 315.547 122.070   3
   8  -5  -3 159.193 116.091   3
   8  -5  -2 4488.86 450.929   3
   8  -5  -1 4176.01 433.131   3
   8  -5   0 65.8583 73.6429   3
   8  -5   1 3316.41 369.623   3
   8  -5   2 7731.25 549.615   3
   8  -5   3 1972.66 278.783   3
   8  -5   4 9431.04 588.426   3
   8  -5   5 5082.57 428.081   3
   8  -5   6 514.223 146.367   3
   8  -5   7 15.9892 68.9567   3
   8  -5   8 129.221 89.6540   3
   8  -5   9 447.014 160.541   1
   8  -5  10-62.5069 143.770   1
  -8   5 -11-192.623 165.260   5
   8  -5  11-22.0571 84.5694   1
  -8   5 -12 1219.89 300.794   5
   8  -5  12 1367.68 274.615   1
  -8   5 -13 143.394 121.332   5
   8  -5  13 349.394 177.384   1
   8  -5  14-102.972 133.366   1
  -8   5 -14-144.707 157.711   5
  -8   5 -15 213.356 145.841   5
   8  -5  15 425.892 156.769   1
  -8   5 -16 237.892 174.971   5
   8  -5  16 158.334 149.111   1
   8  -5  17 214.762 143.586   1
  -8   4  18 91.9367 124.687   6
  -8   4  17 2595.61 445.722   6
  -8   4  16 3253.98 496.771   6
  -8   4  15-116.285 124.249   6
  -8   4  14 453.583 192.643   6
  -8   4  13 100.342 98.9586   6
  -8   4  12 285.309 162.790   6
  -8   4  11-11.0212 93.7418   6
   8  -4 -10 1931.96 340.369   3
  -8   4  10 2234.26 347.922   6
   8  -4  -9 2900.80 413.029   3
  -8   4   9 2627.23 365.526   6
   8  -4  -8-13.7758 123.807   3
  -8   4   8 66.9136 83.5375   6
   8  -4  -7 4756.51 484.599   3
  -8   4   7 4879.35 469.727   6
   8  -4  -6 9685.00 676.011   3
  -8   4   6 9911.82 644.958   6
   8  -4  -5 1277.12 251.906   3
   8  -4  -4 125.485 100.406   3
   8  -4  -4 59.4331 30.6419   2
   8  -4  -3 1726.77 269.881   3
   8  -4  -2 123.174 67.8973   3
   8  -4  -1 161.942 87.3024   3
   8  -4   0 1562.35 249.099   3
   8  -4   1 947.833 186.582   3
   8  -4   2 51.0671 56.1944   3
   8  -4   3 133.158 77.0174   3
   8  -4   4 7416.57 479.295   3
   8  -4   5 2931.95 298.695   3
   8  -4   6 1731.39 230.177   3
   8  -4   7 5109.93 396.704   3
   8  -4   8 317.551 145.746   1
   8  -4   9-248.790 157.126   1
   8  -4  10 13.7218 94.0256   1
  -8   4 -11-86.4076 135.017   5
   8  -4  11 169.366 112.387   1
  -8   4 -12 585.328 213.629   5
   8  -4  12 750.095 217.146   1
   8  -4  13 40.1626 105.609   1
  -8   4 -13 99.1189 83.3765   5
  -8   4 -14 1767.26 377.182   5
   8  -4  14 2129.22 345.725   1
  -8   4 -15 923.526 290.108   5
   8  -4  15 1132.36 259.941   1
  -8   4 -16-336.394 194.148   5
   8  -4  16 275.541 150.030   1
  -8   4 -17 83.5503 95.4264   5
   8  -4  17 743.618 221.025   1
   8  -4  18 10.3052 87.9034   1
   8  -3 -19-2.79281 105.342   4
  -8   3  18 3404.03 528.400   6
  -8   3  17 1505.38 357.753   6
  -8   3  16-379.849 180.424   6
  -8   3  15 218.511 139.643   6
  -8   3  14 120.026 133.253   6
  -8   3  13 249.259 140.385   6
  -8   3  12 762.449 219.559   6
  -8   3  11-61.5485 112.984   6
  -8   3  10 416.008 144.820   6
  -8   3   9 1046.50 234.805   6
  -8   3   8 4538.19 451.198   6
   8  -3  -7 8399.31 630.052   3
  -8   3   7 9090.35 621.213   6
   8  -3  -6 4087.30 426.979   3
  -8   3   6 3657.09 382.260   6
   8  -3  -5 1609.53 263.773   3
   8  -3  -5 1651.24 156.470   2
  -8   3   5 1316.52 226.409   6
   8  -3  -4 3630.50 248.130   2
  -8   3   4 3715.55 357.211   6
   8  -3  -4 4303.29 411.585   3
   8  -3  -3 892.336 182.897   3
   8  -3  -2 351.890 130.164   3
   8  -3  -1 28225.6 972.197   3
   8  -3   0 14467.3 678.356   3
   8  -3   1 1193.10 187.652   3
   8  -3   2 59.2178 52.0727   3
   8  -3   3 959.961 159.628   3
   8  -3   4 2437.19 247.836   3
   8  -3   5 18.1900 45.8863   3
   8  -3   6 4287.92 226.524   6
   8  -3   6 4199.41 421.879   1
   8  -3   6 5042.51 354.561   3
   8  -3   7 6653.45 539.498   1
   8  -3   8-99.7412 147.788   1
   8  -3   9 1714.74 294.193   1
   8  -3  10 1875.30 306.127   1
   8  -3  11 491.638 165.896   1
   8  -3  12 1431.58 275.832   1
  -8   3 -12 1308.05 294.221   5
  -8   3 -13-129.142 128.398   5
   8  -3  13 97.8827 84.4167   1
  -8   3 -14 475.318 207.835   5
   8  -3  14 382.903 162.217   1
  -8   3 -15 165.124 139.293   5
   8  -3  15 413.054 174.585   1
  -8   3 -16 1225.76 322.824   5
   8  -3  16 2197.56 356.970   1
   8  -3  17 2296.93 364.040   1
  -8   3 -17 1918.56 405.743   5
   8  -3  18-35.6513 77.4867   1
  -8   3 -18-169.017 148.143   5
   8  -3  19 586.607 195.445   1
   8  -2 -18 904.720 242.277   4
  -8   2  18 1101.49 296.360   6
   8  -2 -17 1434.34 294.033   4
  -8   2  17 1644.53 373.201   6
  -8   2  16-35.7902 123.670   6
  -8   2  15 6.42345 89.0355   6
  -8   2  14 1366.42 299.311   6
  -8   2  13-5.07989 91.7522   6
  -8   2  12 2502.39 374.207   6
  -8   2  11 4859.01 503.452   6
  -8   2  10 11004.1 725.195   6
  -8   2   9 30.5589 91.4435   6
  -8   2   8 1874.71 280.538   6
  -8   2   7 485.163 136.784   6
   8  -2  -6 241.980 70.1039   2
  -8   2   6 202.149 90.5732   6
   8  -2  -5 122.060 92.1177   3
   8  -2  -5 123.425 54.9761   2
  -8   2   5-45.8982 90.8185   6
   8  -2  -4 313.242 116.179   3
   8  -2  -4 350.177 85.5870   2
  -8   2   4 346.742 113.953   6
   8  -2  -3 1457.20 220.173   3
  -8   2   3 1334.33 199.795   6
   8  -2  -2 1561.33 222.802   3
  -8   2   2 1831.08 219.585   6
   8  -2  -1 6211.82 425.182   3
   8  -2   0 2404.06 256.682   3
   8  -2   1 16983.9 653.360   3
   8  -2   1 17061.3 502.064   6
   8  -2   2 6515.11 382.960   3
   8  -2   2 6220.75 275.676   6
   8  -2   3 316.248 57.9835   6
   8  -2   3 285.644 73.0073   3
   8  -2   4 1322.83 218.472   1
   8  -2   4 1633.31 178.544   3
   8  -2   4 1551.00 109.361   6
   8  -2   5-2.28913 9.67745   6
   8  -2   5 16.2481 39.0796   3
   8  -2   5-104.805 113.658   1
   8  -2   6 3111.70 240.047   3
   8  -2   6 2702.42 324.540   1
   8  -2   7 1713.43 278.028   1
   8  -2   8 26505.8 1077.61   1
   8  -2   9 19652.5 942.736   1
   8  -2   9 18505.3 657.190   4
   8  -2  10 1004.71 237.569   1
   8  -2  10 1182.15 156.440   4
   8  -2  11 3968.52 440.736   1
  -8   2 -12 472.875 192.137   5
   8  -2  12 626.400 189.944   1
  -8   2 -13 1271.72 294.377   5
   8  -2  13 1405.95 265.417   1
  -8   2 -14 200.146 128.143   5
   8  -2  14 564.443 207.389   1
  -8   2 -15 292.207 171.665   5
   8  -2  15 766.339 214.206   1
   8  -2  16 971.659 239.826   1
  -8   2 -16 978.297 276.120   5
   8  -2  17 643.878 203.429   1
  -8   2 -17 955.075 276.250   5
  -8   2 -18 467.812 217.334   5
   8  -2  18 590.138 189.949   1
  -8   2 -19 491.182 221.584   5
   8  -2  19 627.306 206.913   1
   8  -1 -18 3247.20 441.202   4
  -8   1  18 4604.20 600.516   6
  -8   1  17-18.6441 83.5031   6
   8  -1 -17-45.4085 101.777   4
  -8   1  16 457.771 182.783   6
   8  -1 -16 773.483 197.047   4
  -8   1  15-145.367 107.389   6
   8  -1 -15-51.0662 136.604   4
  -8   1  14 448.055 178.306   6
   8  -1 -14 173.800 116.578   4
  -8   1  13-148.849 132.029   6
   8  -1 -13 76.1218 115.861   4
  -8   1  12 3410.24 431.358   6
  -8   1  11 188.158 111.476   6
  -8   1  10 271.487 124.949   6
  -8   1   9 19877.4 932.013   6
  -8   1   8 15167.2 784.670   6
  -8   1   7-38.7027 62.5487   6
   8  -1  -6 4925.14 343.406   2
  -8   1   6 3390.28 347.127   6
   8  -1  -5 468.918 110.218   2
  -8   1   5 863.048 173.188   6
   8  -1  -4 91.8690 61.1303   2
  -8   1   4 90.7529 72.2721   6
   8  -1  -3 1574.22 219.249   3
   8  -1  -3 1476.84 195.986   2
  -8   1   3 1345.24 193.417   6
   8  -1  -2 2462.73 259.159   3
  -8   1   2 2067.62 226.738   6
  -8   1   1 1383.33 172.482   6
   8  -1  -1 1587.00 199.457   3
   8  -1   0 1550.64 152.742   6
   8  -1   0 1635.11 192.937   3
   8  -1   1 7371.69 302.749   6
   8  -1   1 8062.93 502.654   1
   8  -1   1 8087.14 400.282   3
   8  -1   2 33.7382 18.0529   6
   8  -1   2-20.2381 83.4868   1
   8  -1   2 17.9390 35.3819   3
   8  -1   3 4.96079 10.4021   6
   8  -1   3 33.6508 30.6236   3
   8  -1   4 1716.96 251.813   1
   8  -1   4 1666.89 143.330   3
   8  -1   5 197.565 116.276   1
   8  -1   6-93.9977 113.540   1
   8  -1   7 237.483 112.355   1
   8  -1   7 220.501 80.8982   4
   8  -1   8 58.2781 94.8885   1
   8  -1   8 78.6841 50.6962   4
   8  -1   9 8532.24 604.579   1
   8  -1   9 8074.05 424.703   4
   8  -1  10 10805.7 690.065   1
   8  -1  10 9766.73 442.973   4
   8  -1  11 3342.92 393.126   1
   8  -1  12-79.7026 111.151   1
   8  -1  13 3512.89 409.546   1
   8  -1  14 2641.11 366.343   1
  -8   1 -14 2419.34 401.598   5
   8  -1  15 80.5686 106.519   1
  -8   1 -15-42.2108 96.6154   5
   8  -1  16 149.386 143.935   1
  -8   1 -16-20.6511 107.686   5
  -8   1 -17-231.661 153.245   5
   8  -1  17-74.4032 95.7431   1
  -8   1 -18 167.714 160.776   5
   8  -1  18 341.895 134.761   1
  -8   1 -19 156.960 141.573   5
   8  -1  19-30.0199 86.1956   1
  -8   1 -20 306.318 186.790   5
   8  -1  20 987.768 243.598   1
  -8   0  17 2612.24 440.255   6
   8   0 -17 2686.41 391.291   4
  -8   0  16 1755.45 352.696   6
   8   0 -16 1218.43 261.766   4
  -8   0  15 185.626 145.029   6
   8   0 -15-78.3370 130.235   4
  -8   0  14 961.532 238.629   6
   8   0 -14 1207.46 258.426   4
  -8   0  13 210.683 101.750   6
   8   0 -13-152.317 114.179   4
  -8   0  12 2393.60 359.802   6
   8   0 -12 1987.65 314.930   4
  -8   0  11 840.463 219.963   6
   8   0 -11 413.020 156.527   4
  -8   0  10 455.813 142.049   6
   8   0 -10 234.951 107.066   4
   8   0  -9 3452.50 403.584   4
  -8   0   9 3443.73 383.651   6
  -8   0   8 1839.75 275.194   6
   8   0  -8 1753.53 284.279   4
   8   0  -8 1745.60 173.136   1
   8   0  -7 3026.41 240.121   1
  -8   0   7 2937.04 331.900   6
  -8   0   6 902.757 183.684   6
   8   0  -6 1214.47 160.160   1
   8   0  -6 1117.70 172.203   2
  -8   0   5 462.651 122.037   6
   8   0  -5 671.326 127.738   1
   8   0  -5 473.257 118.824   2
   8   0  -4 10257.6 536.273   2
   8   0  -4 9842.21 478.149   1
  -8   0   4 9654.64 528.163   6
   8   0  -3 12281.0 596.834   2
   8   0  -3 12485.7 554.417   1
  -8   0   3 11961.6 562.067   6
   8   0  -2 22268.0 759.652   1
  -8   0   2 21847.0 716.635   6
   8   0  -1 7676.42 407.479   3
   8   0  -1 7075.31 438.271   1
  -8   0   1 8063.58 406.934   6
   8   0   0 1773.09 165.061   6
   8   0   0 1795.13 233.593   1
  -8   0   0 1668.72 171.655   6
   8   0   0 1865.51 187.165   3
   8   0   1 1657.34 142.173   6
   8   0   1 1835.65 244.495   1
   8   0   1 1827.33 167.006   3
  -8   0  -1 1814.44 159.868   6
   8   0   2 4842.27 205.071   6
   8   0   2 5255.73 401.698   1
   8   0   2 5539.40 423.125   4
   8   0   2 4820.44 232.218   3
   8   0   3 4255.46 369.536   1
   8   0   3 4527.22 373.545   4
   8   0   3 4047.09 170.235   3
   8   0   4 3759.95 356.300   1
   8   0   4 3972.60 341.308   4
   8   0   5 575.466 148.261   1
   8   0   5 476.042 115.351   4
   8   0   6 305.992 135.959   1
   8   0   6 112.621 43.7520   4
   8   0   7 1504.93 195.500   4
   8   0   7 1802.51 264.483   1
   8   0   8 6786.32 403.151   4
   8   0   8 6439.87 502.047   1
   8   0   9 1919.62 207.001   4
   8   0   9 1591.24 259.981   1
   8   0  10-8.00946 104.820   1
   8   0  10-53.8162 73.4488   4
   8   0  11 5.76258 85.0008   1
   8   0  12 1923.12 297.272   1
   8   0  13 2691.92 354.542   1
   8   0  14 2231.35 322.663   1
  -8   0 -15 72.7103 71.4693   5
   8   0  15 263.677 135.897   1
  -8   0 -16 313.399 149.965   5
   8   0  16 503.727 170.526   1
  -8   0 -17 163.069 142.706   5
   8   0  17 91.0441 105.575   1
  -8   0 -18 104.841 109.294   5
   8   0  18 88.1605 88.5115   1
  -8   0 -19 229.131 146.957   5
   8   0  19 75.8614 84.6659   1
  -8   0 -20 303.055 194.180   5
   8   0  20 457.130 176.865   1
  -8   0 -21 97.8449 102.673   5
  -8  -1  17 1043.02 275.993   6
   8   1 -17 1062.82 241.985   4
  -8  -1  16 80.6911 119.138   6
   8   1 -16-29.5148 89.5781   4
   8   1 -15 3455.10 431.920   4
  -8  -1  15 3215.55 474.485   6
   8   1 -14 8890.81 682.789   4
  -8  -1  14 9059.69 738.129   6
  -8  -1  13 1343.45 286.149   6
   8   1 -13 1095.00 228.038   4
  -8  -1  12 933.831 224.555   6
   8   1 -12 743.380 205.409   4
  -8  -1  11 537.240 173.060   6
   8   1 -11 601.913 175.671   4
  -8  -1  10 37.7980 89.8135   6
   8   1 -10-10.4751 90.9746   4
  -8  -1   9 38.2420 89.2200   6
   8   1  -9-120.051 122.546   4
  -8  -1   8-128.558 113.049   6
   8   1  -8 66.1811 96.9648   4
   8   1  -7 10235.5 553.492   2
   8   1  -7 9138.82 632.197   4
   8   1  -7 9631.37 359.324   1
  -8  -1   7 9296.52 584.396   6
  -8  -1   6 1183.77 212.018   6
   8   1  -6 827.499 169.603   4
   8   1  -6 1039.87 182.356   2
   8   1  -6 1128.23 138.444   1
  -8  -1   5 1021.02 178.975   6
   8   1  -5 918.747 196.786   4
   8   1  -5 987.316 176.766   2
   8   1  -5 923.169 129.097   1
   8   1  -4 6621.09 363.322   1
   8   1  -4 7129.37 533.403   4
   8   1  -4 7168.92 476.764   2
  -8  -1   4 6464.59 429.845   6
   8   1  -3 12862.0 524.609   1
   8   1  -3 12451.0 695.224   4
   8   1  -3 12468.2 635.247   2
  -8  -1   3 13161.3 576.463   6
   8   1  -2 7093.36 404.028   1
   8   1  -2 8037.10 548.606   4
   8   1  -2 7538.31 499.210   2
  -8  -1   2 8722.93 445.970   6
   8   1  -1 4421.90 328.683   1
   8   1  -1 4343.42 398.392   4
  -8  -1   1 4537.65 303.836   6
   8   1   0 6785.84 327.314   3
   8   1   0 6336.49 405.775   1
   8   1   0 6321.02 324.647   6
   8   1   0 6395.43 474.912   4
  -8  -1   0 6839.43 342.604   6
   8   1   1 1847.80 249.342   4
  -8  -1  -1 1862.44 159.394   6
   8   1   1 1561.25 137.076   3
   8   1   1 1513.67 203.834   1
   8   1   2-7.81127 65.2911   4
   8   1   2 92.1614 68.6865   1
  -8  -1  -2 22.2711 24.8844   6
   8   1   2 7.50281 9.52570   3
   8   1   3 163.046 70.5594   4
   8   1   3 206.874 71.8125   1
   8   1   4 5937.45 414.923   4
   8   1   4 6149.23 445.578   1
   8   1   5 1026.24 173.967   4
   8   1   5 1401.87 217.214   1
   8   1   6 1580.55 208.000   4
   8   1   6 2096.61 268.918   1
   8   1   7-0.69678 89.7901   1
   8   1   7-28.6510 48.6367   4
   8   1   8 1139.75 211.527   1
   8   1   8 931.269 147.473   4
   8   1   9 1176.45 230.158   1
   8   1   9 660.701 124.599   4
   8   1  10 277.870 119.839   1
   8   1  11-148.301 124.277   1
   8   1  12 285.725 130.803   1
   8   1  13 1054.54 225.420   1
   8   1  14 494.221 168.084   1
   8   1  15 2516.27 343.596   1
   8   1  16 1705.10 287.388   1
  -8  -1 -17 195.554 116.642   5
   8   1  17 283.154 140.663   1
  -8  -1 -18 128.182 124.971   5
   8   1  18 95.0458 84.2760   1
  -8  -1 -19 1368.50 327.777   5
   8   1  19 1351.17 275.031   1
  -8  -1 -20 55.0787 104.025   5
   8   1  20-40.0998 89.1336   1
  -8  -1 -21 121.391 140.384   5
  -8  -2  17-3.01436 94.2674   6
   8   2 -17-205.995 121.852   4
  -8  -2  16 125.661 103.130   6
   8   2 -16 50.1084 99.1122   4
  -8  -2  15 1059.33 271.701   6
   8   2 -15 1362.71 281.227   4
  -8  -2  14 1611.80 321.024   6
   8   2 -14 1506.56 290.835   4
  -8  -2  13 42.7742 110.522   6
   8   2 -13-54.2955 105.288   4
   8   2 -12 5405.42 516.837   4
  -8  -2  12 5160.17 525.553   6
   8   2 -11 3461.35 408.892   4
  -8  -2  11 3725.56 437.277   6
  -8  -2  10-42.6954 76.1111   6
   8   2 -10 3.71278 74.7824   4
  -8  -2   9 162.961 96.2851   6
   8   2  -9 26.5268 83.5205   4
   8   2  -8 2621.22 341.543   4
  -8  -2   8 2842.93 339.009   6
  -8  -2   7 840.038 177.524   6
   8   2  -7 785.821 171.618   2
   8   2  -7 1167.33 227.171   4
  -8  -2   6 449.401 134.605   6
   8   2  -6 861.154 193.924   4
   8   2  -6 594.898 145.688   2
   8   2  -6 633.923 85.0316   1
   8   2  -5 11864.9 639.656   2
   8   2  -5 12500.6 709.837   4
   8   2  -5 12274.7 418.211   1
  -8  -2   5 11512.7 604.504   6
   8   2  -4 16882.4 769.534   2
   8   2  -4 16949.6 817.508   4
   8   2  -4 16812.1 521.426   1
  -8  -2   4 16790.5 694.162   6
   8   2  -3 4795.41 432.859   4
   8   2  -3 3737.71 369.863   2
   8   2  -3 4664.48 293.502   1
  -8  -2   3 5098.86 361.703   6
   8   2  -2 2226.53 291.941   4
   8   2  -2 2399.16 223.970   1
   8   2  -2 2027.57 276.469   2
  -8  -2   2 1851.36 206.342   6
   8   2  -1 12159.5 657.187   4
   8   2  -1 12319.5 520.354   1
  -8  -2   1 12102.7 497.728   6
  -8  -2   0 82.3777 42.2189   6
   8   2   0 117.093 78.6486   1
   8   2   0 54.0254 90.6959   4
   8   2   0 95.9927 35.9467   3
   8   2   1 9934.42 318.969   3
   8   2   1 9768.61 567.050   4
   8   2   1 8866.81 275.039   3
   8   2   1 9667.50 494.521   1
  -8  -2  -1 9715.19 378.002   6
  -8  -2  -2 61.5938 35.8711   6
   8   2   2 188.829 79.6610   1
   8   2   2 80.3481 62.4623   4
   8   2   3 14.5509 72.3438   1
   8   2   3 58.1587 65.7171   4
  -8  -2  -3 58.0271 27.3165   6
   8   2   4 1808.99 232.746   1
   8   2   4 1732.94 232.328   4
   8   2   5 9956.53 524.319   4
   8   2   5 10033.0 553.947   1
   8   2   6 10992.4 537.561   4
   8   2   6 11542.7 608.970   1
   8   2   7 769.675 185.095   1
   8   2   7 864.477 154.143   4
   8   2   8 2799.69 323.617   1
   8   2   9 2327.26 301.823   1
   8   2  10 193.529 130.658   1
   8   2  11 241.825 105.965   1
   8   2  12 1882.17 276.934   1
   8   2  13 186.052 97.2903   1
   8   2  14-47.0804 103.079   1
   8   2  15 3138.03 377.889   1
   8   2  16 82.2732 121.292   1
   8   2  17-116.883 108.116   1
   8   2  18 336.834 154.516   1
  -8  -2 -19 390.829 167.115   5
   8   2  19 671.142 197.595   1
   8   2  20-122.564 127.935   1
  -8  -3  16 73.6078 102.166   6
  -8  -3  15 440.832 165.381   6
   8   3 -15 423.437 147.988   4
  -8  -3  14 188.628 174.698   6
   8   3 -14-26.1568 85.4684   4
  -8  -3  13 2511.21 391.370   6
   8   3 -13 2555.45 363.483   4
   8   3 -12 7346.68 594.937   4
  -8  -3  12 6323.65 595.028   6
  -8  -3  11 449.683 156.593   6
   8   3 -11 331.835 143.084   4
   8   3 -10 3632.60 412.520   4
  -8  -3  10 3694.79 424.707   6
   8   3  -9 2361.64 328.263   4
  -8  -3   9 2432.31 340.253   6
  -8  -3   8 458.536 154.971   6
   8   3  -8 418.214 152.933   4
   8   3  -7 4622.06 415.648   2
   8   3  -7 4698.67 449.255   4
  -8  -3   7 4565.75 421.278   6
  -8  -3   6-26.4939 91.8049   6
   8   3  -6 6.98718 66.7005   2
   8   3  -6 82.6844 80.8116   4
   8   3  -5 4151.33 216.848   1
   8   3  -5 4033.30 398.418   2
   8   3  -5 4082.03 413.133   4
  -8  -3   5 3675.26 348.054   6
  -8  -3   4 240.298 95.7895   6
   8   3  -4 461.684 84.2694   1
   8   3  -4 352.377 148.541   4
   8   3  -4 298.041 113.106   2
   8   3  -3 30766.3 696.252   1
   8   3  -3 29895.8 1082.52   2
   8   3  -3 32251.1 1108.87   4
  -8  -3   3 31088.0 921.885   6
   8   3  -2 30685.2 1062.05   4
   8   3  -2 30843.1 1104.62   2
   8   3  -2 30685.4 741.604   1
  -8  -3   2 31112.2 873.678   6
  -8  -3   1 511.623 114.319   6
   8   3  -1 540.640 149.135   4
   8   3  -1 296.759 81.7563   1
   8   3  -1 204.608 86.3807   2
   8   3   0 4226.20 383.955   4
   8   3   0 4932.85 326.212   1
   8   3   0 4918.03 269.275   3
  -8  -3   0 4935.46 309.655   6
  -8  -3  -1 162.960 59.4681   6
   8   3   1 406.535 137.928   4
   8   3   1 238.832 93.0251   1
   8   3   1 244.647 52.7794   3
  -8  -3  -2-14.6381 26.1499   6
   8   3   2-47.1976 57.9032   1
  -8  -3  -3 20.9407 25.3990   6
   8   3   3 14.9354 54.1421   4
   8   3   3 76.2261 77.2439   1
   8   3   4 2398.49 271.511   4
   8   3   4 2163.40 247.883   1
  -8  -3  -4 2271.62 126.948   6
   8   3   5 944.231 169.334   4
   8   3   5 500.414 132.002   1
   8   3   6 4373.24 368.865   1
   8   3   7 9177.60 543.315   1
   8   3   8 8245.12 527.797   1
   8   3   9-98.3597 102.472   1
   8   3  10 1490.83 241.228   1
   8   3  11 2134.06 292.583   1
   8   3  12 1445.81 237.232   1
   8   3  13 460.209 175.475   1
   8   3  14 2633.68 338.332   1
   8   3  15-101.053 112.157   1
   8   3  16 659.430 177.455   1
   8   3  17 29.1738 71.0356   1
   8   3  18-72.0912 90.3907   1
   8   3  19 109.097 82.3987   1
   8   3  20 342.145 144.859   1
  -8  -4  15 21.3798 127.432   6
  -8  -4  14 348.368 162.270   6
  -8  -4  13 924.526 240.335   6
  -8  -4  12 282.415 144.245   6
  -8  -4  11 2616.88 376.338   6
   8   4 -11 2678.25 358.691   4
  -8  -4  10 720.358 199.578   6
   8   4 -10 1064.57 226.473   4
  -8  -4   9 135.740 85.0218   6
   8   4  -9 48.2771 76.9723   4
  -8  -4   8 1385.22 253.385   6
   8   4  -8 937.307 211.926   4
   8   4  -7 3161.59 372.353   4
  -8  -4   7 2764.56 338.865   6
  -8  -4   6 1411.92 234.892   6
   8   4  -6 1002.58 209.975   2
   8   4  -6 1363.02 253.407   4
  -8  -4   5 885.584 180.539   6
   8   4  -5 881.129 197.997   2
   8   4  -5 843.441 198.900   4
   8   4  -4 15938.2 442.518   1
   8   4  -4 15192.9 805.495   2
   8   4  -4 15546.0 781.439   4
  -8  -4   4 16139.2 725.333   6
   8   4  -3 9863.01 380.804   1
   8   4  -3 10201.4 660.765   2
   8   4  -3 9896.38 620.131   4
  -8  -4   3 9668.23 538.278   6
   8   4  -2 109.320 44.9529   1
  -8  -4   2 94.4707 54.4924   6
   8   4  -2 64.0697 90.1524   4
   8   4  -2 65.4966 66.2454   2
  -8  -4   1 1480.03 196.023   6
   8   4  -1 1511.66 166.940   1
   8   4  -1 2070.13 279.419   4
   8   4  -1 1752.47 282.045   2
  -8  -4   0 2185.15 218.755   6
   8   4   0 2288.18 217.888   1
   8   4   0 2316.13 289.674   4
   8   4   0 2299.05 325.817   2
  -8  -4  -1 176.832 58.3106   6
   8   4   1 272.810 104.660   1
   8   4   1 114.233 75.0801   4
  -8  -4  -2 3037.93 227.549   6
   8   4   2 2575.17 252.316   1
  -8  -4  -3 4820.83 263.376   6
   8   4   3 4771.75 346.190   1
  -8  -4  -4 3306.15 194.697   6
   8   4   4 3660.26 314.108   1
  -8  -4  -5 5.14584 14.5880   6
   8   4   5-28.8976 65.4296   1
   8   4   6 4998.39 382.868   1
   8   4   7 1946.22 249.472   1
   8   4   8 655.699 155.946   1
   8   4   9 511.789 148.770   1
   8   4  10 859.509 188.159   1
   8   4  11 158.971 99.1623   1
   8   4  12 178.019 132.290   1
   8   4  13 3828.11 393.805   1
   8   4  14 5559.65 480.327   1
   8   4  15 100.168 113.943   1
   8   4  16 507.093 163.237   1
   8   4  17 1146.04 239.859   1
   8   4  18 599.399 177.912   1
   8   4  19-142.040 118.391   1
   8   4  20 6.52140 91.8734   1
  -8  -5  15-23.1180 117.520   6
  -8  -5  14 1524.09 323.949   6
  -8  -5  13 171.406 132.645   6
  -8  -5  12 297.178 143.873   6
  -8  -5  11 21.2204 82.6603   6
  -8  -5  10 806.816 212.014   6
  -8  -5   9 36.3565 73.9373   6
  -8  -5   8 182.917 110.062   6
  -8  -5   7 103.676 105.532   6
  -8  -5   6 1042.22 212.662   6
   8   5  -6 964.070 216.019   2
  -8  -5   5 188.609 104.958   6
   8   5  -5 157.344 133.810   2
  -8  -5   4 1121.64 205.402   6
   8   5  -4 1060.01 230.032   2
  -8  -5   3 668.388 149.808   6
   8   5  -3 567.117 95.3069   1
   8   5  -3 596.448 173.394   2
  -8  -5   2 973.533 175.116   6
   8   5  -2 1084.93 235.466   2
   8   5  -2 1098.78 138.026   1
  -8  -5   1 47.3450 42.1903   6
   8   5  -1-35.4343 90.6130   2
   8   5  -1-4.56915 33.2022   1
  -8  -5   0-61.6455 75.8008   6
   8   5   0-24.5994 88.2418   2
   8   5   0 67.6721 58.7193   1
  -8  -5  -1 2789.77 258.203   6
   8   5   1 2714.36 244.918   1
   8   5   1 2481.68 348.017   2
  -8  -5  -2 6304.19 365.296   6
   8   5   2 5964.40 371.346   1
  -8  -5  -3 1672.53 179.464   6
   8   5   3 1672.95 204.373   1
   8   5   4 276.730 92.0251   1
  -8  -5  -4 278.513 69.8834   6
  -8  -5  -5 1476.68 147.617   6
   8   5   5 1344.86 199.679   1
   8   5   6 12786.5 611.724   1
   8   5   7 529.065 137.593   1
   8   5   8 2481.11 288.432   1
   8   5   9 76.5406 72.1089   1
   8   5  10-74.0510 80.4667   1
   8   5  11 111.950 105.208   1
   8   5  12 1439.22 245.211   1
   8   5  13 4760.54 439.066   1
   8   5  14-4.59336 66.6904   1
   8   5  15 1627.77 273.131   1
   8   5  16 1752.36 286.961   1
   8   5  17 171.887 121.807   1
   8   5  18 1272.31 258.342   1
   8   5  19 96.0648 81.4101   1
  -8  -6  14 824.744 241.323   6
  -8  -6  13 915.444 237.301   6
  -8  -6  12 1795.41 330.344   6
  -8  -6  11 808.452 232.204   6
  -8  -6  10-69.3365 80.5469   6
  -8  -6   9 7.17645 82.2476   6
  -8  -6   8 28.8903 77.2769   6
  -8  -6   7 148.765 112.072   6
  -8  -6   6 279.078 125.914   6
   8   6  -6 270.419 129.177   2
  -8  -6   5 2106.76 293.142   6
   8   6  -5 2014.40 321.063   2
  -8  -6   4 404.242 140.026   6
   8   6  -4 482.432 164.886   2
  -8  -6   3 637.731 152.358   6
   8   6  -3 816.456 218.839   2
  -8  -6   2 6024.74 449.324   6
   8   6  -2 6260.54 561.977   2
   8   6  -2 5584.63 311.978   1
  -8  -6   1 31.5576 48.7162   6
   8   6  -1-11.8756 36.9973   1
  -8  -6   0 74.3399 53.1739   6
   8   6   0-39.1956 37.8736   1
   8   6   0-73.7356 97.3410   2
  -8  -6  -1 1079.99 173.490   6
   8   6   1 934.285 143.317   1
   8   6   1 915.861 221.824   2
  -8  -6  -2 1335.32 188.844   6
   8   6   2 1344.02 183.143   1
   8   6   2 1681.67 300.971   2
  -8  -6  -3 21.0476 42.2391   6
   8   6   3-11.3676 43.9794   1
  -8  -6  -4 698.841 125.725   6
   8   6   4 662.930 136.713   1
  -8  -6  -5 353.562 91.4288   6
   8   6   5 346.631 112.136   1
  -8  -6  -6 1847.18 187.502   6
   8   6   6 1995.96 247.631   1
   8   6   7 2523.98 285.097   1
   8   6   8 5050.44 408.662   1
   8   6   9 797.140 176.228   1
   8   6  10 828.197 183.964   1
   8   6  11 1034.41 205.234   1
   8   6  12 568.300 173.519   1
   8   6  13 141.819 121.497   1
   8   6  14 1642.47 270.546   1
   8   6  15 388.375 157.697   1
   8   6  16 16.4212 74.1700   1
   8   6  17 1126.42 244.551   1
   8   6  18 565.145 177.055   1
   8   6  19-25.7211 80.7142   1
  -8  -7  13 1243.65 304.141   6
  -8  -7  12 1095.46 275.070   6
  -8  -7  11 132.829 116.070   6
  -8  -7  10 698.570 207.231   6
  -8  -7   9 315.833 147.628   6
  -8  -7   8 16.6339 58.4617   6
  -8  -7   7 537.159 164.675   6
  -8  -7   6 145.769 120.671   6
   8   7  -6 164.947 116.000   2
  -8  -7   5-33.1417 58.0431   6
   8   7  -5-4.55245 84.3826   2
  -8  -7   4 91.8363 99.3752   6
   8   7  -4 40.2197 98.9146   2
  -8  -7   3 364.091 136.793   6
   8   7  -3 229.410 125.589   2
   8   7  -2-27.2790 38.9695   1
   8   7  -2 1.07006 84.4791   2
  -8  -7   1 4819.84 414.896   6
   8   7  -1 4857.99 517.520   2
   8   7  -1 4906.96 319.930   1
  -8  -7   0 12070.7 634.731   6
   8   7   0 11098.6 776.182   2
   8   7   0 11755.3 512.186   1
  -8  -7  -1 2966.75 309.126   6
   8   7   1 2641.27 376.380   2
   8   7   1 2926.53 264.547   1
  -8  -7  -2 50.8562 55.4721   6
   8   7   2 68.5466 59.5211   1
   8   7   2 78.4818 103.931   2
  -8  -7  -3 870.198 160.295   6
   8   7   3 515.451 126.365   1
   8   7   3 409.181 163.741   2
   8   7   4 1914.33 232.792   1
  -8  -7  -4 2057.53 238.185   6
  -8  -7  -5 74.1164 51.3822   6
   8   7   5 69.2879 53.6062   1
  -8  -7  -6 672.319 125.783   6
   8   7   6 751.825 154.253   1
   8   7   7 663.748 153.212   1
   8   7   8 1725.22 244.169   1
   8   7   9 370.286 120.213   1
   8   7  10 15.0991 90.3274   1
   8   7  11 141.887 98.3335   1
   8   7  12 1792.25 273.632   1
   8   7  13 25.4099 79.2174   1
   8   7  14 80.7513 93.8822   1
   8   7  15 199.493 124.761   1
   8   7  16-112.992 108.984   1
   8   7  17 37.5533 67.0561   1
   8   7  18 12.3794 70.3067   1
  -8  -8  11 2941.64 442.475   6
  -8  -8  10 2744.12 424.570   6
  -8  -8   9 198.511 137.737   6
  -8  -8   8 1592.58 302.787   6
  -8  -8   7 1689.73 298.041   6
  -8  -8   6 45.0535 75.9052   6
  -8  -8   5 834.144 215.482   6
   8   8  -5 835.903 226.808   2
  -8  -8   4 1375.46 262.486   6
   8   8  -4 3210.97 437.295   2
  -8  -8   3 141.798 95.4903   6
   8   8  -3 172.585 125.691   2
  -8  -8   2 63.8400 80.7293   6
   8   8  -2 18.6364 73.8543   2
   8   8  -1 316.308 90.8571   1
  -8  -8   1 396.009 124.596   6
   8   8  -1 370.006 155.727   2
  -8  -8   0 2027.78 285.011   6
   8   8   0 2615.14 396.107   2
   8   8   0 2367.63 242.929   1
  -8  -8  -1 54.9587 64.0661   6
   8   8   1 121.388 66.2727   1
   8   8   1 105.776 132.348   2
  -8  -8  -2 136.999 96.7839   6
   8   8   2 34.7338 59.9743   1
   8   8   2 54.1787 108.549   2
  -8  -8  -3 99.8388 76.4972   6
   8   8   3 115.092 77.6728   1
   8   8   3 64.1900 102.889   2
  -8  -8  -4 56.7408 50.2612   6
   8   8   4 113.781 85.7427   1
   8   8   4 27.6178 81.4870   2
  -8  -8  -5 60.7328 56.7784   6
   8   8   5 26.7461 52.5527   1
  -8  -8  -6 228.493 90.7647   6
   8   8   6 229.026 96.2735   1
   8   8   7 1746.51 250.796   1
   8   8   8 196.229 100.124   1
   8   8   9 244.133 112.633   1
   8   8  10 97.2198 73.2446   1
   8   8  11 217.741 111.090   1
   8   8  12 348.355 136.527   1
   8   8  13 1098.55 227.673   1
   8   8  14-77.9342 115.756   1
   8   8  15 203.110 107.653   1
   8   8  16 411.853 168.685   1
   8   8  17 3.26551 77.2764   1
  -8  -9  10-5.37892 109.332   6
  -8  -9   9 1838.89 348.586   6
  -8  -9   8 279.802 154.729   6
  -8  -9   7 219.277 130.521   6
  -8  -9   6 2548.90 381.970   6
  -8  -9   5 1928.11 332.087   6
  -8  -9   4 218.282 126.932   6
   8   9  -4 196.427 122.620   2
  -8  -9   3-1.61280 56.8346   6
   8   9  -3-9.83651 75.5182   2
  -8  -9   2 42.1039 74.6700   6
   8   9  -2 316.680 150.453   2
  -8  -9   1 107.804 84.2936   6
   8   9  -1 18.0697 100.854   2
  -8  -9   0 3151.22 370.226   6
   8   9   0 3972.17 493.387   2
   8   9   0 3185.66 294.503   1
   8   9   1 877.685 165.771   1
  -8  -9  -1 1196.71 223.508   6
   8   9   1 1154.01 282.067   2
   8   9   2 738.674 159.449   1
  -8  -9  -2 586.425 158.828   6
   8   9   2 933.329 257.105   2
  -8  -9  -3 4379.88 414.224   6
   8   9   3 3993.57 515.111   2
   8   9   3 4084.95 363.239   1
  -8  -9  -4 1.98712 66.4936   6
   8   9   4 85.8962 78.5430   1
   8   9   4 11.4288 89.5134   2
  -8  -9  -5 2966.61 326.806   6
   8   9   5 3491.82 487.460   2
   8   9   5 2275.51 284.931   1
   8   9   6 278.852 116.080   1
   8   9   7 37.7992 68.8028   1
   8   9   8 458.023 146.964   1
   8   9   9 362.808 126.000   1
   8   9  10 192.869 117.184   1
   8   9  11 262.608 109.812   1
   8   9  12-50.0805 85.8479   1
   8   9  13 10.2982 67.5909   1
   8   9  14 198.820 111.605   1
   8   9  15 633.429 183.916   1
   8   9  16-28.0685 76.0486   1
   8   9  17 33.7183 92.9117   1
  -8 -10   9 53.2502 84.4212   6
  -8 -10   8-113.848 110.997   6
  -8 -10   7 223.775 133.545   6
  -8 -10   6 1152.27 266.478   6
  -8 -10   5 1417.68 289.607   6
  -8 -10   4 755.127 212.458   6
   8  10  -4 1047.18 274.599   2
  -8 -10   3 2534.68 368.843   6
   8  10  -3 2753.83 422.931   2
  -8 -10   2 1604.39 288.282   6
   8  10  -2 2002.76 371.134   2
  -8 -10   1 180.035 138.583   6
   8  10  -1 411.090 167.577   2
  -8 -10   0 329.562 140.559   6
   8  10   0 120.043 133.513   2
   8  10   1 503.364 138.347   1
  -8 -10  -1 577.382 161.016   6
   8  10   1 635.844 219.887   2
   8  10   2 1883.81 254.606   1
  -8 -10  -2 2260.43 316.432   6
   8  10   2 1965.23 359.073   2
   8  10   3 11.4890 56.2182   1
  -8 -10  -3 222.838 105.206   6
   8  10   3 137.065 154.607   2
   8  10   4 1358.42 226.942   1
  -8 -10  -4 1276.70 236.143   6
   8  10   4 1097.33 289.330   2
   8  10   5 806.568 180.569   1
  -8 -10  -5 1032.37 208.336   6
   8  10   5 537.568 204.937   2
   8  10   6 645.319 165.894   1
   8  10   6 805.047 244.349   2
   8  10   7 2456.43 316.350   1
   8  10   7 1880.00 379.488   2
   8  10   8 756.002 190.757   1
   8  10   9 215.272 119.771   1
   8  10  10 1577.93 269.697   1
   8  10  11-32.0542 97.5904   1
   8  10  12-29.4403 97.6685   1
   8  10  13-116.133 114.674   1
   8  10  14 274.233 130.540   1
   8  10  15 23.2783 59.7320   1
  -8 -11   7 31.7605 89.4480   6
  -8 -11   6 165.395 113.071   6
  -8 -11   5-79.7553 114.998   6
  -8 -11   4 2807.84 413.165   6
  -8 -11   3 1530.68 306.126   6
   8  11  -3 1640.42 343.815   2
  -8 -11   2 653.086 199.423   6
   8  11  -2 1094.47 290.165   2
  -8 -11   1 3173.86 417.481   6
   8  11  -1 3582.69 494.021   2
  -8 -11   0 1223.87 256.524   6
   8  11   0 1405.93 329.676   2
  -8 -11  -1 647.659 190.884   6
   8  11   1 492.466 207.855   2
  -8 -11  -2 71.0735 82.0234   6
   8  11   2-15.7891 71.4830   2
   8  11   3 13.6557 67.1733   1
  -8 -11  -3-94.9397 71.6028   6
   8  11   3-32.3215 98.6091   2
   8  11   4 352.863 128.757   1
  -8 -11  -4 490.630 166.832   6
   8  11   4 334.126 176.481   2
   8  11   5 664.481 177.650   1
  -8 -11  -5 522.038 173.814   6
   8  11   5 375.988 178.067   2
   8  11   6 164.841 82.1768   1
   8  11   6 374.990 191.317   2
   8  11   7 750.405 188.343   1
   8  11   7 804.459 271.001   2
   8  11   8 117.581 88.1466   1
   8  11   8-148.675 151.574   2
   8  11   9 553.248 176.837   1
   8  11  10 660.229 188.491   1
   8  11  11-296.372 141.165   1
   8  11  12-156.196 126.567   1
   8  11  13-100.914 122.355   1
   8  11  14-106.301 78.4944   1
  -8 -12   5 74.6258 87.8476   6
  -8 -12   4 108.522 104.974   6
  -8 -12   3 73.8952 91.7414   6
  -8 -12   2 486.971 187.668   6
  -8 -12   1 219.948 135.666   6
   8  12  -1 351.763 189.457   2
  -8 -12   0 971.544 247.758   6
   8  12   0 1597.26 357.877   2
  -8 -12  -1 2169.17 357.012   6
   8  12   1 2297.71 419.416   2
  -8 -12  -2 1820.36 321.482   6
   8  12   2 3347.00 504.130   2
  -8 -12  -3 235.478 122.041   6
   8  12   3 169.916 151.346   2
  -8 -12  -4-28.8738 63.4474   6
   8  12   4 1.53837 73.1650   2
   8  12   4-50.4883 85.6122   1
   8  12   5-1.07624 75.1062   1
   8  12   5-39.4601 105.211   2
   8  12   6 76.3213 95.4467   1
   8  12   6-140.667 141.804   2
   8  12   7-69.1981 95.9537   1
   8  12   7 9.79943 117.158   2
   8  12   8 361.627 152.864   1
   8  12   8 700.266 255.998   2
   8  12   9 1042.75 232.020   1
   8  12   9 1185.14 326.873   2
   8  12  10 8.40205 63.4456   1
   8  12  10 23.0795 94.8160   2
   8  12  11 275.400 128.159   1
   8  12  12 1852.37 327.890   1
   8  12  13 897.439 242.352   1
  -8 -13   2 260.534 167.980   6
  -8 -13   1 280.238 152.329   6
  -8 -13   0 684.561 227.284   6
  -8 -13  -1 219.152 148.079   6
  -8 -13  -2 175.231 132.672   6
  -8 -13  -3-217.952 129.240   6
  -8 -13  -4 199.314 102.388   6
   8  13   4 144.510 136.395   2
   8  13   5 244.057 160.213   2
   8  13   6 146.988 153.662   2
   8  13   6 298.485 142.338   1
   8  13   7 6.43088 72.4841   1
   8  13   7 94.3778 147.902   2
   8  13   8-5.90927 80.9314   1
   8  13   8-28.7711 94.4636   2
   8  13   9 41.7436 75.9171   1
   8  13   9-85.2464 119.201   2
   8  13  10 1551.65 303.230   1
   8  13  11 1020.61 273.348   1
   9 -12  -7 256.096 209.013   3
   9 -12  -6 73.5697 117.762   3
   9 -12  -5 217.037 150.259   3
   9 -12  -4-178.657 160.093   3
   9 -12  -3-69.6182 152.658   3
   9 -12  -2 253.147 165.357   3
   9 -12  -1 671.559 252.638   3
   9 -12   0 185.557 139.650   3
   9 -12   1 158.712 176.515   3
   9 -12   2 235.834 155.931   3
   9 -12   3 533.860 221.336   3
   9 -12   4 265.978 173.610   3
   9 -11 -10-279.492 188.643   3
   9 -11  -9 444.870 230.564   3
   9 -11  -8 889.322 284.337   3
   9 -11  -7-79.6393 151.606   3
   9 -11  -6 213.395 146.515   3
   9 -11  -5 136.908 141.962   3
   9 -11  -4 105.480 138.933   3
   9 -11  -3-153.907 155.208   3
   9 -11  -2 122.086 123.169   3
   9 -11  -1 425.168 182.269   3
   9 -11   0 347.425 193.696   3
   9 -11   1 1576.49 358.232   3
   9 -11   2 707.668 259.135   3
   9 -11   3 314.547 179.360   3
   9 -11   4 229.843 134.285   3
   9 -11   5 569.969 208.669   3
   9 -11   6 489.517 205.428   3
   9 -11   7 178.922 135.130   3
   9 -10 -12-144.439 142.564   3
   9 -10 -11-97.3332 141.424   3
   9 -10 -10-33.3845 121.146   3
   9 -10  -9 338.826 181.060   3
   9 -10  -8 197.432 174.589   3
   9 -10  -7 1404.29 351.195   3
   9 -10  -6 1514.16 354.086   3
   9 -10  -5 537.257 218.159   3
   9 -10  -4 117.848 111.942   3
   9 -10  -3 96.8227 118.094   3
   9 -10  -2-125.534 109.435   3
   9 -10  -1 509.610 222.319   3
   9 -10   0 1497.37 340.998   3
   9 -10   1 2150.89 396.385   3
   9 -10   2-19.0151 107.121   3
   9 -10   3 902.307 258.765   3
   9 -10   4 878.005 245.270   3
   9 -10   5-157.715 127.301   3
   9 -10   6 229.112 136.400   3
   9 -10   7 343.013 169.543   3
   9 -10   8 452.648 189.812   3
   9  -9 -14 779.896 298.445   3
   9  -9 -13-161.684 155.226   3
   9  -9 -12 263.268 185.852   3
   9  -9 -11 61.2790 122.227   3
   9  -9 -10 330.120 159.098   3
   9  -9  -9 128.199 147.804   3
   9  -9  -8 589.893 227.804   3
   9  -9  -7 2303.74 437.073   3
   9  -9  -6 2704.80 454.117   3
   9  -9  -5-22.4933 99.0384   3
   9  -9  -4 928.678 266.504   3
   9  -9  -3 1811.77 361.686   3
   9  -9  -2 201.245 131.940   3
   9  -9  -1-77.6412 116.841   3
   9  -9   0 53.6093 95.6461   3
   9  -9   1 108.278 117.449   3
   9  -9   2 615.352 201.215   3
   9  -9   3 3227.76 453.523   3
   9  -9   4 424.075 176.980   3
   9  -9   5 109.646 104.434   3
   9  -9   6 1075.41 256.542   3
   9  -9   7 320.553 151.685   3
   9  -9   8-31.8519 88.1327   3
   9  -8 -15 657.131 261.473   3
   9  -8 -14 1189.86 349.143   3
   9  -8 -13-170.272 183.483   3
   9  -8 -12 959.698 291.381   3
   9  -8 -11 741.486 250.195   3
   9  -8 -10 939.021 290.121   3
   9  -8  -9 855.344 263.047   3
   9  -8  -8 2517.32 435.986   3
   9  -8  -7 1853.16 375.179   3
   9  -8  -6-78.4287 138.205   3
   9  -8  -5 2082.65 381.520   3
   9  -8  -4 3756.31 508.274   3
   9  -8  -3-47.3528 93.6614   3
   9  -8  -2 2322.37 391.728   3
   9  -8  -1 1554.40 318.070   3
   9  -8   0 913.654 241.868   3
   9  -8   1 69.4759 79.5287   3
   9  -8   2 782.217 227.167   3
   9  -8   3 4294.38 495.283   3
   9  -8   4-68.7911 102.862   3
   9  -8   5 1773.80 312.630   3
   9  -8   6 1706.69 306.587   3
   9  -8   7 95.4347 84.9740   3
   9  -8   8 1264.63 259.984   3
   9  -8  11 247.854 148.263   1
   9  -7 -15 70.9555 95.3056   3
   9  -7 -14-35.1941 126.123   3
   9  -7 -13 202.563 156.247   3
   9  -7 -12 2572.94 460.987   3
   9  -7 -11 612.040 236.758   3
   9  -7 -10-14.8016 100.939   3
   9  -7  -9 1100.61 285.587   3
   9  -7  -8 792.430 243.692   3
   9  -7  -7 2893.71 441.485   3
   9  -7  -6 7606.13 703.162   3
   9  -7  -5 382.241 166.413   3
   9  -7  -4 99.0114 89.1546   3
   9  -7  -3 1321.88 286.139   3
   9  -7  -2 2062.75 363.045   3
   9  -7  -1 267.599 128.057   3
   9  -7   0 507.438 172.634   3
   9  -7   1 1009.53 240.455   3
   9  -7   2 485.333 167.623   3
   9  -7   3 194.122 112.363   3
   9  -7   4 150.641 100.845   3
   9  -7   5 527.946 168.500   3
   9  -7   6 263.101 117.346   3
   9  -7   7 2067.12 316.908   3
   9  -7   8 2181.49 328.415   3
   9  -7  10 180.186 104.153   1
   9  -7  11 1260.44 289.777   1
   9  -7  12 171.540 135.378   1
   9  -6 -16 436.011 222.342   3
  -9   6  16 277.315 168.513   6
   9  -6 -15 173.247 157.338   3
  -9   6  15 508.141 233.099   6
   9  -6 -14-155.626 162.814   3
  -9   6  14 117.439 177.332   6
   9  -6 -13-145.028 151.090   3
  -9   6  13 52.8985 103.258   6
   9  -6 -12-0.51646 111.784   3
   9  -6 -11 1341.98 323.247   3
   9  -6 -10 5094.98 605.105   3
   9  -6  -9 3322.66 481.365   3
   9  -6  -8 26.1456 84.9260   3
   9  -6  -7 1424.80 301.737   3
   9  -6  -6 1031.72 247.478   3
   9  -6  -5 101.236 71.1171   3
   9  -6  -4 358.909 146.719   3
   9  -6  -3 244.151 117.421   3
   9  -6  -2 599.629 191.722   3
   9  -6  -1 203.619 130.907   3
   9  -6   0 2906.44 401.275   3
   9  -6   1 628.984 174.960   3
   9  -6   2 39.3635 72.7809   3
   9  -6   3 1453.41 257.022   3
   9  -6   4 2037.47 301.712   3
   9  -6   5-44.0164 101.346   3
   9  -6   6 78.0740 67.0695   3
   9  -6   7 3.21861 51.6579   3
   9  -6   8 30.6604 52.6712   3
   9  -6   9 129.589 97.8870   1
   9  -6  10 1310.85 285.437   1
   9  -6  11 360.110 149.504   1
   9  -6  12 163.599 122.608   1
   9  -6  13 360.720 156.742   1
   9  -6  14-120.473 120.679   1
  -9   5  16-91.8551 161.173   6
   9  -5 -15 373.499 192.275   3
  -9   5  15 497.796 197.399   6
   9  -5 -14 293.683 171.975   3
  -9   5  14 128.911 142.211   6
   9  -5 -13-141.001 164.569   3
  -9   5  13-73.9410 114.821   6
   9  -5 -12-126.657 160.494   3
  -9   5  12 213.454 126.140   6
   9  -5 -11 239.258 107.967   3
  -9   5  11 85.0487 109.771   6
   9  -5 -10 870.047 241.003   3
  -9   5  10 974.907 251.436   6
   9  -5  -9 70.2514 110.216   3
  -9   5   9 73.0148 92.2363   6
   9  -5  -8 1532.39 307.592   3
   9  -5  -7 248.309 131.271   3
   9  -5  -6 1810.15 319.410   3
   9  -5  -5 4573.76 496.445   3
   9  -5  -4 812.511 203.750   3
   9  -5  -3 503.393 167.358   3
   9  -5  -2 292.016 140.405   3
   9  -5  -1 707.008 183.477   3
   9  -5   0 2707.47 351.079   3
   9  -5   1 112.941 68.7399   3
   9  -5   2 116.370 84.1599   3
   9  -5   3 1258.13 224.766   3
   9  -5   4 192.647 91.8260   3
   9  -5   5 2854.61 326.444   3
   9  -5   6 2192.47 285.421   3
   9  -5   7 1548.27 237.416   3
   9  -5   8 72.8184 92.8889   1
   9  -5   9 388.567 152.378   1
   9  -5  10-87.0864 130.021   1
   9  -5  11-20.3378 128.726   1
   9  -5  12 692.305 214.138   1
   9  -5  13 1099.26 274.431   1
   9  -5  14 77.7008 117.109   1
   9  -5  15-37.1685 117.534   1
  -9   4  17 184.518 151.342   6
  -9   4  16 1183.39 311.256   6
  -9   4  15 817.716 251.563   6
  -9   4  14 75.7566 81.9330   6
  -9   4  13 294.655 159.614   6
  -9   4  12-27.9074 103.818   6
   9  -4 -11 421.421 185.519   3
  -9   4  11 761.973 214.718   6
   9  -4 -10 824.342 232.255   3
  -9   4  10 521.473 183.981   6
   9  -4  -9 351.325 149.685   3
  -9   4   9 374.803 156.043   6
   9  -4  -8-48.8098 78.5863   3
  -9   4   8-25.2507 76.6393   6
   9  -4  -7-106.331 118.523   3
  -9   4   7 57.6800 59.1008   6
   9  -4  -6 1990.05 349.174   3
   9  -4  -5 8000.77 627.033   3
   9  -4  -4 1430.13 264.812   3
   9  -4  -3 11.3903 59.2883   3
   9  -4  -2 6621.10 537.307   3
   9  -4  -1 1361.12 236.427   3
   9  -4   0 413.634 133.459   3
   9  -4   1 249.160 105.359   3
   9  -4   2 873.392 180.329   3
   9  -4   3 54.0873 41.5654   3
   9  -4   4 471.778 127.246   3
   9  -4   5 5734.44 418.301   3
   9  -4   6 1791.77 231.527   3
   9  -4   7 120.301 78.7562   3
   9  -4   7 170.627 125.132   1
   9  -4   8-17.9927 90.4576   1
   9  -4   9 229.783 103.055   1
   9  -4  10 2136.64 340.456   1
   9  -4  11 474.311 191.555   1
   9  -4  12 187.924 123.621   1
   9  -4  13 694.814 237.253   1
   9  -4  14 275.605 133.573   1
  -9   4 -15 460.129 202.610   5
   9  -4  15 319.019 168.987   1
  -9   4 -16-142.178 143.106   5
   9  -4  16 54.8032 104.474   1
   9  -3 -18 106.570 118.795   4
  -9   3  17-393.646 195.132   6
  -9   3  16 131.024 126.658   6
  -9   3  15-100.447 118.393   6
  -9   3  14-127.831 135.813   6
  -9   3  13 1520.01 321.956   6
  -9   3  12-31.0377 89.9538   6
  -9   3  11 275.859 119.909   6
  -9   3  10 4026.34 470.450   6
  -9   3   9 298.552 142.133   6
   9  -3  -8 2011.17 338.879   3
  -9   3   8 1729.98 302.929   6
   9  -3  -7 75.6672 79.9472   3
  -9   3   7 39.5209 90.0466   6
   9  -3  -6 2287.59 329.596   3
  -9   3   6 2238.53 311.322   6
   9  -3  -5 356.204 131.477   3
  -9   3   5 677.435 191.354   6
   9  -3  -4 2485.08 224.363   2
   9  -3  -4 2648.07 341.879   3
   9  -3  -3 5693.84 479.577   3
   9  -3  -2 3432.73 364.763   3
   9  -3  -1 466.884 129.914   3
   9  -3   0 5419.39 430.484   3
   9  -3   1 1557.48 228.770   3
   9  -3   2-12.4287 50.4837   3
   9  -3   3 241.513 88.5572   3
   9  -3   4 1658.72 208.187   3
   9  -3   5 2079.53 224.810   3
   9  -3   5 1548.43 252.932   1
   9  -3   6 151.521 72.3422   3
   9  -3   6 15.7434 106.943   1
   9  -3   7-125.635 132.020   1
   9  -3   8 292.302 149.293   1
   9  -3   9 281.408 139.402   1
   9  -3  10 66.9401 71.0984   1
   9  -3  11 45.7554 74.2649   1
   9  -3  12 1050.84 246.382   1
   9  -3  13 276.371 132.147   1
   9  -3  14 603.764 188.120   1
   9  -3  15 398.253 163.720   1
  -9   3 -16-96.1457 128.784   5
   9  -3  16 4.77340 73.9808   1
   9  -3  17 130.395 90.1100   1
  -9   3 -17-144.319 135.269   5
   9  -2 -18-71.2050 103.512   4
   9  -2 -17 135.388 110.782   4
  -9   2  17 90.2215 132.296   6
   9  -2 -16 96.3337 86.6582   4
  -9   2  16 98.2723 83.4688   6
  -9   2  15 147.806 112.349   6
  -9   2  14 610.633 216.130   6
  -9   2  13 1896.81 348.259   6
  -9   2  12 671.800 211.794   6
  -9   2  11 389.694 158.247   6
  -9   2  10 787.002 215.378   6
  -9   2   9 220.180 131.804   6
  -9   2   8 4309.24 444.776   6
  -9   2   7 1024.49 214.984   6
   9  -2  -6 36.3725 66.6057   3
   9  -2  -6 73.9256 43.5122   2
  -9   2   6 35.1827 60.6874   6
   9  -2  -5 786.879 183.380   3
   9  -2  -5 510.927 113.571   2
  -9   2   5 440.100 139.647   6
   9  -2  -4 1757.05 264.157   3
   9  -2  -4 2049.15 224.925   2
  -9   2   4 2093.44 272.323   6
   9  -2  -3 59.4707 79.6487   3
   9  -2  -3 328.822 98.8886   2
  -9   2   3 120.961 78.3860   6
   9  -2  -2 2798.46 309.509   3
   9  -2  -1 1688.45 231.169   3
   9  -2   0 556.288 131.007   3
   9  -2   1 1176.61 178.829   3
   9  -2   2 2395.33 234.898   3
   9  -2   3 1884.92 273.864   1
   9  -2   3 2875.72 243.463   3
   9  -2   4-11.6687 123.976   1
   9  -2   4 178.508 62.0118   3
   9  -2   5 207.647 64.4322   3
   9  -2   5 32.5765 90.8056   1
   9  -2   6 2481.16 332.214   1
   9  -2   7 1852.62 294.629   1
   9  -2   8 930.928 161.985   4
   9  -2   8 1533.79 279.204   1
   9  -2   9 254.636 109.739   1
   9  -2   9 258.950 81.0792   4
   9  -2  10 638.147 215.071   1
   9  -2  11 1481.13 274.376   1
   9  -2  12 1885.85 323.379   1
   9  -2  13 1746.44 316.756   1
   9  -2  14 369.645 182.796   1
   9  -2  15 230.923 141.638   1
   9  -2  16 12.8960 101.595   1
   9  -2  17 289.580 149.653   1
  -9   2 -17-190.508 191.382   5
  -9   2 -18 742.992 255.812   5
   9  -1 -18 326.097 173.888   4
   9  -1 -17 1201.71 288.547   4
  -9   1  17 553.045 214.483   6
   9  -1 -16-239.537 136.961   4
  -9   1  16 104.040 115.104   6
   9  -1 -15 283.887 153.328   4
  -9   1  15 655.208 206.707   6
   9  -1 -14-129.715 106.326   4
  -9   1  14-351.172 162.784   6
   9  -1 -13 720.837 211.954   4
  -9   1  13 782.807 226.878   6
   9  -1 -12-26.2076 93.4211   4
  -9   1  12 40.8205 75.2440   6
  -9   1  11 649.783 189.936   6
  -9   1  10 1760.74 298.446   6
  -9   1   9-31.7468 116.203   6
  -9   1   8 7393.90 574.655   6
  -9   1   7 3668.24 396.611   6
   9  -1  -6 13.6221 37.8736   2
  -9   1   6 137.984 92.0391   6
   9  -1  -5 2940.32 280.244   2
  -9   1   5 3800.89 369.139   6
   9  -1  -4 491.908 136.890   3
   9  -1  -4 581.572 127.945   2
  -9   1   4 380.987 116.737   6
   9  -1  -3-0.33214 56.3309   3
   9  -1  -3-3.39790 40.3043   2
  -9   1   3 6.12757 66.3290   6
   9  -1  -2 1188.71 191.070   3
  -9   1   2 904.210 161.028   6
   9  -1  -1 3173.37 324.309   1
  -9   1   1 3157.48 275.243   6
   9  -1  -1 3293.76 301.726   3
   9  -1   0 4317.54 383.819   1
   9  -1   0 4634.23 339.318   3
   9  -1   1 509.590 105.278   3
   9  -1   1 422.164 126.587   1
   9  -1   2 1197.54 211.734   1
   9  -1   2 1133.35 139.442   3
   9  -1   3 5168.18 444.003   1
   9  -1   3 5142.28 268.498   3
   9  -1   4 121.869 85.9494   1
   9  -1   5-45.1712 68.9896   4
   9  -1   5-46.2455 120.018   1
   9  -1   6 2280.28 314.954   1
   9  -1   6 2031.20 259.814   4
   9  -1   7 3614.16 398.826   1
   9  -1   7 3372.44 321.372   4
   9  -1   8 153.349 115.676   1
   9  -1   8 211.545 85.0524   4
   9  -1   9 212.044 90.2216   4
   9  -1   9 301.374 139.111   1
   9  -1  10-17.5224 44.3069   4
   9  -1  10 72.5148 113.949   1
   9  -1  11 6.36812 98.1108   1
   9  -1  12 3735.10 438.089   1
   9  -1  13 795.047 228.491   1
   9  -1  14 2179.43 346.141   1
   9  -1  15 1820.82 322.099   1
   9  -1  16 372.247 155.031   1
   9  -1  17 1625.43 305.085   1
   9  -1  18 1163.01 270.069   1
  -9   1 -19 681.055 258.657   5
   9   0 -17 203.004 137.947   4
  -9   0  16 1956.77 379.769   6
   9   0 -16 2334.50 372.404   4
  -9   0  15 2841.32 439.541   6
   9   0 -15 2948.38 425.656   4
  -9   0  14 31.1918 89.2141   6
   9   0 -14-158.692 133.541   4
  -9   0  13 1274.66 280.966   6
   9   0 -13 1201.18 273.558   4
  -9   0  12 438.496 169.238   6
   9   0 -12-78.9426 101.000   4
  -9   0  11 730.313 191.613   6
   9   0 -11 733.478 207.862   4
  -9   0  10-54.0293 95.5567   6
   9   0 -10-44.1451 86.0160   4
  -9   0   9 132.639 94.5891   6
   9   0  -9 19.8392 84.4588   4
   9   0  -8 5565.40 528.445   4
  -9   0   8 4498.94 442.268   6
  -9   0   7 771.040 181.927   6
   9   0  -7 1022.33 173.767   2
   9   0  -7 1014.73 216.556   4
   9   0  -7 1012.99 152.088   1
  -9   0   6 630.404 164.503   6
   9   0  -6 485.112 152.448   4
   9   0  -6 595.352 141.392   2
   9   0  -6 758.717 141.701   1
  -9   0   5-86.8189 72.6056   6
   9   0  -5-95.2522 76.8935   1
   9   0  -5-103.481 134.461   4
   9   0  -5 45.0356 61.9711   2
   9   0  -4 0.08905 47.7445   1
   9   0  -4 155.292 98.8857   2
  -9   0   4 110.466 72.9990   6
   9   0  -3 2434.05 269.490   1
   9   0  -3 2782.29 311.079   2
  -9   0   3 2635.48 288.915   6
   9   0  -2 5005.37 370.349   3
   9   0  -2 4120.13 354.305   1
  -9   0   2 4412.11 340.220   6
   9   0  -1 1864.02 278.135   4
   9   0  -1 1938.03 246.608   1
  -9   0   1 1832.57 208.538   6
   9   0  -1 1638.53 201.777   3
   9   0   0 1081.08 151.424   3
   9   0   0 957.358 208.065   4
   9   0   0 1221.72 206.419   1
  -9   0   0 1234.45 157.236   6
   9   0   1 13.2026 26.6120   3
   9   0   1 46.9962 79.6477   4
   9   0   1-38.7108 67.3731   1
   9   0   2 2012.41 267.690   1
   9   0   2 2044.26 278.066   4
   9   0   2 1810.77 142.456   3
   9   0   3 51.1496 83.5371   1
   9   0   3-7.34124 101.981   4
   9   0   4 8508.75 564.235   1
   9   0   4 7938.06 519.521   4
   9   0   5 3932.25 390.478   1
   9   0   5 3963.65 359.433   4
   9   0   6 6400.82 507.429   1
   9   0   6 6760.93 460.736   4
   9   0   7 7792.59 572.605   1
   9   0   7 7230.85 466.322   4
   9   0   8 48.3993 63.1397   4
   9   0   8 221.419 141.765   1
   9   0   9 134.617 71.5678   4
   9   0   9 216.474 129.552   1
   9   0  10 558.296 178.229   1
   9   0  10 554.717 121.944   4
   9   0  11 1013.74 225.862   1
   9   0  12 890.273 216.029   1
   9   0  13-122.411 138.081   1
   9   0  14 2127.79 326.707   1
   9   0  15 347.185 156.275   1
   9   0  16 386.238 173.559   1
   9   0  17 1234.24 267.508   1
   9   0  18 466.061 175.892   1
   9   1 -17-379.211 132.595   4
  -9  -1  16 765.213 244.983   6
   9   1 -16 522.915 182.263   4
  -9  -1  15 50.3946 100.789   6
   9   1 -15-114.344 111.565   4
  -9  -1  14 3089.29 449.270   6
   9   1 -14 2960.62 415.080   4
   9   1 -13 3575.44 450.596   4
  -9  -1  13 3480.24 461.644   6
  -9  -1  12 6.69383 95.5862   6
   9   1 -12-39.9465 84.6345   4
   9   1 -11 3157.94 419.718   4
  -9  -1  11 3797.09 451.247   6
  -9  -1  10 982.290 232.369   6
   9   1 -10 938.103 226.336   4
  -9  -1   9 2049.40 309.719   6
   9   1  -9 1919.82 314.178   4
  -9  -1   8-4.01590 58.7815   6
   9   1  -8 121.078 113.344   4
  -9  -1   7 251.257 100.118   6
   9   1  -7 153.806 86.0970   2
   9   1  -7 166.246 125.254   4
   9   1  -6 3506.15 344.656   2
   9   1  -6 3238.75 396.248   4
   9   1  -6 3118.83 242.748   1
  -9  -1   6 3160.66 340.148   6
  -9  -1   5-86.0918 77.0750   6
   9   1  -5-55.6826 110.896   4
   9   1  -5 50.7692 65.4017   2
   9   1  -5 69.5606 52.8077   1
   9   1  -4 6852.40 396.866   1
   9   1  -4 6300.39 535.529   4
   9   1  -4 6311.81 473.609   2
  -9  -1   4 6737.69 458.577   6
   9   1  -3 11218.4 528.221   1
   9   1  -3 11505.7 707.443   4
   9   1  -3 10600.2 621.173   2
  -9  -1   3 10688.6 547.886   6
   9   1  -2 3416.65 303.365   1
   9   1  -2 4015.16 411.482   4
   9   1  -2 3237.60 350.754   2
  -9  -1   2 2994.55 276.534   6
   9   1  -1 2026.74 213.797   3
   9   1  -1 1719.03 270.838   4
   9   1  -1 1504.45 203.394   1
  -9  -1   1 1925.65 209.231   6
   9   1   0 1980.54 245.961   1
   9   1   0 2356.06 309.880   4
  -9  -1   0 2185.26 203.884   6
   9   1   0 2269.03 200.937   3
   9   1   1 878.867 180.457   4
   9   1   1 866.507 103.168   3
   9   1   1 825.448 168.511   1
  -9  -1  -1 967.974 123.062   6
   9   1   2 89.4478 72.6217   4
   9   1   2 206.787 99.6193   1
   9   1   3 773.119 182.210   4
   9   1   3 510.473 148.480   1
   9   1   4-73.7614 87.4334   4
   9   1   4 110.737 86.5334   1
   9   1   5 782.710 164.127   4
   9   1   5 953.375 191.181   1
   9   1   6 11576.6 595.458   4
   9   1   6 11128.0 651.071   1
   9   1   7 2052.10 295.309   1
   9   1   7 1819.81 235.588   4
   9   1   8 3181.06 299.619   4
   9   1   8 3040.91 361.518   1
   9   1   9 2281.82 312.198   1
   9   1   9 1534.03 204.380   4
   9   1  10 153.380 106.020   1
   9   1  11-50.8171 91.6592   1
   9   1  12-151.424 143.821   1
   9   1  13-136.481 139.616   1
   9   1  14 454.433 170.296   1
   9   1  15 445.731 171.905   1
   9   1  16 33.1877 75.0352   1
   9   1  17 289.129 121.255   1
   9   1  18-15.0615 88.1038   1
   9   2 -17-19.0687 94.3490   4
  -9  -2  16 34.5830 71.4003   6
   9   2 -16 91.7272 94.4526   4
  -9  -2  15-32.7521 68.9501   6
   9   2 -15 148.486 118.278   4
  -9  -2  14 1124.65 274.960   6
   9   2 -14 1129.58 265.565   4
  -9  -2  13 472.406 170.594   6
   9   2 -13 770.360 220.467   4
  -9  -2  12 349.652 144.426   6
   9   2 -12 306.960 135.958   4
   9   2 -11 2696.44 387.934   4
  -9  -2  11 3191.52 414.551   6
  -9  -2  10 1383.83 267.403   6
   9   2 -10 1180.31 249.203   4
  -9  -2   9 118.524 86.6726   6
   9   2  -9 95.0464 68.5937   4
  -9  -2   8 766.551 191.961   6
   9   2  -8 510.815 167.705   4
  -9  -2   7 156.395 99.1679   6
   9   2  -7-30.3958 63.4842   2
   9   2  -7 80.3110 107.491   4
   9   2  -6 3897.68 379.643   2
   9   2  -6 3336.55 398.616   4
  -9  -2   6 3072.16 341.233   6
  -9  -2   5 46.0286 76.4286   6
   9   2  -5 74.7875 84.9598   4
   9   2  -5 65.6230 66.2029   2
   9   2  -5-32.6411 45.7535   1
  -9  -2   4 1676.32 229.843   6
   9   2  -4 1604.62 279.022   4
   9   2  -4 1872.24 273.924   2
   9   2  -4 1514.56 174.027   1
   9   2  -3 4360.85 435.966   4
   9   2  -3 3795.20 398.215   2
   9   2  -3 4776.65 322.993   1
  -9  -2   3 4675.45 367.776   6
   9   2  -2 15259.7 802.514   4
   9   2  -2 14729.5 778.398   2
   9   2  -2 15117.9 597.262   1
  -9  -2   2 14761.7 612.362   6
   9   2  -1 11088.5 671.901   4
   9   2  -1 11873.8 549.061   1
  -9  -2   1 12509.6 534.083   6
  -9  -2   0 193.717 68.8279   6
   9   2   0 236.169 101.842   1
   9   2   0 164.050 54.7862   3
   9   2   0 331.291 149.936   4
   9   2   1 2415.21 301.736   4
   9   2   1 2414.69 268.065   1
  -9  -2  -1 2558.18 204.266   6
   9   2   2 90.4693 80.8447   1
   9   2   2-27.3292 68.7080   4
  -9  -2  -2 90.5328 44.3162   6
   9   2   3 1446.37 219.086   1
   9   2   3 1175.50 219.005   4
   9   2   4 3272.27 334.036   4
   9   2   4 4010.59 368.888   1
   9   2   5 1414.16 226.829   1
   9   2   5 1928.90 253.318   4
   9   2   6 107.096 78.7809   1
   9   2   6 369.027 126.214   4
   9   2   7 618.992 154.624   1
   9   2   7 899.034 168.817   4
   9   2   8 5064.36 449.591   1
   9   2   9 4179.73 415.159   1
   9   2  10 2964.58 357.351   1
   9   2  11-75.4794 121.713   1
   9   2  12-157.752 145.274   1
   9   2  13 301.145 143.372   1
   9   2  14 433.260 152.745   1
   9   2  15 142.694 125.409   1
   9   2  16 382.102 158.371   1
   9   2  17 12.4619 76.1457   1
   9   2  18 146.997 130.405   1
  -9  -3  15 725.185 236.272   6
   9   3 -15 587.243 190.267   4
  -9  -3  14 45.7424 93.4740   6
   9   3 -14 32.3939 98.1831   4
  -9  -3  13 110.980 104.251   6
   9   3 -13 202.033 109.632   4
  -9  -3  12 1385.23 293.557   6
   9   3 -12 1336.97 268.738   4
  -9  -3  11 588.404 187.267   6
   9   3 -11 1139.38 245.891   4
  -9  -3  10 104.732 81.5632   6
   9   3 -10 325.281 157.336   4
   9   3  -9 2341.09 343.573   4
  -9  -3   9 2989.58 385.870   6
  -9  -3   8 1192.45 237.582   6
   9   3  -8 1300.72 251.736   4
  -9  -3   7 480.538 147.833   6
   9   3  -7 441.419 147.432   2
   9   3  -7 288.497 122.791   4
  -9  -3   6 766.974 179.835   6
   9   3  -6 838.395 194.253   2
   9   3  -6 807.060 207.988   4
   9   3  -5 2503.68 326.292   2
   9   3  -5 2082.43 309.706   4
  -9  -3   5 2168.95 280.781   6
   9   3  -4 3937.24 255.497   1
   9   3  -4 3939.48 413.188   2
   9   3  -4 3755.63 412.459   4
  -9  -3   4 3931.89 356.921   6
  -9  -3   3 1165.43 189.402   6
   9   3  -3 1134.02 148.307   1
   9   3  -3 1137.94 236.785   4
   9   3  -3 1185.42 234.580   2
  -9  -3   2 128.699 73.3020   6
   9   3  -2 72.0150 84.6972   4
   9   3  -2 156.281 82.6726   1
   9   3  -2 1.91660 67.0546   2
  -9  -3   1 1217.54 172.595   6
   9   3  -1 1165.12 227.290   4
   9   3  -1 1428.46 182.585   1
   9   3  -1 923.609 206.295   2
  -9  -3   0 782.498 132.795   6
   9   3   0 1024.09 219.400   4
   9   3   0 684.442 143.414   1
   9   3   1 1634.74 255.294   4
   9   3   1 1555.78 209.874   1
  -9  -3  -1 1585.83 167.533   6
  -9  -3  -2 494.639 87.6006   6
   9   3   2 566.827 163.961   4
   9   3   2 450.153 112.769   1
   9   3   3 418.155 140.176   4
   9   3   3 136.178 78.0532   1
   9   3   4 436.980 143.848   4
   9   3   4 352.959 121.987   1
   9   3   5 22081.9 848.400   4
   9   3   5 23042.0 862.950   1
   9   3   6 1831.73 256.755   1
   9   3   7-81.7861 76.5150   1
   9   3   8 870.529 192.626   1
   9   3   9 626.194 166.120   1
   9   3  10 655.457 177.458   1
   9   3  11 494.614 143.789   1
   9   3  12 1459.37 256.260   1
   9   3  13 853.363 209.887   1
   9   3  14 1665.86 288.298   1
   9   3  15 808.780 217.498   1
   9   3  16 162.824 89.8580   1
   9   3  17 60.0694 78.0913   1
   9   3  18 75.9236 97.2889   1
  -9  -4  14-25.6577 91.9469   6
  -9  -4  13 160.060 125.248   6
  -9  -4  12 478.367 186.205   6
  -9  -4  11 448.764 170.301   6
   9   4 -11 562.621 189.270   4
  -9  -4  10 734.420 205.285   6
   9   4 -10 715.887 210.107   4
  -9  -4   9 142.972 102.936   6
   9   4  -9 243.210 151.080   4
  -9  -4   8-159.228 123.762   6
   9   4  -8 72.8993 121.567   4
  -9  -4   7 642.970 169.627   6
   9   4  -7 741.080 189.780   2
   9   4  -7 1118.60 245.340   4
   9   4  -6 2947.97 369.481   2
   9   4  -6 2782.28 367.706   4
  -9  -4   6 2434.31 322.334   6
  -9  -4   5 210.913 100.398   6
   9   4  -5 60.9009 84.8439   4
   9   4  -5 251.329 116.058   2
  -9  -4   4 1163.47 202.893   6
   9   4  -4 1569.86 274.932   4
   9   4  -4 1131.72 243.546   2
   9   4  -3 7642.13 362.011   1
   9   4  -3 8129.84 617.083   2
   9   4  -3 7723.83 579.525   4
  -9  -4   3 7899.61 500.634   6
  -9  -4   2 432.856 123.674   6
   9   4  -2 505.241 104.963   1
   9   4  -2 443.035 154.450   4
   9   4  -2 563.015 169.374   2
   9   4  -1 1604.70 186.655   1
   9   4  -1 1452.69 254.000   4
   9   4  -1 1819.28 295.959   2
  -9  -4   1 1875.30 221.483   6
   9   4   0 2382.83 236.203   1
   9   4   0 2718.64 336.333   4
   9   4   0 2523.37 358.792   2
  -9  -4   0 2206.40 228.541   6
   9   4   1 4669.03 342.728   1
   9   4   1 4983.03 441.533   4
  -9  -4  -1 5207.71 326.494   6
  -9  -4  -2 16.7624 38.4644   6
   9   4   2 17.5970 67.2238   1
   9   4   2 36.4586 81.4855   4
   9   4   3 9379.27 511.416   1
   9   4   4 10501.2 559.668   1
   9   4   5 6065.43 436.435   1
   9   4   6 2904.58 316.158   1
   9   4   7 6804.06 482.991   1
   9   4   8 926.660 191.866   1
   9   4   9 70.3338 61.6418   1
   9   4  10 570.651 156.037   1
   9   4  11 12.9378 104.574   1
   9   4  12 116.120 75.5136   1
   9   4  13 106.747 82.2602   1
   9   4  14 40.9278 83.7927   1
   9   4  15 133.444 88.0237   1
   9   4  16 432.617 158.471   1
   9   4  17 1030.11 236.342   1
   9   4  18 755.221 206.545   1
  -9  -5  14 232.272 161.257   6
  -9  -5  13 550.048 192.636   6
  -9  -5  12 130.693 140.033   6
  -9  -5  11-5.36801 98.9430   6
  -9  -5  10 69.5458 82.0606   6
  -9  -5   9 45.5961 83.4404   6
  -9  -5   8 39.1864 76.5620   6
  -9  -5   7 3579.13 406.393   6
  -9  -5   6-22.0413 64.8297   6
   9   5  -6-67.3292 94.4093   2
  -9  -5   5 1381.13 238.041   6
   9   5  -5 1383.42 266.355   2
  -9  -5   4 509.966 143.630   6
   9   5  -4 812.168 213.610   2
  -9  -5   3 48.8204 61.9097   6
   9   5  -3 96.0355 95.5788   2
  -9  -5   2 564.275 131.835   6
   9   5  -2 694.433 207.484   2
   9   5  -2 469.695 96.8061   1
  -9  -5   1 1090.81 181.686   6
   9   5  -1 731.660 204.539   2
   9   5  -1 978.664 144.188   1
   9   5   0 143.514 60.1278   1
  -9  -5   0 235.813 83.0507   6
   9   5   0 49.5041 79.6870   2
   9   5   1 1063.91 163.012   1
  -9  -5  -1 1180.15 171.014   6
   9   5   1 965.615 240.271   2
   9   5   2 308.379 99.5008   1
  -9  -5  -2 257.987 74.5308   6
   9   5   3 1744.47 220.947   1
   9   5   4 1595.52 218.600   1
   9   5   5 5780.02 420.140   1
   9   5   6 5515.18 421.460   1
   9   5   7 4604.75 399.257   1
   9   5   8 673.844 164.768   1
   9   5   9 688.187 177.997   1
   9   5  10 2343.31 305.278   1
   9   5  11-54.3522 84.4889   1
   9   5  12 4.17361 74.8597   1
   9   5  13 1729.98 284.347   1
   9   5  14 312.535 137.215   1
   9   5  15 22.0778 96.9493   1
   9   5  16 186.976 106.732   1
   9   5  17 183.705 121.424   1
   9   5  18 173.142 102.745   1
  -9  -6  13 519.569 203.185   6
  -9  -6  12 278.863 149.466   6
  -9  -6  11 360.716 176.434   6
  -9  -6  10 23.0706 99.5152   6
  -9  -6   9 136.567 112.163   6
  -9  -6   8 86.2621 97.9674   6
  -9  -6   7 28.0663 62.7652   6
  -9  -6   6 2323.00 328.558   6
   9   6  -6 2312.93 352.888   2
  -9  -6   5 2050.71 298.263   6
   9   6  -5 1566.32 289.752   2
  -9  -6   4 408.074 134.019   6
   9   6  -4 652.785 206.512   2
  -9  -6   3 218.388 113.674   6
   9   6  -3-34.4979 91.6187   2
  -9  -6   2 1027.88 194.251   6
   9   6  -2 1133.06 274.506   2
   9   6  -1 5019.61 327.850   1
  -9  -6   1 5403.56 425.041   6
   9   6  -1 4546.04 504.018   2
  -9  -6   0 504.066 127.693   6
   9   6   0 411.733 100.721   1
   9   6   0 821.212 225.500   2
  -9  -6  -1 85.2346 66.0314   6
   9   6   1-141.038 157.869   2
   9   6   1-64.9360 60.2969   1
  -9  -6  -2 199.349 86.0656   6
   9   6   2-164.748 160.529   2
   9   6   2-7.23486 53.5098   1
   9   6   3 123.072 86.3860   1
   9   6   4-25.6225 54.3604   1
   9   6   5 1094.20 190.290   1
   9   6   6 1047.90 188.412   1
   9   6   7 262.480 107.839   1
   9   6   8 323.256 118.239   1
   9   6   9-65.3016 87.7570   1
   9   6  10 92.9420 90.5093   1
   9   6  11 3099.17 361.205   1
   9   6  12 4095.80 418.415   1
   9   6  13 1669.20 280.151   1
   9   6  14 802.190 196.427   1
   9   6  15 271.008 137.282   1
   9   6  16 204.277 131.673   1
   9   6  17-85.6419 97.6660   1
  -9  -7  12 339.848 176.962   6
  -9  -7  11 165.629 124.614   6
  -9  -7  10-8.47178 86.0098   6
  -9  -7   9 294.142 140.024   6
  -9  -7   8 457.841 167.790   6
  -9  -7   7 224.279 129.068   6
  -9  -7   6 172.213 102.048   6
   9   7  -6 164.419 115.217   2
  -9  -7   5 9.71992 57.2292   6
   9   7  -5 5.45745 78.4616   2
  -9  -7   4-81.8201 81.8296   6
   9   7  -4 72.8875 98.5161   2
  -9  -7   3 132.729 78.8905   6
   9   7  -3 37.7324 83.4052   2
  -9  -7   2 591.635 164.173   6
   9   7  -2 394.184 168.183   2
  -9  -7   1 117.927 84.9873   6
   9   7  -1-142.894 139.137   2
  -9  -7   0 3003.31 323.187   6
   9   7   0 3019.24 426.291   2
   9   7   0 2967.17 270.231   1
  -9  -7  -1 7218.96 483.608   6
   9   7   1 6808.15 645.585   2
   9   7   1 7084.94 428.995   1
   9   7   2 2356.05 260.260   1
  -9  -7  -2 2296.66 264.454   6
   9   7   2 2343.11 382.595   2
   9   7   3-44.3397 65.4140   1
   9   7   3 49.1772 81.5945   2
   9   7   4 557.519 130.396   1
   9   7   5 80.6999 83.9747   1
   9   7   6 200.416 95.1135   1
   9   7   7 939.734 187.957   1
   9   7   8-45.1331 74.6780   1
   9   7   9 4.39999 60.0175   1
   9   7  10 2109.30 292.613   1
   9   7  11 7049.89 537.648   1
   9   7  12 3955.65 415.789   1
   9   7  13 73.0893 69.8191   1
   9   7  14 67.0128 93.6413   1
   9   7  15 33.5983 87.4731   1
   9   7  16 172.074 119.676   1
   9   7  17 288.934 150.839   1
  -9  -8  10 1760.68 344.946   6
  -9  -8   9 1132.31 271.424   6
  -9  -8   8 405.566 174.430   6
  -9  -8   7 837.686 222.624   6
  -9  -8   6 4659.88 496.856   6
  -9  -8   5 204.389 116.329   6
   9   8  -5 76.3099 72.3527   2
  -9  -8   4-13.3661 58.8725   6
   9   8  -4 192.398 120.226   2
  -9  -8   3-37.4427 92.0293   6
   9   8  -3-130.181 136.458   2
  -9  -8   2 393.005 132.504   6
   9   8  -2 513.250 193.485   2
  -9  -8   1 37.2217 65.4570   6
   9   8  -1 159.853 124.010   2
  -9  -8   0 95.6143 88.8714   6
   9   8   0-12.8672 104.058   2
  -9  -8  -1 269.852 102.692   6
   9   8   1 178.650 76.3514   1
   9   8   1 167.553 144.241   2
  -9  -8  -2 354.547 115.074   6
   9   8   2 109.243 74.0107   1
   9   8   2 370.824 177.548   2
   9   8   3 1488.53 328.310   2
   9   8   3 1964.15 251.654   1
   9   8   4 4903.19 582.339   2
   9   8   4 4223.46 370.633   1
   9   8   5 392.008 129.099   1
   9   8   6 428.846 133.933   1
   9   8   7 100.686 92.1933   1
   9   8   8-74.7561 84.4256   1
   9   8   9 2.75988 55.3076   1
   9   8  10 2152.23 300.664   1
   9   8  11 314.983 131.972   1
   9   8  12 2331.08 329.008   1
   9   8  13 3814.97 419.254   1
   9   8  14 143.496 91.3729   1
   9   8  15 52.2956 86.0199   1
   9   8  16 404.064 151.300   1
  -9  -9   9 32.0057 80.8092   6
  -9  -9   8 1613.45 321.136   6
  -9  -9   7 1674.15 321.348   6
  -9  -9   6 1261.35 275.654   6
  -9  -9   5 1494.56 291.144   6
   9   9  -5 2747.36 426.440   2
  -9  -9   4 2525.11 360.432   6
   9   9  -4 2682.72 422.272   2
  -9  -9   3-48.5500 96.9669   6
   9   9  -3-55.1729 91.8796   2
  -9  -9   2 70.1608 66.2918   6
   9   9  -2 157.935 132.877   2
  -9  -9   1 71.3545 68.9301   6
   9   9  -1-150.404 134.155   2
  -9  -9   0-82.0738 74.9851   6
   9   9   0-49.9699 125.592   2
  -9  -9  -1 313.177 135.388   6
   9   9   1 306.768 180.582   2
  -9  -9  -2 8.00239 50.6863   6
   9   9   2 135.754 79.0079   1
   9   9   2 143.163 130.566   2
   9   9   3 194.952 95.1671   1
   9   9   3 54.5067 101.723   2
   9   9   4 33.1019 48.2715   1
   9   9   4-13.7633 89.8422   2
   9   9   5 1540.52 233.816   1
   9   9   5 1633.56 344.601   2
   9   9   6 2151.71 286.162   1
   9   9   7 12.4351 61.9779   1
   9   9   8-77.8626 78.4147   1
   9   9   9 207.307 96.5542   1
   9   9  10 782.476 195.202   1
   9   9  11 4368.04 443.063   1
   9   9  12 3076.72 382.984   1
   9   9  13 413.073 153.640   1
   9   9  14 38.8679 76.7455   1
   9   9  15-62.5342 85.8908   1
  -9 -10   8 230.213 140.594   6
  -9 -10   7-64.0288 93.3630   6
  -9 -10   6 236.811 145.677   6
  -9 -10   5 1432.37 297.394   6
  -9 -10   4 1165.06 264.071   6
   9  10  -4 648.008 232.396   2
  -9 -10   3 328.300 155.546   6
   9  10  -3 826.875 255.305   2
  -9 -10   2 2180.53 337.406   6
   9  10  -2 2578.61 423.904   2
  -9 -10   1 522.372 167.145   6
   9  10  -1 894.160 249.334   2
  -9 -10   0 183.787 108.629   6
   9  10   0 402.404 175.099   2
  -9 -10  -1 23.2601 63.0478   6
   9  10   1 198.494 155.228   2
   9  10   2-43.9149 90.3263   2
   9  10   3-25.2441 49.2911   1
   9  10   3 271.243 157.094   2
   9  10   4 286.266 111.611   1
   9  10   4 130.129 111.296   2
   9  10   5 1.59039 57.4743   1
   9  10   5 162.224 154.353   2
   9  10   6 222.755 123.222   1
   9  10   6 189.117 176.623   2
   9  10   7-69.0937 90.1712   1
   9  10   7 181.368 142.328   2
   9  10   8 459.900 152.333   1
   9  10   9 1403.29 246.794   1
   9  10  10 330.619 126.905   1
   9  10  11 32.3776 87.1684   1
   9  10  12 356.669 135.491   1
   9  10  13 201.154 110.803   1
   9  10  14-98.9060 101.018   1
  -9 -11   6-2.01415 85.0796   6
  -9 -11   5-37.6409 74.5723   6
  -9 -11   4 104.076 93.9981   6
  -9 -11   3 77.5633 103.887   6
  -9 -11   2 858.880 233.194   6
   9  11  -2 766.346 244.960   2
  -9 -11   1-198.628 116.944   6
   9  11  -1 271.794 164.158   2
  -9 -11   0 754.917 216.662   6
   9  11   0 1187.30 316.090   2
  -9 -11  -1 652.692 187.120   6
   9  11   1 530.977 214.240   2
   9  11   2 124.281 131.683   2
   9  11   3 39.0076 78.9947   2
   9  11   4 116.680 76.3802   1
   9  11   4 421.100 195.317   2
   9  11   5 1049.37 216.983   1
   9  11   5 704.901 220.777   2
   9  11   6 172.413 99.7521   1
   9  11   6 330.051 195.189   2
   9  11   7-67.9137 68.8851   1
   9  11   7-245.874 212.142   2
   9  11   8 1488.37 273.824   1
   9  11   8 1446.31 369.304   2
   9  11   9 46.3667 72.2971   1
   9  11   9-155.255 172.892   2
   9  11  10 312.750 130.308   1
   9  11  11 333.253 142.844   1
   9  11  12-153.733 127.474   1
   9  11  13 609.912 190.624   1
  -9 -12   4 111.949 126.404   6
  -9 -12   3 145.031 117.712   6
  -9 -12   2-76.3009 90.4444   6
  -9 -12   1 110.904 119.041   6
  -9 -12   0 1214.53 271.048   6
   9  12   4-220.889 129.112   2
   9  12   5-49.9146 87.3795   1
   9  12   5-184.129 160.711   2
   9  12   6 14.9662 63.0011   1
   9  12   6 144.780 144.778   2
   9  12   7-21.2033 83.3529   1
   9  12   7-97.9643 115.201   2
   9  12   8-195.840 121.453   1
   9  12   9 263.970 143.228   1
   9  12  10-18.6542 113.639   1
   9  12  11-200.398 142.627   1
   9  13   7 136.052 96.7408   1
   9  13   8-38.7763 80.6436   1
   9  13   9 405.769 162.453   1
  10 -12  -2 50.9544 131.070   3
  10 -12  -1 84.1004 114.096   3
  10 -12   0 1197.27 337.315   3
  10 -12   1 0.88925 85.0553   3
  10 -11  -8 904.888 316.989   3
  10 -11  -7 1188.00 350.517   3
  10 -11  -6 148.774 157.291   3
  10 -11  -5 320.391 202.183   3
  10 -11  -4 588.948 252.531   3
  10 -11  -3 266.505 167.735   3
  10 -11  -2 156.666 157.216   3
  10 -11  -1-275.874 172.336   3
  10 -11   0 112.777 135.948   3
  10 -11   1 17.2775 78.0223   3
  10 -11   2 248.136 154.903   3
  10 -11   3-75.8406 108.508   3
  10 -11   4 250.772 148.644   3
  10 -10 -10 11.6078 107.897   3
  10 -10  -9 362.521 210.685   3
  10 -10  -8-67.8736 130.623   3
  10 -10  -7 627.199 247.125   3
  10 -10  -6 1037.35 308.551   3
  10 -10  -5 1914.32 405.528   3
  10 -10  -4 257.745 159.740   3
  10 -10  -3 135.107 137.739   3
  10 -10  -2 221.045 161.224   3
  10 -10  -1 45.6581 107.017   3
  10 -10   0 194.087 134.746   3
  10 -10   1 688.596 227.999   3
  10 -10   2 333.683 173.059   3
  10 -10   3 239.869 145.000   3
  10 -10   4 888.527 267.765   3
  10  -9 -12 481.554 240.180   3
  10  -9 -11 86.5124 110.171   3
  10  -9 -10-118.899 112.454   3
  10  -9  -9 139.142 188.389   3
  10  -9  -8 148.608 126.253   3
  10  -9  -7 129.293 139.264   3
  10  -9  -6-15.7517 139.378   3
  10  -9  -5 192.184 128.679   3
  10  -9  -4 689.640 240.518   3
  10  -9  -3 1300.95 314.521   3
  10  -9  -2 247.394 136.083   3
  10  -9  -1 558.417 207.454   3
  10  -9   0 524.265 204.901   3
  10  -9   1 973.118 267.964   3
  10  -9   2 87.8241 64.0785   3
  10  -9   3 459.598 171.619   3
  10  -9   4 362.029 170.197   3
  10  -8 -13 550.025 231.435   3
  10  -8 -12 148.148 134.253   3
  10  -8 -11 535.493 234.716   3
  10  -8 -10 483.400 208.250   3
  10  -8  -9 188.353 163.237   3
  10  -8  -8 387.235 191.058   3
  10  -8  -7 175.912 89.4203   3
  10  -8  -6 93.6556 136.441   3
  10  -8  -5 111.258 115.746   3
  10  -8  -4 12.8879 95.1151   3
  10  -8  -3 525.293 217.066   3
  10  -8  -2 828.479 251.679   3
  10  -8  -1 2615.59 416.557   3
  10  -8   0 1092.79 264.973   3
  10  -8   1 107.904 100.984   3
  10  -8   2 1250.14 278.422   3
  10  -8   3 1311.73 274.729   3
  10  -8   4-18.8496 81.4925   3
  10  -7 -14 172.677 162.094   3
  10  -7 -13 100.091 105.716   3
  10  -7 -12 205.037 155.977   3
  10  -7 -11 1969.68 407.094   3
  10  -7 -10 643.702 237.721   3
  10  -7  -9 740.333 231.712   3
  10  -7  -8 825.181 258.638   3
  10  -7  -7 105.806 102.393   3
  10  -7  -6 57.0809 85.3265   3
  10  -7  -5 173.882 128.721   3
  10  -7  -4 31.4212 91.9978   3
  10  -7  -3-63.8467 117.641   3
  10  -7  -2 1165.43 270.081   3
  10  -7  -1 819.273 224.873   3
  10  -7   0 155.465 108.331   3
  10  -7   1 1186.82 259.772   3
  10  -7   2 1719.77 310.947   3
  10  -7   3 645.643 188.662   3
  10  -7   4 251.062 122.078   3
  10  -7   9 420.520 188.200   1
  10  -7  10 46.5760 94.0172   1
  10  -6 -15-125.031 137.670   3
 -10   6  15 45.4875 106.463   6
  10  -6 -14 80.2864 109.398   3
  10  -6 -13 355.960 210.935   3
  10  -6 -12 206.602 142.391   3
  10  -6 -11 317.855 168.607   3
  10  -6 -10 388.365 194.824   3
  10  -6  -9 1293.82 313.736   3
  10  -6  -8 315.372 166.425   3
  10  -6  -7 250.416 149.883   3
  10  -6  -6 1162.78 273.017   3
  10  -6  -5 299.846 135.450   3
  10  -6  -4 704.839 212.667   3
  10  -6  -3 20.7448 80.7268   3
  10  -6  -2 141.648 112.077   3
  10  -6  -1 120.213 95.7300   3
  10  -6   0-5.92540 91.7511   3
  10  -6   1 1264.27 253.454   3
  10  -6   2 281.316 125.564   3
  10  -6   3-63.2717 78.0083   3
  10  -6   8 434.462 180.583   1
  10  -6   9-0.62898 103.958   1
  10  -6  10-152.205 108.821   1
  10  -6  11 152.362 118.761   1
  10  -5 -15 78.1557 137.554   3
 -10   5  15-143.326 125.003   6
  10  -5 -14 519.463 225.921   3
 -10   5  14 444.632 213.158   6
  10  -5 -13 227.075 160.049   3
 -10   5  13 125.683 124.019   6
  10  -5 -12 1225.30 299.287   3
 -10   5  12 1641.56 347.577   6
  10  -5 -11 68.8541 93.5583   3
 -10   5  11 349.586 187.336   6
  10  -5 -10 41.1497 80.6405   3
  10  -5  -9 1002.64 274.493   3
  10  -5  -8 570.192 192.121   3
  10  -5  -7 25.6071 81.0506   3
  10  -5  -6 1518.25 300.978   3
  10  -5  -5 31.3182 73.5388   3
  10  -5  -4 574.099 186.046   3
  10  -5  -3 1662.51 304.490   3
  10  -5  -2 228.434 116.467   3
  10  -5  -1 818.691 201.287   3
  10  -5   0 387.230 141.927   3
  10  -5   1 142.826 120.933   3
  10  -5   2-66.1163 71.6399   3
  10  -5   3 839.120 184.204   3
  10  -5   7 1306.96 281.413   1
  10  -5   8 1347.81 282.889   1
  10  -5   9-257.157 160.329   1
  10  -5  10 28.1062 98.2863   1
  10  -5  11 74.5653 85.9657   1
  10  -5  12-126.241 105.482   1
  10  -5  13 271.424 165.051   1
 -10   4  16 170.589 156.233   6
 -10   4  15 265.746 155.992   6
  10  -4 -14 252.375 167.926   3
 -10   4  14 517.420 222.985   6
  10  -4 -13 312.034 128.752   3
 -10   4  13 527.364 191.247   6
  10  -4 -12 206.254 141.973   3
 -10   4  12 96.3311 93.4770   6
  10  -4 -11 335.005 160.277   3
 -10   4  11 476.246 192.930   6
  10  -4 -10 111.348 106.009   3
 -10   4  10 99.6611 91.3757   6
  10  -4  -9 1373.29 301.674   3
 -10   4   9 853.477 218.027   6
  10  -4  -8 38.4281 85.2825   3
 -10   4   8 174.278 123.595   6
  10  -4  -7 1507.46 305.518   3
  10  -4  -6 169.288 132.882   3
  10  -4  -5 4429.83 487.623   3
  10  -4  -4 5704.31 545.003   3
  10  -4  -3 1794.03 306.475   3
  10  -4  -2 27.1124 71.4512   3
  10  -4  -1 3817.29 415.290   3
  10  -4   0 1023.09 211.727   3
  10  -4   1 87.6661 74.4107   3
  10  -4   2 397.239 124.628   3
  10  -4   6-18.3115 139.318   1
  10  -4   7 672.161 177.352   1
  10  -4   8 2278.31 359.001   1
  10  -4   9 3649.45 457.767   1
  10  -4  10 2727.40 404.654   1
  10  -4  11-114.135 116.736   1
  10  -4  12-54.1076 118.470   1
  10  -4  13-49.4346 115.506   1
  10  -4  14 188.748 142.615   1
 -10   3  16-18.0447 133.487   6
 -10   3  15 19.4029 93.8631   6
 -10   3  14 127.006 95.4159   6
 -10   3  13 731.063 244.051   6
 -10   3  12 2056.51 373.640   6
 -10   3  11-74.4641 116.558   6
  10  -3 -10 384.655 173.565   3
 -10   3  10 460.351 175.443   6
  10  -3  -9 1147.15 263.402   3
 -10   3   9 1205.64 266.456   6
  10  -3  -8 292.031 137.440   3
 -10   3   8 31.3273 62.1564   6
  10  -3  -7-67.9792 98.3073   3
 -10   3   7-140.443 118.634   6
  10  -3  -6-74.9663 84.9931   3
 -10   3   6 62.7161 67.0525   6
  10  -3  -5 638.990 185.158   3
 -10   3   5 427.336 144.802   6
  10  -3  -4 25.0866 69.0672   3
  10  -3  -3 4943.63 468.947   3
  10  -3  -2 2541.43 326.596   3
  10  -3  -1-48.4612 99.1366   3
  10  -3   0 1479.82 231.656   3
  10  -3   1 3195.49 321.519   3
  10  -3   4 66.0508 94.3221   1
  10  -3   5-59.8870 111.842   1
  10  -3   6-35.1374 120.787   1
  10  -3   7 3060.53 407.899   1
  10  -3   8 1648.36 296.117   1
  10  -3   9 49.1686 86.3453   1
  10  -3  10 301.599 152.429   1
  10  -3  11 2545.90 386.996   1
  10  -3  12 1117.67 261.824   1
  10  -3  13-91.5803 82.2613   1
  10  -3  14 349.019 176.276   1
  10  -3  15 293.577 162.398   1
  10  -2 -16-139.792 151.670   4
 -10   2  16 83.3807 116.806   6
  10  -2 -15 63.0503 95.4480   4
 -10   2  15-97.4740 115.973   6
  10  -2 -14-231.617 158.199   4
 -10   2  14 253.202 152.062   6
 -10   2  13 231.853 148.231   6
 -10   2  12 124.008 74.6474   6
 -10   2  11 3678.00 475.352   6
 -10   2  10 1113.40 262.039   6
 -10   2   9 3052.36 405.278   6
  10  -2  -8 79.3433 99.8701   3
 -10   2   8 39.1484 69.8270   6
  10  -2  -7 2128.96 337.543   3
 -10   2   7 1712.58 290.571   6
  10  -2  -6 1476.09 273.893   3
 -10   2   6 2104.48 304.255   6
  10  -2  -5 1217.77 239.563   3
 -10   2   5 1225.50 224.950   6
  10  -2  -4 40.7847 58.4327   3
 -10   2   4-156.056 88.1474   6
  10  -2  -3 187.048 99.4151   3
  10  -2  -3 29.8439 42.0561   2
  10  -2  -2 464.251 140.841   3
  10  -2  -1 977.005 188.297   3
  10  -2   0 754.749 153.648   3
  10  -2   0 329.851 109.342   1
  10  -2   1-344.788 130.814   1
  10  -2   2 179.249 89.4352   1
  10  -2   3 761.443 192.311   1
  10  -2   4 2080.92 313.994   1
  10  -2   5 103.709 85.2041   1
  10  -2   6-70.4895 106.468   1
  10  -2   7-28.6166 71.9156   4
  10  -2   7 53.1504 111.084   1
  10  -2   8 452.918 142.637   1
  10  -2   8 249.488 95.6992   4
  10  -2   9 1301.04 269.925   1
  10  -2  10 1129.56 254.444   1
  10  -2  11 669.609 192.960   1
  10  -2  12 95.0430 90.8705   1
  10  -2  13 2982.10 422.365   1
  10  -2  14 1939.72 360.572   1
  10  -2  15 98.4465 94.3194   1
  10  -1 -16 598.374 211.486   4
 -10   1  16 336.498 182.312   6
  10  -1 -15 14.6249 80.4477   4
 -10   1  15 225.398 149.103   6
  10  -1 -14 481.793 171.753   4
 -10   1  14 326.332 146.755   6
  10  -1 -13 488.088 190.019   4
 -10   1  13 625.310 208.249   6
  10  -1 -12-191.187 177.228   4
 -10   1  12-54.3454 113.126   6
  10  -1 -11-147.200 148.833   4
 -10   1  11-22.0734 79.9898   6
  10  -1 -10 934.599 256.878   4
 -10   1  10 1436.95 284.753   6
 -10   1   9 904.283 218.745   6
 -10   1   8 899.853 214.537   6
 -10   1   7 1836.10 287.875   6
  10  -1  -6 228.197 77.0310   1
 -10   1   6 363.530 125.324   6
  10  -1  -5 28.7070 54.5360   3
  10  -1  -5-49.5683 76.7029   1
  10  -1  -5-2.52836 40.3890   2
 -10   1   5-23.1535 53.0382   6
  10  -1  -4 315.721 122.235   3
  10  -1  -4 277.806 96.7268   1
  10  -1  -4 375.559 111.573   2
 -10   1   4 152.065 81.9256   6
  10  -1  -3-14.0315 61.3970   1
  10  -1  -3 78.8815 68.0692   3
  10  -1  -3 19.1419 46.0795   2
 -10   1   3 65.7441 65.8701   6
  10  -1  -2 1663.67 249.210   1
 -10   1   2 1904.40 238.651   6
  10  -1  -2 1923.44 253.439   3
  10  -1  -1 1413.50 205.788   3
  10  -1  -1 1204.24 209.408   1
  10  -1   0 122.967 99.9876   1
  10  -1   1 306.841 103.169   1
  10  -1   2 2427.96 321.677   1
  10  -1   3 2855.70 349.727   1
  10  -1   4 3763.51 405.867   1
  10  -1   4 3568.15 373.867   4
  10  -1   5 3163.99 377.193   1
  10  -1   5 3174.90 348.303   4
  10  -1   6 3103.06 380.031   1
  10  -1   6 2889.13 326.812   4
  10  -1   7 275.441 140.206   1
  10  -1   7 7.45726 66.9535   4
  10  -1   8-20.8026 57.8876   4
  10  -1   8-123.477 78.6746   1
  10  -1   9-52.9143 43.4484   4
  10  -1   9 194.270 145.953   1
  10  -1  10 1556.82 297.164   1
  10  -1  11 204.567 142.354   1
  10  -1  12 102.424 89.0545   1
  10  -1  13 1985.87 345.360   1
  10  -1  14-5.48743 78.5653   1
  10  -1  15 344.259 168.905   1
  10  -1  16 620.706 200.889   1
  10   0 -16 59.6882 79.2650   4
 -10   0  15 1775.38 368.174   6
  10   0 -15 1344.40 309.991   4
 -10   0  14 2260.95 397.898   6
  10   0 -14 1608.73 325.573   4
 -10   0  13 128.826 130.922   6
  10   0 -13-29.5249 67.1708   4
  10   0 -12 3931.88 494.020   4
 -10   0  12 3498.71 466.138   6
 -10   0  11 2998.89 422.016   6
  10   0 -11 2569.33 395.871   4
 -10   0  10 928.975 235.062   6
  10   0 -10 668.914 202.033   4
 -10   0   9 31.5779 65.1939   6
  10   0  -9-201.620 170.272   4
 -10   0   8-66.6601 101.605   6
  10   0  -8-580.174 195.737   4
  10   0  -7 899.089 170.310   2
  10   0  -7 695.937 205.778   4
 -10   0   7 604.087 165.163   6
  10   0  -6 41.1380 82.0873   4
  10   0  -6 10.5565 50.1759   2
 -10   0   6 17.4125 60.8892   6
  10   0  -5 79.6711 60.8187   1
  10   0  -5 29.9877 107.475   4
  10   0  -5-13.7012 56.9589   2
 -10   0   5 56.5830 58.3200   6
  10   0  -4 2848.74 329.534   3
  10   0  -4 2983.00 302.312   1
  10   0  -4 3448.39 420.566   4
  10   0  -4 2768.21 311.646   2
 -10   0   4 2706.29 316.362   6
  10   0  -3 206.966 86.6453   3
  10   0  -3-9.56671 73.0328   4
  10   0  -3 108.766 70.2748   1
  10   0  -3 152.811 129.421   2
 -10   0   3 40.2613 57.1824   6
  10   0  -2 249.243 95.6269   3
  10   0  -2 192.537 93.6082   1
  10   0  -2 71.0840 79.0857   4
  10   0  -2 217.339 97.3270   2
 -10   0   2 145.497 66.0296   6
  10   0  -1 1742.42 249.675   1
  10   0  -1 2105.94 316.584   4
  10   0   0 603.266 157.547   1
  10   0   0 480.153 143.618   4
  10   0   1 344.914 115.651   1
  10   0   1 734.295 171.379   4
  10   0   2 13.2076 87.5351   1
  10   0   2 11.7227 84.3510   4
  10   0   3 1605.50 251.638   1
  10   0   3 1514.95 252.386   4
  10   0   4 111.450 94.5533   1
  10   0   4 82.4630 63.6916   4
  10   0   5 3341.07 381.869   1
  10   0   5 3614.13 375.066   4
  10   0   6 153.768 101.785   4
  10   0   6 253.791 139.977   1
  10   0   7 7837.87 521.152   4
  10   0   7 7939.29 599.228   1
  10   0   8 4085.53 367.261   4
  10   0   8 4238.93 448.549   1
  10   0   9 290.118 144.898   1
  10   0   9 475.633 128.336   4
  10   0  10 1220.99 265.050   1
  10   0  11 65.3482 97.7692   1
  10   0  12-5.30232 74.4772   1
  10   0  13-174.473 131.982   1
  10   0  14 617.303 194.723   1
  10   0  15 1177.79 270.251   1
  10   0  16 412.559 176.940   1
  10   1 -16-111.199 110.677   4
 -10  -1  15 477.054 184.833   6
  10   1 -15 474.429 175.308   4
 -10  -1  14 183.411 154.936   6
  10   1 -14 3.65754 91.8807   4
 -10  -1  13-34.9494 91.5816   6
  10   1 -13 527.459 186.267   4
 -10  -1  12 522.835 186.553   6
  10   1 -12 142.585 95.0851   4
 -10  -1  11 128.878 104.346   6
  10   1 -11-80.7898 80.6128   4
 -10  -1  10 2386.76 360.621   6
  10   1 -10 1684.57 314.732   4
 -10  -1   9 2199.15 340.474   6
  10   1  -9 1613.64 305.335   4
 -10  -1   8 384.716 148.523   6
  10   1  -8 443.623 178.876   4
  10   1  -7 29.2574 42.7687   2
  10   1  -7 114.592 77.7337   4
 -10  -1   6 5.08089 69.2805   6
  10   1  -6 135.553 76.9522   2
 -10  -1   5 904.215 178.957   6
  10   1  -5 973.430 159.689   1
  10   1  -5 1060.06 247.886   4
  10   1  -5 1064.15 199.984   2
 -10  -1   4 101.749 61.7585   6
  10   1  -4 75.8993 94.8449   4
  10   1  -4 195.082 89.1895   1
  10   1  -4 121.362 70.9161   2
  10   1  -3 4277.16 460.440   4
  10   1  -3 4196.96 416.978   2
 -10  -1   3 3652.76 337.784   6
  10   1  -3 3857.68 329.304   1
  10   1  -2 4719.92 483.022   4
  10   1  -2 4900.78 456.564   2
 -10  -1   2 5117.27 380.800   6
  10   1  -2 5547.35 409.878   1
  10   1  -1 195.799 120.143   4
  10   1  -1 134.241 78.2107   1
  10   1   0 876.388 204.886   4
  10   1   0 639.363 141.338   1
  10   1   1 251.415 108.918   4
  10   1   1 333.208 120.863   1
  10   1   2 2564.10 328.659   4
  10   1   2 2514.58 304.325   1
  10   1   3 6148.11 499.743   4
  10   1   3 6024.79 474.907   1
  10   1   4 27.5027 67.2359   4
  10   1   4 118.395 117.698   1
  10   1   5 1547.95 269.572   1
  10   1   5 1638.26 249.473   4
  10   1   6 105.954 98.2111   1
  10   1   6 351.164 105.422   4
  10   1   7 33.3384 87.1090   1
  10   1   7 33.2147 81.7662   4
  10   1   8 421.277 149.658   1
  10   1   8 438.000 129.464   4
  10   1   9 64.7287 80.7328   1
  10   1   9 13.2723 48.7548   4
  10   1  10 330.777 139.624   1
  10   1  11 161.004 108.540   1
  10   1  12 8.22191 88.4266   1
  10   1  13 392.938 147.733   1
  10   1  14-176.127 135.549   1
  10   1  15 423.336 174.951   1
  10   1  16 371.142 166.292   1
 -10  -2  15 104.838 84.3487   6
  10   2 -15 59.6325 87.9121   4
 -10  -2  14 19.2686 125.715   6
  10   2 -14 69.9341 81.8711   4
 -10  -2  13 234.714 151.698   6
  10   2 -13 514.326 188.451   4
 -10  -2  12 146.445 113.925   6
  10   2 -12 76.1057 65.3117   4
 -10  -2  11 310.187 144.685   6
  10   2 -11 88.3769 80.8294   4
 -10  -2  10 2440.58 366.684   6
  10   2 -10 3133.58 424.365   4
 -10  -2   9 2499.31 362.905   6
  10   2  -9 3218.09 435.390   4
 -10  -2   8 61.8353 52.6313   6
  10   2  -8-32.6087 66.9389   4
 -10  -2   7 198.542 98.4720   6
  10   2  -7 184.358 94.1160   2
  10   2  -7 284.456 147.004   4
 -10  -2   6 83.5000 47.2818   6
  10   2  -6 139.995 75.3794   4
  10   2  -6 119.076 50.4093   2
 -10  -2   5 90.6645 53.8838   6
  10   2  -5 42.9720 73.4690   4
  10   2  -5-72.7911 76.0036   2
 -10  -2   4 451.264 122.871   6
  10   2  -4 441.485 167.816   4
  10   2  -4 502.229 161.096   2
  10   2  -4 344.110 88.4818   1
 -10  -2   3 218.692 82.6931   6
  10   2  -3 256.512 83.1246   1
  10   2  -3 142.887 101.106   4
  10   2  -3 298.978 124.038   2
 -10  -2   2 104.145 55.7011   6
  10   2  -2-49.7337 62.0803   1
  10   2  -2 92.5127 86.6157   4
  10   2  -2-97.2399 101.602   2
  10   2  -1 1384.25 204.710   1
  10   2  -1 1495.71 274.973   4
  10   2  -1 1232.07 242.435   2
  10   2   0 761.053 163.250   1
  10   2   0 672.508 186.468   4
  10   2   1 93.1541 74.5509   1
  10   2   1 129.254 89.8471   4
  10   2   2 522.006 142.051   1
  10   2   2 428.242 155.528   4
  10   2   3 348.886 126.172   1
  10   2   3 694.393 167.823   4
  10   2   4 907.171 184.258   1
  10   2   4 750.928 175.470   4
  10   2   5 0.38467 77.6329   1
  10   2   5 49.4419 76.5146   4
  10   2   6 736.992 176.934   1
  10   2   6 659.134 153.193   4
  10   2   7 5.48518 68.3210   1
  10   2   7-65.8776 83.9871   4
  10   2   8 78.4063 91.2673   1
  10   2   9-204.569 143.627   1
  10   2  10 1518.60 271.842   1
  10   2  11 1471.73 269.717   1
  10   2  12 222.599 129.620   1
  10   2  13 1678.36 291.972   1
  10   2  14 1231.78 259.494   1
  10   2  15 275.478 140.554   1
  10   2  16-41.5674 80.2932   1
  10   2  17 49.8714 70.8209   1
 -10  -3  14 559.582 218.219   6
  10   3 -14 699.329 217.956   4
 -10  -3  13-122.041 97.6918   6
  10   3 -13 69.7096 91.2208   4
 -10  -3  12 545.344 189.197   6
  10   3 -12 620.541 212.433   4
 -10  -3  11 19.0175 93.4093   6
  10   3 -11 92.4964 106.820   4
 -10  -3  10 90.8809 85.3090   6
  10   3 -10 143.942 105.811   4
 -10  -3   9 62.0808 70.3710   6
  10   3  -9 135.956 101.654   4
 -10  -3   8 2291.08 340.470   6
  10   3  -8 3200.19 422.571   4
 -10  -3   7 410.492 142.139   6
  10   3  -7 526.148 161.015   2
  10   3  -7 355.894 166.951   4
 -10  -3   6 99.0557 70.1115   6
  10   3  -6-16.8788 71.5391   2
  10   3  -6 121.601 121.096   4
 -10  -3   5 1553.69 247.653   6
  10   3  -5 1648.67 299.220   4
  10   3  -5 1339.04 254.316   2
  10   3  -4 10189.1 690.515   2
  10   3  -4 9313.29 682.010   4
 -10  -3   4 8880.70 560.733   6
  10   3  -3 4876.49 481.275   2
  10   3  -3 5778.59 356.865   1
  10   3  -3 5763.77 531.545   4
 -10  -3   3 6372.83 453.961   6
 -10  -3   2 30.7131 58.4395   6
  10   3  -2 86.1205 103.492   4
  10   3  -2 166.028 67.8637   1
  10   3  -2-92.9956 106.544   2
  10   3  -1 246.596 121.184   4
  10   3  -1 227.247 79.6717   1
  10   3  -1 77.0778 71.2272   2
  10   3   0 1020.68 216.190   4
  10   3   0 1370.55 199.789   1
  10   3   1 156.030 103.834   4
  10   3   1-22.2074 55.0402   1
  10   3   2 3353.50 377.847   4
  10   3   2 3025.42 309.287   1
  10   3   3 6717.80 517.420   4
  10   3   3 5506.20 427.687   1
  10   3   4 346.710 142.640   4
  10   3   4 570.017 149.645   1
  10   3   5 116.256 89.6495   4
  10   3   5-84.1366 85.3034   1
  10   3   6 1159.02 220.062   1
  10   3   7 149.341 92.3173   1
  10   3   8 190.065 99.1790   1
  10   3   9 92.0724 103.063   1
  10   3  10-3.78922 86.6521   1
  10   3  11-95.3448 133.010   1
  10   3  12 1291.71 248.801   1
  10   3  13 207.161 131.545   1
  10   3  14 133.638 124.659   1
  10   3  15 617.172 193.961   1
  10   3  16 399.756 167.922   1
  10   3  17 125.328 86.1782   1
 -10  -4  13 471.686 203.101   6
 -10  -4  12 1463.18 315.538   6
 -10  -4  11 391.547 157.856   6
  10   4 -11 529.585 205.549   4
 -10  -4  10 69.9880 75.4239   6
  10   4 -10 133.051 96.1497   4
 -10  -4   9 40.6687 87.1600   6
  10   4  -9 193.477 126.024   4
 -10  -4   8 334.469 123.259   6
  10   4  -8 431.100 171.804   4
 -10  -4   7 493.305 170.532   6
  10   4  -7 440.549 166.728   2
  10   4  -7 506.264 179.134   4
  10   4  -6 5660.49 525.326   2
  10   4  -6 6728.71 598.142   4
 -10  -4   6 6234.70 524.685   6
  10   4  -5 10652.0 725.107   2
  10   4  -5 11174.5 753.871   4
 -10  -4   5 11218.0 672.298   6
  10   4  -4 3005.48 388.289   2
  10   4  -4 3818.54 442.618   4
 -10  -4   4 3315.11 354.324   6
 -10  -4   3 736.317 159.464   6
  10   4  -3 506.747 182.773   4
  10   4  -3 556.178 175.603   2
  10   4  -2 4091.30 300.637   1
  10   4  -2 4612.93 493.232   2
  10   4  -2 4761.31 477.723   4
 -10  -4   2 4100.74 353.900   6
  10   4  -1 835.198 142.934   1
  10   4  -1 789.226 204.417   4
  10   4  -1 802.459 213.417   2
  10   4   0 87.2268 49.9786   1
  10   4   0 176.734 112.488   4
  10   4   0 0.18377 111.525   2
  10   4   1 395.085 112.814   1
  10   4   1 252.214 142.095   4
  10   4   2 880.416 173.367   1
  10   4   2 899.029 215.220   4
  10   4   3 74.9789 73.2332   1
  10   4   4 6291.71 455.555   1
  10   4   5 5954.27 457.469   1
  10   4   6 2700.07 311.772   1
  10   4   7 1219.06 222.560   1
  10   4   8 1285.11 236.339   1
  10   4   9 383.763 142.082   1
  10   4  10 76.0235 85.7841   1
  10   4  11 303.840 127.424   1
  10   4  12-100.590 79.1771   1
  10   4  13 249.167 131.228   1
  10   4  14 424.151 163.905   1
  10   4  15-62.2226 90.5715   1
  10   4  16-42.3278 76.0128   1
 -10  -5  13 1986.65 380.674   6
 -10  -5  12 421.197 175.800   6
 -10  -5  11-74.3693 96.3898   6
 -10  -5  10 447.606 158.236   6
 -10  -5   9 80.6844 58.6940   6
 -10  -5   8-92.6229 100.971   6
 -10  -5   7 1097.38 244.386   6
  10   5  -7 1425.62 273.925   2
  10   5  -6 2892.38 391.622   2
 -10  -5   6 3180.63 383.399   6
 -10  -5   5 242.246 107.848   6
  10   5  -5 547.621 192.172   2
  10   5  -4 9558.95 717.900   2
 -10  -5   4 10309.4 639.966   6
  10   5  -3 6692.44 612.014   2
 -10  -5   3 5532.98 451.646   6
 -10  -5   2 947.987 179.122   6
  10   5  -2 710.491 203.181   2
  10   5  -1 284.077 135.305   2
  10   5  -1 584.178 119.674   1
  10   5   0 226.603 86.1796   1
  10   5   0 20.4614 77.1343   2
  10   5   1 207.219 84.8322   1
  10   5   1 176.063 121.280   2
  10   5   2 117.334 72.7150   1
  10   5   3 102.390 80.6362   1
  10   5   4 78.5837 72.1469   1
  10   5   5 44.0679 68.7392   1
  10   5   6 1775.99 252.769   1
  10   5   7 4722.26 420.164   1
  10   5   8 1079.81 214.753   1
  10   5   9 283.159 124.665   1
  10   5  10 949.963 208.934   1
  10   5  11 1083.85 229.124   1
  10   5  12 94.3373 81.4574   1
  10   5  13 310.180 141.343   1
  10   5  14 323.217 145.528   1
  10   5  15 213.416 109.150   1
  10   5  16 242.373 127.768   1
 -10  -6  12 40.3807 97.2141   6
 -10  -6  11 398.651 178.027   6
 -10  -6  10 75.0154 64.8468   6
 -10  -6   9 165.798 109.653   6
 -10  -6   8 71.7752 90.3004   6
 -10  -6   7 1236.70 257.705   6
  10   6  -6 2692.52 394.533   2
 -10  -6   6 3189.83 394.560   6
  10   6  -5 4643.17 518.000   2
 -10  -6   5 5089.03 479.619   6
  10   6  -4 3554.13 458.371   2
 -10  -6   4 3234.90 373.861   6
 -10  -6   3 292.641 122.953   6
  10   6  -3 21.8850 87.7187   2
 -10  -6   2 179.610 88.6316   6
  10   6  -2 185.771 120.183   2
  10   6  -1 1662.05 327.438   2
  10   6   0 2143.92 232.856   1
  10   6   0 2258.44 376.975   2
  10   6   1 216.959 151.088   2
  10   6   1 68.3602 51.1060   1
  10   6   2 638.801 215.589   2
  10   6   2 595.679 133.249   1
  10   6   3 929.786 173.232   1
  10   6   4 18.1098 66.5886   1
  10   6   5-142.076 75.9257   1
  10   6   6 700.042 170.017   1
  10   6   7 387.548 141.972   1
  10   6   8 125.523 90.4272   1
  10   6   9 845.648 182.951   1
  10   6  10 788.204 186.825   1
  10   6  11 132.974 119.142   1
  10   6  12 1287.42 254.769   1
  10   6  13 166.277 109.756   1
  10   6  14-42.8040 87.0977   1
  10   6  15 396.958 164.834   1
  10   6  16 351.536 173.937   1
 -10  -7  11 314.364 150.631   6
 -10  -7  10 398.986 183.476   6
 -10  -7   9 99.0775 88.0378   6
 -10  -7   8 280.293 128.642   6
 -10  -7   7 1763.83 312.798   6
 -10  -7   6 98.9140 102.598   6
  10   7  -6 186.441 144.098   2
 -10  -7   5 189.676 124.923   6
  10   7  -5 91.6274 107.858   2
 -10  -7   4-175.814 101.777   6
  10   7  -4-22.7860 79.5754   2
 -10  -7   3 100.533 71.1984   6
  10   7  -3 237.078 136.569   2
 -10  -7   2 46.5030 64.1892   6
  10   7  -2 104.944 108.770   2
  10   7  -1-112.227 108.421   2
  10   7   0 108.349 126.060   2
  10   7   1 2315.30 255.556   1
  10   7   1 2082.54 363.072   2
  10   7   2 1327.14 202.787   1
  10   7   2 1373.25 317.008   2
  10   7   3 903.035 171.499   1
  10   7   3 585.818 203.387   2
  10   7   4 3.58226 58.2919   1
  10   7   5 1293.08 216.489   1
  10   7   6 54.4081 80.6171   1
  10   7   7 93.0515 65.2326   1
  10   7   8 57.0954 71.1154   1
  10   7   9 232.563 107.059   1
  10   7  10-172.831 134.157   1
  10   7  11 1252.68 238.181   1
  10   7  12 2019.77 317.572   1
  10   7  13 75.8511 57.8859   1
  10   7  14 253.652 133.560   1
  10   7  15 660.660 192.443   1
 -10  -8   9 576.163 208.496   6
 -10  -8   8 136.907 122.685   6
 -10  -8   7 41.6508 83.5903   6
 -10  -8   6 416.380 161.254   6
 -10  -8   5 758.871 212.103   6
  10   8  -5 647.563 216.399   2
 -10  -8   4 61.4764 55.9160   6
  10   8  -4 108.602 111.872   2
 -10  -8   3 960.450 220.847   6
  10   8  -3 944.644 276.767   2
 -10  -8   2 841.465 202.970   6
  10   8  -2 962.646 246.228   2
  10   8  -1 1575.01 332.338   2
  10   8   0 1999.25 369.065   2
  10   8   1 1991.99 373.791   2
  10   8   2 290.110 101.350   1
  10   8   2 162.022 116.691   2
  10   8   3 356.576 115.816   1
  10   8   3 360.231 186.303   2
  10   8   4 1034.30 192.501   1
  10   8   4 1507.31 348.050   2
  10   8   5 1155.67 206.577   1
  10   8   6 408.593 132.157   1
  10   8   7 42.8621 73.3308   1
  10   8   8 9.86382 65.4972   1
  10   8   9 46.3178 55.0076   1
  10   8  10-1.75684 76.5548   1
  10   8  11 1403.27 258.357   1
  10   8  12 693.260 185.067   1
  10   8  13 441.346 174.569   1
  10   8  14 40.5967 72.5264   1
 -10  -9   8 181.658 130.857   6
 -10  -9   7-62.5826 85.0503   6
 -10  -9   6 126.702 101.511   6
 -10  -9   5 1184.57 262.942   6
  10   9  -5 978.486 261.079   2
 -10  -9   4-19.9937 77.7501   6
  10   9  -4 124.505 80.4200   2
 -10  -9   3 354.495 137.146   6
  10   9  -3 733.357 219.963   2
  10   9  -2 327.786 188.192   2
  10   9  -1 797.825 257.933   2
  10   9   0 53.7944 94.4621   2
  10   9   1 414.418 187.570   2
  10   9   2 1419.60 329.072   2
  10   9   3 1621.51 242.125   1
  10   9   3 1847.92 384.158   2
  10   9   4 29.1589 51.4462   1
  10   9   4-91.5794 113.536   2
  10   9   5 1257.15 224.097   1
  10   9   5 1455.25 364.091   2
  10   9   6-83.8672 84.6138   1
  10   9   6 159.853 137.624   2
  10   9   7 599.716 164.952   1
  10   9   8 216.621 114.844   1
  10   9   9 59.9452 89.4615   1
  10   9  10-57.6603 108.017   1
  10   9  11 98.7279 93.3662   1
  10   9  12 141.885 100.781   1
  10   9  13 12.4090 85.2891   1
 -10 -10   6 197.635 124.826   6
 -10 -10   5 0.20406 80.6197   6
 -10 -10   4-63.7403 86.3754   6
  10  10  -2-234.365 175.122   2
  10  10  -1 2421.94 429.712   2
  10  10   0 3147.74 491.183   2
  10  10   1 2133.27 404.552   2
  10  10   2 17.9632 104.112   2
  10  10   3-17.5331 179.646   2
  10  10   4 437.121 136.622   1
  10  10   4 475.646 187.998   2
  10  10   5 291.016 127.341   1
  10  10   5 175.266 143.807   2
  10  10   6 619.864 174.292   1
  10  10   6 293.275 170.684   2
  10  10   7 134.710 94.2674   1
  10  10   7-148.777 143.606   2
  10  10   8 70.1040 78.2498   1
  10  10   9 188.508 95.9896   1
  10  10  10 890.808 213.041   1
  10  10  11 1791.80 303.925   1
  10  10  12 29.9226 90.3535   1
  10  11   6-24.3218 85.6749   1
  10  11   7 30.4511 88.0824   1
  10  11   8 293.150 137.065   1
  10  11   9 553.615 172.991   1
  10  11  10-182.429 126.794   1
  10  11  11-28.6613 70.9526   1
  10  12   7 65.3989 86.3399   1
  10  12   8-115.766 102.051   1
  10  12   9-497.037 178.955   1
  11 -11  -5-159.050 153.813   3
  11 -11  -4 51.4931 136.266   3
  11 -10  -8-54.1767 105.540   3
  11 -10  -7 61.2866 110.742   3
  11 -10  -6 210.956 170.783   3
  11 -10  -5 147.447 126.313   3
  11 -10  -4 44.9174 102.966   3
  11 -10  -3 209.510 147.600   3
  11 -10  -2-100.859 120.977   3
  11 -10  -1 187.383 103.223   3
  11  -9 -10-20.7831 88.3011   3
  11  -9  -9 745.407 263.716   3
  11  -9  -8 341.198 196.449   3
  11  -9  -7 48.6425 81.5642   3
  11  -9  -6 932.731 296.790   3
  11  -9  -5 440.160 215.489   3
  11  -9  -4 162.154 140.421   3
  11  -9  -3 257.228 135.234   3
  11  -9  -2 1426.37 339.178   3
  11  -9  -1 742.729 246.967   3
  11  -8 -12-189.440 167.043   3
  11  -8 -11-146.885 145.510   3
  11  -8 -10 1798.76 417.722   3
  11  -8  -9 1563.02 386.385   3
  11  -8  -8-22.0918 93.5543   3
  11  -8  -7 225.831 160.380   3
  11  -8  -6-22.9528 119.041   3
  11  -8  -5 62.3161 120.315   3
  11  -8  -4-11.1285 77.8208   3
  11  -8  -3-75.8786 99.2335   3
  11  -8  -2 147.561 124.440   3
  11  -7 -13 120.799 137.217   3
  11  -7 -12 212.826 194.336   3
  11  -7 -11-9.00604 123.265   3
  11  -7 -10 105.775 136.098   3
  11  -7  -9 96.2550 120.828   3
  11  -7  -8 3289.82 515.240   3
  11  -7  -7 6177.62 692.124   3
  11  -7  -6 328.956 179.500   3
  11  -7  -5 976.009 271.619   3
  11  -7  -4 1280.13 305.543   3
  11  -7  -3 510.638 186.954   3
  11  -7  -2 199.479 129.911   3
  11  -6 -14-1.88873 74.8506   3
  11  -6 -13 303.122 171.982   3
  11  -6 -12-50.5198 130.496   3
  11  -6 -11 652.109 246.857   3
  11  -6 -10 1106.05 304.735   3
  11  -6  -9 2305.65 425.866   3
  11  -6  -8 1940.53 386.725   3
  11  -6  -7 37.4453 110.728   3
  11  -6  -6 3050.74 473.889   3
  11  -6  -5 3359.09 480.953   3
  11  -6  -4 2.62378 72.4032   3
  11  -6  -3 24.6973 77.3549   3
  11  -6   7-172.311 129.378   1
  11  -6   8 237.795 141.110   1
  11  -6   9 251.684 138.168   1
  11  -5 -14 198.663 147.863   3
 -11   5  14 253.288 176.607   6
  11  -5 -13 1562.07 376.843   3
 -11   5  13 1947.01 401.307   6
  11  -5 -12 262.677 153.654   3
 -11   5  12 401.999 186.679   6
  11  -5 -11 1120.23 303.522   3
  11  -5 -10 400.213 194.597   3
  11  -5  -9 895.262 266.982   3
  11  -5  -8 1995.96 372.311   3
  11  -5  -7 1468.70 311.219   3
  11  -5  -6 515.038 184.485   3
  11  -5  -5 297.945 148.659   3
  11  -5  -4 248.238 126.884   3
  11  -5  -3 425.033 160.564   3
  11  -5   6 148.130 98.3152   1
  11  -5   7 764.703 210.568   1
  11  -5   8 508.111 173.347   1
  11  -5   9-84.3493 130.923   1
  11  -5  10 174.497 153.950   1
  11  -4 -15 21.7433 90.3274   3
  11  -4 -14 569.308 211.456   3
 -11   4  14 94.5369 88.5631   6
  11  -4 -13 763.186 266.336   3
 -11   4  13 967.805 286.800   6
  11  -4 -12 436.608 201.289   3
 -11   4  12 188.924 109.338   6
  11  -4 -11 435.612 204.441   3
 -11   4  11 90.8398 65.5925   6
  11  -4 -10 2042.74 379.335   3
 -11   4  10 2330.12 396.534   6
  11  -4  -9 610.166 213.609   3
 -11   4   9 532.140 194.126   6
  11  -4  -8-50.7497 106.488   3
  11  -4  -7 782.492 231.843   3
  11  -4  -6-71.6590 103.479   3
  11  -4  -5 103.562 101.625   3
  11  -4  -4 1761.41 313.175   3
  11  -4   4 51.2971 68.3195   1
  11  -4   5 217.073 119.305   1
  11  -4   6 30.7353 82.0717   1
  11  -4   7-45.3698 129.247   1
  11  -4   8-49.5615 91.2135   1
  11  -4   9 510.277 197.155   1
  11  -4  10 0.84961 110.176   1
  11  -4  11 323.706 156.401   1
 -11   3  15 231.302 184.105   6
 -11   3  14 178.493 142.750   6
  11  -3 -13 221.058 128.250   3
 -11   3  13 1.75021 91.3431   6
  11  -3 -12 330.217 179.840   3
 -11   3  12 206.334 148.577   6
  11  -3 -11 531.377 211.241   3
 -11   3  11 232.659 143.068   6
  11  -3 -10 601.740 193.864   3
 -11   3  10 320.801 147.207   6
  11  -3  -9 16.5420 65.8011   3
 -11   3   9 213.104 87.9046   6
  11  -3  -8 677.660 197.775   3
 -11   3   8 368.841 152.421   6
  11  -3  -7 346.814 165.063   3
 -11   3   7 620.375 181.192   6
  11  -3  -6 25.9445 75.0690   3
 -11   3   6 125.086 98.2139   6
  11  -3  -5 78.9334 61.1435   3
  11  -3   1-48.7894 106.863   1
  11  -3   2 503.810 156.247   1
  11  -3   3 2282.50 331.785   1
  11  -3   4-117.986 137.729   1
  11  -3   5-47.4990 98.8630   1
  11  -3   6-20.7147 117.158   1
  11  -3   7-219.984 182.600   1
  11  -3   8 308.371 151.533   1
  11  -3   9 409.974 172.476   1
  11  -3  10 28.3478 89.1822   1
  11  -3  11 206.495 113.031   1
  11  -3  12 1862.79 368.438   1
 -11   2  15 553.965 216.922   6
 -11   2  14 685.544 252.106   6
  11  -2 -13-123.520 119.556   4
 -11   2  13-99.3271 141.952   6
  11  -2 -12 51.7317 101.042   4
 -11   2  12-107.419 125.402   6
 -11   2  11 494.925 178.882   6
  11  -2 -10-89.1244 118.846   3
 -11   2  10 82.9020 117.683   6
  11  -2  -9 51.7521 91.6298   3
 -11   2   9 144.079 119.582   6
  11  -2  -8 2191.50 363.807   3
 -11   2   8 1827.81 320.431   6
  11  -2  -7 34.9557 78.8413   3
 -11   2   7-24.4363 79.6541   6
  11  -2  -6 1270.43 260.515   3
 -11   2   6 1310.11 255.961   6
  11  -2  -5 3722.33 374.836   1
  11  -2  -4 508.261 155.582   1
  11  -2  -3 129.471 79.6955   1
  11  -2  -2 503.967 149.679   1
  11  -2  -1 1498.26 250.414   1
  11  -2   0 1453.21 249.991   1
  11  -2   1 1317.38 246.163   1
  11  -2   2 69.4938 72.1530   1
  11  -2   3 151.773 106.605   1
  11  -2   4 3972.62 439.549   1
  11  -2   5 3144.20 400.385   1
  11  -2   5 2505.15 323.778   4
  11  -2   6 733.403 174.711   4
  11  -2   6 758.299 198.547   1
  11  -2   7 1619.06 295.303   1
  11  -2   7 1500.71 244.998   4
  11  -2   8 1539.93 297.991   1
  11  -2   8 1041.38 200.948   4
  11  -2   9 538.064 177.789   1
  11  -2  10-3.12587 92.7119   1
  11  -2  11 87.4822 98.1784   1
  11  -2  12 286.093 150.140   1
  11  -2  13-133.733 144.129   1
 -11   1  14 123.876 134.860   6
  11  -1 -13 911.978 264.948   4
 -11   1  13 1534.78 337.085   6
  11  -1 -12 1116.48 300.840   4
 -11   1  12 943.042 259.500   6
  11  -1 -11 23.7191 96.7402   4
 -11   1  11-75.0160 84.8731   6
  11  -1 -10 118.306 112.935   4
 -11   1  10 242.972 134.831   6
  11  -1  -9 58.2226 109.808   4
 -11   1   9-64.6400 120.296   6
  11  -1  -8-135.480 164.647   4
 -11   1   8 31.2715 63.4488   6
  11  -1  -7 1241.06 261.181   3
  11  -1  -7 1165.58 262.789   4
 -11   1   7 1093.46 234.479   6
  11  -1  -6 595.392 195.403   4
 -11   1   6 300.234 117.614   6
  11  -1  -5 187.804 106.887   1
  11  -1  -4 265.127 114.855   1
  11  -1  -3 953.924 199.090   1
  11  -1  -3 1285.61 219.917   2
  11  -1  -2 622.442 160.094   1
  11  -1  -2 552.743 150.469   2
  11  -1  -1 64.7388 72.0280   1
  11  -1   0-106.085 128.119   4
  11  -1   0 53.2514 67.7465   1
  11  -1   1 62.4378 59.7055   4
  11  -1   1 442.305 137.141   1
  11  -1   2 2050.68 310.621   4
  11  -1   2 1704.67 275.127   1
  11  -1   3 473.682 155.630   1
  11  -1   3 352.313 126.871   4
  11  -1   4 1822.20 292.175   1
  11  -1   4 2529.92 330.996   4
  11  -1   5 784.035 205.874   1
  11  -1   5 790.636 183.630   4
  11  -1   6 613.430 192.411   1
  11  -1   6 522.565 149.595   4
  11  -1   7 1398.43 240.797   4
  11  -1   7 939.173 229.543   1
  11  -1   8 2647.72 315.764   4
  11  -1   8 2042.25 332.159   1
  11  -1   9 882.690 233.738   1
  11  -1  10 180.538 114.655   1
  11  -1  11 275.984 143.409   1
  11  -1  12 317.572 178.235   1
  11  -1  13 55.7963 115.233   1
  11  -1  14 1159.59 279.880   1
 -11   0  14 156.076 109.674   6
  11   0 -13 194.428 133.616   4
 -11   0  13 184.281 117.239   6
  11   0 -12-158.240 144.739   4
 -11   0  12 119.271 117.116   6
  11   0 -11 713.451 229.744   4
 -11   0  11 513.655 174.734   6
  11   0 -10 526.312 190.336   4
 -11   0  10 627.088 192.717   6
  11   0  -9 516.357 183.944   4
 -11   0   9 618.729 188.434   6
  11   0  -8-19.9833 120.569   4
 -11   0   8-47.6920 90.0617   6
  11   0  -7 501.723 168.872   4
 -11   0   7 139.221 103.215   6
  11   0  -6 184.355 126.650   4
 -11   0   6 273.994 116.677   6
  11   0  -5 469.170 187.234   4
  11   0  -4 3344.81 339.659   1
  11   0  -4 3247.67 365.181   2
  11   0  -4 3016.77 421.580   4
  11   0  -3 6013.57 461.799   1
  11   0  -3 5252.27 542.543   4
  11   0  -3 5077.72 455.309   2
  11   0  -2 702.252 168.097   1
  11   0  -2 641.575 205.815   4
  11   0  -2 726.346 181.395   2
  11   0  -1 334.762 126.346   1
  11   0  -1 486.850 183.321   4
  11   0   0 1058.16 214.350   1
  11   0   0 1013.62 226.557   4
  11   0   1 349.332 109.613   1
  11   0   1 258.168 126.427   4
  11   0   2 440.373 163.592   4
  11   0   2 290.641 128.467   1
  11   0   3-22.1000 62.7073   4
  11   0   3-48.4899 69.3921   1
  11   0   4 281.954 112.902   4
  11   0   4 415.900 154.410   1
  11   0   5 225.869 106.380   4
  11   0   5 11.9086 73.4540   1
  11   0   6 3785.84 393.411   4
  11   0   6 3675.14 420.479   1
  11   0   7 1218.10 218.225   4
  11   0   7 1388.16 270.671   1
  11   0   8 82.8134 108.743   1
  11   0   8-11.9844 52.9515   4
  11   0   9 2308.96 355.638   1
  11   0  10 2038.62 340.428   1
  11   0  11 125.377 121.941   1
  11   0  12 470.830 170.898   1
  11   0  13 205.692 137.319   1
  11   0  14 12.1375 106.121   1
 -11  -1  14 62.1923 84.9944   6
 -11  -1  13 147.059 115.744   6
  11   1 -13 277.618 156.823   4
 -11  -1  12 56.8061 73.1911   6
  11   1 -12 18.2096 89.6036   4
 -11  -1  11-31.6093 73.3788   6
  11   1 -11 39.2846 107.282   4
 -11  -1  10 230.363 135.967   6
  11   1 -10 309.774 171.940   4
 -11  -1   9 242.047 134.746   6
  11   1  -9 153.993 119.638   4
 -11  -1   8 750.815 195.770   6
  11   1  -8 640.362 191.544   4
 -11  -1   7 699.006 184.055   6
  11   1  -7 679.585 202.087   4
  11   1  -6 174.386 126.501   4
  11   1  -6 47.5018 66.0455   2
 -11  -1   6-89.8279 92.1455   6
  11   1  -5 124.177 115.515   4
  11   1  -5 144.193 95.9432   2
  11   1  -4 95.6723 95.0697   4
  11   1  -4 297.258 127.707   2
  11   1  -3 248.602 97.0217   1
  11   1  -3 231.752 140.055   4
  11   1  -3 285.904 110.125   2
  11   1  -2 6398.01 580.068   4
  11   1  -2 5510.98 509.604   2
  11   1  -2 6495.52 470.068   1
  11   1  -1 1988.07 272.368   1
  11   1  -1 2481.83 361.439   4
  11   1  -1 2102.62 317.598   2
  11   1   0-100.147 76.8935   1
  11   1   0-229.922 138.908   4
  11   1   1 1152.17 217.751   1
  11   1   1 1217.17 244.328   4
  11   1   2 2523.84 349.678   4
  11   1   2 2872.36 342.402   1
  11   1   3 700.408 179.493   1
  11   1   3 711.420 194.255   4
  11   1   4 542.679 162.947   1
  11   1   4 485.332 146.566   4
  11   1   5 180.501 121.776   1
  11   1   5 95.8019 87.1841   4
  11   1   6 1249.75 248.181   1
  11   1   6 964.464 204.035   4
  11   1   7 178.005 115.661   1
  11   1   7 214.279 117.916   4
  11   1   8 1765.86 300.418   1
  11   1   8 1898.69 271.333   4
  11   1   9 1011.66 239.691   1
  11   1   9 807.863 172.430   4
  11   1  10-6.61138 72.4084   1
  11   1  11 767.920 214.194   1
  11   1  12 297.440 154.409   1
  11   1  13 238.481 132.998   1
  11   1  14 253.913 147.736   1
 -11  -2  13 292.973 160.027   6
 -11  -2  12 464.455 192.562   6
  11   2 -12 201.919 122.245   4
 -11  -2  11-12.4581 86.9690   6
  11   2 -11-139.858 122.012   4
 -11  -2  10 592.978 201.616   6
  11   2 -10 178.398 147.270   4
  11   2  -9 2363.84 390.644   4
 -11  -2   9 3065.76 405.776   6
  11   2  -8 1783.74 334.596   4
 -11  -2   8 2732.02 377.442   6
 -11  -2   7 494.043 176.396   6
  11   2  -7 474.479 149.899   2
  11   2  -7 716.957 223.520   4
 -11  -2   6 57.6433 60.5746   6
  11   2  -6-16.9514 55.7002   2
  11   2  -5 112.462 146.714   4
  11   2  -5 142.310 85.9945   2
  11   2  -4 42.1247 100.001   4
  11   2  -4-61.0150 81.6811   2
  11   2  -3 1137.61 260.564   4
  11   2  -3 1024.28 242.046   2
  11   2  -2 26.5627 96.5522   4
  11   2  -2-57.8207 94.5294   2
  11   2  -1 111.737 78.8195   1
  11   2  -1 166.568 109.295   4
  11   2  -1 61.1728 69.1540   2
  11   2   0 21.6261 55.2170   1
  11   2   0 70.3198 94.1070   4
  11   2   1 132.087 81.3747   1
  11   2   1 213.769 100.404   4
  11   2   2 235.807 109.261   1
  11   2   2 200.580 122.131   4
  11   2   3 1284.24 228.664   1
  11   2   3 929.628 211.528   4
  11   2   4 93.6109 80.5111   1
  11   2   4 187.184 108.747   4
  11   2   5 20.3336 78.3834   1
  11   2   5 12.2454 58.0525   4
  11   2   6 1729.72 277.086   1
  11   2   6 1521.61 253.294   4
  11   2   7 730.335 183.443   1
  11   2   7 511.795 151.841   4
  11   2   8-27.7426 77.0530   1
  11   2   9 208.551 117.503   1
  11   2  10 1201.17 254.474   1
  11   2  11 681.121 194.479   1
  11   2  12-15.7214 66.2116   1
  11   2  13 183.842 103.949   1
  11   2  14 196.233 121.237   1
  11   2  15 61.5096 92.8886   1
 -11  -3  13 26.9897 79.7455   6
 -11  -3  12-151.409 113.207   6
 -11  -3  11-41.8498 66.0862   6
  11   3 -11-17.4979 81.9168   4
 -11  -3  10-48.6255 79.6964   6
  11   3 -10-73.3400 121.492   4
 -11  -3   9 45.8879 94.8134   6
  11   3  -9 162.836 135.677   4
 -11  -3   8-14.5088 96.4907   6
  11   3  -8 190.476 136.169   4
 -11  -3   7 888.970 206.249   6
  11   3  -7 705.103 185.330   2
  11   3  -7 938.969 247.148   4
 -11  -3   6 38.5241 73.9743   6
  11   3  -6-7.93850 53.1304   2
  11   3  -6-0.19609 69.9092   4
  11   3  -5 618.572 203.006   4
  11   3  -5 518.537 162.728   2
  11   3  -4 570.461 189.982   4
  11   3  -4 375.266 159.050   2
  11   3  -3 102.575 70.1478   4
  11   3  -3-42.6740 81.0553   2
  11   3  -2 335.807 140.734   4
  11   3  -2 608.581 182.378   2
  11   3  -1 6.01089 95.1980   4
  11   3  -1 29.5464 39.5694   1
  11   3  -1-34.2173 72.4755   2
  11   3   0 112.251 101.912   4
  11   3   0 115.645 81.1557   1
  11   3   0-43.3766 88.8921   2
  11   3   1 180.509 113.835   4
  11   3   1 33.5657 66.4375   1
  11   3   2 111.406 118.942   4
  11   3   2-30.4890 71.9779   1
  11   3   3 722.700 196.226   4
  11   3   3 493.475 137.156   1
  11   3   4-55.5431 79.8447   4
  11   3   4 81.5112 97.0303   1
  11   3   5 372.415 128.406   4
  11   3   5 206.384 106.200   1
  11   3   6 369.610 134.386   1
  11   3   7 441.279 143.676   1
  11   3   8 85.9921 91.4580   1
  11   3   9 148.079 117.215   1
  11   3  10-37.2509 76.3323   1
  11   3  11-30.7943 67.8709   1
  11   3  12 509.414 166.342   1
  11   3  13 52.1841 106.871   1
  11   3  14 242.493 162.415   1
  11   3  15 494.790 171.136   1
 -11  -4  12-92.6168 100.254   6
 -11  -4  11 751.940 222.891   6
 -11  -4  10 164.262 134.081   6
  11   4 -10 282.465 150.419   4
 -11  -4   9 275.571 128.537   6
  11   4  -9 733.205 224.838   4
 -11  -4   8 7.67169 91.3585   6
  11   4  -8 81.1788 105.269   4
 -11  -4   7 198.410 96.1294   6
  11   4  -7 297.365 123.772   2
  11   4  -7 183.429 133.973   4
 -11  -4   6 111.554 94.7713   6
  11   4  -6 341.432 133.497   2
  11   4  -6 439.365 182.364   4
  11   4  -5 989.082 248.678   2
  11   4  -5 1651.20 323.606   4
  11   4  -4 882.333 234.520   4
  11   4  -4 495.761 172.702   2
  11   4  -3 221.825 142.433   4
  11   4  -3 66.5389 98.3805   2
  11   4  -2 147.728 117.403   4
  11   4  -2 30.2552 78.8569   2
  11   4  -1 340.962 141.477   4
  11   4  -1 231.934 119.364   2
  11   4   0 485.198 120.755   1
  11   4   0 702.481 197.777   4
  11   4   0 234.118 117.151   2
  11   4   1 317.817 107.259   1
  11   4   1 549.456 173.862   4
  11   4   1 55.5059 105.301   2
  11   4   2-84.2568 81.7492   1
  11   4   2 57.0457 84.2290   4
  11   4   3 60.5138 56.1982   1
  11   4   4 10.1517 79.5161   1
  11   4   5 201.535 110.777   1
  11   4   6 106.875 89.4104   1
  11   4   7 668.189 179.695   1
  11   4   8 417.131 154.584   1
  11   4   9 1614.74 273.217   1
  11   4  10 342.613 146.524   1
  11   4  11 290.093 134.443   1
  11   4  12 178.616 87.6114   1
  11   4  13 194.912 143.711   1
  11   4  14 20.1686 102.065   1
 -11  -5  12 616.024 216.353   6
 -11  -5  11 376.140 171.002   6
 -11  -5  10 320.816 158.265   6
 -11  -5   9-14.6700 57.1051   6
 -11  -5   8 399.167 211.590   6
 -11  -5   7 61.3836 76.9840   6
 -11  -5   6 641.266 186.443   6
  11   5  -6 748.420 211.094   2
  11   5  -5 76.1756 108.701   2
  11   5  -4 1327.83 295.737   2
  11   5  -3 0.20025 84.5289   2
  11   5  -2 1171.10 283.557   2
  11   5  -1 1117.74 270.654   2
  11   5   0-96.5123 149.885   2
  11   5   1 1995.85 246.941   1
  11   5   1 2356.48 397.142   2
  11   5   2 1621.75 228.271   1
  11   5   2 1878.37 358.515   2
  11   5   3-43.3786 65.3419   1
  11   5   4 2098.94 274.953   1
  11   5   5 579.393 153.273   1
  11   5   6-25.8342 59.3838   1
  11   5   7 68.8352 72.5034   1
  11   5   8 1080.96 221.494   1
  11   5   9 1018.15 220.263   1
  11   5  10 25.6651 99.7586   1
  11   5  11 821.861 206.945   1
  11   5  12 123.119 76.3787   1
  11   5  13 30.4418 110.491   1
  11   5  14-8.14755 93.6602   1
 -11  -6  11 39.9363 56.5754   6
 -11  -6  10 637.991 214.696   6
 -11  -6   9 37.4797 77.5860   6
 -11  -6   8 44.1204 76.9749   6
 -11  -6   7 318.731 143.743   6
  11   6  -6 408.346 168.396   2
  11   6  -5 292.417 142.105   2
  11   6  -4-93.3474 115.472   2
  11   6  -3 785.349 230.290   2
  11   6  -2-126.338 130.590   2
  11   6  -1 41.6643 95.9600   2
  11   6   0 1913.33 367.417   2
  11   6   1 693.567 229.954   2
  11   6   2 1353.43 309.751   2
  11   6   2 1576.84 223.354   1
  11   6   3 3396.09 336.253   1
  11   6   3 4129.74 550.052   2
  11   6   4 1582.12 242.324   1
  11   6   5 203.147 110.869   1
  11   6   6 28.4773 65.2697   1
  11   6   7 58.9942 71.9181   1
  11   6   8 209.762 108.038   1
  11   6   9 400.582 145.089   1
  11   6  10 197.371 125.880   1
  11   6  11 411.518 160.131   1
  11   6  12-22.7878 76.3528   1
  11   6  13 249.295 134.599   1
  11   6  14-226.742 118.669   1
 -11  -7   9 110.359 110.043   6
 -11  -7   8 1082.95 265.802   6
  11   7  -6 867.187 241.304   2
  11   7  -5 84.5093 100.211   2
  11   7  -4 88.2989 118.873   2
  11   7  -3 177.789 114.694   2
  11   7  -2 279.032 154.078   2
  11   7  -1 260.610 137.856   2
  11   7   0 767.471 237.983   2
  11   7   1 216.480 126.638   2
  11   7   2 50.9112 83.3740   2
  11   7   3 18.8412 50.4227   1
  11   7   3 136.580 136.305   2
  11   7   4 551.166 145.393   1
  11   7   4 800.793 266.638   2
  11   7   5 154.581 96.3049   1
  11   7   6 176.842 98.2200   1
  11   7   7 40.3389 71.3287   1
  11   7   8 361.609 141.392   1
  11   7   9 1623.92 268.513   1
  11   7  10 413.121 151.143   1
  11   7  11 630.263 189.978   1
  11   7  12 1017.64 234.805   1
  11   7  13 1767.27 308.448   1
  11   8  -5 1004.83 270.396   2
  11   8  -4-15.6706 117.487   2
  11   8  -3-73.3612 120.799   2
  11   8  -2 1837.30 367.468   2
  11   8  -1 1959.72 385.503   2
  11   8   0 772.991 253.203   2
  11   8   1-71.4667 109.121   2
  11   8   2-80.0053 121.667   2
  11   8   3-74.8858 123.039   2
  11   8   4 939.016 196.371   1
  11   8   4 733.845 260.512   2
  11   8   5 1404.55 236.525   1
  11   8   5 874.581 293.892   2
  11   8   6 669.211 175.543   1
  11   8   7 514.869 153.232   1
  11   8   8-13.8105 63.2760   1
  11   8   9 207.307 133.485   1
  11   8  10-96.7722 88.3392   1
  11   8  11 904.518 215.343   1
  11   8  12 1254.47 261.703   1
  11   9  -2 95.5958 112.243   2
  11   9  -1 204.776 160.040   2
  11   9   0 917.543 273.000   2
  11   9   1 819.963 277.500   2
  11   9   2-41.3218 115.931   2
  11   9   3 321.245 182.528   2
  11   9   4-291.427 179.226   2
  11   9   5 133.420 88.2520   1
  11   9   5 312.190 176.856   2
  11   9   6 270.395 107.869   1
  11   9   6 47.3322 105.763   2
  11   9   7-115.397 104.288   1
  11   9   8 256.585 121.618   1
  11   9   9 1275.40 251.816   1
  11   9  10 3609.33 423.862   1
  11   9  11 1743.59 304.725   1
  11  10   6 118.307 105.239   1
  11  10   7-137.403 91.1137   1
  11  10   8 11.6003 57.7090   1
  11  10   9 1951.94 314.508   1
  11  10  10 457.247 184.709   1
  11  11   7 341.509 141.307   1
  11  11   8 121.272 106.903   1
  11  11   9 160.204 120.567   1
  12  -7 -10-41.8333 105.750   3
  12  -6 -11-17.9309 96.3991   3
  12  -6 -10 100.673 134.653   3
  12  -6   5-125.934 142.427   1
  12  -5 -12 1961.80 423.579   3
  12  -5 -11 654.809 230.219   3
  12  -5   4 31.6801 92.8176   1
  12  -5   5-150.821 136.751   1
  12  -5   6-104.361 94.9025   1
  12  -5   7 19.0213 92.6448   1
 -12   4  12 371.593 188.500   6
  12  -4   1 21.6252 76.8842   1
  12  -4   2 1139.85 241.604   1
  12  -4   3 191.522 124.863   1
  12  -4   4 376.551 150.311   1
  12  -4   5-128.599 136.557   1
  12  -4   6 259.469 128.207   1
  12  -4   7-4.43351 77.4846   1
  12  -4   8 30.0801 99.9586   1
 -12   3  12-368.722 177.571   6
  12  -3  -3 169.927 101.219   1
  12  -3  -2-74.5392 96.5052   1
  12  -3  -1 42.4547 55.2012   1
  12  -3   0-175.992 127.754   1
  12  -3   1-22.2099 69.2309   1
  12  -3   2-159.753 126.002   1
  12  -3   3 358.011 149.623   1
  12  -3   4 911.344 227.087   1
  12  -3   5 846.257 226.494   1
  12  -3   6 1295.38 243.593   4
  12  -3   6 1313.43 277.395   1
  12  -3   7 568.506 202.807   1
  12  -3   8-102.774 81.1460   1
  12  -3   9-76.8503 145.294   1
  12  -3  10-28.2670 102.332   1
 -12   2  13 250.549 134.852   6
 -12   2  12-45.8169 96.7190   6
  12  -2 -10 938.697 273.280   4
  12  -2  -9 151.386 131.100   4
  12  -2  -4 2475.99 327.181   1
  12  -2  -3 77.0513 73.4988   1
  12  -2  -2 669.808 187.105   1
  12  -2  -1 455.359 147.946   1
  12  -2   0 9.33760 79.5916   1
  12  -2   1 513.692 162.169   1
  12  -2   2 95.4701 83.3728   4
  12  -2   2 90.6515 62.9666   1
  12  -2   3-133.743 106.606   4
  12  -2   3-51.5754 102.413   1
  12  -2   4 542.545 169.912   4
  12  -2   4 430.198 144.740   1
  12  -2   5 1158.39 251.309   1
  12  -2   5 911.475 207.009   4
  12  -2   6-67.2540 80.8843   1
  12  -2   6-66.8882 94.1031   4
  12  -2   7 3156.09 422.477   1
  12  -2   7 2231.66 314.095   4
  12  -2   8 2382.55 369.277   1
  12  -2   9 584.232 215.713   1
  12  -2  10-155.064 135.856   1
  12  -2  11 144.157 100.732   1
 -12   1  13 571.594 201.630   6
 -12   1  12 1379.29 320.768   6
  12  -1 -10 136.117 137.481   4
  12  -1  -9 790.883 246.155   4
  12  -1  -8 1466.78 336.624   4
  12  -1  -7 116.282 93.1535   4
  12  -1  -6 114.145 120.679   4
  12  -1  -5 97.2571 121.809   4
  12  -1  -4-317.209 157.758   4
  12  -1  -3 536.961 150.693   1
  12  -1  -3 12.6566 100.281   4
  12  -1  -2 64.5247 68.8326   1
  12  -1  -2-1.18252 115.730   4
  12  -1  -1 450.245 154.509   1
  12  -1  -1 51.5689 71.3540   4
  12  -1   0 410.705 141.288   1
  12  -1   0 424.835 172.957   4
  12  -1   1-4.98703 62.9083   1
  12  -1   1 298.786 122.072   4
  12  -1   2-22.1186 95.8764   1
  12  -1   2 218.363 123.690   4
  12  -1   3 1178.24 244.864   1
  12  -1   3 1336.60 261.968   4
  12  -1   4 369.257 160.201   1
  12  -1   4 255.521 128.450   4
  12  -1   5 71.0914 73.1679   4
  12  -1   5-71.0921 110.439   1
  12  -1   6 559.873 160.295   4
  12  -1   6 895.970 224.099   1
  12  -1   7 1618.03 268.464   4
  12  -1   7 1905.01 323.996   1
  12  -1   8-15.7448 78.0742   1
  12  -1   9-37.2250 122.193   1
  12  -1  10 191.624 145.834   1
  12  -1  11 417.388 197.448   1
 -12   0  12-66.2083 111.654   6
  12   0 -10 1065.29 288.541   4
  12   0  -9 820.793 247.857   4
  12   0  -8 96.9667 90.5453   4
  12   0  -7 397.334 186.305   4
  12   0  -6 1044.57 276.741   4
  12   0  -5 750.831 228.092   4
  12   0  -4 242.868 127.821   4
  12   0  -3 238.436 179.190   4
  12   0  -3 116.861 49.6742   1
  12   0  -2 266.320 154.679   4
  12   0  -2 50.7753 56.2005   1
  12   0  -1-45.8423 89.6140   4
  12   0  -1 35.6753 72.9947   1
  12   0  -1 26.9094 63.7842   2
  12   0   0 1041.31 247.025   4
  12   0   0 1186.20 233.112   1
  12   0   1 829.183 213.123   4
  12   0   1 686.047 176.558   1
  12   0   2 326.665 154.671   4
  12   0   2 456.247 159.117   1
  12   0   3 146.680 93.0234   4
  12   0   3 361.461 167.200   1
  12   0   4 976.495 218.707   4
  12   0   4 1229.76 244.696   1
  12   0   5 53.2764 96.7057   4
  12   0   5-60.2846 82.6906   1
  12   0   6 526.734 186.715   1
  12   0   6 333.442 140.247   4
  12   0   7-150.599 135.365   1
  12   0   7 19.0873 49.4381   4
  12   0   8 275.028 143.993   1
  12   0   8 135.828 91.0312   4
  12   0   9 383.200 152.883   1
  12   0  10 738.367 216.843   1
  12   0  11 29.8189 119.940   1
  12   0  12-109.400 109.450   1
 -12  -1  12-13.8695 87.5361   6
  12   1  -9-13.0268 96.1539   4
  12   1  -8 211.461 156.959   4
  12   1  -7 1247.60 296.484   4
  12   1  -6 1090.35 270.863   4
  12   1  -5 416.432 173.917   4
  12   1  -4 273.366 147.341   4
  12   1  -3-10.7955 92.5455   4
  12   1  -3 26.3148 56.1424   2
  12   1  -2 56.2382 72.0207   1
  12   1  -2 183.520 133.671   4
  12   1  -2-74.2112 85.5576   2
  12   1  -1 477.345 154.979   1
  12   1  -1 196.627 135.850   4
  12   1  -1 304.361 136.567   2
  12   1   0 100.855 75.5719   1
  12   1   0 365.749 152.147   4
  12   1   1 202.723 105.417   1
  12   1   1 346.589 134.055   4
  12   1   2 3694.90 435.897   4
  12   1   2 4275.28 436.874   1
  12   1   3 2811.60 377.217   4
  12   1   3 2830.57 365.224   1
  12   1   4 944.692 223.211   1
  12   1   4 529.539 165.961   4
  12   1   5 38.6481 60.2072   1
  12   1   5 166.977 98.0050   4
  12   1   6 1708.70 298.413   1
  12   1   6 1359.30 248.989   4
  12   1   7 224.874 143.466   1
  12   1   7-12.8155 75.7465   4
  12   1   8-112.224 132.928   1
  12   1   8-65.2883 88.8512   4
  12   1   9 502.813 187.066   1
  12   1  10 501.770 192.627   1
  12   1  11 90.3873 107.496   1
  12   1  12-5.98804 124.852   1
  12   2  -9 242.459 136.225   4
  12   2  -8 723.272 238.492   4
  12   2  -7 781.441 238.772   4
  12   2  -6 431.732 158.268   4
  12   2  -5 3711.05 424.639   2
  12   2  -5 3763.61 492.599   4
  12   2  -4 3739.39 439.166   2
  12   2  -4 4336.86 520.195   4
  12   2  -3 1668.34 324.960   4
  12   2  -3 1695.44 300.479   2
  12   2  -2-20.7332 78.8400   4
  12   2  -2-25.9909 82.4408   2
  12   2  -1 121.477 113.457   4
  12   2  -1 120.871 101.763   2
  12   2  -1 231.981 92.4956   1
  12   2   0 497.355 145.008   1
  12   2   0 560.753 183.471   4
  12   2   0 351.236 145.594   2
  12   2   1 320.914 130.651   1
  12   2   1 324.253 147.597   4
  12   2   2 296.728 118.263   1
  12   2   2 277.773 141.201   4
  12   2   3 159.959 100.456   1
  12   2   3-14.3648 67.5723   4
  12   2   4 38.9954 70.7729   1
  12   2   4 283.684 125.601   4
  12   2   5 238.859 106.983   1
  12   2   5 360.239 139.609   4
  12   2   6 1862.15 305.455   1
  12   2   6 1840.69 293.745   4
  12   2   7-25.1754 74.0123   4
  12   2   7-38.0794 98.1444   1
  12   2   8 46.3031 81.5442   1
  12   2   9 40.7171 72.6225   1
  12   2  10-28.0969 94.4160   1
  12   2  11-28.7156 87.0358   1
  12   2  12-7.47923 97.5636   1
  12   3  -8-5.00777 105.795   4
  12   3  -7 64.3346 79.8986   4
  12   3  -6 428.742 151.204   2
  12   3  -6 757.483 244.114   4
  12   3  -5 389.554 185.944   4
  12   3  -5 183.186 105.313   2
  12   3  -4 1923.66 335.541   4
  12   3  -4 2030.79 340.155   2
  12   3  -3 3084.20 433.623   4
  12   3  -3 2758.99 404.848   2
  12   3  -2 2624.11 394.729   4
  12   3  -2 3123.65 426.774   2
  12   3  -1 318.750 173.429   4
  12   3  -1-98.9956 132.551   2
  12   3   0 536.380 195.259   4
  12   3   0 333.390 119.420   1
  12   3   0 334.700 152.545   2
  12   3   1 1090.19 251.914   4
  12   3   1 555.758 150.913   1
  12   3   2 206.957 128.358   4
  12   3   2 273.571 110.480   1
  12   3   3 381.110 146.964   4
  12   3   3 205.267 89.9672   1
  12   3   4 1428.77 274.924   4
  12   3   4 1399.64 244.911   1
  12   3   5 709.352 189.546   4
  12   3   5 838.610 199.647   1
  12   3   6 971.898 216.266   1
  12   3   7 573.541 183.260   1
  12   3   8 2575.20 358.365   1
  12   3   9 379.185 147.942   1
  12   3  10 332.334 147.695   1
  12   3  11 255.737 139.364   1
  12   3  12 40.3593 85.8415   1
  12   4  -7 359.296 152.374   2
  12   4  -7 302.640 163.961   4
  12   4  -6 218.861 133.365   2
  12   4  -6 124.276 100.567   4
  12   4  -5 709.744 206.687   2
  12   4  -5 1008.57 252.764   4
  12   4  -4 2015.78 354.566   4
  12   4  -4 2149.74 358.091   2
  12   4  -3 650.212 204.417   4
  12   4  -3 338.205 174.714   2
  12   4  -2 426.460 180.462   4
  12   4  -2 57.9580 69.2988   2
  12   4  -1 92.1360 115.186   4
  12   4  -1 107.482 123.845   2
  12   4   0 1686.22 307.513   4
  12   4   0 1958.29 367.541   2
  12   4   1 772.453 170.162   1
  12   4   1 1054.34 255.281   4
  12   4   1 449.761 193.461   2
  12   4   2-5.82137 83.5111   1
  12   4   3 213.419 100.885   1
  12   4   4-3.09856 71.3886   1
  12   4   5 122.020 79.6703   1
  12   4   6 225.708 117.260   1
  12   4   7 369.908 143.989   1
  12   4   8 81.7325 98.0559   1
  12   4   9 406.467 163.548   1
  12   4  10 1128.83 243.213   1
  12   4  11 238.080 143.524   1
  12   4  12 928.505 235.130   1
  12   5  -6 87.0298 91.3219   2
  12   5  -5 1594.97 318.249   2
  12   5  -4 790.780 232.580   2
  12   5  -3-14.7123 78.1716   2
  12   5  -2 330.071 166.199   2
  12   5  -1 525.236 199.123   2
  12   5   0 1258.22 299.713   2
  12   5   1 694.210 235.653   2
  12   5   2 3938.96 372.005   1
  12   5   2 4015.38 545.156   2
  12   5   3 2317.49 293.562   1
  12   5   4 1035.56 205.421   1
  12   5   5-68.6205 92.2239   1
  12   5   6 408.306 139.189   1
  12   5   7 110.747 94.6442   1
  12   5   8-31.3556 64.8438   1
  12   5   9 145.919 103.946   1
  12   5  10 228.803 120.168   1
  12   5  11-74.1250 71.2214   1
  12   5  12 562.734 179.801   1
  12   6  -6 2391.08 394.840   2
  12   6  -5 1718.68 341.812   2
  12   6  -4-118.192 112.965   2
  12   6  -3 54.6263 75.5696   2
  12   6  -2 218.900 123.150   2
  12   6  -1-33.2497 79.7289   2
  12   6   0-10.2774 95.1845   2
  12   6   1 752.987 260.543   2
  12   6   2 112.955 109.732   2
  12   6   3 910.088 273.867   2
  12   6   3 948.091 192.893   1
  12   6   4 1596.93 255.791   1
  12   6   5 1693.00 260.258   1
  12   6   6 437.738 152.905   1
  12   6   7 320.302 124.413   1
  12   6   8 196.457 107.310   1
  12   6   9 213.686 119.815   1
  12   6  10 298.987 143.500   1
  12   6  11 151.174 111.171   1
  12   6  12 421.309 151.270   1
  12   7  -6 158.377 118.889   2
  12   7  -5-40.5117 106.509   2
  12   7  -4 492.231 188.560   2
  12   7  -3 839.513 245.146   2
  12   7  -2 922.740 263.945   2
  12   7  -1 223.107 145.767   2
  12   7   0-78.6630 147.842   2
  12   7   1-73.0920 130.576   2
  12   7   2 446.496 191.028   2
  12   7   3-84.2924 96.2184   2
  12   7   4 98.6070 77.8691   1
  12   7   4 14.2457 106.128   2
  12   7   5 25.8965 75.5388   1
  12   7   6-20.3592 76.1762   1
  12   7   7 1048.47 217.084   1
  12   7   8-10.1048 82.7373   1
  12   7   9-194.488 144.902   1
  12   7  10 93.6109 83.1156   1
  12   7  11 66.0118 88.3793   1
  12   8  -1 1704.65 370.310   2
  12   8   0 1003.60 290.519   2
  12   8   1 127.286 140.478   2
  12   8   2 118.976 134.605   2
  12   8   3 100.936 151.416   2
  12   8   4 201.230 150.065   2
  12   8   5 840.343 191.591   1
  12   8   5 583.928 258.704   2
  12   8   6 291.529 119.540   1
  12   8   7 926.711 202.420   1
  12   8   8 346.778 135.450   1
  12   8   9 648.809 184.936   1
  12   8  10 160.134 118.702   1
  12   9   7 46.9078 79.2516   1
  12   9   8 435.466 158.570   1
  12   9   9 231.285 112.604   1
  13  -5   1 267.533 133.140   1
  13  -5   2 575.760 195.132   1
  13  -5   3 1391.63 285.090   1
  13  -4  -3-110.768 105.017   1
  13  -4  -2 45.6245 65.3202   1
  13  -4  -1-110.803 113.130   1
  13  -4   0 146.871 100.729   1
  13  -4   1 310.634 146.187   1
  13  -4   2 147.501 118.799   1
  13  -4   3 638.670 201.956   1
  13  -4   4 1308.75 285.972   1
  13  -4   5 1588.44 310.444   1
  13  -3  -4 31.0171 62.3710   1
  13  -3  -3 414.164 150.307   1
  13  -3  -2 373.700 146.342   1
  13  -3  -1 75.1929 99.6666   1
  13  -3   0-20.4127 59.7642   1
  13  -3   1-170.929 120.220   1
  13  -3   2 46.8417 81.1108   1
  13  -3   3 184.537 127.456   4
  13  -3   3-6.80926 76.2285   1
  13  -3   4 442.273 152.402   4
  13  -3   4 842.559 226.484   1
  13  -3   5 369.586 168.242   1
  13  -3   5 57.8201 88.9017   4
  13  -3   6 405.046 170.607   1
  13  -2  -6-8.47623 138.390   4
  13  -2  -5-74.5039 101.710   4
  13  -2  -4 1511.46 324.393   4
  13  -2  -3 3211.64 393.579   1
  13  -2  -3 3111.89 457.243   4
  13  -2  -2 388.233 173.343   4
  13  -2  -2 443.694 148.909   1
  13  -2  -1 197.315 114.211   4
  13  -2  -1 162.081 104.600   1
  13  -2   0-47.7907 99.9313   4
  13  -2   0 276.337 140.917   1
  13  -2   1 8.29289 59.5690   1
  13  -2   1 11.8722 80.9292   4
  13  -2   2 166.737 105.372   1
  13  -2   2 323.876 130.243   4
  13  -2   3 50.9827 102.356   1
  13  -2   3 248.569 118.713   4
  13  -2   4-165.738 133.172   1
  13  -2   4-15.8840 64.3573   4
  13  -2   5-31.8609 105.366   1
  13  -2   5 14.2763 63.7872   4
  13  -2   6 2322.72 341.928   4
  13  -2   6 2416.77 380.984   1
  13  -2   7 1638.53 314.206   1
  13  -2   8 204.669 106.612   1
  13  -1  -6 122.631 105.316   4
  13  -1  -5 207.085 108.438   4
  13  -1  -4 275.326 158.301   4
  13  -1  -3-509.389 199.122   4
  13  -1  -2 783.240 199.212   1
  13  -1  -2 1044.32 255.685   4
  13  -1  -1 1108.27 235.491   1
  13  -1  -1 870.637 236.650   4
  13  -1   0 85.3888 98.2036   1
  13  -1   0 316.802 151.344   4
  13  -1   1 202.825 124.793   4
  13  -1   1 150.124 103.000   1
  13  -1   2 600.595 192.290   4
  13  -1   2 333.470 151.609   1
  13  -1   3 962.428 236.004   4
  13  -1   3 613.109 185.187   1
  13  -1   4 207.163 116.339   4
  13  -1   4 615.816 203.598   1
  13  -1   5-116.870 94.8933   4
  13  -1   5 77.1069 63.9844   1
  13  -1   6 692.970 189.029   4
  13  -1   6 565.741 176.216   1
  13  -1   7-90.3362 70.6041   1
  13  -1   8 566.028 198.576   1
  13   0  -6 540.100 197.929   4
  13   0  -5 639.745 234.348   4
  13   0  -4 526.019 204.640   4
  13   0  -3 1088.53 273.163   4
  13   0  -2 357.148 166.368   4
  13   0  -1-6.07882 93.0841   4
  13   0  -1 72.8746 68.3084   1
  13   0   0 210.303 129.418   4
  13   0   0 334.511 150.585   1
  13   0   1 1441.45 294.628   4
  13   0   1 989.414 223.752   1
  13   0   2 381.217 151.469   4
  13   0   2 725.195 201.592   1
  13   0   3 538.083 185.469   1
  13   0   3 283.614 128.272   4
  13   0   4 805.356 212.469   1
  13   0   4 740.924 203.958   4
  13   0   5 2480.82 371.089   1
  13   0   5 2692.20 376.364   4
  13   0   6 461.871 166.621   1
  13   0   6 451.649 157.189   4
  13   0   7 703.778 204.786   1
  13   0   7 496.860 163.126   4
  13   0   8-111.958 127.958   1
  13   0   9-40.8804 79.7118   1
  13   1  -5 164.540 150.640   4
  13   1  -4-139.216 125.062   4
  13   1  -3 1523.29 320.998   4
  13   1  -2 315.662 158.132   4
  13   1  -1-118.492 100.943   4
  13   1   0-91.0854 86.3967   1
  13   1   0 0.40768 96.1898   4
  13   1   0 11.0331 71.0945   2
  13   1   1 116.195 85.0347   1
  13   1   1-15.6366 72.2050   4
  13   1   2 152.417 118.323   1
  13   1   2 19.9929 71.4377   4
  13   1   3 955.653 223.466   1
  13   1   3 434.967 163.017   4
  13   1   4 1096.03 246.369   1
  13   1   4 1048.76 245.659   4
  13   1   5 368.771 143.334   1
  13   1   5 212.312 128.412   4
  13   1   6 1120.48 255.141   1
  13   1   6 1081.67 241.885   4
  13   1   7 1857.37 333.342   1
  13   1   7 1302.87 255.831   4
  13   1   8 385.945 149.709   1
  13   1   9-167.861 142.390   1
  13   1  10 49.6276 90.1067   1
  13   2  -4 2010.46 373.835   4
  13   2  -3 915.170 252.619   4
  13   2  -2 136.960 137.229   4
  13   2  -2 14.0918 62.4602   2
  13   2  -1 1511.62 316.654   4
  13   2  -1 1226.72 271.757   2
  13   2   0 1495.35 306.461   4
  13   2   0 760.706 223.436   2
  13   2   1 67.3388 109.232   4
  13   2   1 220.016 106.717   1
  13   2   2 214.471 153.038   4
  13   2   2 17.5774 55.7968   1
  13   2   3 71.0781 64.1890   4
  13   2   3 41.7898 78.5355   1
  13   2   4 116.468 96.8137   4
  13   2   4 76.4528 93.3804   1
  13   2   5 400.848 157.294   4
  13   2   5 333.019 143.836   1
  13   2   6 969.771 227.926   4
  13   2   6 1418.10 278.772   1
  13   2   7 326.881 146.909   4
  13   2   7 390.357 138.419   1
  13   2   8 446.970 183.536   1
  13   2   9 947.821 243.897   1
  13   2  10 484.974 182.237   1
  13   3  -3 346.983 149.205   4
  13   3  -3 418.845 171.707   2
  13   3  -2 1537.31 321.380   4
  13   3  -2 1488.97 308.025   2
  13   3  -1 1952.80 354.491   4
  13   3  -1 1556.77 318.319   2
  13   3   0 50.4788 87.4938   4
  13   3   0 77.4054 114.680   2
  13   3   1 809.131 224.622   4
  13   3   1 762.431 232.472   2
  13   3   2 208.832 129.686   4
  13   3   2 253.940 117.786   1
  13   3   3 283.811 149.926   4
  13   3   3-77.8101 88.2933   1
  13   3   4 391.288 165.397   4
  13   3   4 546.947 170.414   1
  13   3   5 187.065 106.301   1
  13   3   6 76.7180 79.6532   1
  13   3   7 339.991 151.416   1
  13   3   8 718.497 193.770   1
  13   3   9 744.594 214.664   1
  13   3  10 330.071 153.842   1
  13   4  -4 37.3922 91.9143   2
  13   4  -3 593.472 202.672   2
  13   4  -2 762.226 232.718   4
  13   4  -2 675.129 227.683   2
  13   4  -1 167.163 120.865   4
  13   4  -1 461.594 186.407   2
  13   4   0 973.972 251.199   4
  13   4   0 758.224 236.775   2
  13   4   1 1151.83 305.222   2
  13   4   2 26.9724 99.0319   2
  13   4   3-29.2028 75.1828   1
  13   4   4 72.7723 105.209   1
  13   4   5 95.4495 76.0987   1
  13   4   6 208.429 107.380   1
  13   4   7-26.4093 69.4269   1
  13   4   8 279.980 132.667   1
  13   4   9 31.6853 76.0363   1
  13   4  10 353.317 151.116   1
  13   5  -5 271.329 154.324   2
  13   5  -4 1132.04 309.921   2
  13   5  -3 81.7529 116.126   2
  13   5  -2 48.7269 77.0664   2
  13   5  -1 328.918 173.297   2
  13   5   0 855.104 261.825   2
  13   5   1 232.017 162.953   2
  13   5   2 97.9060 124.176   2
  13   5   3 450.313 211.377   2
  13   5   4 571.312 165.767   1
  13   5   5 138.492 99.2235   1
  13   5   6 505.929 160.833   1
  13   5   7 225.281 128.951   1
  13   5   8 110.310 102.553   1
  13   5   9 56.8679 91.8214   1
  13   5  10-69.9029 67.3728   1
  13   6  -5-105.831 114.672   2
  13   6  -4 707.716 234.382   2
  13   6  -3 1497.77 340.644   2
  13   6  -2 296.361 170.169   2
  13   6  -1 371.896 189.240   2
  13   6   0 3.17114 72.8428   2
  13   6   1-12.1723 123.987   2
  13   6   2-41.5757 146.854   2
  13   6   3-188.548 174.938   2
  13   6   4 50.6531 89.5152   2
  13   6   5 154.825 99.8603   1
  13   6   6 1520.45 269.039   1
  13   6   7-0.16028 71.6389   1
  13   6   8 324.540 137.265   1
  13   6   9 118.867 111.614   1
  13   7   6 35.7252 48.3166   1
  13   7   7 15.5764 75.5245   1
  13   7   8 472.428 153.393   1
  13   7   9-176.403 129.769   1
  13   8   8 488.706 172.074   1
  14  -5  -2 225.709 116.989   1
  14  -4  -3 280.162 140.219   1
  14  -4  -2 237.874 134.196   1
  14  -4  -1-8.54261 88.4991   1
  14  -4   0 33.9016 84.8007   1
  14  -4   1 331.480 150.347   1
  14  -4   3 566.713 188.171   4
  14  -3  -2 243.225 119.663   1
  14  -3  -1 86.3151 89.5169   1
  14  -3   0-20.0214 78.8553   1
  14  -3   1 0.20451 68.4841   4
  14  -3   1-7.91510 62.9991   1
  14  -3   2-79.8378 103.802   1
  14  -3   2-108.243 99.1502   4
  14  -3   3-167.641 120.457   1
  14  -3   3 51.8524 82.8801   4
  14  -3   4 283.039 139.945   4
  14  -2  -1 76.4017 76.4688   1
  14  -2   0 270.706 127.552   1
  14  -2   0 249.929 140.043   4
  14  -2   1 803.671 221.208   1
  14  -2   1 711.602 207.554   4
  14  -2   2 64.7115 92.0576   1
  14  -2   2-268.039 139.916   4
  14  -2   3 98.9610 86.9463   4
  14  -2   3 111.260 117.209   1
  14  -2   4 89.0355 88.9478   4
  14  -2   4-166.216 129.920   1
  14  -2   5 844.452 223.185   4
  14  -1   0 467.350 189.166   4
  14  -1   0 657.875 194.919   1
  14  -1   1 75.1327 100.021   4
  14  -1   1 6.01306 80.3146   1
  14  -1   2 501.436 195.517   4
  14  -1   2 43.6007 79.0131   1
  14  -1   3 358.440 146.220   4
  14  -1   3 753.570 212.976   1
  14  -1   4 164.270 120.622   4
  14  -1   4 121.533 95.3291   1
  14  -1   5 274.560 136.598   4
  14  -1   5 902.655 238.997   1
  14   0   0 181.563 124.455   4
  14   0   1 610.249 199.733   1
  14   0   1 277.427 154.732   4
  14   0   2 730.577 196.711   1
  14   0   2 719.269 212.298   4
  14   0   3 708.382 201.584   1
  14   0   3 294.356 159.876   4
  14   0   4-75.0060 85.5912   1
  14   0   4 109.551 85.0272   4
  14   0   5-126.419 108.561   1
  14   0   5-104.781 78.0792   4
  14   0   6 370.223 168.279   1
  14   0   6-14.9559 88.1811   4
  14   1   0-102.236 106.252   4
  14   1   1 160.424 130.682   4
  14   1   2 179.972 113.453   1
  14   1   2 108.164 88.2058   4
  14   1   3 5.41631 81.1730   1
  14   1   3 56.0907 93.6593   4
  14   1   4-13.0265 89.7511   1
  14   1   4-154.303 79.2285   4
  14   1   5 96.9642 94.5829   1
  14   1   5 199.847 122.352   4
  14   1   6 87.3104 82.7242   1
  14   1   6 127.422 117.845   4
  14   2   1 931.555 263.368   4
  14   2   2 177.943 131.603   4
  14   2   3 73.9550 81.7443   4
  14   2   3 169.770 99.0572   1
  14   2   4 113.354 120.740   4
  14   2   4 225.626 131.367   1
  14   2   5 662.292 206.792   4
  14   2   5 229.523 132.738   1
  14   2   6-203.897 123.984   4
  14   2   6 50.2493 86.7382   1
  14   2   7 411.419 171.249   1
  14   3   0 384.601 177.319   2
  14   3   1 510.600 199.049   2
  14   3   2 2019.89 367.240   4
  14   3   2 1311.93 327.481   2
  14   3   3 1200.29 272.116   4
  14   3   4 379.221 156.583   1
  14   3   5 69.1769 93.3151   1
  14   3   6 7.41378 83.7439   1
  14   3   7-33.6962 68.0613   1
  14   4  -1 391.877 177.183   2
  14   4   0-31.5800 87.5990   2
  14   4   1 565.600 216.908   2
  14   4   2 417.398 180.485   2
  14   4   3-67.6870 92.5022   2
  14   4   5 1732.23 300.388   1
  14   4   6 360.449 157.149   1
  14   4   7 161.641 118.542   1
  14   5  -1 135.899 139.775   2
  14   5   0-6.17217 83.3349   2
  14   5   1 76.7934 110.014   2
  14   5   2 72.2129 115.905   2
  14   5   3 1246.56 355.509   2
  14   5   6 222.063 133.603   1
  14   5   7 829.658 216.157   1
   0   0   0    0.00    0.00   0
TITL wujc_0415 in P-1
REM P-1 (#2 in standard setting)
CELL 0.71073  10.987612  12.467298  18.480474  76.4750  86.2819  88.8152
ZERR   11.00   0.000485   0.000697   0.001248   0.0053   0.0045   0.0040
LATT  1
SFAC C H N O
UNIT 121.00 110.00 11.00 11.00
TREF
HKLF 4
END
;
_shelx_hkl_checksum              91930
_shelx_shelxl_version_number     2014/7
_olex2_submission_special_instructions 'No special instructions were received'
loop_
_space_group_symop_operation_xyz
'x, y, z'
'-x, -y, -z'
loop_
_atom_site_label
_atom_site_type_symbol
_atom_site_fract_x
_atom_site_fract_y
_atom_site_fract_z
_atom_site_U_iso_or_equiv
_atom_site_adp_type
_atom_site_occupancy
_atom_site_site_symmetry_order
_atom_site_calc_flag
_atom_site_refinement_flags_posn
_atom_site_refinement_flags_adp
_atom_site_refinement_flags_occupancy
_atom_site_disorder_assembly
_atom_site_disorder_group
K1 K 0.45544(5) 0.25385(5) 0.10356(4) 0.0395(2) Uani 1 1 d . . . . .
S1 S 0.28599(6) 0.03060(6) 0.19930(4) 0.0365(2) Uani 1 1 d . . . . .
O5 O 0.70725(16) 0.18153(17) 0.11237(11) 0.0444(5) Uani 1 1 d . . . . .
O4 O 0.56302(17) 0.13884(17) 0.00199(12) 0.0457(5) Uani 1 1 d . . . . .
O3 O -0.00325(17) 0.39019(17) 0.10577(11) 0.0427(5) Uani 1 1 d . . . . .
O9 O 0.40126(17) 0.30592(18) -0.05925(13) 0.0537(6) Uani 1 1 d . . . . .
O6 O 0.59824(18) 0.28868(18) 0.21890(13) 0.0523(6) Uani 1 1 d . . . . .
O7 O 0.43725(18) 0.45274(19) 0.15890(15) 0.0594(6) Uani 1 1 d . . . . .
C28 C 0.0664(2) 0.2066(2) 0.09633(14) 0.0298(6) Uani 1 1 d . . . . .
C16 C 0.1127(2) 0.1779(2) 0.17487(14) 0.0296(6) Uani 1 1 d . . . . .
H16 H 0.0690 0.1125 0.2038 0.035 Uiso 1 1 calc R . . . .
C17 C 0.0855(2) 0.2721(2) 0.21252(15) 0.0329(6) Uani 1 1 d . . . . .
C27 C 0.0749(2) 0.1307(2) 0.05149(15) 0.0357(7) Uani 1 1 d . . . . .
H27 H 0.1099 0.0619 0.0696 0.043 Uiso 1 1 calc R . . . .
O8 O 0.31272(18) 0.44954(18) 0.03159(15) 0.0567(6) Uani 1 1 d . . . . .
C23 C 0.0142(2) 0.3082(2) 0.06673(14) 0.0319(6) Uani 1 1 d . . . . .
C22 C 0.0312(2) 0.3702(2) 0.17778(16) 0.0358(7) Uani 1 1 d . . . . .
C25 C -0.0176(2) 0.2584(3) -0.04762(16) 0.0424(8) Uani 1 1 d . . . . .
H25 H -0.0457 0.2754 -0.0954 0.051 Uiso 1 1 calc R . . . .
C4 C 0.1688(3) -0.1235(2) 0.44769(15) 0.0388(7) Uani 1 1 d . . . . .
C2 C 0.1283(2) -0.0911(2) 0.31567(14) 0.0328(6) Uani 1 1 d . . . . .
C24 C -0.0261(2) 0.3356(3) -0.00518(16) 0.0411(7) Uani 1 1 d . . . . .
H24 H -0.0583 0.4053 -0.0243 0.049 Uiso 1 1 calc R . . . .
C3 C 0.1005(2) -0.1383(2) 0.39114(14) 0.0355(7) Uani 1 1 d . . . . .
H3 H 0.0316 -0.1824 0.4039 0.043 Uiso 1 1 calc R . . . .
C26 C 0.0324(2) 0.1556(3) -0.01957(16) 0.0410(7) Uani 1 1 d . . . . .
H26 H 0.0376 0.1033 -0.0483 0.049 Uiso 1 1 calc R . . . .
C7 C 0.0385(3) -0.1169(2) 0.26256(15) 0.0378(7) Uani 1 1 d . . . . .
H7 H 0.0572 -0.0681 0.2134 0.045 Uiso 1 1 calc R . . . .
C29 C 0.6889(3) 0.1107(3) 0.00470(18) 0.0486(8) Uani 1 1 d . . . . .
H29A H 0.7376 0.1717 -0.0242 0.058 Uiso 1 1 calc R . . . .
H29B H 0.7051 0.0471 -0.0163 0.058 Uiso 1 1 calc R . . . .
C30 C 0.7215(3) 0.0851(3) 0.0837(2) 0.0555(9) Uani 1 1 d . . . . .
H30A H 0.6693 0.0271 0.1131 0.067 Uiso 1 1 calc R . . . .
H30B H 0.8053 0.0593 0.0870 0.067 Uiso 1 1 calc R . . . .
C13 C 0.1365(3) -0.1809(3) 0.52851(15) 0.0480(8) Uani 1 1 d . . . . .
H13 H 0.0588 -0.2190 0.5304 0.058 Uiso 1 1 calc R . . . .
C18 C 0.1177(3) 0.2623(3) 0.28588(16) 0.0478(8) Uani 1 1 d . . . . .
H18 H 0.1544 0.1974 0.3108 0.057 Uiso 1 1 calc R . . . .
C21 C 0.0089(3) 0.4546(3) 0.21354(18) 0.0470(8) Uani 1 1 d . . . . .
H21 H -0.0272 0.5198 0.1887 0.056 Uiso 1 1 calc R . . . .
C9 C 0.0543(4) -0.2354(3) 0.25457(19) 0.0597(9) Uani 1 1 d . . . . .
H9A H 0.1364 -0.2463 0.2365 0.089 Uiso 1 1 calc GR . . . .
H9B H -0.0014 -0.2492 0.2199 0.089 Uiso 1 1 calc GR . . . .
H9C H 0.0379 -0.2852 0.3022 0.089 Uiso 1 1 calc GR . . . .
C32 C 0.7249(3) 0.2628(3) 0.21521(19) 0.0557(9) Uani 1 1 d . . . . .
H32A H 0.7562 0.2511 0.2644 0.067 Uiso 1 1 calc R . . . .
H32B H 0.7692 0.3235 0.1823 0.067 Uiso 1 1 calc R . . . .
C40 C 0.5226(3) 0.1508(3) -0.07044(18) 0.0510(8) Uani 1 1 d . . . . .
H40A H 0.5229 0.0798 -0.0834 0.061 Uiso 1 1 calc R . . . .
H40B H 0.5763 0.2000 -0.1065 0.061 Uiso 1 1 calc R . . . .
C6 C 0.3018(3) -0.0032(3) 0.35376(16) 0.0471(8) Uani 1 1 d . . . . .
C5 C 0.2683(3) -0.0542(3) 0.42780(15) 0.0478(8) Uani 1 1 d . . . . .
H5 H 0.3147 -0.0412 0.4652 0.057 Uiso 1 1 calc R . . . .
C31 C 0.7420(3) 0.1614(3) 0.18669(19) 0.0553(9) Uani 1 1 d . . . . .
H31 H 0.7712 0.0944 0.2137 0.066 Uiso 1 1 calc R . . . .
C8 C -0.0943(3) -0.0952(3) 0.28631(18) 0.0517(9) Uani 1 1 d . . . . .
H8A H -0.1175 -0.1465 0.3324 0.078 Uiso 1 1 calc GR . . . .
H8B H -0.1464 -0.1044 0.2484 0.078 Uiso 1 1 calc GR . . . .
H8C H -0.1023 -0.0213 0.2930 0.078 Uiso 1 1 calc GR . . . .
C20 C 0.0400(3) 0.4428(3) 0.2861(2) 0.0601(10) Uani 1 1 d . . . . .
H20 H 0.0233 0.4990 0.3107 0.072 Uiso 1 1 calc R . . . .
C39 C 0.3963(3) 0.1973(3) -0.0713(2) 0.0561(9) Uani 1 1 d . . . . .
H39A H 0.3628 0.1996 -0.1189 0.067 Uiso 1 1 calc R . . . .
H39B H 0.3442 0.1513 -0.0324 0.067 Uiso 1 1 calc R . . . .
C37 C 0.2968(3) 0.4692(3) -0.0469(2) 0.0620(10) Uani 1 1 d . . . . .
H37A H 0.3659 0.5097 -0.0749 0.074 Uiso 1 1 calc R . . . .
H37B H 0.2235 0.5126 -0.0591 0.074 Uiso 1 1 calc R . . . .
C19 C 0.0963(4) 0.3461(3) 0.32187(19) 0.0627(10) Uani 1 1 d . . . . .
H19 H 0.1197 0.3380 0.3703 0.075 Uiso 1 1 calc R . . . .
C15 C 0.1205(3) -0.1004(3) 0.57852(17) 0.0630(10) Uani 1 1 d . . . . .
H15A H 0.1968 -0.0649 0.5798 0.095 Uiso 1 1 calc GR . . . .
H15B H 0.0942 -0.1395 0.6280 0.095 Uiso 1 1 calc GR . . . .
H15C H 0.0604 -0.0459 0.5595 0.095 Uiso 1 1 calc GR . . . .
C35 C 0.3345(3) 0.5221(3) 0.1365(3) 0.0735(13) Uani 1 1 d . . . . .
H35A H 0.3396 0.5898 0.1534 0.088 Uiso 1 1 calc R . . . .
H35B H 0.2596 0.4848 0.1584 0.088 Uiso 1 1 calc R . . . .
C36 C 0.3346(3) 0.5472(3) 0.0545(3) 0.0710(12) Uani 1 1 d . . . . .
H36A H 0.2718 0.6014 0.0376 0.085 Uiso 1 1 calc R . . . .
H36B H 0.4128 0.5777 0.0328 0.085 Uiso 1 1 calc R . . . .
C10 C 0.4101(3) 0.0763(4) 0.34212(19) 0.0860(16) Uani 1 1 d . . . . .
H10 H 0.4123 0.1202 0.2906 0.103 Uiso 1 1 calc R . . . .
C34 C 0.4460(3) 0.4191(3) 0.2369(2) 0.0706(11) Uani 1 1 d . . . . .
H34A H 0.3898 0.3593 0.2580 0.085 Uiso 1 1 calc R . . . .
H34B H 0.4259 0.4801 0.2599 0.085 Uiso 1 1 calc R . . . .
C38 C 0.2869(3) 0.3613(3) -0.0659(2) 0.0573(10) Uani 1 1 d . . . . .
H38A H 0.2256 0.3170 -0.0326 0.069 Uiso 1 1 calc R . . . .
H38B H 0.2622 0.3720 -0.1166 0.069 Uiso 1 1 calc R . . . .
C12 C 0.5301(3) 0.0086(6) 0.3528(2) 0.136(3) Uani 1 1 d . . . . .
H12A H 0.5274 -0.0389 0.4020 0.204 Uiso 1 1 calc GR . . . .
H12B H 0.5979 0.0579 0.3467 0.204 Uiso 1 1 calc GR . . . .
H12C H 0.5393 -0.0352 0.3165 0.204 Uiso 1 1 calc GR . . . .
C11 C 0.3984(5) 0.1555(5) 0.3942(2) 0.116(2) Uani 1 1 d . . . . .
H11A H 0.3193 0.1898 0.3911 0.174 Uiso 1 1 calc GR . . . .
H11B H 0.4601 0.2111 0.3797 0.174 Uiso 1 1 calc GR . . . .
H11C H 0.4084 0.1153 0.4445 0.174 Uiso 1 1 calc GR . . . .
C14 C 0.2324(4) -0.2671(4) 0.5580(2) 0.0897(14) Uani 1 1 d . . . . .
H14A H 0.2452 -0.3156 0.5247 0.135 Uiso 1 1 calc GR . . . .
H14B H 0.2051 -0.3090 0.6065 0.135 Uiso 1 1 calc GR . . . .
H14C H 0.3076 -0.2311 0.5612 0.135 Uiso 1 1 calc GR . . . .
O1 O 0.23724(17) -0.04539(17) 0.15965(10) 0.0423(5) Uani 1 1 d . . . . .
N1 N 0.24394(18) 0.15319(19) 0.17461(11) 0.0329(5) Uani 1 1 d . . . . .
O2 O 0.41859(16) 0.03101(19) 0.19552(11) 0.0490(6) Uani 1 1 d . . . . .
C33 C 0.5743(3) 0.3817(3) 0.2504(2) 0.0646(10) Uani 1 1 d . . . . .
H33A H 0.6304 0.4408 0.2275 0.077 Uiso 1 1 calc R . . . .
H33B H 0.5854 0.3615 0.3035 0.077 Uiso 1 1 calc R . . . .
C1 C 0.2334(2) -0.0251(2) 0.29694(14) 0.0366(7) Uani 1 1 d . . . . .
C1B C 0.4482(12) -0.2538(11) 0.3005(7) 0.073(4) Uani 0.3333 1 d D U P A -1
H1BA H 0.4089 -0.3115 0.2845 0.109 Uiso 0.3333 1 calc GR . P A -1
H1BB H 0.4657 -0.1934 0.2584 0.109 Uiso 0.3333 1 calc GR . P A -1
H1BC H 0.3953 -0.2289 0.3367 0.109 Uiso 0.3333 1 calc GR . P A -1
C2B C 0.5499(5) -0.2914(6) 0.3304(3) 0.054(2) Uani 0.3333 1 d . U P A -1
C3B C 0.5727(7) -0.2773(6) 0.4007(4) 0.064(3) Uani 0.3333 1 d DG U P A -1
H3B H 0.5180 -0.2376 0.4250 0.077 Uiso 0.3333 1 calc R . P A -1
C4B C 0.6771(8) -0.3227(7) 0.4347(4) 0.100(4) Uani 0.3333 1 d G U P A -1
H4B H 0.6924 -0.3133 0.4817 0.120 Uiso 0.3333 1 calc R . P A -1
C5B C 0.7588(6) -0.3821(7) 0.3983(6) 0.100(4) Uani 0.3333 1 d G U P A -1
H5B H 0.8287 -0.4124 0.4210 0.120 Uiso 0.3333 1 calc R . P A -1
C6B C 0.7360(6) -0.3961(7) 0.3280(6) 0.079(4) Uani 0.3333 1 d G U P A -1
H6B H 0.7907 -0.4358 0.3037 0.095 Uiso 0.3333 1 calc R . P A -1
C7B C 0.6316(7) -0.3508(7) 0.2940(4) 0.064(3) Uani 0.3333 1 d DG U P A -1
H7B H 0.6163 -0.3602 0.2470 0.077 Uiso 0.3333 1 calc R . P A -1
C2C C 0.5963(7) -0.3816(8) 0.3217(5) 0.079(4) Uani 0.3333 1 d . U P B -3
C3C C 0.5344(8) -0.4565(6) 0.3792(4) 0.061(3) Uani 0.3333 1 d DG U P B -3
H3C H 0.5764 -0.5146 0.4084 0.073 Uiso 0.3333 1 calc R . P B -3
C4C C 0.4096(8) -0.4445(8) 0.3931(4) 0.098(4) Uani 0.3333 1 d G U P B -3
H4C H 0.3681 -0.4945 0.4315 0.118 Uiso 0.3333 1 calc R . P B -3
C5C C 0.3468(7) -0.3575(10) 0.3495(6) 0.104(5) Uani 0.3333 1 d G U P B -3
H5C H 0.2633 -0.3495 0.3588 0.125 Uiso 0.3333 1 calc R . P B -3
C6C C 0.4088(12) -0.2827(7) 0.2920(6) 0.107(6) Uani 0.3333 1 d G U P B -3
H6C H 0.3668 -0.2245 0.2628 0.129 Uiso 0.3333 1 calc R . P B -3
C7C C 0.5335(12) -0.2947(7) 0.2781(4) 0.099(4) Uani 0.3333 1 d DG U P B -3
H7C H 0.5750 -0.2447 0.2397 0.119 Uiso 0.3333 1 calc R . P B -3
C1C C 0.6972(18) -0.3876(17) 0.3107(10) 0.143(7) Uani 0.3333 1 d D U P B -3
H1CA H 0.7377 -0.3802 0.3537 0.215 Uiso 0.3333 1 calc GR . P B -3
H1CB H 0.7232 -0.3297 0.2687 0.215 Uiso 0.3333 1 calc GR . P B -3
H1CC H 0.7174 -0.4578 0.3000 0.215 Uiso 0.3333 1 calc GR . P B -3
C1A C 0.951(2) -0.524(2) 0.5095(13) 0.161(7) Uani 0.3333 1 d . U P C -2
H1AA H 0.9983 -0.5242 0.5512 0.241 Uiso 0.3333 1 calc GR . P C -2
H1AB H 0.9946 -0.4879 0.4642 0.241 Uiso 0.3333 1 calc GR . P C -2
H1AC H 0.9345 -0.5992 0.5078 0.241 Uiso 0.3333 1 calc GR . P C -2
C2A C 0.8438(11) -0.4710(9) 0.5170(5) 0.129(5) Uani 0.3333 1 d . U P C -2
C7A C 0.7464(14) -0.5253(7) 0.5614(4) 0.133(6) Uani 0.3333 1 d G U P C -2
H7A H 0.7559 -0.5974 0.5886 0.160 Uiso 0.3333 1 calc R . P C -2
C6A C 0.6347(12) -0.4717(11) 0.5649(5) 0.157(7) Uani 0.3333 1 d G U P C -2
H6A H 0.5695 -0.5080 0.5946 0.189 Uiso 0.3333 1 calc R . P C -2
C5A C 0.6205(10) -0.3639(11) 0.5241(6) 0.137(5) Uani 0.3333 1 d G U P C -2
H5A H 0.5457 -0.3281 0.5265 0.165 Uiso 0.3333 1 calc R . P C -2
C4A C 0.7179(13) -0.3097(7) 0.4798(5) 0.133(5) Uani 0.3333 1 d G U P C -2
H4A H 0.7083 -0.2375 0.4525 0.159 Uiso 0.3333 1 calc R . P C -2
C3A C 0.8295(11) -0.3632(9) 0.4762(4) 0.103(5) Uani 0.3333 1 d G U P C -2
H3A H 0.8947 -0.3269 0.4465 0.124 Uiso 0.3333 1 calc R . P C -2
loop_
_atom_site_aniso_label
_atom_site_aniso_U_11
_atom_site_aniso_U_22
_atom_site_aniso_U_33
_atom_site_aniso_U_23
_atom_site_aniso_U_13
_atom_site_aniso_U_12
K1 0.0303(3) 0.0338(4) 0.0526(4) -0.0086(3) 0.0065(3) -0.0036(3)
S1 0.0341(4) 0.0446(5) 0.0252(4) 0.0019(3) 0.0012(3) 0.0022(3)
O5 0.0352(11) 0.0428(13) 0.0509(13) -0.0036(11) 0.0007(9) 0.0024(9)
O4 0.0369(11) 0.0448(13) 0.0551(13) -0.0125(11) 0.0044(9) -0.0008(9)
O3 0.0446(11) 0.0377(12) 0.0467(12) -0.0122(10) -0.0044(9) 0.0115(9)
O9 0.0301(10) 0.0404(13) 0.0850(16) -0.0043(12) -0.0002(10) -0.0008(9)
O6 0.0448(12) 0.0473(14) 0.0669(15) -0.0188(12) 0.0040(10) -0.0075(10)
O7 0.0422(12) 0.0450(14) 0.0869(18) -0.0132(13) 0.0179(12) 0.0002(11)
C28 0.0230(12) 0.0338(16) 0.0303(14) -0.0033(12) 0.0035(10) -0.0083(11)
C16 0.0284(13) 0.0294(15) 0.0284(14) -0.0025(12) 0.0032(11) -0.0072(11)
C17 0.0315(14) 0.0341(16) 0.0321(14) -0.0078(13) 0.0090(11) -0.0106(12)
C27 0.0379(15) 0.0310(16) 0.0391(16) -0.0092(13) -0.0033(12) -0.0049(12)
O8 0.0423(12) 0.0321(12) 0.0896(18) -0.0038(13) 0.0044(12) -0.0054(10)
C23 0.0259(13) 0.0338(16) 0.0352(15) -0.0079(13) 0.0023(11) -0.0009(12)
C22 0.0311(14) 0.0355(17) 0.0400(16) -0.0087(14) 0.0049(12) -0.0079(12)
C25 0.0329(15) 0.057(2) 0.0362(16) -0.0058(15) -0.0087(12) -0.0038(14)
C4 0.0430(16) 0.0387(17) 0.0297(15) -0.0002(13) 0.0039(12) 0.0041(13)
C2 0.0401(15) 0.0266(15) 0.0286(14) -0.0004(12) -0.0032(12) 0.0032(12)
C24 0.0321(15) 0.0447(19) 0.0422(16) -0.0006(15) -0.0062(13) 0.0001(13)
C3 0.0405(15) 0.0329(16) 0.0304(14) -0.0036(13) 0.0043(12) -0.0026(13)
C26 0.0402(16) 0.0463(19) 0.0384(16) -0.0133(15) -0.0025(13) -0.0080(14)
C7 0.0511(17) 0.0298(16) 0.0309(15) -0.0039(13) -0.0011(13) -0.0064(13)
C29 0.0386(16) 0.044(2) 0.061(2) -0.0129(17) 0.0113(15) 0.0060(14)
C30 0.0401(17) 0.048(2) 0.077(2) -0.0133(19) 0.0037(16) 0.0160(15)
C13 0.0610(19) 0.053(2) 0.0242(14) 0.0026(14) 0.0018(13) -0.0041(16)
C18 0.066(2) 0.044(2) 0.0340(16) -0.0094(15) 0.0015(14) -0.0114(16)
C21 0.0476(17) 0.0389(19) 0.055(2) -0.0159(16) 0.0136(15) -0.0029(14)
C9 0.091(3) 0.040(2) 0.050(2) -0.0152(17) -0.0040(18) -0.0063(18)
C32 0.0455(18) 0.068(3) 0.0504(19) -0.0062(18) -0.0040(15) -0.0105(17)
C40 0.0470(18) 0.046(2) 0.062(2) -0.0167(17) 0.0030(16) -0.0035(15)
C6 0.0396(16) 0.063(2) 0.0315(15) 0.0047(15) -0.0012(13) -0.0077(15)
C5 0.0438(17) 0.067(2) 0.0279(15) 0.0011(15) -0.0099(13) -0.0015(16)
C31 0.0504(19) 0.058(2) 0.051(2) 0.0010(18) -0.0054(15) 0.0112(17)
C8 0.0484(18) 0.061(2) 0.0448(18) -0.0092(17) -0.0074(15) -0.0068(16)
C20 0.078(2) 0.051(2) 0.055(2) -0.0267(19) 0.0262(18) -0.0156(19)
C39 0.0458(18) 0.050(2) 0.073(2) -0.0146(19) -0.0040(16) -0.0081(16)
C37 0.0357(17) 0.047(2) 0.086(3) 0.014(2) 0.0132(17) 0.0057(15)
C19 0.092(3) 0.058(3) 0.0410(19) -0.0207(19) 0.0077(18) -0.018(2)
C15 0.080(2) 0.074(3) 0.0310(17) -0.0055(18) 0.0044(16) 0.002(2)
C35 0.0314(18) 0.052(2) 0.148(4) -0.050(3) 0.008(2) 0.0016(16)
C36 0.0375(18) 0.034(2) 0.138(4) -0.009(2) -0.020(2) 0.0010(15)
C10 0.063(2) 0.149(4) 0.0350(18) 0.006(2) -0.0100(17) -0.057(3)
C34 0.076(3) 0.058(3) 0.079(3) -0.028(2) 0.026(2) -0.010(2)
C38 0.0296(16) 0.070(3) 0.063(2) 0.003(2) 0.0003(14) 0.0037(16)
C12 0.042(2) 0.288(8) 0.053(2) 0.018(4) -0.0071(18) -0.046(3)
C11 0.140(4) 0.156(5) 0.047(2) -0.001(3) -0.016(2) -0.111(4)
C14 0.140(4) 0.077(3) 0.0363(19) 0.012(2) 0.002(2) 0.037(3)
O1 0.0528(12) 0.0414(13) 0.0294(10) -0.0036(9) 0.0044(9) 0.0042(10)
N1 0.0254(11) 0.0400(14) 0.0281(11) 0.0020(11) 0.0008(9) -0.0023(10)
O2 0.0322(10) 0.0656(15) 0.0385(11) 0.0081(11) 0.0014(8) 0.0068(10)
C33 0.072(2) 0.060(2) 0.066(2) -0.025(2) 0.0090(19) -0.017(2)
C1 0.0370(15) 0.0413(17) 0.0266(14) 0.0017(13) -0.0022(12) 0.0033(13)
C1B 0.085(8) 0.087(11) 0.052(7) -0.024(7) -0.018(6) 0.009(7)
C2B 0.067(6) 0.029(5) 0.056(5) 0.006(5) 0.014(4) 0.004(4)
C3B 0.099(7) 0.041(6) 0.047(5) -0.001(5) -0.003(5) -0.001(5)
C4B 0.133(11) 0.067(9) 0.090(9) 0.010(7) -0.034(7) -0.015(7)
C5B 0.081(8) 0.056(8) 0.145(11) 0.020(8) -0.031(8) -0.010(6)
C6B 0.030(6) 0.056(8) 0.141(10) -0.003(8) 0.004(6) -0.016(5)
C7B 0.068(8) 0.051(8) 0.070(8) -0.013(6) 0.011(6) 0.011(6)
C2C 0.095(8) 0.091(9) 0.079(8) -0.074(6) -0.013(6) -0.005(7)
C3C 0.105(7) 0.037(5) 0.053(6) -0.028(4) -0.054(5) 0.039(5)
C4C 0.133(9) 0.105(10) 0.075(8) -0.059(7) 0.003(7) 0.003(8)
C5C 0.083(8) 0.156(14) 0.108(10) -0.102(8) -0.028(6) 0.065(7)
C6C 0.170(13) 0.089(11) 0.088(10) -0.067(7) -0.051(9) 0.054(10)
C7C 0.181(12) 0.073(9) 0.045(7) -0.016(6) -0.001(8) -0.025(9)
C1C 0.098(10) 0.22(2) 0.155(14) -0.127(15) -0.031(9) -0.059(10)
C1A 0.245(18) 0.158(18) 0.122(14) -0.103(15) -0.057(16) -0.023(13)
C2A 0.231(14) 0.113(10) 0.056(8) -0.048(7) 0.011(9) -0.069(9)
C7A 0.281(15) 0.099(9) 0.026(6) -0.018(6) -0.002(8) -0.130(10)
C6A 0.242(14) 0.175(13) 0.071(10) -0.064(9) 0.041(11) -0.157(12)
C5A 0.199(12) 0.163(12) 0.078(9) -0.085(9) 0.028(8) -0.105(10)
C4A 0.201(14) 0.127(11) 0.075(9) -0.029(9) -0.002(10) -0.086(9)
C3A 0.191(11) 0.090(8) 0.029(5) -0.012(6) 0.024(7) -0.103(8)
loop_
_atom_type_symbol
_atom_type_description
_atom_type_scat_dispersion_real
_atom_type_scat_dispersion_imag
_atom_type_scat_source
C C 0.0033 0.0016 'International Tables Vol C Tables 4.2.6.8 and 6.1.1.4'
H H 0.0000 0.0000 'International Tables Vol C Tables 4.2.6.8 and 6.1.1.4'
K K 0.2009 0.2494 'International Tables Vol C Tables 4.2.6.8 and 6.1.1.4'
N N 0.0061 0.0033 'International Tables Vol C Tables 4.2.6.8 and 6.1.1.4'
O O 0.0106 0.0060 'International Tables Vol C Tables 4.2.6.8 and 6.1.1.4'
S S 0.1246 0.1234 'International Tables Vol C Tables 4.2.6.8 and 6.1.1.4'
loop_
_geom_angle_atom_site_label_1
_geom_angle_atom_site_label_2
_geom_angle_atom_site_label_3
_geom_angle
O5 K1 S1 105.49(4)
O5 K1 O9 107.02(6)
O5 K1 O8 138.96(6)
O5 K1 O2 80.83(5)
O4 K1 S1 93.28(4)
O4 K1 O5 59.12(6)
O4 K1 O9 57.05(6)
O4 K1 O6 117.92(6)
O4 K1 O7 149.16(6)
O4 K1 O8 113.27(7)
O4 K1 O2 82.37(6)
O9 K1 S1 109.62(4)
O6 K1 S1 100.31(5)
O6 K1 O5 58.86(6)
O6 K1 O9 149.70(6)
O6 K1 O7 57.37(7)
O6 K1 O8 114.12(7)
O6 K1 O2 85.91(6)
O7 K1 S1 117.47(5)
O7 K1 O5 106.77(6)
O7 K1 O9 109.87(7)
O7 K1 O8 57.25(7)
O7 K1 O2 124.69(7)
O8 K1 S1 115.41(4)
O8 K1 O9 56.76(7)
N1 K1 S1 26.35(5)
N1 K1 O5 130.74(6)
N1 K1 O4 111.77(7)
N1 K1 O9 103.22(6)
N1 K1 O6 105.74(6)
N1 K1 O7 98.11(7)
N1 K1 O8 90.24(6)
N1 K1 O2 50.28(6)
O2 K1 S1 24.75(4)
O2 K1 O9 120.08(6)
O2 K1 O8 140.15(5)
O1 S1 K1 120.19(8)
O1 S1 N1 116.07(11)
O1 S1 C1 104.11(12)
N1 S1 K1 51.98(7)
N1 S1 C1 109.34(13)
O2 S1 K1 57.17(9)
O2 S1 O1 112.65(13)
O2 S1 N1 106.77(12)
O2 S1 C1 107.59(11)
C1 S1 K1 135.69(10)
C30 O5 K1 108.85(16)
C31 O5 K1 110.53(17)
C31 O5 C30 111.3(3)
C29 O4 K1 119.56(17)
C40 O4 K1 122.43(18)
C40 O4 C29 111.5(2)
C22 O3 C23 118.9(2)
C39 O9 K1 100.39(19)
C38 O9 K1 107.45(19)
C38 O9 C39 112.8(2)
C32 O6 K1 118.30(18)
C32 O6 C33 111.8(2)
C33 O6 K1 120.0(2)
C35 O7 K1 115.49(19)
C34 O7 K1 106.2(2)
C34 O7 C35 114.3(3)
C27 C28 C16 121.0(3)
C23 C28 C16 121.8(2)
C23 C28 C27 117.2(2)
C28 C16 H16 108.3
C17 C16 C28 109.9(2)
C17 C16 H16 108.3
N1 C16 C28 112.4(2)
N1 C16 H16 108.3
N1 C16 C17 109.60(19)
C22 C17 C16 123.4(2)
C22 C17 C18 117.1(3)
C18 C17 C16 119.5(3)
C28 C27 H27 119.3
C26 C27 C28 121.5(3)
C26 C27 H27 119.3
C37 O8 K1 118.8(2)
C36 O8 K1 115.6(2)
C36 O8 C37 112.6(3)
O3 C23 C24 114.4(3)
C28 C23 O3 123.4(2)
C28 C23 C24 122.2(3)
O3 C22 C17 122.5(3)
O3 C22 C21 115.7(3)
C21 C22 C17 121.8(3)
C24 C25 H25 119.9
C24 C25 C26 120.3(3)
C26 C25 H25 119.9
C3 C4 C13 121.4(2)
C3 C4 C5 117.1(2)
C5 C4 C13 121.5(2)
C3 C2 C7 115.1(2)
C3 C2 C1 117.6(2)
C1 C2 C7 127.3(2)
C23 C24 H24 120.4
C25 C24 C23 119.1(3)
C25 C24 H24 120.4
C4 C3 C2 124.0(2)
C4 C3 H3 118.0
C2 C3 H3 118.0
C27 C26 H26 120.1
C25 C26 C27 119.7(3)
C25 C26 H26 120.1
C2 C7 H7 107.6
C2 C7 C8 112.5(2)
C9 C7 C2 110.8(3)
C9 C7 H7 107.6
C9 C7 C8 110.4(2)
C8 C7 H7 107.6
O4 C29 H29A 109.9
O4 C29 H29B 109.9
O4 C29 C30 108.7(2)
H29A C29 H29B 108.3
C30 C29 H29A 109.9
C30 C29 H29B 109.9
O5 C30 C29 109.7(3)
O5 C30 H30A 109.7
O5 C30 H30B 109.7
C29 C30 H30A 109.7
C29 C30 H30B 109.7
H30A C30 H30B 108.2
C4 C13 H13 107.9
C4 C13 C14 110.8(3)
C15 C13 C4 112.4(3)
C15 C13 H13 107.9
C15 C13 C14 109.8(3)
C14 C13 H13 107.9
C17 C18 H18 119.2
C19 C18 C17 121.5(3)
C19 C18 H18 119.2
C22 C21 H21 119.9
C22 C21 C20 120.2(3)
C20 C21 H21 119.9
C7 C9 H9A 109.5
C7 C9 H9B 109.5
C7 C9 H9C 109.5
H9A C9 H9B 109.5
H9A C9 H9C 109.5
H9B C9 H9C 109.5
O6 C32 H32A 109.9
O6 C32 H32B 109.9
O6 C32 C31 108.7(2)
H32A C32 H32B 108.3
C31 C32 H32A 109.9
C31 C32 H32B 109.9
O4 C40 H40A 110.1
O4 C40 H40B 110.1
O4 C40 C39 108.1(3)
H40A C40 H40B 108.4
C39 C40 H40A 110.1
C39 C40 H40B 110.1
C5 C6 C10 115.6(3)
C5 C6 C1 118.8(3)
C1 C6 C10 125.6(2)
C4 C5 C6 122.5(3)
C4 C5 H5 118.7
C6 C5 H5 118.7
O5 C31 C32 110.0(3)
O5 C31 H31 125.0
C32 C31 H31 125.0
C7 C8 H8A 109.5
C7 C8 H8B 109.5
C7 C8 H8C 109.5
H8A C8 H8B 109.5
H8A C8 H8C 109.5
H8B C8 H8C 109.5
C21 C20 H20 120.4
C21 C20 C19 119.2(3)
C19 C20 H20 120.4
O9 C39 C40 108.4(2)
O9 C39 H39A 110.0
O9 C39 H39B 110.0
C40 C39 H39A 110.0
C40 C39 H39B 110.0
H39A C39 H39B 108.4
O8 C37 H37A 110.1
O8 C37 H37B 110.1
O8 C37 C38 108.0(3)
H37A C37 H37B 108.4
C38 C37 H37A 110.1
C38 C37 H37B 110.1
C18 C19 C20 120.1(3)
C18 C19 H19 119.9
C20 C19 H19 119.9
C13 C15 H15A 109.5
C13 C15 H15B 109.5
C13 C15 H15C 109.5
H15A C15 H15B 109.5
H15A C15 H15C 109.5
H15B C15 H15C 109.5
O7 C35 H35A 110.0
O7 C35 H35B 110.0
O7 C35 C36 108.3(3)
H35A C35 H35B 108.4
C36 C35 H35A 110.0
C36 C35 H35B 110.0
O8 C36 C35 109.2(3)
O8 C36 H36A 109.8
O8 C36 H36B 109.8
C35 C36 H36A 109.8
C35 C36 H36B 109.8
H36A C36 H36B 108.3
C6 C10 H10 108.1
C6 C10 C12 109.2(4)
C12 C10 H10 108.1
C11 C10 C6 112.2(3)
C11 C10 H10 108.1
C11 C10 C12 110.9(3)
O7 C34 H34A 110.2
O7 C34 H34B 110.2
O7 C34 C33 107.4(3)
H34A C34 H34B 108.5
C33 C34 H34A 110.2
C33 C34 H34B 110.2
O9 C38 C37 109.7(3)
O9 C38 H38A 109.7
O9 C38 H38B 109.7
C37 C38 H38A 109.7
C37 C38 H38B 109.7
H38A C38 H38B 108.2
C10 C12 H12A 109.5
C10 C12 H12B 109.5
C10 C12 H12C 109.5
H12A C12 H12B 109.5
H12A C12 H12C 109.5
H12B C12 H12C 109.5
C10 C11 H11A 109.5
C10 C11 H11B 109.5
C10 C11 H11C 109.5
H11A C11 H11B 109.5
H11A C11 H11C 109.5
H11B C11 H11C 109.5
C13 C14 H14A 109.5
C13 C14 H14B 109.5
C13 C14 H14C 109.5
H14A C14 H14B 109.5
H14A C14 H14C 109.5
H14B C14 H14C 109.5
S1 N1 K1 101.67(10)
C16 N1 K1 136.84(16)
C16 N1 S1 118.67(16)
S1 O2 K1 98.08(10)
O6 C33 C34 108.5(3)
O6 C33 H33A 110.0
O6 C33 H33B 110.0
C34 C33 H33A 110.0
C34 C33 H33B 110.0
H33A C33 H33B 108.4
C2 C1 S1 121.2(2)
C2 C1 C6 119.9(2)
C6 C1 S1 118.9(2)
H1BA C1B H1BB 109.5
H1BA C1B H1BC 109.5
H1BB C1B H1BC 109.5
C2B C1B H1BA 109.5
C2B C1B H1BB 109.5
C2B C1B H1BC 109.5
C1B C2B C3B 119.7(6)
C1B C2B C7B 120.2(6)
C3B C2B C7B 120.0
C2B C3B H3B 120.0
C4B C3B C2B 120.0
C4B C3B H3B 120.0
C3B C4B H4B 120.0
C5B C4B C3B 120.0
C5B C4B H4B 120.0
C4B C5B H5B 120.0
C4B C5B C6B 120.0
C6B C5B H5B 120.0
C5B C6B H6B 120.0
C7B C6B C5B 120.0
C7B C6B H6B 120.0
C2B C7B H7B 120.0
C6B C7B C2B 120.0
C6B C7B H7B 120.0
C3C C2C C7C 120.0
C1C C2C C3C 121.5(9)
C1C C2C C7C 118.5(9)
C2C C3C H3C 120.0
C4C C3C C2C 120.0
C4C C3C H3C 120.0
C3C C4C H4C 120.0
C3C C4C C5C 120.0
C5C C4C H4C 120.0
C4C C5C H5C 120.0
C6C C5C C4C 120.0
C6C C5C H5C 120.0
C5C C6C H6C 120.0
C5C C6C C7C 120.0
C7C C6C H6C 120.0
C2C C7C H7C 120.0
C6C C7C C2C 120.0
C6C C7C H7C 120.0
C2C C1C H1CA 109.5
C2C C1C H1CB 109.5
C2C C1C H1CC 109.5
H1CA C1C H1CB 109.5
H1CA C1C H1CC 109.5
H1CB C1C H1CC 109.5
H1AA C1A H1AB 109.5
H1AA C1A H1AC 109.5
H1AB C1A H1AC 109.5
C2A C1A H1AA 109.5
C2A C1A H1AB 109.5
C2A C1A H1AC 109.5
C1A C2A C7A 120.5(14)
C1A C2A C3A 119.4(14)
C7A C2A C3A 120.0
C2A C7A H7A 120.0
C6A C7A C2A 120.0
C6A C7A H7A 120.0
C7A C6A H6A 120.0
C5A C6A C7A 120.0
C5A C6A H6A 120.0
C6A C5A H5A 120.0
C4A C5A C6A 120.0
C4A C5A H5A 120.0
C5A C4A H4A 120.0
C5A C4A C3A 120.0
C3A C4A H4A 120.0
C2A C3A H3A 120.0
C4A C3A C2A 120.0
C4A C3A H3A 120.0
loop_
_geom_bond_atom_site_label_1
_geom_bond_atom_site_label_2
_geom_bond_distance
K1 S1 3.4391(9)
K1 O5 2.895(2)
K1 O4 2.807(2)
K1 O9 3.022(2)
K1 O6 2.844(2)
K1 O7 2.894(3)
K1 O8 2.962(2)
K1 N1 2.766(2)
K1 O2 2.919(2)
S1 O1 1.455(2)
S1 N1 1.559(2)
S1 O2 1.4542(19)
S1 C1 1.835(3)
O5 C30 1.424(4)
O5 C31 1.413(4)
O4 C29 1.421(3)
O4 C40 1.412(4)
O3 C23 1.386(3)
O3 C22 1.372(3)
O9 C39 1.425(4)
O9 C38 1.419(4)
O6 C32 1.423(4)
O6 C33 1.427(4)
O7 C35 1.430(4)
O7 C34 1.413(4)
C28 C16 1.529(3)
C28 C27 1.394(4)
C28 C23 1.385(4)
C16 H16 0.9800
C16 C17 1.515(4)
C16 N1 1.469(3)
C17 C22 1.384(4)
C17 C18 1.400(4)
C27 H27 0.9300
C27 C26 1.386(4)
O8 C37 1.434(4)
O8 C36 1.409(4)
C23 C24 1.392(4)
C22 C21 1.377(4)
C25 H25 0.9300
C25 C24 1.376(4)
C25 C26 1.382(4)
C4 C3 1.374(4)
C4 C13 1.520(4)
C4 C5 1.384(4)
C2 C3 1.398(4)
C2 C7 1.526(4)
C2 C1 1.408(4)
C24 H24 0.9300
C3 H3 0.9300
C26 H26 0.9300
C7 H7 0.9800
C7 C9 1.523(4)
C7 C8 1.533(4)
C29 H29A 0.9700
C29 H29B 0.9700
C29 C30 1.486(4)
C30 H30A 0.9700
C30 H30B 0.9700
C13 H13 0.9800
C13 C15 1.515(5)
C13 C14 1.523(5)
C18 H18 0.9300
C18 C19 1.373(5)
C21 H21 0.9300
C21 C20 1.378(5)
C9 H9A 0.9600
C9 H9B 0.9600
C9 H9C 0.9600
C32 H32A 0.9700
C32 H32B 0.9700
C32 C31 1.484(5)
C40 H40A 0.9700
C40 H40B 0.9700
C40 C39 1.493(4)
C6 C5 1.396(4)
C6 C10 1.536(4)
C6 C1 1.410(4)
C5 H5 0.9300
C31 H31 0.9300
C8 H8A 0.9600
C8 H8B 0.9600
C8 H8C 0.9600
C20 H20 0.9300
C20 C19 1.387(5)
C39 H39A 0.9700
C39 H39B 0.9700
C37 H37A 0.9700
C37 H37B 0.9700
C37 C38 1.476(5)
C19 H19 0.9300
C15 H15A 0.9600
C15 H15B 0.9600
C15 H15C 0.9600
C35 H35A 0.9700
C35 H35B 0.9700
C35 C36 1.475(6)
C36 H36A 0.9700
C36 H36B 0.9700
C10 H10 0.9800
C10 C12 1.549(7)
C10 C11 1.530(7)
C34 H34A 0.9700
C34 H34B 0.9700
C34 C33 1.494(5)
C38 H38A 0.9700
C38 H38B 0.9700
C12 H12A 0.9600
C12 H12B 0.9600
C12 H12C 0.9600
C11 H11A 0.9600
C11 H11B 0.9600
C11 H11C 0.9600
C14 H14A 0.9600
C14 H14B 0.9600
C14 H14C 0.9600
C33 H33A 0.9700
C33 H33B 0.9700
C1B H1BA 0.9600
C1B H1BB 0.9600
C1B H1BC 0.9600
C1B C2B 1.308(14)
C2B C3B 1.3900
C2B C7B 1.3900
C3B H3B 0.9300
C3B C4B 1.3900
C4B H4B 0.9300
C4B C5B 1.3900
C5B H5B 0.9300
C5B C6B 1.3900
C6B H6B 0.9300
C6B C7B 1.3900
C7B H7B 0.9300
C2C C3C 1.3900
C2C C7C 1.3900
C2C C1C 1.12(2)
C3C H3C 0.9300
C3C C4C 1.3900
C4C H4C 0.9300
C4C C5C 1.3900
C5C H5C 0.9300
C5C C6C 1.3900
C6C H6C 0.9300
C6C C7C 1.3900
C7C H7C 0.9300
C1C H1CA 0.9600
C1C H1CB 0.9600
C1C H1CC 0.9600
C1A H1AA 0.9600
C1A H1AB 0.9600
C1A H1AC 0.9600
C1A C2A 1.35(3)
C2A C7A 1.3900
C2A C3A 1.3900
C7A H7A 0.9300
C7A C6A 1.3900
C6A H6A 0.9300
C6A C5A 1.3900
C5A H5A 0.9300
C5A C4A 1.3900
C4A H4A 0.9300
C4A C3A 1.3900
C3A H3A 0.9300
loop_
_geom_torsion_atom_site_label_1
_geom_torsion_atom_site_label_2
_geom_torsion_atom_site_label_3
_geom_torsion_atom_site_label_4
_geom_torsion
K1 S1 N1 C16 164.1(2)
K1 S1 C1 C2 154.60(18)
K1 S1 C1 C6 -27.0(3)
K1 O5 C30 C29 60.2(3)
K1 O5 C31 C32 -58.4(3)
K1 O4 C29 C30 34.8(3)
K1 O4 C40 C39 -19.7(3)
K1 O9 C39 C40 -71.4(3)
K1 O9 C38 C37 65.8(3)
K1 O6 C32 C31 -38.0(3)
K1 O6 C33 C34 22.4(4)
K1 O7 C35 C36 -54.3(3)
K1 O7 C34 C33 70.1(3)
K1 O8 C37 C38 34.8(3)
K1 O8 C36 C35 -46.1(3)
O4 C29 C30 O5 -64.5(3)
O4 C40 C39 O9 65.4(3)
O3 C23 C24 C25 -177.3(2)
O3 C22 C21 C20 179.9(3)
O6 C32 C31 O5 65.2(3)
O7 C35 C36 O8 66.5(3)
O7 C34 C33 O6 -62.7(4)
C28 C16 C17 C22 -2.5(3)
C28 C16 C17 C18 178.5(2)
C28 C16 N1 K1 52.3(3)
C28 C16 N1 S1 -104.7(2)
C28 C27 C26 C25 1.2(4)
C28 C23 C24 C25 2.1(4)
C16 C28 C27 C26 179.5(2)
C16 C28 C23 O3 -1.8(4)
C16 C28 C23 C24 178.8(2)
C16 C17 C22 O3 0.3(4)
C16 C17 C22 C21 -179.3(2)
C16 C17 C18 C19 179.1(3)
C17 C16 N1 K1 -70.2(3)
C17 C16 N1 S1 132.8(2)
C17 C22 C21 C20 -0.4(4)
C17 C18 C19 C20 1.0(5)
C27 C28 C16 C17 -176.7(2)
C27 C28 C16 N1 61.0(3)
C27 C28 C23 O3 178.1(2)
C27 C28 C23 C24 -1.3(4)
O8 C37 C38 O9 -69.2(3)
C23 O3 C22 C17 1.6(4)
C23 O3 C22 C21 -178.8(2)
C23 C28 C16 C17 3.2(3)
C23 C28 C16 N1 -119.1(3)
C23 C28 C27 C26 -0.4(4)
C22 O3 C23 C28 -0.8(4)
C22 O3 C23 C24 178.7(2)
C22 C17 C18 C19 0.1(4)
C22 C21 C20 C19 1.5(5)
C24 C25 C26 C27 -0.4(4)
C3 C4 C13 C15 -124.8(3)
C3 C4 C13 C14 111.9(4)
C3 C4 C5 C6 -1.8(5)
C3 C2 C7 C9 -74.0(3)
C3 C2 C7 C8 50.1(3)
C3 C2 C1 S1 174.4(2)
C3 C2 C1 C6 -4.0(4)
C26 C25 C24 C23 -1.2(4)
C7 C2 C3 C4 -178.9(3)
C7 C2 C1 S1 -6.2(4)
C7 C2 C1 C6 175.3(3)
C29 O4 C40 C39 -171.2(2)
C30 O5 C31 C32 -179.4(2)
C13 C4 C3 C2 -177.6(3)
C13 C4 C5 C6 178.2(3)
C18 C17 C22 O3 179.3(2)
C18 C17 C22 C21 -0.3(4)
C21 C20 C19 C18 -1.7(5)
C32 O6 C33 C34 167.4(3)
C40 O4 C29 C30 -172.7(3)
C5 C4 C3 C2 2.4(5)
C5 C4 C13 C15 55.2(4)
C5 C4 C13 C14 -68.1(4)
C5 C6 C10 C12 76.4(4)
C5 C6 C10 C11 -47.0(5)
C5 C6 C1 S1 -173.9(3)
C5 C6 C1 C2 4.6(5)
C31 O5 C30 C29 -177.8(2)
C39 O9 C38 C37 175.5(3)
C37 O8 C36 C35 172.9(3)
C35 O7 C34 C33 -161.3(3)
C36 O8 C37 C38 174.4(2)
C10 C6 C5 C4 176.6(4)
C10 C6 C1 S1 8.1(5)
C10 C6 C1 C2 -173.5(4)
C34 O7 C35 C36 -178.0(3)
C38 O9 C39 C40 174.5(3)
O1 S1 N1 K1 -109.16(10)
O1 S1 N1 C16 55.0(2)
O1 S1 O2 K1 112.29(11)
O1 S1 C1 C2 -25.0(3)
O1 S1 C1 C6 153.5(3)
N1 S1 O2 K1 -16.26(12)
N1 S1 C1 C2 99.7(3)
N1 S1 C1 C6 -81.9(3)
N1 C16 C17 C22 121.4(3)
N1 C16 C17 C18 -57.5(3)
O2 S1 N1 K1 17.38(13)
O2 S1 N1 C16 -178.50(18)
O2 S1 C1 C2 -144.7(2)
O2 S1 C1 C6 33.7(3)
C33 O6 C32 C31 176.3(3)
C1 S1 N1 K1 133.49(10)
C1 S1 N1 C16 -62.4(2)
C1 S1 O2 K1 -133.54(11)
C1 C2 C3 C4 0.5(4)
C1 C2 C7 C9 106.6(3)
C1 C2 C7 C8 -129.2(3)
C1 C6 C5 C4 -1.6(5)
C1 C6 C10 C12 -105.5(4)
C1 C6 C10 C11 131.0(4)
C1B C2B C3B C4B 176.2(7)
C1B C2B C7B C6B -176.2(7)
C2B C3B C4B C5B 0.0
C3B C2B C7B C6B 0.0
C3B C4B C5B C6B 0.0
C4B C5B C6B C7B 0.0
C5B C6B C7B C2B 0.0
C7B C2B C3B C4B 0.0
C2C C3C C4C C5C 0.0
C3C C2C C7C C6C 0.0
C3C C4C C5C C6C 0.0
C4C C5C C6C C7C 0.0
C5C C6C C7C C2C 0.0
C7C C2C C3C C4C 0.0
C1C C2C C3C C4C 177.7(14)
C1C C2C C7C C6C -177.8(14)
C1A C2A C7A C6A -175.9(12)
C1A C2A C3A C4A 176.0(12)
C2A C7A C6A C5A 0.0
C7A C2A C3A C4A 0.0
C7A C6A C5A C4A 0.0
C6A C5A C4A C3A 0.0
C5A C4A C3A C2A 0.0
C3A C2A C7A C6A 0.0
